MODEL 1
REMARK VINA RESULT:     -12.0      0.000      0.000
REMARK SMILES O=C(NCCCCCCNC(=O)c1cc(Cl)cn(Cc2ccc(Cl)cc2)c1=O)c1ccc(-c2c3nc(c(-c4cc(S(=O)(=O)[O-])ccc4F)c4ccc([nH]4)c(-c4cc(S(=O)(=O)[O-])ccc4F)c4nc(c(-c5cc(S(=O)(=O)[O-])ccc5F)c5ccc2[nH]5)C=C4)C=C3)cc1
REMARK SMILES IDX 6 1 5 2 4 3 3 4 1 5 2 6 29 8 30 9 91 10 31 11 90 12 32 13
REMARK SMILES IDX 33 14 34 15 84 16 35 17 89 18 83 19 85 20 36 21 88 22 82 23
REMARK SMILES IDX 81 24 37 26 69 27 49 28 68 29 50 30 53 31 67 32 86 33 51 34
REMARK SMILES IDX 52 35 66 37 87 38 54 39 38 40 39 41 47 42 40 43 46 44 48 45
REMARK SMILES IDX 45 46 41 47 42 48 43 49 44 50 70 51 71 52 79 53 72 54 78 55
REMARK SMILES IDX 80 56 77 57 73 58 74 59 75 60 76 61 55 62 56 63 64 64 57 65
REMARK SMILES IDX 63 66 65 67 62 68 58 69 59 70 60 71 61 72 7 73 8 74 9 75
REMARK SMILES IDX 10 76 11 77 12 79 13 80 14 81 27 82 15 83 18 84 28 85 16 86
REMARK SMILES IDX 17 87 19 88 20 89 21 90 26 91 22 92 25 93 23 94 24 95
REMARK H PARENT 3 7 85 25 53 36 10 78
REMARK Flexibility Score: inf
ROOT
ATOM      1  C   UNL A   1      35.447  22.038  26.233  1.00  0.00     0.002 C 
ENDROOT
BRANCH   1   2
ATOM      2  C   UNL A   1      36.333  21.187  25.321  1.00  0.00     0.021 C 
BRANCH   2   3
ATOM      3  C   UNL A   1      37.771  21.669  25.183  1.00  0.00     0.116 C 
BRANCH   3   4
ATOM      4  N   UNL A   1      38.728  20.702  25.690  1.00  0.00    -0.352 N 
ATOM      5  O   UNL A   1      40.663  19.944  26.537  1.00  0.00    -0.269 OA
ATOM      6  C   UNL A   1      39.907  20.899  26.362  1.00  0.00     0.251 C 
ATOM      7  H   UNL A   1      38.494  19.759  25.527  1.00  0.00     0.163 HD
BRANCH   6   8
ATOM      8  C   UNL A   1      40.279  22.239  26.874  1.00  0.00     0.039 A 
ATOM      9  C   UNL A   1      39.753  23.369  26.239  1.00  0.00     0.014 A 
ATOM     10  C   UNL A   1      41.192  22.396  27.921  1.00  0.00     0.014 A 
ATOM     11  C   UNL A   1      40.142  24.645  26.654  1.00  0.00     0.010 A 
ATOM     12  C   UNL A   1      41.504  23.669  28.396  1.00  0.00     0.010 A 
ATOM     13  C   UNL A   1      41.024  24.807  27.735  1.00  0.00    -0.014 A 
BRANCH  13  14
ATOM     14  C   UNL A   1      41.532  26.153  28.111  1.00  0.00     0.031 A 
ATOM     15  C   UNL A   1      42.932  26.557  27.718  1.00  0.00     0.074 A 
ATOM     16  C   UNL A   1      40.748  27.009  28.796  1.00  0.00     0.049 A 
ATOM     17  N   UNL A   1      43.553  27.687  27.932  1.00  0.00    -0.248 NA
ATOM     18  C   UNL A   1      43.750  25.554  27.015  1.00  0.00     0.031 C 
ATOM     19  C   UNL A   1      39.391  26.718  29.259  1.00  0.00     0.029 A 
ATOM     20  N   UNL A   1      40.971  28.300  29.211  1.00  0.00    -0.354 N 
ATOM     21  C   UNL A   1      44.832  27.522  27.407  1.00  0.00     0.074 A 
ATOM     22  C   UNL A   1      44.922  26.164  26.929  1.00  0.00     0.031 C 
ATOM     23  C   UNL A   1      38.886  27.813  29.849  1.00  0.00     0.029 A 
ATOM     24  C   UNL A   1      39.891  28.875  29.841  1.00  0.00     0.049 A 
ATOM     25  H   UNL A   1      41.826  28.770  29.071  1.00  0.00     0.167 HD
ATOM     26  C   UNL A   1      45.826  28.433  27.298  1.00  0.00     0.034 A 
ATOM     27  C   UNL A   1      39.722  30.118  30.339  1.00  0.00     0.034 A 
ATOM     28  C   UNL A   1      45.703  29.801  27.730  1.00  0.00     0.049 A 
ATOM     29  C   UNL A   1      40.841  31.122  30.185  1.00  0.00     0.074 A 
ATOM     30  C   UNL A   1      46.634  30.817  27.612  1.00  0.00     0.029 A 
ATOM     31  N   UNL A   1      44.586  30.348  28.340  1.00  0.00    -0.354 N 
ATOM     32  N   UNL A   1      42.013  30.972  29.612  1.00  0.00    -0.248 NA
ATOM     33  C   UNL A   1      40.611  32.470  30.725  1.00  0.00     0.031 C 
ATOM     34  C   UNL A   1      46.106  31.960  28.211  1.00  0.00     0.029 A 
ATOM     35  C   UNL A   1      44.812  31.684  28.621  1.00  0.00     0.049 A 
ATOM     36  H   UNL A   1      43.756  29.859  28.543  1.00  0.00     0.167 HD
ATOM     37  C   UNL A   1      42.633  32.219  29.672  1.00  0.00     0.074 A 
ATOM     38  C   UNL A   1      41.704  33.112  30.329  1.00  0.00     0.031 C 
ATOM     39  C   UNL A   1      43.861  32.585  29.225  1.00  0.00     0.034 A 
BRANCH  26  40
ATOM     40  C   UNL A   1      47.129  28.020  26.657  1.00  0.00     0.023 A 
ATOM     41  C   UNL A   1      47.275  28.095  25.260  1.00  0.00     0.031 A 
ATOM     42  C   UNL A   1      48.158  27.418  27.402  1.00  0.00     0.131 A 
ATOM     43  C   UNL A   1      48.399  27.530  24.646  1.00  0.00     0.055 A 
ATOM     44  C   UNL A   1      49.301  26.904  26.790  1.00  0.00     0.041 A 
ATOM     45  F   UNL A   1      48.068  27.322  28.739  1.00  0.00    -0.206 F 
ATOM     46  C   UNL A   1      49.418  26.943  25.404  1.00  0.00     0.022 A 
BRANCH  43  47
ATOM     47  S   UNL A   1      48.544  27.464  22.840  1.00  0.00     0.124 S 
ATOM     48  O   UNL A   1      47.355  28.200  22.416  1.00  0.00    -0.237 OA
ATOM     49  O   UNL A   1      49.815  28.144  22.611  1.00  0.00    -0.237 OA
ATOM     50  O   UNL A   1      48.527  26.036  22.539  1.00  0.00    -0.744 OA
ENDBRANCH  43  47
ENDBRANCH  26  40
BRANCH  27  51
ATOM     51  C   UNL A   1      38.406  30.503  30.932  1.00  0.00     0.023 A 
ATOM     52  C   UNL A   1      37.436  31.188  30.179  1.00  0.00     0.031 A 
ATOM     53  C   UNL A   1      38.134  30.261  32.290  1.00  0.00     0.131 A 
ATOM     54  C   UNL A   1      36.269  31.651  30.800  1.00  0.00     0.055 A 
ATOM     55  C   UNL A   1      36.937  30.660  32.887  1.00  0.00     0.041 A 
ATOM     56  F   UNL A   1      39.034  29.627  33.058  1.00  0.00    -0.206 F 
ATOM     57  C   UNL A   1      36.003  31.374  32.145  1.00  0.00     0.022 A 
BRANCH  54  58
ATOM     58  S   UNL A   1      35.112  32.736  29.918  1.00  0.00     0.124 S 
ATOM     59  O   UNL A   1      36.002  33.767  29.391  1.00  0.00    -0.237 OA
ATOM     60  O   UNL A   1      34.545  31.825  28.927  1.00  0.00    -0.237 OA
ATOM     61  O   UNL A   1      34.187  33.173  30.959  1.00  0.00    -0.744 OA
ENDBRANCH  54  58
ENDBRANCH  27  51
BRANCH  39  62
ATOM     62  C   UNL A   1      44.293  34.027  29.356  1.00  0.00     0.023 A 
ATOM     63  C   UNL A   1      44.787  34.491  30.592  1.00  0.00     0.031 A 
ATOM     64  C   UNL A   1      44.056  34.970  28.343  1.00  0.00     0.131 A 
ATOM     65  C   UNL A   1      44.980  35.862  30.800  1.00  0.00     0.055 A 
ATOM     66  C   UNL A   1      44.304  36.330  28.535  1.00  0.00     0.041 A 
ATOM     67  F   UNL A   1      43.566  34.584  27.154  1.00  0.00    -0.206 F 
ATOM     68  C   UNL A   1      44.752  36.782  29.773  1.00  0.00     0.022 A 
BRANCH  65  69
ATOM     69  S   UNL A   1      45.422  36.508  32.437  1.00  0.00     0.124 S 
ATOM     70  O   UNL A   1      46.247  37.663  32.092  1.00  0.00    -0.237 OA
ATOM     71  O   UNL A   1      44.113  36.824  33.005  1.00  0.00    -0.237 OA
ATOM     72  O   UNL A   1      46.131  35.404  33.074  1.00  0.00    -0.744 OA
ENDBRANCH  65  69
ENDBRANCH  39  62
ENDBRANCH  13  14
ENDBRANCH   6   8
ENDBRANCH   3   4
ENDBRANCH   2   3
ENDBRANCH   1   2
BRANCH   1  73
ATOM     73  C   UNL A   1      34.075  21.444  26.562  1.00  0.00     0.002 C 
BRANCH  73  74
ATOM     74  C   UNL A   1      32.877  22.348  26.258  1.00  0.00     0.021 C 
BRANCH  74  75
ATOM     75  C   UNL A   1      32.297  22.202  24.854  1.00  0.00     0.116 C 
BRANCH  75  76
ATOM     76  N   UNL A   1      33.167  22.768  23.836  1.00  0.00    -0.352 N 
ATOM     77  C   UNL A   1      33.304  24.072  23.456  1.00  0.00     0.256 C 
ATOM     78  H   UNL A   1      33.734  22.122  23.355  1.00  0.00     0.163 HD
ATOM     79  O   UNL A   1      34.049  24.370  22.522  1.00  0.00    -0.269 OA
BRANCH  77  80
ATOM     80  C   UNL A   1      32.447  25.084  24.102  1.00  0.00     0.106 A 
ATOM     81  C   UNL A   1      33.045  25.898  24.988  1.00  0.00     0.041 A 
ATOM     82  C   UNL A   1      31.005  25.273  23.748  1.00  0.00     0.263 A 
ATOM     83  C   UNL A   1      32.332  27.016  25.542  1.00  0.00     0.058 A 
ATOM     84  N   UNL A   1      30.407  26.428  24.269  1.00  0.00    -0.309 N 
ATOM     85  O   UNL A   1      30.428  24.478  23.015  1.00  0.00    -0.268 OA
ATOM     86  Cl  UNL A   1      33.141  28.046  26.657  1.00  0.00    -0.083 Cl
ATOM     87  C   UNL A   1      31.080  27.272  25.144  1.00  0.00     0.110 A 
BRANCH  84  88
ATOM     88  C   UNL A   1      29.021  26.727  23.899  1.00  0.00     0.161 C 
BRANCH  88  89
ATOM     89  C   UNL A   1      28.882  28.059  23.191  1.00  0.00    -0.028 A 
ATOM     90  C   UNL A   1      27.653  28.734  23.162  1.00  0.00     0.007 A 
ATOM     91  C   UNL A   1      29.983  28.633  22.535  1.00  0.00     0.007 A 
ATOM     92  C   UNL A   1      27.514  29.937  22.469  1.00  0.00     0.021 A 
ATOM     93  C   UNL A   1      29.849  29.850  21.860  1.00  0.00     0.021 A 
ATOM     94  C   UNL A   1      28.613  30.490  21.820  1.00  0.00     0.041 A 
ATOM     95  Cl  UNL A   1      28.437  31.972  20.963  1.00  0.00    -0.084 Cl
ENDBRANCH  88  89
ENDBRANCH  84  88
ENDBRANCH  77  80
ENDBRANCH  75  76
ENDBRANCH  74  75
ENDBRANCH  73  74
ENDBRANCH   1  73
TORSDOF 18
ENDMDL
MODEL 2
REMARK VINA RESULT:     -12.0      3.228      4.106
REMARK SMILES O=C(NCCCCCCNC(=O)c1cc(Cl)cn(Cc2ccc(Cl)cc2)c1=O)c1ccc(-c2c3nc(c(-c4cc(S(=O)(=O)[O-])ccc4F)c4ccc([nH]4)c(-c4cc(S(=O)(=O)[O-])ccc4F)c4nc(c(-c5cc(S(=O)(=O)[O-])ccc5F)c5ccc2[nH]5)C=C4)C=C3)cc1
REMARK SMILES IDX 6 1 5 2 4 3 3 4 1 5 2 6 29 8 30 9 91 10 31 11 90 12 32 13
REMARK SMILES IDX 33 14 34 15 84 16 35 17 89 18 83 19 85 20 36 21 88 22 82 23
REMARK SMILES IDX 81 24 37 26 69 27 49 28 68 29 50 30 53 31 67 32 86 33 51 34
REMARK SMILES IDX 52 35 66 37 87 38 54 39 38 40 39 41 47 42 40 43 46 44 48 45
REMARK SMILES IDX 45 46 41 47 42 48 43 49 44 50 70 51 71 52 79 53 72 54 78 55
REMARK SMILES IDX 80 56 77 57 73 58 74 59 75 60 76 61 55 62 56 63 64 64 57 65
REMARK SMILES IDX 63 66 65 67 62 68 58 69 59 70 60 71 61 72 7 73 8 74 9 75
REMARK SMILES IDX 10 76 11 77 12 79 13 80 14 81 27 82 15 83 18 84 28 85 16 86
REMARK SMILES IDX 17 87 19 88 20 89 21 90 26 91 22 92 25 93 23 94 24 95
REMARK H PARENT 3 7 85 25 53 36 10 78
REMARK Flexibility Score: inf
ROOT
ATOM      1  C   UNL A   1      37.095  21.238  24.716  1.00  0.00     0.002 C 
ENDROOT
BRANCH   1   2
ATOM      2  C   UNL A   1      38.176  20.164  24.851  1.00  0.00     0.021 C 
BRANCH   2   3
ATOM      3  C   UNL A   1      39.159  20.377  25.994  1.00  0.00     0.116 C 
BRANCH   3   4
ATOM      4  N   UNL A   1      40.202  19.367  26.020  1.00  0.00    -0.352 N 
ATOM      5  O   UNL A   1      42.281  18.526  25.937  1.00  0.00    -0.269 OA
ATOM      6  C   UNL A   1      41.561  19.507  26.124  1.00  0.00     0.251 C 
ATOM      7  H   UNL A   1      39.882  18.437  25.954  1.00  0.00     0.163 HD
BRANCH   6   8
ATOM      8  C   UNL A   1      42.171  20.817  26.454  1.00  0.00     0.039 A 
ATOM      9  C   UNL A   1      42.449  21.108  27.793  1.00  0.00     0.014 A 
ATOM     10  C   UNL A   1      42.402  21.786  25.473  1.00  0.00     0.014 A 
ATOM     11  C   UNL A   1      42.956  22.363  28.142  1.00  0.00     0.010 A 
ATOM     12  C   UNL A   1      42.997  23.000  25.811  1.00  0.00     0.010 A 
ATOM     13  C   UNL A   1      43.232  23.321  27.154  1.00  0.00    -0.014 A 
BRANCH  13  14
ATOM     14  C   UNL A   1      43.664  24.696  27.524  1.00  0.00     0.031 A 
ATOM     15  C   UNL A   1      45.118  25.080  27.398  1.00  0.00     0.074 A 
ATOM     16  C   UNL A   1      42.763  25.595  27.966  1.00  0.00     0.049 A 
ATOM     17  N   UNL A   1      45.691  26.227  27.650  1.00  0.00    -0.248 NA
ATOM     18  C   UNL A   1      46.054  24.032  26.957  1.00  0.00     0.031 C 
ATOM     19  C   UNL A   1      41.337  25.330  28.161  1.00  0.00     0.029 A 
ATOM     20  N   UNL A   1      42.907  26.915  28.320  1.00  0.00    -0.354 N 
ATOM     21  C   UNL A   1      47.049  26.032  27.413  1.00  0.00     0.074 A 
ATOM     22  C   UNL A   1      47.224  24.643  27.067  1.00  0.00     0.031 C 
ATOM     23  C   UNL A   1      40.731  26.462  28.550  1.00  0.00     0.029 A 
ATOM     24  C   UNL A   1      41.724  27.528  28.669  1.00  0.00     0.049 A 
ATOM     25  H   UNL A   1      43.775  27.380  28.323  1.00  0.00     0.167 HD
ATOM     26  C   UNL A   1      48.052  26.940  27.442  1.00  0.00     0.034 A 
ATOM     27  C   UNL A   1      41.467  28.805  29.026  1.00  0.00     0.034 A 
ATOM     28  C   UNL A   1      47.854  28.335  27.735  1.00  0.00     0.049 A 
ATOM     29  C   UNL A   1      42.602  29.802  29.030  1.00  0.00     0.074 A 
ATOM     30  C   UNL A   1      48.798  29.346  27.735  1.00  0.00     0.029 A 
ATOM     31  N   UNL A   1      46.640  28.918  28.059  1.00  0.00    -0.354 N 
ATOM     32  N   UNL A   1      43.866  29.618  28.724  1.00  0.00    -0.248 NA
ATOM     33  C   UNL A   1      42.278  31.186  29.408  1.00  0.00     0.031 C 
ATOM     34  C   UNL A   1      48.168  30.527  28.124  1.00  0.00     0.029 A 
ATOM     35  C   UNL A   1      46.814  30.274  28.279  1.00  0.00     0.049 A 
ATOM     36  H   UNL A   1      45.781  28.440  28.124  1.00  0.00     0.167 HD
ATOM     37  C   UNL A   1      44.470  30.870  28.816  1.00  0.00     0.074 A 
ATOM     38  C   UNL A   1      43.433  31.804  29.198  1.00  0.00     0.031 C 
ATOM     39  C   UNL A   1      45.767  31.210  28.604  1.00  0.00     0.034 A 
BRANCH  26  40
ATOM     40  C   UNL A   1      49.455  26.490  27.116  1.00  0.00     0.023 A 
ATOM     41  C   UNL A   1      50.457  26.558  28.102  1.00  0.00     0.031 A 
ATOM     42  C   UNL A   1      49.833  26.142  25.807  1.00  0.00     0.131 A 
ATOM     43  C   UNL A   1      51.794  26.332  27.753  1.00  0.00     0.055 A 
ATOM     44  C   UNL A   1      51.159  25.866  25.476  1.00  0.00     0.041 A 
ATOM     45  F   UNL A   1      48.915  26.063  24.830  1.00  0.00    -0.206 F 
ATOM     46  C   UNL A   1      52.150  25.978  26.447  1.00  0.00     0.022 A 
BRANCH  43  47
ATOM     47  S   UNL A   1      53.128  26.568  28.957  1.00  0.00     0.124 S 
ATOM     48  O   UNL A   1      53.253  28.025  28.986  1.00  0.00    -0.237 OA
ATOM     49  O   UNL A   1      52.563  25.966  30.160  1.00  0.00    -0.237 OA
ATOM     50  O   UNL A   1      54.261  25.863  28.369  1.00  0.00    -0.744 OA
ENDBRANCH  43  47
ENDBRANCH  26  40
BRANCH  27  51
ATOM     51  C   UNL A   1      40.060  29.223  29.305  1.00  0.00     0.023 A 
ATOM     52  C   UNL A   1      39.581  29.348  30.621  1.00  0.00     0.031 A 
ATOM     53  C   UNL A   1      39.151  29.425  28.251  1.00  0.00     0.131 A 
ATOM     54  C   UNL A   1      38.223  29.613  30.846  1.00  0.00     0.055 A 
ATOM     55  C   UNL A   1      37.816  29.761  28.480  1.00  0.00     0.041 A 
ATOM     56  F   UNL A   1      39.554  29.301  26.977  1.00  0.00    -0.206 F 
ATOM     57  C   UNL A   1      37.342  29.840  29.784  1.00  0.00     0.022 A 
BRANCH  54  58
ATOM     58  S   UNL A   1      37.528  29.547  32.521  1.00  0.00     0.124 S 
ATOM     59  O   UNL A   1      37.588  28.120  32.821  1.00  0.00    -0.237 OA
ATOM     60  O   UNL A   1      38.462  30.389  33.264  1.00  0.00    -0.237 OA
ATOM     61  O   UNL A   1      36.188  30.103  32.360  1.00  0.00    -0.744 OA
ENDBRANCH  54  58
ENDBRANCH  27  51
BRANCH  39  62
ATOM     62  C   UNL A   1      46.175  32.662  28.713  1.00  0.00     0.023 A 
ATOM     63  C   UNL A   1      46.310  33.432  27.540  1.00  0.00     0.031 A 
ATOM     64  C   UNL A   1      46.598  33.226  29.928  1.00  0.00     0.131 A 
ATOM     65  C   UNL A   1      46.898  34.701  27.599  1.00  0.00     0.055 A 
ATOM     66  C   UNL A   1      47.131  34.515  29.990  1.00  0.00     0.041 A 
ATOM     67  F   UNL A   1      46.511  32.528  31.071  1.00  0.00    -0.206 F 
ATOM     68  C   UNL A   1      47.299  35.250  28.820  1.00  0.00     0.022 A 
BRANCH  65  69
ATOM     69  S   UNL A   1      47.268  35.632  26.086  1.00  0.00     0.124 S 
ATOM     70  O   UNL A   1      46.463  34.924  25.093  1.00  0.00    -0.237 OA
ATOM     71  O   UNL A   1      46.799  36.972  26.428  1.00  0.00    -0.237 OA
ATOM     72  O   UNL A   1      48.713  35.494  25.930  1.00  0.00    -0.744 OA
ENDBRANCH  65  69
ENDBRANCH  39  62
ENDBRANCH  13  14
ENDBRANCH   6   8
ENDBRANCH   3   4
ENDBRANCH   2   3
ENDBRANCH   1   2
BRANCH   1  73
ATOM     73  C   UNL A   1      35.816  20.994  25.522  1.00  0.00     0.002 C 
BRANCH  73  74
ATOM     74  C   UNL A   1      35.415  22.121  26.477  1.00  0.00     0.021 C 
BRANCH  74  75
ATOM     75  C   UNL A   1      34.015  21.999  27.070  1.00  0.00     0.116 C 
BRANCH  75  76
ATOM     76  N   UNL A   1      33.260  20.904  26.482  1.00  0.00    -0.352 N 
ATOM     77  C   UNL A   1      32.439  20.919  25.392  1.00  0.00     0.256 C 
ATOM     78  H   UNL A   1      33.354  20.032  26.932  1.00  0.00     0.163 HD
ATOM     79  O   UNL A   1      31.822  19.905  25.066  1.00  0.00    -0.269 OA
BRANCH  77  80
ATOM     80  C   UNL A   1      32.215  22.204  24.702  1.00  0.00     0.106 A 
ATOM     81  C   UNL A   1      32.840  22.367  23.523  1.00  0.00     0.041 A 
ATOM     82  C   UNL A   1      31.282  23.252  25.220  1.00  0.00     0.263 A 
ATOM     83  C   UNL A   1      32.552  23.512  22.703  1.00  0.00     0.058 A 
ATOM     84  N   UNL A   1      30.997  24.295  24.328  1.00  0.00    -0.309 N 
ATOM     85  O   UNL A   1      30.783  23.155  26.335  1.00  0.00    -0.268 OA
ATOM     86  Cl  UNL A   1      33.358  23.673  21.192  1.00  0.00    -0.083 Cl
ATOM     87  C   UNL A   1      31.630  24.399  23.095  1.00  0.00     0.110 A 
BRANCH  84  88
ATOM     88  C   UNL A   1      30.026  25.316  24.731  1.00  0.00     0.161 C 
BRANCH  88  89
ATOM     89  C   UNL A   1      30.686  26.610  25.159  1.00  0.00    -0.028 A 
ATOM     90  C   UNL A   1      30.760  27.704  24.284  1.00  0.00     0.007 A 
ATOM     91  C   UNL A   1      31.252  26.730  26.438  1.00  0.00     0.007 A 
ATOM     92  C   UNL A   1      31.409  28.879  24.662  1.00  0.00     0.021 A 
ATOM     93  C   UNL A   1      31.884  27.915  26.825  1.00  0.00     0.021 A 
ATOM     94  C   UNL A   1      31.970  28.980  25.931  1.00  0.00     0.041 A 
ATOM     95  Cl  UNL A   1      32.775  30.430  26.393  1.00  0.00    -0.084 Cl
ENDBRANCH  88  89
ENDBRANCH  84  88
ENDBRANCH  77  80
ENDBRANCH  75  76
ENDBRANCH  74  75
ENDBRANCH  73  74
ENDBRANCH   1  73
TORSDOF 18
ENDMDL
MODEL 3
REMARK VINA RESULT:     -11.9      5.348     10.641
REMARK SMILES O=C(NCCCCCCNC(=O)c1cc(Cl)cn(Cc2ccc(Cl)cc2)c1=O)c1ccc(-c2c3nc(c(-c4cc(S(=O)(=O)[O-])ccc4F)c4ccc([nH]4)c(-c4cc(S(=O)(=O)[O-])ccc4F)c4nc(c(-c5cc(S(=O)(=O)[O-])ccc5F)c5ccc2[nH]5)C=C4)C=C3)cc1
REMARK SMILES IDX 6 1 5 2 4 3 3 4 1 5 2 6 29 8 30 9 91 10 31 11 90 12 32 13
REMARK SMILES IDX 33 14 34 15 84 16 35 17 89 18 83 19 85 20 36 21 88 22 82 23
REMARK SMILES IDX 81 24 37 26 69 27 49 28 68 29 50 30 53 31 67 32 86 33 51 34
REMARK SMILES IDX 52 35 66 37 87 38 54 39 38 40 39 41 47 42 40 43 46 44 48 45
REMARK SMILES IDX 45 46 41 47 42 48 43 49 44 50 70 51 71 52 79 53 72 54 78 55
REMARK SMILES IDX 80 56 77 57 73 58 74 59 75 60 76 61 55 62 56 63 64 64 57 65
REMARK SMILES IDX 63 66 65 67 62 68 58 69 59 70 60 71 61 72 7 73 8 74 9 75
REMARK SMILES IDX 10 76 11 77 12 79 13 80 14 81 27 82 15 83 18 84 28 85 16 86
REMARK SMILES IDX 17 87 19 88 20 89 21 90 26 91 22 92 25 93 23 94 24 95
REMARK H PARENT 3 7 85 25 53 36 10 78
REMARK Flexibility Score: inf
ROOT
ATOM      1  C   UNL A   1      31.835  30.529  25.947  1.00  0.00     0.002 C 
ENDROOT
BRANCH   1   2
ATOM      2  C   UNL A   1      31.572  31.898  26.576  1.00  0.00     0.021 C 
BRANCH   2   3
ATOM      3  C   UNL A   1      32.760  32.515  27.304  1.00  0.00     0.116 C 
BRANCH   3   4
ATOM      4  N   UNL A   1      32.505  33.883  27.716  1.00  0.00    -0.352 N 
ATOM      5  O   UNL A   1      32.596  35.712  29.013  1.00  0.00    -0.269 OA
ATOM      6  C   UNL A   1      33.092  34.629  28.705  1.00  0.00     0.251 C 
ATOM      7  H   UNL A   1      31.801  34.347  27.206  1.00  0.00     0.163 HD
BRANCH   6   8
ATOM      8  C   UNL A   1      34.309  34.149  29.402  1.00  0.00     0.039 A 
ATOM      9  C   UNL A   1      35.554  34.365  28.803  1.00  0.00     0.014 A 
ATOM     10  C   UNL A   1      34.233  33.428  30.597  1.00  0.00     0.014 A 
ATOM     11  C   UNL A   1      36.712  33.860  29.400  1.00  0.00     0.010 A 
ATOM     12  C   UNL A   1      35.396  33.010  31.240  1.00  0.00     0.010 A 
ATOM     13  C   UNL A   1      36.643  33.176  30.624  1.00  0.00    -0.014 A 
BRANCH  13  14
ATOM     14  C   UNL A   1      37.852  32.537  31.211  1.00  0.00     0.031 A 
ATOM     15  C   UNL A   1      38.382  33.023  32.537  1.00  0.00     0.074 A 
ATOM     16  C   UNL A   1      38.470  31.530  30.564  1.00  0.00     0.049 A 
ATOM     17  N   UNL A   1      39.406  32.589  33.224  1.00  0.00    -0.248 NA
ATOM     18  C   UNL A   1      37.686  34.161  33.163  1.00  0.00     0.031 C 
ATOM     19  C   UNL A   1      38.071  30.997  29.261  1.00  0.00     0.029 A 
ATOM     20  N   UNL A   1      39.555  30.764  30.916  1.00  0.00    -0.354 N 
ATOM     21  C   UNL A   1      39.484  33.408  34.347  1.00  0.00     0.074 A 
ATOM     22  C   UNL A   1      38.451  34.407  34.216  1.00  0.00     0.031 C 
ATOM     23  C   UNL A   1      38.866  29.963  28.948  1.00  0.00     0.029 A 
ATOM     24  C   UNL A   1      39.857  29.776  30.006  1.00  0.00     0.049 A 
ATOM     25  H   UNL A   1      40.070  30.910  31.744  1.00  0.00     0.167 HD
ATOM     26  C   UNL A   1      40.316  33.311  35.410  1.00  0.00     0.034 A 
ATOM     27  C   UNL A   1      40.809  28.819  30.031  1.00  0.00     0.034 A 
ATOM     28  C   UNL A   1      41.305  32.276  35.552  1.00  0.00     0.049 A 
ATOM     29  C   UNL A   1      41.711  28.720  31.239  1.00  0.00     0.074 A 
ATOM     30  C   UNL A   1      42.160  32.057  36.618  1.00  0.00     0.029 A 
ATOM     31  N   UNL A   1      41.561  31.282  34.621  1.00  0.00    -0.354 N 
ATOM     32  N   UNL A   1      41.717  29.452  32.329  1.00  0.00    -0.248 NA
ATOM     33  C   UNL A   1      42.723  27.653  31.234  1.00  0.00     0.031 C 
ATOM     34  C   UNL A   1      42.978  30.973  36.302  1.00  0.00     0.029 A 
ATOM     35  C   UNL A   1      42.574  30.458  35.081  1.00  0.00     0.049 A 
ATOM     36  H   UNL A   1      41.093  31.178  33.761  1.00  0.00     0.167 HD
ATOM     37  C   UNL A   1      42.690  28.899  33.158  1.00  0.00     0.074 A 
ATOM     38  C   UNL A   1      43.245  27.767  32.449  1.00  0.00     0.031 C 
ATOM     39  C   UNL A   1      43.086  29.297  34.394  1.00  0.00     0.034 A 
BRANCH  26  40
ATOM     40  C   UNL A   1      40.189  34.311  36.532  1.00  0.00     0.023 A 
ATOM     41  C   UNL A   1      39.699  33.898  37.784  1.00  0.00     0.031 A 
ATOM     42  C   UNL A   1      40.403  35.685  36.323  1.00  0.00     0.131 A 
ATOM     43  C   UNL A   1      39.392  34.852  38.762  1.00  0.00     0.055 A 
ATOM     44  C   UNL A   1      40.146  36.627  37.318  1.00  0.00     0.041 A 
ATOM     45  F   UNL A   1      40.870  36.132  35.145  1.00  0.00    -0.206 F 
ATOM     46  C   UNL A   1      39.621  36.214  38.539  1.00  0.00     0.022 A 
BRANCH  43  47
ATOM     47  S   UNL A   1      38.610  34.371  40.325  1.00  0.00     0.124 S 
ATOM     48  O   UNL A   1      37.422  33.657  39.859  1.00  0.00    -0.237 OA
ATOM     49  O   UNL A   1      39.639  33.539  40.938  1.00  0.00    -0.237 OA
ATOM     50  O   UNL A   1      38.344  35.642  40.990  1.00  0.00    -0.744 OA
ENDBRANCH  43  47
ENDBRANCH  26  40
BRANCH  27  51
ATOM     51  C   UNL A   1      40.881  27.822  28.920  1.00  0.00     0.023 A 
ATOM     52  C   UNL A   1      41.822  27.949  27.883  1.00  0.00     0.031 A 
ATOM     53  C   UNL A   1      39.950  26.771  28.840  1.00  0.00     0.131 A 
ATOM     54  C   UNL A   1      41.775  27.074  26.789  1.00  0.00     0.055 A 
ATOM     55  C   UNL A   1      39.955  25.857  27.785  1.00  0.00     0.041 A 
ATOM     56  F   UNL A   1      39.020  26.617  29.796  1.00  0.00    -0.206 F 
ATOM     57  C   UNL A   1      40.862  26.016  26.743  1.00  0.00     0.022 A 
BRANCH  54  58
ATOM     58  S   UNL A   1      42.817  27.353  25.330  1.00  0.00     0.124 S 
ATOM     59  O   UNL A   1      42.642  26.109  24.586  1.00  0.00    -0.237 OA
ATOM     60  O   UNL A   1      42.193  28.535  24.739  1.00  0.00    -0.237 OA
ATOM     61  O   UNL A   1      44.146  27.571  25.892  1.00  0.00    -0.744 OA
ENDBRANCH  54  58
ENDBRANCH  27  51
BRANCH  39  62
ATOM     62  C   UNL A   1      44.135  28.493  35.127  1.00  0.00     0.023 A 
ATOM     63  C   UNL A   1      43.731  27.523  36.067  1.00  0.00     0.031 A 
ATOM     64  C   UNL A   1      45.503  28.797  35.037  1.00  0.00     0.131 A 
ATOM     65  C   UNL A   1      44.677  26.930  36.912  1.00  0.00     0.055 A 
ATOM     66  C   UNL A   1      46.449  28.162  35.842  1.00  0.00     0.041 A 
ATOM     67  F   UNL A   1      45.938  29.728  34.173  1.00  0.00    -0.206 F 
ATOM     68  C   UNL A   1      46.035  27.237  36.796  1.00  0.00     0.022 A 
BRANCH  65  69
ATOM     69  S   UNL A   1      44.166  25.832  38.264  1.00  0.00     0.124 S 
ATOM     70  O   UNL A   1      45.116  24.730  38.131  1.00  0.00    -0.237 OA
ATOM     71  O   UNL A   1      44.356  26.681  39.437  1.00  0.00    -0.237 OA
ATOM     72  O   UNL A   1      42.780  25.502  37.947  1.00  0.00    -0.744 OA
ENDBRANCH  65  69
ENDBRANCH  39  62
ENDBRANCH  13  14
ENDBRANCH   6   8
ENDBRANCH   3   4
ENDBRANCH   2   3
ENDBRANCH   1   2
BRANCH   1  73
ATOM     73  C   UNL A   1      31.950  29.361  26.931  1.00  0.00     0.002 C 
BRANCH  73  74
ATOM     74  C   UNL A   1      32.165  27.985  26.296  1.00  0.00     0.021 C 
BRANCH  74  75
ATOM     75  C   UNL A   1      32.165  27.969  24.770  1.00  0.00     0.116 C 
BRANCH  75  76
ATOM     76  N   UNL A   1      30.824  27.868  24.220  1.00  0.00    -0.352 N 
ATOM     77  C   UNL A   1      30.057  26.754  24.033  1.00  0.00     0.256 C 
ATOM     78  H   UNL A   1      30.412  28.719  23.943  1.00  0.00     0.163 HD
ATOM     79  O   UNL A   1      28.956  26.843  23.490  1.00  0.00    -0.269 OA
BRANCH  77  80
ATOM     80  C   UNL A   1      30.633  25.441  24.380  1.00  0.00     0.106 A 
ATOM     81  C   UNL A   1      30.169  24.860  25.499  1.00  0.00     0.041 A 
ATOM     82  C   UNL A   1      31.620  24.731  23.507  1.00  0.00     0.263 A 
ATOM     83  C   UNL A   1      30.548  23.513  25.827  1.00  0.00     0.058 A 
ATOM     84  N   UNL A   1      31.875  23.398  23.854  1.00  0.00    -0.309 N 
ATOM     85  O   UNL A   1      32.119  25.291  22.538  1.00  0.00    -0.268 OA
ATOM     86  Cl  UNL A   1      29.915  22.798  27.258  1.00  0.00    -0.083 Cl
ATOM     87  C   UNL A   1      31.334  22.820  24.995  1.00  0.00     0.110 A 
BRANCH  84  88
ATOM     88  C   UNL A   1      32.767  22.610  22.997  1.00  0.00     0.161 C 
BRANCH  88  89
ATOM     89  C   UNL A   1      34.131  22.395  23.618  1.00  0.00    -0.028 A 
ATOM     90  C   UNL A   1      35.193  23.271  23.343  1.00  0.00     0.007 A 
ATOM     91  C   UNL A   1      34.361  21.303  24.469  1.00  0.00     0.007 A 
ATOM     92  C   UNL A   1      36.461  23.046  23.878  1.00  0.00     0.021 A 
ATOM     93  C   UNL A   1      35.627  21.090  25.022  1.00  0.00     0.021 A 
ATOM     94  C   UNL A   1      36.673  21.955  24.715  1.00  0.00     0.041 A 
ATOM     95  Cl  UNL A   1      38.242  21.678  25.369  1.00  0.00    -0.084 Cl
ENDBRANCH  88  89
ENDBRANCH  84  88
ENDBRANCH  77  80
ENDBRANCH  75  76
ENDBRANCH  74  75
ENDBRANCH  73  74
ENDBRANCH   1  73
TORSDOF 18
ENDMDL
