MODEL 1
REMARK VINA RESULT:     -12.8      0.000      0.000
REMARK SMILES O=C(NCCCCCCNC(=O)[C@@H]1CCCN1S(=O)(=O)c1ccc2c3c(cccc13)C(=O)N2)c1ccc(-c2c3nc(c(-c4cc(S(=O)(=O)[O-])ccc4F)c4ccc([nH]4)c(-c4cc(S(=O)(=O)[O-])ccc4F)c4nc(c(-c5cc(S(=O)(=O)[O-])ccc5F)c5ccc2[nH]5)C=C4)C=C3)cc1
REMARK SMILES IDX 6 1 5 2 4 3 3 4 1 5 2 6 34 8 35 9 96 10 36 11 95 12 37 13
REMARK SMILES IDX 38 14 39 15 89 16 40 17 94 18 88 19 90 20 41 21 93 22 87 23
REMARK SMILES IDX 86 24 42 26 74 27 54 28 73 29 55 30 58 31 72 32 91 33 56 34
REMARK SMILES IDX 57 35 71 37 92 38 59 39 43 40 44 41 52 42 45 43 51 44 53 45
REMARK SMILES IDX 50 46 46 47 47 48 48 49 49 50 75 51 76 52 84 53 77 54 83 55
REMARK SMILES IDX 85 56 82 57 78 58 79 59 80 60 81 61 60 62 61 63 69 64 62 65
REMARK SMILES IDX 68 66 70 67 67 68 63 69 64 70 65 71 66 72 7 73 8 74 9 75
REMARK SMILES IDX 10 76 11 77 12 79 13 80 14 81 17 82 15 83 16 84 18 85 19 86
REMARK SMILES IDX 20 87 21 88 22 89 30 90 23 91 25 92 29 93 24 94 26 95 28 96
REMARK SMILES IDX 33 97 27 98 31 99 32 101
REMARK H PARENT 3 7 90 25 58 36 10 78 33 100
REMARK Flexibility Score: inf
ROOT
ATOM      1  C   UNL A   1      31.764  30.169  25.516  1.00  0.00     0.002 C 
ENDROOT
BRANCH   1   2
ATOM      2  C   UNL A   1      31.513  31.325  26.498  1.00  0.00     0.021 C 
BRANCH   2   3
ATOM      3  C   UNL A   1      32.753  31.832  27.238  1.00  0.00     0.116 C 
BRANCH   3   4
ATOM      4  N   UNL A   1      32.685  33.267  27.458  1.00  0.00    -0.352 N 
ATOM      5  O   UNL A   1      33.000  35.138  28.688  1.00  0.00    -0.269 OA
ATOM      6  C   UNL A   1      33.376  34.012  28.382  1.00  0.00     0.251 C 
ATOM      7  H   UNL A   1      32.069  33.766  26.874  1.00  0.00     0.163 HD
BRANCH   6   8
ATOM      8  C   UNL A   1      34.586  33.436  29.000  1.00  0.00     0.039 A 
ATOM      9  C   UNL A   1      35.848  33.815  28.531  1.00  0.00     0.014 A 
ATOM     10  C   UNL A   1      34.461  32.527  30.053  1.00  0.00     0.014 A 
ATOM     11  C   UNL A   1      36.988  33.216  29.061  1.00  0.00     0.010 A 
ATOM     12  C   UNL A   1      35.610  31.956  30.608  1.00  0.00     0.010 A 
ATOM     13  C   UNL A   1      36.878  32.274  30.098  1.00  0.00    -0.014 A 
BRANCH  13  14
ATOM     14  C   UNL A   1      38.105  31.639  30.642  1.00  0.00     0.031 A 
ATOM     15  C   UNL A   1      38.611  32.001  32.009  1.00  0.00     0.074 A 
ATOM     16  C   UNL A   1      38.745  30.706  29.912  1.00  0.00     0.049 A 
ATOM     17  N   UNL A   1      39.612  31.487  32.677  1.00  0.00    -0.248 NA
ATOM     18  C   UNL A   1      37.904  33.077  32.720  1.00  0.00     0.031 C 
ATOM     19  C   UNL A   1      38.351  30.285  28.568  1.00  0.00     0.029 A 
ATOM     20  N   UNL A   1      39.847  29.939  30.197  1.00  0.00    -0.354 N 
ATOM     21  C   UNL A   1      39.644  32.160  33.891  1.00  0.00     0.074 A 
ATOM     22  C   UNL A   1      38.603  33.163  33.844  1.00  0.00     0.031 C 
ATOM     23  C   UNL A   1      39.180  29.313  28.157  1.00  0.00     0.029 A 
ATOM     24  C   UNL A   1      40.183  29.065  29.191  1.00  0.00     0.049 A 
ATOM     25  H   UNL A   1      40.347  30.008  31.041  1.00  0.00     0.167 HD
ATOM     26  C   UNL A   1      40.452  31.944  34.957  1.00  0.00     0.034 A 
ATOM     27  C   UNL A   1      41.178  28.159  29.108  1.00  0.00     0.034 A 
ATOM     28  C   UNL A   1      41.499  30.953  34.985  1.00  0.00     0.049 A 
ATOM     29  C   UNL A   1      42.094  27.963  30.287  1.00  0.00     0.074 A 
ATOM     30  C   UNL A   1      42.364  30.654  36.022  1.00  0.00     0.029 A 
ATOM     31  N   UNL A   1      41.823  30.102  33.938  1.00  0.00    -0.354 N 
ATOM     32  N   UNL A   1      42.078  28.569  31.450  1.00  0.00    -0.248 NA
ATOM     33  C   UNL A   1      43.150  26.949  30.155  1.00  0.00     0.031 C 
ATOM     34  C   UNL A   1      43.247  29.666  35.584  1.00  0.00     0.029 A 
ATOM     35  C   UNL A   1      42.884  29.288  34.301  1.00  0.00     0.049 A 
ATOM     36  H   UNL A   1      41.367  30.080  33.065  1.00  0.00     0.167 HD
ATOM     37  C   UNL A   1      43.092  27.984  32.203  1.00  0.00     0.074 A 
ATOM     38  C   UNL A   1      43.700  26.973  31.363  1.00  0.00     0.031 C 
ATOM     39  C   UNL A   1      43.473  28.260  33.474  1.00  0.00     0.034 A 
BRANCH  26  40
ATOM     40  C   UNL A   1      40.233  32.768  36.199  1.00  0.00     0.023 A 
ATOM     41  C   UNL A   1      39.278  32.375  37.156  1.00  0.00     0.031 A 
ATOM     42  C   UNL A   1      40.884  34.003  36.377  1.00  0.00     0.131 A 
ATOM     43  C   UNL A   1      38.981  33.223  38.230  1.00  0.00     0.055 A 
ATOM     44  C   UNL A   1      40.612  34.826  37.470  1.00  0.00     0.041 A 
ATOM     45  F   UNL A   1      41.806  34.420  35.493  1.00  0.00    -0.206 F 
ATOM     46  C   UNL A   1      39.648  34.442  38.396  1.00  0.00     0.022 A 
BRANCH  43  47
ATOM     47  S   UNL A   1      37.690  32.800  39.430  1.00  0.00     0.124 S 
ATOM     48  O   UNL A   1      38.179  31.530  39.963  1.00  0.00    -0.237 OA
ATOM     49  O   UNL A   1      37.752  33.928  40.355  1.00  0.00    -0.237 OA
ATOM     50  O   UNL A   1      36.478  32.707  38.624  1.00  0.00    -0.744 OA
ENDBRANCH  43  47
ENDBRANCH  26  40
BRANCH  27  51
ATOM     51  C   UNL A   1      41.282  27.321  27.881  1.00  0.00     0.023 A 
ATOM     52  C   UNL A   1      40.917  25.963  27.905  1.00  0.00     0.031 A 
ATOM     53  C   UNL A   1      41.866  27.833  26.712  1.00  0.00     0.131 A 
ATOM     54  C   UNL A   1      41.206  25.148  26.802  1.00  0.00     0.055 A 
ATOM     55  C   UNL A   1      42.096  27.031  25.593  1.00  0.00     0.041 A 
ATOM     56  F   UNL A   1      42.237  29.121  26.650  1.00  0.00    -0.206 F 
ATOM     57  C   UNL A   1      41.779  25.676  25.642  1.00  0.00     0.022 A 
BRANCH  54  58
ATOM     58  S   UNL A   1      40.935  23.356  26.878  1.00  0.00     0.124 S 
ATOM     59  O   UNL A   1      39.488  23.257  26.712  1.00  0.00    -0.237 OA
ATOM     60  O   UNL A   1      41.734  22.891  25.748  1.00  0.00    -0.237 OA
ATOM     61  O   UNL A   1      41.440  22.988  28.196  1.00  0.00    -0.744 OA
ENDBRANCH  54  58
ENDBRANCH  27  51
BRANCH  39  62
ATOM     62  C   UNL A   1      44.578  27.444  34.100  1.00  0.00     0.023 A 
ATOM     63  C   UNL A   1      44.271  26.208  34.701  1.00  0.00     0.031 A 
ATOM     64  C   UNL A   1      45.879  27.951  34.249  1.00  0.00     0.131 A 
ATOM     65  C   UNL A   1      45.237  25.543  35.466  1.00  0.00     0.055 A 
ATOM     66  C   UNL A   1      46.854  27.261  34.973  1.00  0.00     0.041 A 
ATOM     67  F   UNL A   1      46.220  29.130  33.704  1.00  0.00    -0.206 F 
ATOM     68  C   UNL A   1      46.530  26.059  35.598  1.00  0.00     0.022 A 
BRANCH  65  69
ATOM     69  S   UNL A   1      44.827  24.031  36.380  1.00  0.00     0.124 S 
ATOM     70  O   UNL A   1      43.653  23.548  35.655  1.00  0.00    -0.237 OA
ATOM     71  O   UNL A   1      46.037  23.233  36.207  1.00  0.00    -0.237 OA
ATOM     72  O   UNL A   1      44.568  24.498  37.738  1.00  0.00    -0.744 OA
ENDBRANCH  65  69
ENDBRANCH  39  62
ENDBRANCH  13  14
ENDBRANCH   6   8
ENDBRANCH   3   4
ENDBRANCH   2   3
ENDBRANCH   1   2
BRANCH   1  73
ATOM     73  C   UNL A   1      31.646  28.765  26.105  1.00  0.00     0.002 C 
BRANCH  73  74
ATOM     74  C   UNL A   1      32.975  28.147  26.537  1.00  0.00     0.021 C 
BRANCH  74  75
ATOM     75  C   UNL A   1      33.212  26.692  26.164  1.00  0.00     0.116 C 
BRANCH  75  76
ATOM     76  N   UNL A   1      32.149  25.830  26.641  1.00  0.00    -0.355 N 
ATOM     77  C   UNL A   1      31.974  24.491  26.595  1.00  0.00     0.238 C 
ATOM     78  H   UNL A   1      31.414  26.313  27.083  1.00  0.00     0.163 HD
ATOM     79  O   UNL A   1      30.949  24.069  27.154  1.00  0.00    -0.273 OA
BRANCH  77  80
ATOM     80  C   UNL A   1      32.933  23.498  25.973  1.00  0.00     0.162 C 
ATOM     81  C   UNL A   1      34.339  23.606  26.575  1.00  0.00     0.032 C 
ATOM     82  N   UNL A   1      33.107  23.086  24.560  1.00  0.00    -0.185 NA
ATOM     83  C   UNL A   1      35.154  22.634  25.749  1.00  0.00     0.019 C 
ATOM     84  C   UNL A   1      34.573  22.799  24.359  1.00  0.00     0.103 C 
BRANCH  82  85
ATOM     85  S   UNL A   1      32.410  23.667  23.139  1.00  0.00     0.244 S 
ATOM     86  O   UNL A   1      33.272  23.190  22.076  1.00  0.00    -0.207 OA
ATOM     87  O   UNL A   1      31.025  23.239  23.177  1.00  0.00    -0.207 OA
BRANCH  85  88
ATOM     88  C   UNL A   1      32.360  25.439  23.022  1.00  0.00     0.090 A 
ATOM     89  C   UNL A   1      33.474  26.180  22.580  1.00  0.00     0.024 A 
ATOM     90  C   UNL A   1      31.096  26.083  23.243  1.00  0.00     0.005 A 
ATOM     91  C   UNL A   1      33.352  27.525  22.168  1.00  0.00     0.028 A 
ATOM     92  C   UNL A   1      31.049  27.391  22.857  1.00  0.00     0.019 A 
ATOM     93  C   UNL A   1      29.865  25.594  23.760  1.00  0.00     0.010 A 
ATOM     94  C   UNL A   1      32.099  28.087  22.304  1.00  0.00     0.050 A 
ATOM     95  C   UNL A   1      29.938  28.221  22.883  1.00  0.00     0.050 A 
ATOM     96  C   UNL A   1      28.721  26.419  23.843  1.00  0.00     0.002 A 
ATOM     97  N   UNL A   1      31.626  29.342  21.966  1.00  0.00    -0.321 N 
ATOM     98  C   UNL A   1      28.733  27.750  23.395  1.00  0.00     0.014 A 
ATOM     99  C   UNL A   1      30.274  29.509  22.305  1.00  0.00     0.256 C 
ATOM    100  H   UNL A   1      32.175  30.038  21.538  1.00  0.00     0.170 HD
ATOM    101  O   UNL A   1      29.632  30.525  22.104  1.00  0.00    -0.269 OA
ENDBRANCH  85  88
ENDBRANCH  82  85
ENDBRANCH  77  80
ENDBRANCH  75  76
ENDBRANCH  74  75
ENDBRANCH  73  74
ENDBRANCH   1  73
TORSDOF 18
ENDMDL
MODEL 2
REMARK VINA RESULT:     -12.4      1.201      3.493
REMARK SMILES O=C(NCCCCCCNC(=O)[C@@H]1CCCN1S(=O)(=O)c1ccc2c3c(cccc13)C(=O)N2)c1ccc(-c2c3nc(c(-c4cc(S(=O)(=O)[O-])ccc4F)c4ccc([nH]4)c(-c4cc(S(=O)(=O)[O-])ccc4F)c4nc(c(-c5cc(S(=O)(=O)[O-])ccc5F)c5ccc2[nH]5)C=C4)C=C3)cc1
REMARK SMILES IDX 6 1 5 2 4 3 3 4 1 5 2 6 34 8 35 9 96 10 36 11 95 12 37 13
REMARK SMILES IDX 38 14 39 15 89 16 40 17 94 18 88 19 90 20 41 21 93 22 87 23
REMARK SMILES IDX 86 24 42 26 74 27 54 28 73 29 55 30 58 31 72 32 91 33 56 34
REMARK SMILES IDX 57 35 71 37 92 38 59 39 43 40 44 41 52 42 45 43 51 44 53 45
REMARK SMILES IDX 50 46 46 47 47 48 48 49 49 50 75 51 76 52 84 53 77 54 83 55
REMARK SMILES IDX 85 56 82 57 78 58 79 59 80 60 81 61 60 62 61 63 69 64 62 65
REMARK SMILES IDX 68 66 70 67 67 68 63 69 64 70 65 71 66 72 7 73 8 74 9 75
REMARK SMILES IDX 10 76 11 77 12 79 13 80 14 81 17 82 15 83 16 84 18 85 19 86
REMARK SMILES IDX 20 87 21 88 22 89 30 90 23 91 25 92 29 93 24 94 26 95 28 96
REMARK SMILES IDX 33 97 27 98 31 99 32 101
REMARK H PARENT 3 7 90 25 58 36 10 78 33 100
REMARK Flexibility Score: inf
ROOT
ATOM      1  C   UNL A   1      31.733  30.272  26.318  1.00  0.00     0.002 C 
ENDROOT
BRANCH   1   2
ATOM      2  C   UNL A   1      31.617  31.752  26.718  1.00  0.00     0.021 C 
BRANCH   2   3
ATOM      3  C   UNL A   1      32.940  32.439  27.060  1.00  0.00     0.116 C 
BRANCH   3   4
ATOM      4  N   UNL A   1      32.718  33.778  27.581  1.00  0.00    -0.352 N 
ATOM      5  O   UNL A   1      32.755  35.339  29.216  1.00  0.00    -0.269 OA
ATOM      6  C   UNL A   1      33.259  34.344  28.709  1.00  0.00     0.251 C 
ATOM      7  H   UNL A   1      32.105  34.348  27.063  1.00  0.00     0.163 HD
BRANCH   6   8
ATOM      8  C   UNL A   1      34.467  33.735  29.303  1.00  0.00     0.039 A 
ATOM      9  C   UNL A   1      35.731  34.183  28.906  1.00  0.00     0.014 A 
ATOM     10  C   UNL A   1      34.336  32.727  30.259  1.00  0.00     0.014 A 
ATOM     11  C   UNL A   1      36.870  33.558  29.407  1.00  0.00     0.010 A 
ATOM     12  C   UNL A   1      35.483  32.128  30.789  1.00  0.00     0.010 A 
ATOM     13  C   UNL A   1      36.756  32.519  30.346  1.00  0.00    -0.014 A 
BRANCH  13  14
ATOM     14  C   UNL A   1      37.983  31.859  30.859  1.00  0.00     0.031 A 
ATOM     15  C   UNL A   1      38.511  32.185  32.228  1.00  0.00     0.074 A 
ATOM     16  C   UNL A   1      38.603  30.937  30.101  1.00  0.00     0.049 A 
ATOM     17  N   UNL A   1      39.514  31.646  32.871  1.00  0.00    -0.248 NA
ATOM     18  C   UNL A   1      37.825  33.253  32.971  1.00  0.00     0.031 C 
ATOM     19  C   UNL A   1      38.188  30.549  28.753  1.00  0.00     0.029 A 
ATOM     20  N   UNL A   1      39.700  30.151  30.355  1.00  0.00    -0.354 N 
ATOM     21  C   UNL A   1      39.569  32.292  34.099  1.00  0.00     0.074 A 
ATOM     22  C   UNL A   1      38.538  33.306  34.087  1.00  0.00     0.031 C 
ATOM     23  C   UNL A   1      39.001  29.578  28.310  1.00  0.00     0.029 A 
ATOM     24  C   UNL A   1      40.014  29.297  29.325  1.00  0.00     0.049 A 
ATOM     25  H   UNL A   1      40.213  30.197  31.193  1.00  0.00     0.167 HD
ATOM     26  C   UNL A   1      40.389  32.044  35.149  1.00  0.00     0.034 A 
ATOM     27  C   UNL A   1      40.999  28.383  29.209  1.00  0.00     0.034 A 
ATOM     28  C   UNL A   1      41.424  31.042  35.142  1.00  0.00     0.049 A 
ATOM     29  C   UNL A   1      41.927  28.150  30.371  1.00  0.00     0.074 A 
ATOM     30  C   UNL A   1      42.300  30.711  36.160  1.00  0.00     0.029 A 
ATOM     31  N   UNL A   1      41.726  30.211  34.072  1.00  0.00    -0.354 N 
ATOM     32  N   UNL A   1      41.933  28.731  31.548  1.00  0.00    -0.248 NA
ATOM     33  C   UNL A   1      42.970  27.129  30.203  1.00  0.00     0.031 C 
ATOM     34  C   UNL A   1      43.167  29.723  35.689  1.00  0.00     0.029 A 
ATOM     35  C   UNL A   1      42.783  29.378  34.403  1.00  0.00     0.049 A 
ATOM     36  H   UNL A   1      41.259  30.213  33.205  1.00  0.00     0.167 HD
ATOM     37  C   UNL A   1      42.950  28.119  32.274  1.00  0.00     0.074 A 
ATOM     38  C   UNL A   1      43.536  27.120  31.404  1.00  0.00     0.031 C 
ATOM     39  C   UNL A   1      43.350  28.362  33.546  1.00  0.00     0.034 A 
BRANCH  26  40
ATOM     40  C   UNL A   1      40.194  32.843  36.412  1.00  0.00     0.023 A 
ATOM     41  C   UNL A   1      39.257  32.431  37.378  1.00  0.00     0.031 A 
ATOM     42  C   UNL A   1      40.851  34.073  36.603  1.00  0.00     0.131 A 
ATOM     43  C   UNL A   1      38.982  33.257  38.474  1.00  0.00     0.055 A 
ATOM     44  C   UNL A   1      40.601  34.874  37.717  1.00  0.00     0.041 A 
ATOM     45  F   UNL A   1      41.756  34.507  35.711  1.00  0.00    -0.206 F 
ATOM     46  C   UNL A   1      39.654  34.472  38.653  1.00  0.00     0.022 A 
BRANCH  43  47
ATOM     47  S   UNL A   1      37.712  32.811  39.690  1.00  0.00     0.124 S 
ATOM     48  O   UNL A   1      37.606  34.038  40.478  1.00  0.00    -0.237 OA
ATOM     49  O   UNL A   1      36.564  32.518  38.838  1.00  0.00    -0.237 OA
ATOM     50  O   UNL A   1      38.286  31.671  40.395  1.00  0.00    -0.744 OA
ENDBRANCH  43  47
ENDBRANCH  26  40
BRANCH  27  51
ATOM     51  C   UNL A   1      41.077  27.571  27.963  1.00  0.00     0.023 A 
ATOM     52  C   UNL A   1      40.700  26.216  27.962  1.00  0.00     0.031 A 
ATOM     53  C   UNL A   1      41.650  28.103  26.797  1.00  0.00     0.131 A 
ATOM     54  C   UNL A   1      40.966  25.423  26.838  1.00  0.00     0.055 A 
ATOM     55  C   UNL A   1      41.857  27.324  25.658  1.00  0.00     0.041 A 
ATOM     56  F   UNL A   1      42.032  29.389  26.758  1.00  0.00    -0.206 F 
ATOM     57  C   UNL A   1      41.528  25.971  25.681  1.00  0.00     0.022 A 
BRANCH  54  58
ATOM     58  S   UNL A   1      40.680  23.632  26.878  1.00  0.00     0.124 S 
ATOM     59  O   UNL A   1      41.593  23.151  25.846  1.00  0.00    -0.237 OA
ATOM     60  O   UNL A   1      41.052  23.307  28.252  1.00  0.00    -0.237 OA
ATOM     61  O   UNL A   1      39.260  23.505  26.568  1.00  0.00    -0.744 OA
ENDBRANCH  54  58
ENDBRANCH  27  51
BRANCH  39  62
ATOM     62  C   UNL A   1      44.454  27.521  34.139  1.00  0.00     0.023 A 
ATOM     63  C   UNL A   1      44.142  26.276  34.719  1.00  0.00     0.031 A 
ATOM     64  C   UNL A   1      45.763  28.010  34.280  1.00  0.00     0.131 A 
ATOM     65  C   UNL A   1      45.110  25.585  35.456  1.00  0.00     0.055 A 
ATOM     66  C   UNL A   1      46.740  27.294  34.976  1.00  0.00     0.041 A 
ATOM     67  F   UNL A   1      46.110  29.197  33.755  1.00  0.00    -0.206 F 
ATOM     68  C   UNL A   1      46.411  26.084  35.580  1.00  0.00     0.022 A 
BRANCH  65  69
ATOM     69  S   UNL A   1      44.695  24.059  36.344  1.00  0.00     0.124 S 
ATOM     70  O   UNL A   1      44.639  24.521  37.730  1.00  0.00    -0.237 OA
ATOM     71  O   UNL A   1      43.408  23.704  35.754  1.00  0.00    -0.237 OA
ATOM     72  O   UNL A   1      45.800  23.158  36.035  1.00  0.00    -0.744 OA
ENDBRANCH  65  69
ENDBRANCH  39  62
ENDBRANCH  13  14
ENDBRANCH   6   8
ENDBRANCH   3   4
ENDBRANCH   2   3
ENDBRANCH   1   2
BRANCH   1  73
ATOM     73  C   UNL A   1      33.114  29.646  26.494  1.00  0.00     0.002 C 
BRANCH  73  74
ATOM     74  C   UNL A   1      33.672  28.983  25.235  1.00  0.00     0.021 C 
BRANCH  74  75
ATOM     75  C   UNL A   1      32.747  28.901  24.032  1.00  0.00     0.116 C 
BRANCH  75  76
ATOM     76  N   UNL A   1      33.118  27.826  23.135  1.00  0.00    -0.355 N 
ATOM     77  C   UNL A   1      32.521  26.653  22.824  1.00  0.00     0.238 C 
ATOM     78  H   UNL A   1      33.967  27.977  22.661  1.00  0.00     0.163 HD
ATOM     79  O   UNL A   1      33.101  25.974  21.962  1.00  0.00    -0.273 OA
BRANCH  77  80
ATOM     80  C   UNL A   1      31.214  26.150  23.399  1.00  0.00     0.162 C 
ATOM     81  C   UNL A   1      30.077  27.163  23.207  1.00  0.00     0.032 C 
ATOM     82  N   UNL A   1      30.933  25.433  24.664  1.00  0.00    -0.185 NA
ATOM     83  C   UNL A   1      28.914  26.533  23.943  1.00  0.00     0.019 C 
ATOM     84  C   UNL A   1      29.579  25.890  25.143  1.00  0.00     0.103 C 
BRANCH  82  85
ATOM     85  S   UNL A   1      31.931  25.046  25.968  1.00  0.00     0.244 S 
ATOM     86  O   UNL A   1      32.285  26.321  26.559  1.00  0.00    -0.207 OA
ATOM     87  O   UNL A   1      31.193  24.078  26.755  1.00  0.00    -0.207 OA
BRANCH  85  88
ATOM     88  C   UNL A   1      33.445  24.237  25.512  1.00  0.00     0.090 A 
ATOM     89  C   UNL A   1      34.688  24.896  25.597  1.00  0.00     0.024 A 
ATOM     90  C   UNL A   1      33.382  22.836  25.201  1.00  0.00     0.005 A 
ATOM     91  C   UNL A   1      35.907  24.185  25.564  1.00  0.00     0.028 A 
ATOM     92  C   UNL A   1      34.593  22.211  25.148  1.00  0.00     0.019 A 
ATOM     93  C   UNL A   1      32.279  21.969  24.973  1.00  0.00     0.010 A 
ATOM     94  C   UNL A   1      35.806  22.824  25.358  1.00  0.00     0.050 A 
ATOM     95  C   UNL A   1      34.815  20.855  24.949  1.00  0.00     0.050 A 
ATOM     96  C   UNL A   1      32.464  20.591  24.725  1.00  0.00     0.002 A 
ATOM     97  N   UNL A   1      36.776  21.839  25.313  1.00  0.00    -0.321 N 
ATOM     98  C   UNL A   1      33.740  20.004  24.718  1.00  0.00     0.014 A 
ATOM     99  C   UNL A   1      36.234  20.571  25.052  1.00  0.00     0.256 C 
ATOM    100  H   UNL A   1      37.737  22.008  25.447  1.00  0.00     0.170 HD
ATOM    101  O   UNL A   1      36.886  19.545  24.968  1.00  0.00    -0.269 OA
ENDBRANCH  85  88
ENDBRANCH  82  85
ENDBRANCH  77  80
ENDBRANCH  75  76
ENDBRANCH  74  75
ENDBRANCH  73  74
ENDBRANCH   1  73
TORSDOF 18
ENDMDL
MODEL 3
REMARK VINA RESULT:     -12.2      5.228     10.333
REMARK SMILES O=C(NCCCCCCNC(=O)[C@@H]1CCCN1S(=O)(=O)c1ccc2c3c(cccc13)C(=O)N2)c1ccc(-c2c3nc(c(-c4cc(S(=O)(=O)[O-])ccc4F)c4ccc([nH]4)c(-c4cc(S(=O)(=O)[O-])ccc4F)c4nc(c(-c5cc(S(=O)(=O)[O-])ccc5F)c5ccc2[nH]5)C=C4)C=C3)cc1
REMARK SMILES IDX 6 1 5 2 4 3 3 4 1 5 2 6 34 8 35 9 96 10 36 11 95 12 37 13
REMARK SMILES IDX 38 14 39 15 89 16 40 17 94 18 88 19 90 20 41 21 93 22 87 23
REMARK SMILES IDX 86 24 42 26 74 27 54 28 73 29 55 30 58 31 72 32 91 33 56 34
REMARK SMILES IDX 57 35 71 37 92 38 59 39 43 40 44 41 52 42 45 43 51 44 53 45
REMARK SMILES IDX 50 46 46 47 47 48 48 49 49 50 75 51 76 52 84 53 77 54 83 55
REMARK SMILES IDX 85 56 82 57 78 58 79 59 80 60 81 61 60 62 61 63 69 64 62 65
REMARK SMILES IDX 68 66 70 67 67 68 63 69 64 70 65 71 66 72 7 73 8 74 9 75
REMARK SMILES IDX 10 76 11 77 12 79 13 80 14 81 17 82 15 83 16 84 18 85 19 86
REMARK SMILES IDX 20 87 21 88 22 89 30 90 23 91 25 92 29 93 24 94 26 95 28 96
REMARK SMILES IDX 33 97 27 98 31 99 32 101
REMARK H PARENT 3 7 90 25 58 36 10 78 33 100
REMARK Flexibility Score: inf
ROOT
ATOM      1  C   UNL A   1      36.350  20.978  24.836  1.00  0.00     0.002 C 
ENDROOT
BRANCH   1   2
ATOM      2  C   UNL A   1      37.698  20.241  24.903  1.00  0.00     0.021 C 
BRANCH   2   3
ATOM      3  C   UNL A   1      38.769  20.921  25.758  1.00  0.00     0.116 C 
BRANCH   3   4
ATOM      4  N   UNL A   1      39.901  20.037  25.984  1.00  0.00    -0.352 N 
ATOM      5  O   UNL A   1      42.111  19.577  26.095  1.00  0.00    -0.269 OA
ATOM      6  C   UNL A   1      41.203  20.385  26.246  1.00  0.00     0.251 C 
ATOM      7  H   UNL A   1      39.711  19.072  25.944  1.00  0.00     0.163 HD
BRANCH   6   8
ATOM      8  C   UNL A   1      41.493  21.754  26.720  1.00  0.00     0.039 A 
ATOM      9  C   UNL A   1      41.655  22.785  25.789  1.00  0.00     0.014 A 
ATOM     10  C   UNL A   1      41.593  22.006  28.089  1.00  0.00     0.014 A 
ATOM     11  C   UNL A   1      42.004  24.060  26.229  1.00  0.00     0.010 A 
ATOM     12  C   UNL A   1      41.906  23.296  28.528  1.00  0.00     0.010 A 
ATOM     13  C   UNL A   1      42.142  24.324  27.602  1.00  0.00    -0.014 A 
BRANCH  13  14
ATOM     14  C   UNL A   1      42.525  25.687  28.050  1.00  0.00     0.031 A 
ATOM     15  C   UNL A   1      43.947  26.157  27.940  1.00  0.00     0.074 A 
ATOM     16  C   UNL A   1      41.576  26.516  28.524  1.00  0.00     0.049 A 
ATOM     17  N   UNL A   1      44.444  27.339  28.199  1.00  0.00    -0.248 NA
ATOM     18  C   UNL A   1      44.940  25.176  27.479  1.00  0.00     0.031 C 
ATOM     19  C   UNL A   1      40.166  26.164  28.688  1.00  0.00     0.029 A 
ATOM     20  N   UNL A   1      41.649  27.821  28.944  1.00  0.00    -0.354 N 
ATOM     21  C   UNL A   1      45.801  27.251  27.916  1.00  0.00     0.074 A 
ATOM     22  C   UNL A   1      46.061  25.883  27.524  1.00  0.00     0.031 C 
ATOM     23  C   UNL A   1      39.500  27.236  29.143  1.00  0.00     0.029 A 
ATOM     24  C   UNL A   1      40.438  28.340  29.337  1.00  0.00     0.049 A 
ATOM     25  H   UNL A   1      42.487  28.336  28.962  1.00  0.00     0.167 HD
ATOM     26  C   UNL A   1      46.737  28.229  27.955  1.00  0.00     0.034 A 
ATOM     27  C   UNL A   1      40.112  29.566  29.793  1.00  0.00     0.034 A 
ATOM     28  C   UNL A   1      46.469  29.584  28.364  1.00  0.00     0.049 A 
ATOM     29  C   UNL A   1      41.176  30.629  29.869  1.00  0.00     0.074 A 
ATOM     30  C   UNL A   1      47.351  30.648  28.428  1.00  0.00     0.029 A 
ATOM     31  N   UNL A   1      45.234  30.066  28.776  1.00  0.00    -0.354 N 
ATOM     32  N   UNL A   1      42.445  30.547  29.546  1.00  0.00    -0.248 NA
ATOM     33  C   UNL A   1      40.767  31.955  30.353  1.00  0.00     0.031 C 
ATOM     34  C   UNL A   1      46.667  31.755  28.932  1.00  0.00     0.029 A 
ATOM     35  C   UNL A   1      45.337  31.407  29.107  1.00  0.00     0.049 A 
ATOM     36  H   UNL A   1      44.407  29.534  28.825  1.00  0.00     0.167 HD
ATOM     37  C   UNL A   1      42.977  31.817  29.748  1.00  0.00     0.074 A 
ATOM     38  C   UNL A   1      41.890  32.650  30.218  1.00  0.00     0.031 C 
ATOM     39  C   UNL A   1      44.247  32.247  29.550  1.00  0.00     0.034 A 
BRANCH  26  40
ATOM     40  C   UNL A   1      48.141  27.892  27.521  1.00  0.00     0.023 A 
ATOM     41  C   UNL A   1      48.538  28.078  26.184  1.00  0.00     0.031 A 
ATOM     42  C   UNL A   1      49.047  27.277  28.405  1.00  0.00     0.131 A 
ATOM     43  C   UNL A   1      49.794  27.626  25.763  1.00  0.00     0.055 A 
ATOM     44  C   UNL A   1      50.313  26.862  27.989  1.00  0.00     0.041 A 
ATOM     45  F   UNL A   1      48.716  27.080  29.692  1.00  0.00    -0.206 F 
ATOM     46  C   UNL A   1      50.687  27.026  26.660  1.00  0.00     0.022 A 
BRANCH  43  47
ATOM     47  S   UNL A   1      50.306  27.758  24.029  1.00  0.00     0.124 S 
ATOM     48  O   UNL A   1      50.934  29.077  24.000  1.00  0.00    -0.237 OA
ATOM     49  O   UNL A   1      51.223  26.629  23.895  1.00  0.00    -0.237 OA
ATOM     50  O   UNL A   1      49.057  27.651  23.284  1.00  0.00    -0.744 OA
ENDBRANCH  43  47
ENDBRANCH  26  40
BRANCH  27  51
ATOM     51  C   UNL A   1      38.688  29.852  30.122  1.00  0.00     0.023 A 
ATOM     52  C   UNL A   1      37.845  30.479  29.187  1.00  0.00     0.031 A 
ATOM     53  C   UNL A   1      38.193  29.620  31.415  1.00  0.00     0.131 A 
ATOM     54  C   UNL A   1      36.574  30.915  29.583  1.00  0.00     0.055 A 
ATOM     55  C   UNL A   1      36.903  30.001  31.787  1.00  0.00     0.041 A 
ATOM     56  F   UNL A   1      38.967  29.032  32.341  1.00  0.00    -0.206 F 
ATOM     57  C   UNL A   1      36.092  30.667  30.872  1.00  0.00     0.022 A 
BRANCH  54  58
ATOM     58  S   UNL A   1      35.544  31.904  28.465  1.00  0.00     0.124 S 
ATOM     59  O   UNL A   1      36.462  32.964  28.058  1.00  0.00    -0.237 OA
ATOM     60  O   UNL A   1      35.211  30.926  27.433  1.00  0.00    -0.237 OA
ATOM     61  O   UNL A   1      34.431  32.328  29.308  1.00  0.00    -0.744 OA
ENDBRANCH  54  58
ENDBRANCH  27  51
BRANCH  39  62
ATOM     62  C   UNL A   1      44.573  33.701  29.791  1.00  0.00     0.023 A 
ATOM     63  C   UNL A   1      44.500  34.614  28.721  1.00  0.00     0.031 A 
ATOM     64  C   UNL A   1      45.106  34.149  31.011  1.00  0.00     0.131 A 
ATOM     65  C   UNL A   1      44.998  35.913  28.874  1.00  0.00     0.055 A 
ATOM     66  C   UNL A   1      45.558  35.460  31.173  1.00  0.00     0.041 A 
ATOM     67  F   UNL A   1      45.207  33.315  32.059  1.00  0.00    -0.206 F 
ATOM     68  C   UNL A   1      45.519  36.343  30.098  1.00  0.00     0.022 A 
BRANCH  65  69
ATOM     69  S   UNL A   1      45.062  37.061  27.471  1.00  0.00     0.124 S 
ATOM     70  O   UNL A   1      46.034  36.412  26.593  1.00  0.00    -0.237 OA
ATOM     71  O   UNL A   1      43.681  37.037  26.996  1.00  0.00    -0.237 OA
ATOM     72  O   UNL A   1      45.503  38.319  28.063  1.00  0.00    -0.744 OA
ENDBRANCH  65  69
ENDBRANCH  39  62
ENDBRANCH  13  14
ENDBRANCH   6   8
ENDBRANCH   3   4
ENDBRANCH   2   3
ENDBRANCH   1   2
BRANCH   1  73
ATOM     73  C   UNL A   1      36.335  22.253  23.996  1.00  0.00     0.002 C 
BRANCH  73  74
ATOM     74  C   UNL A   1      36.405  23.545  24.808  1.00  0.00     0.021 C 
BRANCH  74  75
ATOM     75  C   UNL A   1      35.165  24.425  24.813  1.00  0.00     0.116 C 
BRANCH  75  76
ATOM     76  N   UNL A   1      34.689  24.697  23.472  1.00  0.00    -0.355 N 
ATOM     77  C   UNL A   1      33.815  25.605  22.983  1.00  0.00     0.238 C 
ATOM     78  H   UNL A   1      35.075  24.108  22.785  1.00  0.00     0.163 HD
ATOM     79  O   UNL A   1      33.670  25.594  21.750  1.00  0.00    -0.273 OA
BRANCH  77  80
ATOM     80  C   UNL A   1      33.064  26.634  23.802  1.00  0.00     0.162 C 
ATOM     81  C   UNL A   1      34.015  27.548  24.586  1.00  0.00     0.032 C 
ATOM     82  N   UNL A   1      31.835  26.502  24.618  1.00  0.00    -0.185 NA
ATOM     83  C   UNL A   1      33.081  28.404  25.413  1.00  0.00     0.019 C 
ATOM     84  C   UNL A   1      31.978  27.437  25.791  1.00  0.00     0.103 C 
BRANCH  82  85
ATOM     85  S   UNL A   1      30.921  25.148  25.039  1.00  0.00     0.244 S 
ATOM     86  O   UNL A   1      30.155  25.559  26.199  1.00  0.00    -0.207 OA
ATOM     87  O   UNL A   1      30.225  24.753  23.830  1.00  0.00    -0.207 OA
BRANCH  85  88
ATOM     88  C   UNL A   1      31.887  23.736  25.518  1.00  0.00     0.090 A 
ATOM     89  C   UNL A   1      32.369  23.585  26.833  1.00  0.00     0.024 A 
ATOM     90  C   UNL A   1      32.030  22.674  24.562  1.00  0.00     0.005 A 
ATOM     91  C   UNL A   1      32.839  22.342  27.312  1.00  0.00     0.028 A 
ATOM     92  C   UNL A   1      32.521  21.509  25.075  1.00  0.00     0.019 A 
ATOM     93  C   UNL A   1      31.717  22.603  23.177  1.00  0.00     0.010 A 
ATOM     94  C   UNL A   1      32.873  21.315  26.390  1.00  0.00     0.050 A 
ATOM     95  C   UNL A   1      32.682  20.310  24.396  1.00  0.00     0.050 A 
ATOM     96  C   UNL A   1      31.906  21.413  22.439  1.00  0.00     0.002 A 
ATOM     97  N   UNL A   1      33.230  19.986  26.526  1.00  0.00    -0.321 N 
ATOM     98  C   UNL A   1      32.384  20.237  23.039  1.00  0.00     0.014 A 
ATOM     99  C   UNL A   1      33.143  19.285  25.314  1.00  0.00     0.256 C 
ATOM    100  H   UNL A   1      33.513  19.578  27.377  1.00  0.00     0.170 HD
ATOM    101  O   UNL A   1      33.401  18.102  25.179  1.00  0.00    -0.269 OA
ENDBRANCH  85  88
ENDBRANCH  82  85
ENDBRANCH  77  80
ENDBRANCH  75  76
ENDBRANCH  74  75
ENDBRANCH  73  74
ENDBRANCH   1  73
TORSDOF 18
ENDMDL
