MODEL 1
REMARK VINA RESULT:      -9.6      0.000      0.000
REMARK SMILES CCCCCCNC(=O)Oc1cccc(-c2ccc([C@@H](C)C(=O)NCCCCCCNC(=O)c3ccc(-c4c5nc(c(-c6cc(S(=O)(=O)[O-])ccc6F)c6ccc([nH]6)c(-c6cc(S(=O)(=O)[O-])ccc6F)c6nc(c(-c7cc(S(=O)(=O)[O-])ccc7F)c7ccc4[nH]7)C=C6)C=C5)cc3)cc2F)c1
REMARK SMILES IDX 22 1 23 2 24 3 20 5 21 6 19 7 16 8 17 9 98 10 18 11 97 12
REMARK SMILES IDX 99 13 15 14 11 15 12 16 100 17 13 18 14 19 10 20 8 21 7 22
REMARK SMILES IDX 9 24 6 25 5 26 4 27 3 28 2 29 1 30 25 31 26 32 27 33 28 34
REMARK SMILES IDX 29 35 30 36 31 37 32 38 33 40 34 41 35 42 96 43 36 44 95 45
REMARK SMILES IDX 37 46 38 47 39 48 89 49 40 50 94 51 88 52 90 53 41 54 93 55
REMARK SMILES IDX 87 56 86 57 42 59 74 60 54 61 73 62 55 63 58 64 72 65 91 66
REMARK SMILES IDX 56 67 57 68 71 70 92 71 59 72 43 73 44 74 52 75 45 76 51 77
REMARK SMILES IDX 53 78 50 79 46 80 47 81 48 82 49 83 75 84 76 85 84 86 77 87
REMARK SMILES IDX 83 88 85 89 82 90 78 91 79 92 80 93 81 94 60 95 61 96 69 97
REMARK SMILES IDX 62 98 68 99 70 100 67 101 63 102 64 103 65 104 66 105
REMARK H PARENT 24 4 7 23 31 39 90 58 58 69
REMARK Flexibility Score: inf
ROOT
ATOM      1  C   UNL A   1      37.778  32.096  30.465  1.00  0.00     0.227 C 
ATOM      2  O   UNL A   1      38.777  32.282  31.172  1.00  0.00    -0.274 OA
ATOM      3  N   UNL A   1      37.156  33.211  29.996  1.00  0.00    -0.356 N 
ATOM      4  H   UNL A   1      37.617  34.053  30.217  1.00  0.00     0.163 HD
ENDROOT
BRANCH   1   5
ATOM      5  C   UNL A   1      37.326  30.664  30.144  1.00  0.00     0.105 C 
ATOM      6  C   UNL A   1      36.288  30.108  31.120  1.00  0.00     0.023 C 
BRANCH   5   7
ATOM      7  C   UNL A   1      38.464  29.719  29.792  1.00  0.00    -0.033 A 
ATOM      8  C   UNL A   1      40.686  28.038  29.114  1.00  0.00     0.018 A 
ATOM      9  C   UNL A   1      39.985  27.892  30.321  1.00  0.00     0.012 A 
ATOM     10  C   UNL A   1      40.226  29.041  28.248  1.00  0.00     0.131 A 
ATOM     11  C   UNL A   1      38.875  28.683  30.632  1.00  0.00     0.005 A 
ATOM     12  C   UNL A   1      39.156  29.880  28.583  1.00  0.00     0.044 A 
ATOM     13  F   UNL A   1      40.797  29.222  27.046  1.00  0.00    -0.206 F 
BRANCH   8  14
ATOM     14  C   UNL A   1      41.838  27.159  28.813  1.00  0.00    -0.012 A 
ATOM     15  C   UNL A   1      43.070  25.680  27.330  1.00  0.00     0.133 A 
ATOM     16  C   UNL A   1      44.097  25.539  28.257  1.00  0.00     0.047 A 
ATOM     17  C   UNL A   1      41.950  26.473  27.594  1.00  0.00     0.056 A 
ATOM     18  C   UNL A   1      44.007  26.207  29.470  1.00  0.00     0.004 A 
ATOM     19  C   UNL A   1      42.886  26.995  29.745  1.00  0.00     0.009 A 
BRANCH  15  20
ATOM     20  O   UNL A   1      43.148  24.875  26.184  1.00  0.00    -0.410 OA
BRANCH  20  21
ATOM     21  C   UNL A   1      43.458  23.533  26.320  1.00  0.00     0.412 C 
ATOM     22  N   UNL A   1      44.495  23.152  25.515  1.00  0.00    -0.321 N 
ATOM     23  H   UNL A   1      44.748  22.200  25.534  1.00  0.00     0.167 HD
ATOM     24  O   UNL A   1      42.899  22.728  27.054  1.00  0.00    -0.224 OA
BRANCH  22  25
ATOM     25  C   UNL A   1      45.260  24.013  24.635  1.00  0.00     0.119 C 
BRANCH  25  26
ATOM     26  C   UNL A   1      46.316  24.809  25.401  1.00  0.00     0.021 C 
BRANCH  26  27
ATOM     27  C   UNL A   1      46.131  26.330  25.344  1.00  0.00     0.002 C 
BRANCH  27  28
ATOM     28  C   UNL A   1      47.272  27.105  24.677  1.00  0.00    -0.000 C 
BRANCH  28  29
ATOM     29  C   UNL A   1      48.330  26.243  23.981  1.00  0.00    -0.003 C 
ATOM     30  C   UNL A   1      49.750  26.734  24.215  1.00  0.00     0.004 C 
ENDBRANCH  28  29
ENDBRANCH  27  28
ENDBRANCH  26  27
ENDBRANCH  25  26
ENDBRANCH  22  25
ENDBRANCH  20  21
ENDBRANCH  15  20
ENDBRANCH   8  14
ENDBRANCH   5   7
ENDBRANCH   1   5
BRANCH   3  31
ATOM     31  C   UNL A   1      35.939  33.387  29.232  1.00  0.00     0.116 C 
BRANCH  31  32
ATOM     32  C   UNL A   1      34.705  33.425  30.136  1.00  0.00     0.021 C 
BRANCH  32  33
ATOM     33  C   UNL A   1      34.821  34.423  31.292  1.00  0.00     0.002 C 
BRANCH  33  34
ATOM     34  C   UNL A   1      34.544  33.834  32.682  1.00  0.00     0.002 C 
BRANCH  34  35
ATOM     35  C   UNL A   1      35.605  32.860  33.203  1.00  0.00     0.021 C 
BRANCH  35  36
ATOM     36  C   UNL A   1      36.803  33.527  33.875  1.00  0.00     0.116 C 
BRANCH  36  37
ATOM     37  N   UNL A   1      36.935  33.111  35.262  1.00  0.00    -0.352 N 
ATOM     38  C   UNL A   1      37.756  32.160  35.814  1.00  0.00     0.251 C 
ATOM     39  H   UNL A   1      36.350  33.582  35.899  1.00  0.00     0.163 HD
ATOM     40  O   UNL A   1      37.535  31.753  36.951  1.00  0.00    -0.269 OA
BRANCH  38  41
ATOM     41  C   UNL A   1      38.893  31.624  35.036  1.00  0.00     0.039 A 
ATOM     42  C   UNL A   1      40.145  32.234  35.150  1.00  0.00     0.014 A 
ATOM     43  C   UNL A   1      38.718  30.537  34.173  1.00  0.00     0.014 A 
ATOM     44  C   UNL A   1      41.233  31.719  34.441  1.00  0.00     0.010 A 
ATOM     45  C   UNL A   1      39.818  29.982  33.525  1.00  0.00     0.010 A 
ATOM     46  C   UNL A   1      41.086  30.569  33.647  1.00  0.00    -0.014 A 
BRANCH  46  47
ATOM     47  C   UNL A   1      42.242  29.977  32.924  1.00  0.00     0.031 A 
ATOM     48  C   UNL A   1      42.980  28.806  33.515  1.00  0.00     0.074 A 
ATOM     49  C   UNL A   1      42.656  30.523  31.762  1.00  0.00     0.049 A 
ATOM     50  N   UNL A   1      44.061  28.205  33.087  1.00  0.00    -0.248 NA
ATOM     51  C   UNL A   1      42.444  28.256  34.770  1.00  0.00     0.031 C 
ATOM     52  C   UNL A   1      42.034  31.671  31.099  1.00  0.00     0.029 A 
ATOM     53  N   UNL A   1      43.699  30.190  30.934  1.00  0.00    -0.354 N 
ATOM     54  C   UNL A   1      44.333  27.207  34.016  1.00  0.00     0.074 A 
ATOM     55  C   UNL A   1      43.346  27.333  35.068  1.00  0.00     0.031 C 
ATOM     56  C   UNL A   1      42.688  31.927  29.955  1.00  0.00     0.029 A 
ATOM     57  C   UNL A   1      43.808  30.999  29.826  1.00  0.00     0.049 A 
ATOM     58  H   UNL A   1      44.312  29.441  31.115  1.00  0.00     0.167 HD
ATOM     59  C   UNL A   1      45.297  26.253  33.982  1.00  0.00     0.034 A 
ATOM     60  C   UNL A   1      44.714  31.000  28.828  1.00  0.00     0.034 A 
ATOM     61  C   UNL A   1      46.272  26.138  32.925  1.00  0.00     0.049 A 
ATOM     62  C   UNL A   1      45.817  29.969  28.847  1.00  0.00     0.074 A 
ATOM     63  C   UNL A   1      47.283  25.202  32.782  1.00  0.00     0.029 A 
ATOM     64  N   UNL A   1      46.361  26.985  31.829  1.00  0.00    -0.354 N 
ATOM     65  N   UNL A   1      46.044  29.016  29.723  1.00  0.00    -0.248 NA
ATOM     66  C   UNL A   1      46.780  30.009  27.740  1.00  0.00     0.031 C 
ATOM     67  C   UNL A   1      48.019  25.521  31.638  1.00  0.00     0.029 A 
ATOM     68  C   UNL A   1      47.422  26.608  31.020  1.00  0.00     0.049 A 
ATOM     69  H   UNL A   1      45.758  27.743  31.651  1.00  0.00     0.167 HD
ATOM     70  C   UNL A   1      47.149  28.317  29.242  1.00  0.00     0.074 A 
ATOM     71  C   UNL A   1      47.532  28.950  27.997  1.00  0.00     0.031 C 
ATOM     72  C   UNL A   1      47.789  27.247  29.778  1.00  0.00     0.034 A 
BRANCH  59  73
ATOM     73  C   UNL A   1      45.345  25.271  35.128  1.00  0.00     0.023 A 
ATOM     74  C   UNL A   1      46.038  25.565  36.315  1.00  0.00     0.031 A 
ATOM     75  C   UNL A   1      44.707  24.022  35.031  1.00  0.00     0.131 A 
ATOM     76  C   UNL A   1      46.135  24.601  37.328  1.00  0.00     0.055 A 
ATOM     77  C   UNL A   1      44.738  23.097  36.078  1.00  0.00     0.041 A 
ATOM     78  F   UNL A   1      44.048  23.675  33.915  1.00  0.00    -0.206 F 
ATOM     79  C   UNL A   1      45.468  23.378  37.230  1.00  0.00     0.022 A 
BRANCH  76  80
ATOM     80  S   UNL A   1      47.260  24.913  38.715  1.00  0.00     0.124 S 
ATOM     81  O   UNL A   1      46.708  24.039  39.746  1.00  0.00    -0.237 OA
ATOM     82  O   UNL A   1      48.554  24.519  38.168  1.00  0.00    -0.237 OA
ATOM     83  O   UNL A   1      47.101  26.344  38.970  1.00  0.00    -0.744 OA
ENDBRANCH  76  80
ENDBRANCH  59  73
BRANCH  60  84
ATOM     84  C   UNL A   1      44.641  32.006  27.728  1.00  0.00     0.023 A 
ATOM     85  C   UNL A   1      45.239  33.269  27.869  1.00  0.00     0.031 A 
ATOM     86  C   UNL A   1      43.907  31.756  26.555  1.00  0.00     0.131 A 
ATOM     87  C   UNL A   1      45.032  34.256  26.892  1.00  0.00     0.055 A 
ATOM     88  C   UNL A   1      43.762  32.718  25.553  1.00  0.00     0.041 A 
ATOM     89  F   UNL A   1      43.315  30.565  26.364  1.00  0.00    -0.206 F 
ATOM     90  C   UNL A   1      44.310  33.984  25.729  1.00  0.00     0.022 A 
BRANCH  87  91
ATOM     91  S   UNL A   1      45.614  35.942  27.229  1.00  0.00     0.124 S 
ATOM     92  O   UNL A   1      46.485  36.187  26.085  1.00  0.00    -0.237 OA
ATOM     93  O   UNL A   1      44.363  36.692  27.257  1.00  0.00    -0.237 OA
ATOM     94  O   UNL A   1      46.292  35.815  28.517  1.00  0.00    -0.744 OA
ENDBRANCH  87  91
ENDBRANCH  60  84
BRANCH  72  95
ATOM     95  C   UNL A   1      48.929  26.659  28.982  1.00  0.00     0.023 A 
ATOM     96  C   UNL A   1      50.204  27.250  28.962  1.00  0.00     0.031 A 
ATOM     97  C   UNL A   1      48.728  25.493  28.220  1.00  0.00     0.131 A 
ATOM     98  C   UNL A   1      51.212  26.708  28.150  1.00  0.00     0.055 A 
ATOM     99  C   UNL A   1      49.753  24.922  27.465  1.00  0.00     0.041 A 
ATOM    100  F   UNL A   1      47.530  24.887  28.202  1.00  0.00    -0.206 F 
ATOM    101  C   UNL A   1      51.000  25.538  27.415  1.00  0.00     0.022 A 
BRANCH  98 102
ATOM    102  S   UNL A   1      52.778  27.608  27.989  1.00  0.00     0.124 S 
ATOM    103  O   UNL A   1      53.116  27.880  29.383  1.00  0.00    -0.237 OA
ATOM    104  O   UNL A   1      53.627  26.636  27.307  1.00  0.00    -0.237 OA
ATOM    105  O   UNL A   1      52.421  28.782  27.197  1.00  0.00    -0.744 OA
ENDBRANCH  98 102
ENDBRANCH  72  95
ENDBRANCH  46  47
ENDBRANCH  38  41
ENDBRANCH  36  37
ENDBRANCH  35  36
ENDBRANCH  34  35
ENDBRANCH  33  34
ENDBRANCH  32  33
ENDBRANCH  31  32
ENDBRANCH   3  31
TORSDOF 25
ENDMDL
MODEL 2
REMARK VINA RESULT:      -9.6      4.980      8.969
REMARK SMILES CCCCCCNC(=O)Oc1cccc(-c2ccc([C@@H](C)C(=O)NCCCCCCNC(=O)c3ccc(-c4c5nc(c(-c6cc(S(=O)(=O)[O-])ccc6F)c6ccc([nH]6)c(-c6cc(S(=O)(=O)[O-])ccc6F)c6nc(c(-c7cc(S(=O)(=O)[O-])ccc7F)c7ccc4[nH]7)C=C6)C=C5)cc3)cc2F)c1
REMARK SMILES IDX 22 1 23 2 24 3 20 5 21 6 19 7 16 8 17 9 98 10 18 11 97 12
REMARK SMILES IDX 99 13 15 14 11 15 12 16 100 17 13 18 14 19 10 20 8 21 7 22
REMARK SMILES IDX 9 24 6 25 5 26 4 27 3 28 2 29 1 30 25 31 26 32 27 33 28 34
REMARK SMILES IDX 29 35 30 36 31 37 32 38 33 40 34 41 35 42 96 43 36 44 95 45
REMARK SMILES IDX 37 46 38 47 39 48 89 49 40 50 94 51 88 52 90 53 41 54 93 55
REMARK SMILES IDX 87 56 86 57 42 59 74 60 54 61 73 62 55 63 58 64 72 65 91 66
REMARK SMILES IDX 56 67 57 68 71 70 92 71 59 72 43 73 44 74 52 75 45 76 51 77
REMARK SMILES IDX 53 78 50 79 46 80 47 81 48 82 49 83 75 84 76 85 84 86 77 87
REMARK SMILES IDX 83 88 85 89 82 90 78 91 79 92 80 93 81 94 60 95 61 96 69 97
REMARK SMILES IDX 62 98 68 99 70 100 67 101 63 102 64 103 65 104 66 105
REMARK H PARENT 24 4 7 23 31 39 90 58 58 69
REMARK Flexibility Score: inf
ROOT
ATOM      1  C   UNL A   1      31.250  27.076  25.873  1.00  0.00     0.227 C 
ATOM      2  O   UNL A   1      30.430  26.453  26.559  1.00  0.00    -0.274 OA
ATOM      3  N   UNL A   1      31.659  28.277  26.364  1.00  0.00    -0.356 N 
ATOM      4  H   UNL A   1      31.303  28.488  27.258  1.00  0.00     0.163 HD
ENDROOT
BRANCH   1   5
ATOM      5  C   UNL A   1      31.766  26.468  24.560  1.00  0.00     0.105 C 
ATOM      6  C   UNL A   1      30.665  25.904  23.662  1.00  0.00     0.023 C 
BRANCH   5   7
ATOM      7  C   UNL A   1      32.991  25.583  24.727  1.00  0.00    -0.033 A 
ATOM      8  C   UNL A   1      35.223  23.816  25.069  1.00  0.00     0.018 A 
ATOM      9  C   UNL A   1      35.004  24.512  23.870  1.00  0.00     0.012 A 
ATOM     10  C   UNL A   1      34.300  24.048  26.099  1.00  0.00     0.131 A 
ATOM     11  C   UNL A   1      33.940  25.406  23.719  1.00  0.00     0.005 A 
ATOM     12  C   UNL A   1      33.195  24.892  25.930  1.00  0.00     0.044 A 
ATOM     13  F   UNL A   1      34.456  23.471  27.301  1.00  0.00    -0.206 F 
BRANCH   8  14
ATOM     14  C   UNL A   1      36.380  22.901  25.196  1.00  0.00    -0.012 A 
ATOM     15  C   UNL A   1      38.510  22.269  26.180  1.00  0.00     0.133 A 
ATOM     16  C   UNL A   1      38.541  21.083  25.453  1.00  0.00     0.047 A 
ATOM     17  C   UNL A   1      37.452  23.173  26.060  1.00  0.00     0.056 A 
ATOM     18  C   UNL A   1      37.492  20.794  24.591  1.00  0.00     0.004 A 
ATOM     19  C   UNL A   1      36.435  21.698  24.458  1.00  0.00     0.009 A 
BRANCH  15  20
ATOM     20  O   UNL A   1      39.657  22.574  26.926  1.00  0.00    -0.410 OA
BRANCH  20  21
ATOM     21  C   UNL A   1      40.897  22.524  26.311  1.00  0.00     0.412 C 
ATOM     22  N   UNL A   1      41.425  23.767  26.098  1.00  0.00    -0.321 N 
ATOM     23  H   UNL A   1      42.292  23.810  25.632  1.00  0.00     0.167 HD
ATOM     24  O   UNL A   1      41.498  21.515  25.966  1.00  0.00    -0.224 OA
BRANCH  22  25
ATOM     25  C   UNL A   1      40.835  25.031  26.493  1.00  0.00     0.119 C 
BRANCH  25  26
ATOM     26  C   UNL A   1      41.204  25.404  27.928  1.00  0.00     0.021 C 
BRANCH  26  27
ATOM     27  C   UNL A   1      41.095  26.900  28.244  1.00  0.00     0.002 C 
BRANCH  27  28
ATOM     28  C   UNL A   1      40.197  27.706  27.299  1.00  0.00    -0.000 C 
BRANCH  28  29
ATOM     29  C   UNL A   1      40.866  28.908  26.626  1.00  0.00    -0.003 C 
ATOM     30  C   UNL A   1      41.938  28.512  25.624  1.00  0.00     0.004 C 
ENDBRANCH  28  29
ENDBRANCH  27  28
ENDBRANCH  26  27
ENDBRANCH  25  26
ENDBRANCH  22  25
ENDBRANCH  20  21
ENDBRANCH  15  20
ENDBRANCH   8  14
ENDBRANCH   5   7
ENDBRANCH   1   5
BRANCH   3  31
ATOM     31  C   UNL A   1      32.520  29.302  25.813  1.00  0.00     0.116 C 
BRANCH  31  32
ATOM     32  C   UNL A   1      32.673  30.486  26.772  1.00  0.00     0.021 C 
BRANCH  32  33
ATOM     33  C   UNL A   1      34.055  30.570  27.429  1.00  0.00     0.002 C 
BRANCH  33  34
ATOM     34  C   UNL A   1      34.229  31.730  28.418  1.00  0.00     0.002 C 
BRANCH  34  35
ATOM     35  C   UNL A   1      35.590  31.792  29.120  1.00  0.00     0.021 C 
BRANCH  35  36
ATOM     36  C   UNL A   1      35.526  32.198  30.590  1.00  0.00     0.116 C 
BRANCH  36  37
ATOM     37  N   UNL A   1      35.710  31.052  31.467  1.00  0.00    -0.352 N 
ATOM     38  C   UNL A   1      36.821  30.270  31.661  1.00  0.00     0.251 C 
ATOM     39  H   UNL A   1      34.921  30.801  32.000  1.00  0.00     0.163 HD
ATOM     40  O   UNL A   1      36.709  29.186  32.227  1.00  0.00    -0.269 OA
BRANCH  38  41
ATOM     41  C   UNL A   1      38.141  30.731  31.181  1.00  0.00     0.039 A 
ATOM     42  C   UNL A   1      39.004  31.372  32.073  1.00  0.00     0.014 A 
ATOM     43  C   UNL A   1      38.516  30.554  29.845  1.00  0.00     0.014 A 
ATOM     44  C   UNL A   1      40.266  31.786  31.638  1.00  0.00     0.010 A 
ATOM     45  C   UNL A   1      39.800  30.902  29.433  1.00  0.00     0.010 A 
ATOM     46  C   UNL A   1      40.687  31.526  30.323  1.00  0.00    -0.014 A 
BRANCH  46  47
ATOM     47  C   UNL A   1      42.043  31.916  29.854  1.00  0.00     0.031 A 
ATOM     48  C   UNL A   1      42.366  33.365  29.608  1.00  0.00     0.074 A 
ATOM     49  C   UNL A   1      42.964  30.963  29.605  1.00  0.00     0.049 A 
ATOM     50  N   UNL A   1      43.455  33.900  29.118  1.00  0.00    -0.248 NA
ATOM     51  C   UNL A   1      41.313  34.339  29.933  1.00  0.00     0.031 C 
ATOM     52  C   UNL A   1      42.764  29.524  29.787  1.00  0.00     0.029 A 
ATOM     53  N   UNL A   1      44.253  31.059  29.141  1.00  0.00    -0.354 N 
ATOM     54  C   UNL A   1      43.220  35.270  29.077  1.00  0.00     0.074 A 
ATOM     55  C   UNL A   1      41.858  35.475  29.523  1.00  0.00     0.031 C 
ATOM     56  C   UNL A   1      43.896  28.877  29.468  1.00  0.00     0.029 A 
ATOM     57  C   UNL A   1      44.886  29.845  29.007  1.00  0.00     0.049 A 
ATOM     58  H   UNL A   1      44.685  31.918  28.926  1.00  0.00     0.167 HD
ATOM     59  C   UNL A   1      44.069  36.269  28.730  1.00  0.00     0.034 A 
ATOM     60  C   UNL A   1      46.120  29.546  28.552  1.00  0.00     0.034 A 
ATOM     61  C   UNL A   1      45.425  36.051  28.289  1.00  0.00     0.049 A 
ATOM     62  C   UNL A   1      47.023  30.672  28.109  1.00  0.00     0.074 A 
ATOM     63  C   UNL A   1      46.377  36.989  27.927  1.00  0.00     0.029 A 
ATOM     64  N   UNL A   1      46.025  34.806  28.150  1.00  0.00    -0.354 N 
ATOM     65  N   UNL A   1      46.792  31.965  28.101  1.00  0.00    -0.248 NA
ATOM     66  C   UNL A   1      48.357  30.298  27.622  1.00  0.00     0.031 C 
ATOM     67  C   UNL A   1      47.526  36.312  27.510  1.00  0.00     0.029 A 
ATOM     68  C   UNL A   1      47.324  34.953  27.686  1.00  0.00     0.049 A 
ATOM     69  H   UNL A   1      45.592  33.945  28.352  1.00  0.00     0.167 HD
ATOM     70  C   UNL A   1      47.969  32.557  27.652  1.00  0.00     0.074 A 
ATOM     71  C   UNL A   1      48.910  31.483  27.413  1.00  0.00     0.031 C 
ATOM     72  C   UNL A   1      48.252  33.871  27.456  1.00  0.00     0.034 A 
BRANCH  59  73
ATOM     73  C   UNL A   1      43.546  37.683  28.802  1.00  0.00     0.023 A 
ATOM     74  C   UNL A   1      43.659  38.448  29.977  1.00  0.00     0.031 A 
ATOM     75  C   UNL A   1      42.912  38.273  27.694  1.00  0.00     0.131 A 
ATOM     76  C   UNL A   1      43.089  39.727  30.040  1.00  0.00     0.055 A 
ATOM     77  C   UNL A   1      42.419  39.579  27.737  1.00  0.00     0.041 A 
ATOM     78  F   UNL A   1      42.753  37.586  26.552  1.00  0.00    -0.206 F 
ATOM     79  C   UNL A   1      42.493  40.309  28.920  1.00  0.00     0.022 A 
BRANCH  76  80
ATOM     80  S   UNL A   1      43.017  40.563  31.647  1.00  0.00     0.124 S 
ATOM     81  O   UNL A   1      43.100  39.435  32.571  1.00  0.00    -0.237 OA
ATOM     82  O   UNL A   1      44.182  41.439  31.602  1.00  0.00    -0.237 OA
ATOM     83  O   UNL A   1      41.724  41.244  31.621  1.00  0.00    -0.744 OA
ENDBRANCH  76  80
ENDBRANCH  59  73
BRANCH  60  84
ATOM     84  C   UNL A   1      46.586  28.130  28.475  1.00  0.00     0.023 A 
ATOM     85  C   UNL A   1      46.259  27.326  27.371  1.00  0.00     0.031 A 
ATOM     86  C   UNL A   1      47.292  27.533  29.534  1.00  0.00     0.131 A 
ATOM     87  C   UNL A   1      46.572  25.958  27.383  1.00  0.00     0.055 A 
ATOM     88  C   UNL A   1      47.662  26.188  29.512  1.00  0.00     0.041 A 
ATOM     89  F   UNL A   1      47.633  28.254  30.616  1.00  0.00    -0.206 F 
ATOM     90  C   UNL A   1      47.284  25.386  28.439  1.00  0.00     0.022 A 
BRANCH  87  91
ATOM     91  S   UNL A   1      45.919  24.909  26.054  1.00  0.00     0.124 S 
ATOM     92  O   UNL A   1      46.027  25.796  24.900  1.00  0.00    -0.237 OA
ATOM     93  O   UNL A   1      46.838  23.777  26.083  1.00  0.00    -0.237 OA
ATOM     94  O   UNL A   1      44.556  24.616  26.492  1.00  0.00    -0.744 OA
ENDBRANCH  87  91
ENDBRANCH  60  84
BRANCH  72  95
ATOM     95  C   UNL A   1      49.656  34.214  27.022  1.00  0.00     0.023 A 
ATOM     96  C   UNL A   1      50.738  34.191  27.918  1.00  0.00     0.031 A 
ATOM     97  C   UNL A   1      49.909  34.584  25.688  1.00  0.00     0.131 A 
ATOM     98  C   UNL A   1      52.012  34.589  27.485  1.00  0.00     0.055 A 
ATOM     99  C   UNL A   1      51.191  34.915  25.248  1.00  0.00     0.041 A 
ATOM    100  F   UNL A   1      48.913  34.624  24.788  1.00  0.00    -0.206 F 
ATOM    101  C   UNL A   1      52.249  34.934  26.152  1.00  0.00     0.022 A 
BRANCH  98 102
ATOM    102  S   UNL A   1      53.340  34.742  28.712  1.00  0.00     0.124 S 
ATOM    103  O   UNL A   1      53.362  33.408  29.303  1.00  0.00    -0.237 OA
ATOM    104  O   UNL A   1      54.490  35.090  27.883  1.00  0.00    -0.237 OA
ATOM    105  O   UNL A   1      52.869  35.805  29.596  1.00  0.00    -0.744 OA
ENDBRANCH  98 102
ENDBRANCH  72  95
ENDBRANCH  46  47
ENDBRANCH  38  41
ENDBRANCH  36  37
ENDBRANCH  35  36
ENDBRANCH  34  35
ENDBRANCH  33  34
ENDBRANCH  32  33
ENDBRANCH  31  32
ENDBRANCH   3  31
TORSDOF 25
ENDMDL
MODEL 3
REMARK VINA RESULT:      -9.5      2.768      3.996
REMARK SMILES CCCCCCNC(=O)Oc1cccc(-c2ccc([C@@H](C)C(=O)NCCCCCCNC(=O)c3ccc(-c4c5nc(c(-c6cc(S(=O)(=O)[O-])ccc6F)c6ccc([nH]6)c(-c6cc(S(=O)(=O)[O-])ccc6F)c6nc(c(-c7cc(S(=O)(=O)[O-])ccc7F)c7ccc4[nH]7)C=C6)C=C5)cc3)cc2F)c1
REMARK SMILES IDX 22 1 23 2 24 3 20 5 21 6 19 7 16 8 17 9 98 10 18 11 97 12
REMARK SMILES IDX 99 13 15 14 11 15 12 16 100 17 13 18 14 19 10 20 8 21 7 22
REMARK SMILES IDX 9 24 6 25 5 26 4 27 3 28 2 29 1 30 25 31 26 32 27 33 28 34
REMARK SMILES IDX 29 35 30 36 31 37 32 38 33 40 34 41 35 42 96 43 36 44 95 45
REMARK SMILES IDX 37 46 38 47 39 48 89 49 40 50 94 51 88 52 90 53 41 54 93 55
REMARK SMILES IDX 87 56 86 57 42 59 74 60 54 61 73 62 55 63 58 64 72 65 91 66
REMARK SMILES IDX 56 67 57 68 71 70 92 71 59 72 43 73 44 74 52 75 45 76 51 77
REMARK SMILES IDX 53 78 50 79 46 80 47 81 48 82 49 83 75 84 76 85 84 86 77 87
REMARK SMILES IDX 83 88 85 89 82 90 78 91 79 92 80 93 81 94 60 95 61 96 69 97
REMARK SMILES IDX 62 98 68 99 70 100 67 101 63 102 64 103 65 104 66 105
REMARK H PARENT 24 4 7 23 31 39 90 58 58 69
REMARK Flexibility Score: inf
ROOT
ATOM      1  C   UNL A   1      37.510  32.305  30.792  1.00  0.00     0.227 C 
ATOM      2  O   UNL A   1      38.736  32.352  30.956  1.00  0.00    -0.274 OA
ATOM      3  N   UNL A   1      36.888  33.491  30.554  1.00  0.00    -0.356 N 
ATOM      4  H   UNL A   1      37.501  34.257  30.469  1.00  0.00     0.163 HD
ENDROOT
BRANCH   1   5
ATOM      5  C   UNL A   1      36.785  30.952  30.837  1.00  0.00     0.105 C 
ATOM      6  C   UNL A   1      36.082  30.668  32.165  1.00  0.00     0.023 C 
BRANCH   5   7
ATOM      7  C   UNL A   1      37.591  29.797  30.264  1.00  0.00    -0.033 A 
ATOM      8  C   UNL A   1      39.207  27.702  29.160  1.00  0.00     0.018 A 
ATOM      9  C   UNL A   1      38.702  27.639  30.468  1.00  0.00     0.012 A 
ATOM     10  C   UNL A   1      38.861  28.838  28.415  1.00  0.00     0.131 A 
ATOM     11  C   UNL A   1      37.878  28.641  30.991  1.00  0.00     0.005 A 
ATOM     12  C   UNL A   1      38.091  29.876  28.956  1.00  0.00     0.044 A 
ATOM     13  F   UNL A   1      39.250  28.964  27.136  1.00  0.00    -0.206 F 
BRANCH   8  14
ATOM     14  C   UNL A   1      40.051  26.604  28.636  1.00  0.00    -0.012 A 
ATOM     15  C   UNL A   1      40.339  24.346  27.785  1.00  0.00     0.133 A 
ATOM     16  C   UNL A   1      41.698  24.555  27.573  1.00  0.00     0.047 A 
ATOM     17  C   UNL A   1      39.518  25.347  28.311  1.00  0.00     0.056 A 
ATOM     18  C   UNL A   1      42.247  25.790  27.890  1.00  0.00     0.004 A 
ATOM     19  C   UNL A   1      41.434  26.793  28.425  1.00  0.00     0.009 A 
BRANCH  15  20
ATOM     20  O   UNL A   1      39.868  23.042  27.579  1.00  0.00    -0.410 OA
BRANCH  20  21
ATOM     21  C   UNL A   1      40.179  22.389  26.398  1.00  0.00     0.412 C 
ATOM     22  N   UNL A   1      39.076  22.161  25.622  1.00  0.00    -0.321 N 
ATOM     23  H   UNL A   1      39.218  21.668  24.781  1.00  0.00     0.167 HD
ATOM     24  O   UNL A   1      41.291  22.026  26.038  1.00  0.00    -0.224 OA
BRANCH  22  25
ATOM     25  C   UNL A   1      37.718  22.573  25.916  1.00  0.00     0.119 C 
BRANCH  25  26
ATOM     26  C   UNL A   1      37.184  23.549  24.868  1.00  0.00     0.021 C 
BRANCH  26  27
ATOM     27  C   UNL A   1      35.665  23.756  24.908  1.00  0.00     0.002 C 
BRANCH  27  28
ATOM     28  C   UNL A   1      34.876  22.679  25.660  1.00  0.00    -0.000 C 
BRANCH  28  29
ATOM     29  C   UNL A   1      34.210  23.142  26.958  1.00  0.00    -0.003 C 
ATOM     30  C   UNL A   1      33.368  22.061  27.617  1.00  0.00     0.004 C 
ENDBRANCH  28  29
ENDBRANCH  27  28
ENDBRANCH  26  27
ENDBRANCH  25  26
ENDBRANCH  22  25
ENDBRANCH  20  21
ENDBRANCH  15  20
ENDBRANCH   8  14
ENDBRANCH   5   7
ENDBRANCH   1   5
BRANCH   3  31
ATOM     31  C   UNL A   1      35.490  33.834  30.404  1.00  0.00     0.116 C 
BRANCH  31  32
ATOM     32  C   UNL A   1      34.784  33.933  31.758  1.00  0.00     0.021 C 
BRANCH  32  33
ATOM     33  C   UNL A   1      35.474  34.882  32.743  1.00  0.00     0.002 C 
BRANCH  33  34
ATOM     34  C   UNL A   1      35.863  34.247  34.085  1.00  0.00     0.002 C 
BRANCH  34  35
ATOM     35  C   UNL A   1      37.316  33.773  34.188  1.00  0.00     0.021 C 
BRANCH  35  36
ATOM     36  C   UNL A   1      37.968  34.018  35.547  1.00  0.00     0.116 C 
BRANCH  36  37
ATOM     37  N   UNL A   1      37.808  32.873  36.429  1.00  0.00    -0.352 N 
ATOM     38  C   UNL A   1      38.272  31.589  36.287  1.00  0.00     0.251 C 
ATOM     39  H   UNL A   1      37.290  33.044  37.249  1.00  0.00     0.163 HD
ATOM     40  O   UNL A   1      37.808  30.694  36.987  1.00  0.00    -0.269 OA
BRANCH  38  41
ATOM     41  C   UNL A   1      39.319  31.289  35.286  1.00  0.00     0.039 A 
ATOM     42  C   UNL A   1      40.629  31.710  35.524  1.00  0.00     0.014 A 
ATOM     43  C   UNL A   1      39.001  30.617  34.101  1.00  0.00     0.014 A 
ATOM     44  C   UNL A   1      41.632  31.407  34.600  1.00  0.00     0.010 A 
ATOM     45  C   UNL A   1      40.014  30.254  33.217  1.00  0.00     0.010 A 
ATOM     46  C   UNL A   1      41.340  30.649  33.454  1.00  0.00    -0.014 A 
BRANCH  46  47
ATOM     47  C   UNL A   1      42.401  30.276  32.482  1.00  0.00     0.031 A 
ATOM     48  C   UNL A   1      43.121  28.961  32.623  1.00  0.00     0.074 A 
ATOM     49  C   UNL A   1      42.749  31.139  31.506  1.00  0.00     0.049 A 
ATOM     50  N   UNL A   1      44.130  28.491  31.936  1.00  0.00    -0.248 NA
ATOM     51  C   UNL A   1      42.658  28.070  33.697  1.00  0.00     0.031 C 
ATOM     52  C   UNL A   1      42.138  32.451  31.279  1.00  0.00     0.029 A 
ATOM     53  N   UNL A   1      43.704  31.047  30.524  1.00  0.00    -0.354 N 
ATOM     54  C   UNL A   1      44.422  27.250  32.492  1.00  0.00     0.074 A 
ATOM     55  C   UNL A   1      43.530  27.076  33.619  1.00  0.00     0.031 C 
ATOM     56  C   UNL A   1      42.712  33.025  30.211  1.00  0.00     0.029 A 
ATOM     57  C   UNL A   1      43.767  32.152  29.706  1.00  0.00     0.049 A 
ATOM     58  H   UNL A   1      44.289  30.262  30.414  1.00  0.00     0.167 HD
ATOM     59  C   UNL A   1      45.328  26.327  32.083  1.00  0.00     0.034 A 
ATOM     60  C   UNL A   1      44.590  32.433  28.676  1.00  0.00     0.034 A 
ATOM     61  C   UNL A   1      46.209  26.513  30.956  1.00  0.00     0.049 A 
ATOM     62  C   UNL A   1      45.635  31.416  28.282  1.00  0.00     0.074 A 
ATOM     63  C   UNL A   1      47.154  25.639  30.446  1.00  0.00     0.029 A 
ATOM     64  N   UNL A   1      46.255  27.652  30.163  1.00  0.00    -0.354 N 
ATOM     65  N   UNL A   1      45.880  30.236  28.805  1.00  0.00    -0.248 NA
ATOM     66  C   UNL A   1      46.508  31.766  27.154  1.00  0.00     0.031 C 
ATOM     67  C   UNL A   1      47.813  26.273  29.388  1.00  0.00     0.029 A 
ATOM     68  C   UNL A   1      47.227  27.512  29.184  1.00  0.00     0.049 A 
ATOM     69  H   UNL A   1      45.681  28.444  30.278  1.00  0.00     0.167 HD
ATOM     70  C   UNL A   1      46.904  29.687  28.037  1.00  0.00     0.074 A 
ATOM     71  C   UNL A   1      47.220  30.659  27.010  1.00  0.00     0.031 C 
ATOM     72  C   UNL A   1      47.527  28.488  28.164  1.00  0.00     0.034 A 
BRANCH  59  73
ATOM     73  C   UNL A   1      45.415  25.042  32.871  1.00  0.00     0.023 A 
ATOM     74  C   UNL A   1      46.270  24.919  33.981  1.00  0.00     0.031 A 
ATOM     75  C   UNL A   1      44.650  23.921  32.505  1.00  0.00     0.131 A 
ATOM     76  C   UNL A   1      46.392  23.688  34.640  1.00  0.00     0.055 A 
ATOM     77  C   UNL A   1      44.714  22.721  33.217  1.00  0.00     0.041 A 
ATOM     78  F   UNL A   1      43.832  23.969  31.442  1.00  0.00    -0.206 F 
ATOM     79  C   UNL A   1      45.600  22.595  34.284  1.00  0.00     0.022 A 
BRANCH  76  80
ATOM     80  S   UNL A   1      47.700  23.497  35.881  1.00  0.00     0.124 S 
ATOM     81  O   UNL A   1      47.061  22.608  36.848  1.00  0.00    -0.237 OA
ATOM     82  O   UNL A   1      48.791  22.920  35.105  1.00  0.00    -0.237 OA
ATOM     83  O   UNL A   1      47.925  24.862  36.355  1.00  0.00    -0.744 OA
ENDBRANCH  76  80
ENDBRANCH  59  73
BRANCH  60  84
ATOM     84  C   UNL A   1      44.483  33.728  27.941  1.00  0.00     0.023 A 
ATOM     85  C   UNL A   1      44.836  34.937  28.562  1.00  0.00     0.031 A 
ATOM     86  C   UNL A   1      43.951  33.790  26.641  1.00  0.00     0.131 A 
ATOM     87  C   UNL A   1      44.587  36.157  27.915  1.00  0.00     0.055 A 
ATOM     88  C   UNL A   1      43.769  35.002  25.973  1.00  0.00     0.041 A 
ATOM     89  F   UNL A   1      43.597  32.665  25.997  1.00  0.00    -0.206 F 
ATOM     90  C   UNL A   1      44.069  36.197  26.619  1.00  0.00     0.022 A 
BRANCH  87  91
ATOM     91  S   UNL A   1      44.829  37.696  28.846  1.00  0.00     0.124 S 
ATOM     92  O   UNL A   1      43.679  38.483  28.416  1.00  0.00    -0.237 OA
ATOM     93  O   UNL A   1      44.803  37.220  30.225  1.00  0.00    -0.237 OA
ATOM     94  O   UNL A   1      46.127  38.175  28.377  1.00  0.00    -0.744 OA
ENDBRANCH  87  91
ENDBRANCH  60  84
BRANCH  72  95
ATOM     95  C   UNL A   1      48.567  28.141  27.127  1.00  0.00     0.023 A 
ATOM     96  C   UNL A   1      48.220  27.843  25.798  1.00  0.00     0.031 A 
ATOM     97  C   UNL A   1      49.928  28.095  27.481  1.00  0.00     0.131 A 
ATOM     98  C   UNL A   1      49.214  27.455  24.887  1.00  0.00     0.055 A 
ATOM     99  C   UNL A   1      50.919  27.772  26.554  1.00  0.00     0.041 A 
ATOM    100  F   UNL A   1      50.317  28.370  28.737  1.00  0.00    -0.206 F 
ATOM    101  C   UNL A   1      50.563  27.434  25.252  1.00  0.00     0.022 A 
BRANCH  98 102
ATOM    102  S   UNL A   1      48.711  26.882  23.241  1.00  0.00     0.124 S 
ATOM    103  O   UNL A   1      48.204  25.544  23.526  1.00  0.00    -0.237 OA
ATOM    104  O   UNL A   1      47.710  27.874  22.859  1.00  0.00    -0.237 OA
ATOM    105  O   UNL A   1      49.950  26.925  22.469  1.00  0.00    -0.744 OA
ENDBRANCH  98 102
ENDBRANCH  72  95
ENDBRANCH  46  47
ENDBRANCH  38  41
ENDBRANCH  36  37
ENDBRANCH  35  36
ENDBRANCH  34  35
ENDBRANCH  33  34
ENDBRANCH  32  33
ENDBRANCH  31  32
ENDBRANCH   3  31
TORSDOF 25
ENDMDL
