MODEL 1
REMARK VINA RESULT:      -8.9      0.000      0.000
REMARK SMILES CC(C)(C)N(CC(=O)NCCCCCCNC(=O)c1ccc(-c2c3nc(c(-c4cc(S(=O)(=O)[O-])ccc4F)c4ccc([nH]4)c(-c4cc(S(=O)(=O)[O-])ccc4F)c4nc(c(-c5cc(S(=O)(=O)[O-])ccc5F)c5ccc2[nH]5)C=C4)C=C3)cc1)C(=O)NCCc1cnc[nH]1
REMARK SMILES IDX 11 1 10 2 9 3 7 4 8 5 6 7 5 8 2 9 1 10 3 11 4 12 82 13 83 14
REMARK SMILES IDX 84 15 85 17 86 18 87 19 88 20 91 21 89 22 90 23 12 25 13 26
REMARK SMILES IDX 14 27 15 28 16 29 17 30 18 32 19 33 20 34 81 35 21 36 80 37
REMARK SMILES IDX 22 38 23 39 24 40 74 41 25 42 79 43 73 44 75 45 26 46 78 47
REMARK SMILES IDX 72 48 71 49 27 51 59 52 39 53 58 54 40 55 43 56 57 57 76 58
REMARK SMILES IDX 41 59 42 60 56 62 77 63 44 64 28 65 29 66 37 67 30 68 36 69
REMARK SMILES IDX 38 70 35 71 31 72 32 73 33 74 34 75 60 76 61 77 69 78 62 79
REMARK SMILES IDX 68 80 70 81 67 82 63 83 64 84 65 85 66 86 45 87 46 88 54 89
REMARK SMILES IDX 47 90 53 91 55 92 52 93 48 94 49 95 50 96 51 97
REMARK H PARENT 9 6 84 16 91 24 16 31 75 50 43 61
REMARK Flexibility Score: inf
ROOT
ATOM      1  C   UNL A   1      35.350  29.930  27.570  1.00  0.00     0.021 C 
ENDROOT
BRANCH   1   2
ATOM      2  C   UNL A   1      34.027  29.192  27.406  1.00  0.00     0.116 C 
BRANCH   2   3
ATOM      3  N   UNL A   1      33.225  29.711  26.326  1.00  0.00    -0.355 N 
ATOM      4  C   UNL A   1      32.451  29.018  25.447  1.00  0.00     0.239 C 
ATOM      5  O   UNL A   1      31.601  29.656  24.814  1.00  0.00    -0.273 OA
ATOM      6  H   UNL A   1      33.239  30.689  26.210  1.00  0.00     0.163 HD
BRANCH   4   7
ATOM      7  C   UNL A   1      32.496  27.478  25.361  1.00  0.00     0.221 C 
BRANCH   7   8
ATOM      8  N   UNL A   1      31.846  26.808  24.221  1.00  0.00    -0.311 N 
BRANCH   8   9
ATOM      9  C   UNL A   1      32.700  26.392  23.020  1.00  0.00     0.037 C 
ATOM     10  C   UNL A   1      33.524  27.542  22.378  1.00  0.00     0.034 C 
ATOM     11  C   UNL A   1      31.854  25.804  21.860  1.00  0.00     0.034 C 
ATOM     12  C   UNL A   1      33.745  25.339  23.462  1.00  0.00     0.034 C 
ENDBRANCH   8   9
BRANCH   8  13
ATOM     13  C   UNL A   1      30.558  26.317  24.278  1.00  0.00     0.318 C 
ATOM     14  O   UNL A   1      29.588  26.943  23.840  1.00  0.00    -0.249 OA
ATOM     15  N   UNL A   1      30.211  25.128  24.796  1.00  0.00    -0.338 N 
ATOM     16  H   UNL A   1      29.235  25.087  24.921  1.00  0.00     0.165 HD
BRANCH  15  17
ATOM     17  C   UNL A   1      30.821  23.880  25.229  1.00  0.00     0.124 C 
BRANCH  17  18
ATOM     18  C   UNL A   1      31.642  24.052  26.515  1.00  0.00     0.077 C 
BRANCH  18  19
ATOM     19  C   UNL A   1      32.656  22.975  26.716  1.00  0.00     0.036 A 
ATOM     20  C   UNL A   1      33.188  22.406  27.854  1.00  0.00     0.134 A 
ATOM     21  N   UNL A   1      33.319  22.359  25.683  1.00  0.00    -0.348 N 
ATOM     22  N   UNL A   1      34.135  21.466  27.535  1.00  0.00    -0.245 NA
ATOM     23  C   UNL A   1      34.188  21.457  26.224  1.00  0.00     0.196 A 
ATOM     24  H   UNL A   1      33.190  22.536  24.723  1.00  0.00     0.167 HD
ENDBRANCH  18  19
ENDBRANCH  17  18
ENDBRANCH  15  17
ENDBRANCH   8  13
ENDBRANCH   7   8
ENDBRANCH   4   7
ENDBRANCH   2   3
ENDBRANCH   1   2
BRANCH   1  25
ATOM     25  C   UNL A   1      35.310  31.092  28.568  1.00  0.00     0.002 C 
BRANCH  25  26
ATOM     26  C   UNL A   1      35.115  32.483  27.954  1.00  0.00     0.002 C 
BRANCH  26  27
ATOM     27  C   UNL A   1      33.782  33.174  28.263  1.00  0.00     0.021 C 
BRANCH  27  28
ATOM     28  C   UNL A   1      33.856  34.687  28.451  1.00  0.00     0.116 C 
BRANCH  28  29
ATOM     29  N   UNL A   1      33.295  35.104  29.723  1.00  0.00    -0.352 N 
ATOM     30  C   UNL A   1      33.630  34.742  31.000  1.00  0.00     0.251 C 
ATOM     31  H   UNL A   1      32.557  35.752  29.657  1.00  0.00     0.163 HD
ATOM     32  O   UNL A   1      32.872  35.054  31.923  1.00  0.00    -0.269 OA
BRANCH  30  33
ATOM     33  C   UNL A   1      34.863  33.972  31.288  1.00  0.00     0.039 A 
ATOM     34  C   UNL A   1      36.090  34.509  30.887  1.00  0.00     0.014 A 
ATOM     35  C   UNL A   1      34.822  32.708  31.887  1.00  0.00     0.014 A 
ATOM     36  C   UNL A   1      37.272  33.802  31.118  1.00  0.00     0.010 A 
ATOM     37  C   UNL A   1      36.009  32.034  32.180  1.00  0.00     0.010 A 
ATOM     38  C   UNL A   1      37.245  32.566  31.787  1.00  0.00    -0.014 A 
BRANCH  38  39
ATOM     39  C   UNL A   1      38.511  31.837  32.067  1.00  0.00     0.031 A 
ATOM     40  C   UNL A   1      39.305  32.128  33.312  1.00  0.00     0.074 A 
ATOM     41  C   UNL A   1      38.961  30.930  31.177  1.00  0.00     0.049 A 
ATOM     42  N   UNL A   1      40.417  31.578  33.733  1.00  0.00    -0.248 NA
ATOM     43  C   UNL A   1      38.801  33.202  34.179  1.00  0.00     0.031 C 
ATOM     44  C   UNL A   1      38.317  30.614  29.900  1.00  0.00     0.029 A 
ATOM     45  N   UNL A   1      40.063  30.114  31.206  1.00  0.00    -0.354 N 
ATOM     46  C   UNL A   1      40.751  32.243  34.909  1.00  0.00     0.074 A 
ATOM     47  C   UNL A   1      39.756  33.280  35.094  1.00  0.00     0.031 C 
ATOM     48  C   UNL A   1      39.025  29.658  29.277  1.00  0.00     0.029 A 
ATOM     49  C   UNL A   1      40.183  29.311  30.096  1.00  0.00     0.049 A 
ATOM     50  H   UNL A   1      40.706  30.105  31.950  1.00  0.00     0.167 HD
ATOM     51  C   UNL A   1      41.776  31.998  35.764  1.00  0.00     0.034 A 
ATOM     52  C   UNL A   1      41.118  28.398  29.771  1.00  0.00     0.034 A 
ATOM     53  C   UNL A   1      42.755  30.954  35.565  1.00  0.00     0.049 A 
ATOM     54  C   UNL A   1      42.227  28.114  30.750  1.00  0.00     0.074 A 
ATOM     55  C   UNL A   1      43.789  30.567  36.398  1.00  0.00     0.029 A 
ATOM     56  N   UNL A   1      42.828  30.136  34.443  1.00  0.00    -0.354 N 
ATOM     57  N   UNL A   1      42.479  28.691  31.902  1.00  0.00    -0.248 NA
ATOM     58  C   UNL A   1      43.157  27.036  30.395  1.00  0.00     0.031 C 
ATOM     59  C   UNL A   1      44.526  29.566  35.754  1.00  0.00     0.029 A 
ATOM     60  C   UNL A   1      43.909  29.270  34.550  1.00  0.00     0.049 A 
ATOM     61  H   UNL A   1      42.204  30.165  33.682  1.00  0.00     0.167 HD
ATOM     62  C   UNL A   1      43.592  28.033  32.418  1.00  0.00     0.074 A 
ATOM     63  C   UNL A   1      43.939  26.998  31.464  1.00  0.00     0.031 C 
ATOM     64  C   UNL A   1      44.266  28.263  33.575  1.00  0.00     0.034 A 
BRANCH  51  65
ATOM     65  C   UNL A   1      41.901  32.901  36.973  1.00  0.00     0.023 A 
ATOM     66  C   UNL A   1      41.231  32.622  38.178  1.00  0.00     0.031 A 
ATOM     67  C   UNL A   1      42.665  34.079  36.908  1.00  0.00     0.131 A 
ATOM     68  C   UNL A   1      41.260  33.550  39.231  1.00  0.00     0.055 A 
ATOM     69  C   UNL A   1      42.762  34.957  37.991  1.00  0.00     0.041 A 
ATOM     70  F   UNL A   1      43.315  34.412  35.781  1.00  0.00    -0.206 F 
ATOM     71  C   UNL A   1      42.042  34.704  39.154  1.00  0.00     0.022 A 
BRANCH  68  72
ATOM     72  S   UNL A   1      40.131  33.309  40.630  1.00  0.00     0.124 S 
ATOM     73  O   UNL A   1      39.206  32.313  40.095  1.00  0.00    -0.237 OA
ATOM     74  O   UNL A   1      41.029  32.849  41.683  1.00  0.00    -0.237 OA
ATOM     75  O   UNL A   1      39.553  34.636  40.837  1.00  0.00    -0.744 OA
ENDBRANCH  68  72
ENDBRANCH  51  65
BRANCH  52  76
ATOM     76  C   UNL A   1      41.043  27.686  28.465  1.00  0.00     0.023 A 
ATOM     77  C   UNL A   1      40.334  26.483  28.327  1.00  0.00     0.031 A 
ATOM     78  C   UNL A   1      41.696  28.203  27.332  1.00  0.00     0.131 A 
ATOM     79  C   UNL A   1      40.323  25.817  27.092  1.00  0.00     0.055 A 
ATOM     80  C   UNL A   1      41.644  27.560  26.094  1.00  0.00     0.041 A 
ATOM     81  F   UNL A   1      42.377  29.357  27.408  1.00  0.00    -0.206 F 
ATOM     82  C   UNL A   1      40.962  26.353  25.972  1.00  0.00     0.022 A 
BRANCH  79  83
ATOM     83  S   UNL A   1      39.501  24.204  26.981  1.00  0.00     0.124 S 
ATOM     84  O   UNL A   1      38.633  24.229  28.152  1.00  0.00    -0.237 OA
ATOM     85  O   UNL A   1      38.835  24.291  25.686  1.00  0.00    -0.237 OA
ATOM     86  O   UNL A   1      40.608  23.253  27.045  1.00  0.00    -0.744 OA
ENDBRANCH  79  83
ENDBRANCH  52  76
BRANCH  64  87
ATOM     87  C   UNL A   1      45.436  27.354  33.869  1.00  0.00     0.023 A 
ATOM     88  C   UNL A   1      45.274  26.146  34.571  1.00  0.00     0.031 A 
ATOM     89  C   UNL A   1      46.737  27.722  33.483  1.00  0.00     0.131 A 
ATOM     90  C   UNL A   1      46.399  25.389  34.935  1.00  0.00     0.055 A 
ATOM     91  C   UNL A   1      47.846  26.930  33.788  1.00  0.00     0.041 A 
ATOM     92  F   UNL A   1      46.955  28.865  32.813  1.00  0.00    -0.206 F 
ATOM     93  C   UNL A   1      47.682  25.766  34.533  1.00  0.00     0.022 A 
BRANCH  90  94
ATOM     94  S   UNL A   1      46.174  23.976  36.049  1.00  0.00     0.124 S 
ATOM     95  O   UNL A   1      46.017  24.632  37.344  1.00  0.00    -0.237 OA
ATOM     96  O   UNL A   1      44.976  23.340  35.507  1.00  0.00    -0.237 OA
ATOM     97  O   UNL A   1      47.409  23.211  35.887  1.00  0.00    -0.744 OA
ENDBRANCH  90  94
ENDBRANCH  64  87
ENDBRANCH  38  39
ENDBRANCH  30  33
ENDBRANCH  28  29
ENDBRANCH  27  28
ENDBRANCH  26  27
ENDBRANCH  25  26
ENDBRANCH   1  25
TORSDOF 22
ENDMDL
MODEL 2
REMARK VINA RESULT:      -8.9      1.693      2.075
REMARK SMILES CC(C)(C)N(CC(=O)NCCCCCCNC(=O)c1ccc(-c2c3nc(c(-c4cc(S(=O)(=O)[O-])ccc4F)c4ccc([nH]4)c(-c4cc(S(=O)(=O)[O-])ccc4F)c4nc(c(-c5cc(S(=O)(=O)[O-])ccc5F)c5ccc2[nH]5)C=C4)C=C3)cc1)C(=O)NCCc1cnc[nH]1
REMARK SMILES IDX 11 1 10 2 9 3 7 4 8 5 6 7 5 8 2 9 1 10 3 11 4 12 82 13 83 14
REMARK SMILES IDX 84 15 85 17 86 18 87 19 88 20 91 21 89 22 90 23 12 25 13 26
REMARK SMILES IDX 14 27 15 28 16 29 17 30 18 32 19 33 20 34 81 35 21 36 80 37
REMARK SMILES IDX 22 38 23 39 24 40 74 41 25 42 79 43 73 44 75 45 26 46 78 47
REMARK SMILES IDX 72 48 71 49 27 51 59 52 39 53 58 54 40 55 43 56 57 57 76 58
REMARK SMILES IDX 41 59 42 60 56 62 77 63 44 64 28 65 29 66 37 67 30 68 36 69
REMARK SMILES IDX 38 70 35 71 31 72 32 73 33 74 34 75 60 76 61 77 69 78 62 79
REMARK SMILES IDX 68 80 70 81 67 82 63 83 64 84 65 85 66 86 45 87 46 88 54 89
REMARK SMILES IDX 47 90 53 91 55 92 52 93 48 94 49 95 50 96 51 97
REMARK H PARENT 9 6 84 16 91 24 16 31 75 50 43 61
REMARK Flexibility Score: inf
ROOT
ATOM      1  C   UNL A   1      35.406  29.429  27.486  1.00  0.00     0.021 C 
ENDROOT
BRANCH   1   2
ATOM      2  C   UNL A   1      33.988  28.869  27.453  1.00  0.00     0.116 C 
BRANCH   2   3
ATOM      3  N   UNL A   1      33.169  29.476  26.433  1.00  0.00    -0.355 N 
ATOM      4  C   UNL A   1      32.407  28.857  25.491  1.00  0.00     0.239 C 
ATOM      5  O   UNL A   1      31.539  29.535  24.928  1.00  0.00    -0.273 OA
ATOM      6  H   UNL A   1      33.160  30.461  26.416  1.00  0.00     0.163 HD
BRANCH   4   7
ATOM      7  C   UNL A   1      32.486  27.335  25.250  1.00  0.00     0.221 C 
BRANCH   7   8
ATOM      8  N   UNL A   1      31.812  26.764  24.071  1.00  0.00    -0.311 N 
BRANCH   8   9
ATOM      9  C   UNL A   1      32.611  26.576  22.778  1.00  0.00     0.037 C 
ATOM     10  C   UNL A   1      31.750  26.282  21.518  1.00  0.00     0.034 C 
ATOM     11  C   UNL A   1      33.618  25.400  22.864  1.00  0.00     0.034 C 
ATOM     12  C   UNL A   1      33.385  27.876  22.448  1.00  0.00     0.034 C 
ENDBRANCH   8   9
BRANCH   8  13
ATOM     13  C   UNL A   1      30.572  26.164  24.137  1.00  0.00     0.318 C 
ATOM     14  O   UNL A   1      29.519  26.807  24.088  1.00  0.00    -0.249 OA
ATOM     15  N   UNL A   1      30.362  24.843  24.252  1.00  0.00    -0.338 N 
ATOM     16  H   UNL A   1      29.423  24.671  24.494  1.00  0.00     0.165 HD
BRANCH  15  17
ATOM     17  C   UNL A   1      31.083  23.585  24.132  1.00  0.00     0.124 C 
BRANCH  17  18
ATOM     18  C   UNL A   1      31.830  23.219  25.422  1.00  0.00     0.077 C 
BRANCH  18  19
ATOM     19  C   UNL A   1      32.525  21.900  25.348  1.00  0.00     0.036 A 
ATOM     20  C   UNL A   1      33.836  21.558  25.094  1.00  0.00     0.134 A 
ATOM     21  N   UNL A   1      31.877  20.696  25.487  1.00  0.00    -0.348 N 
ATOM     22  N   UNL A   1      33.994  20.195  25.089  1.00  0.00    -0.245 NA
ATOM     23  C   UNL A   1      32.802  19.705  25.332  1.00  0.00     0.196 A 
ATOM     24  H   UNL A   1      30.917  20.571  25.666  1.00  0.00     0.167 HD
ENDBRANCH  18  19
ENDBRANCH  17  18
ENDBRANCH  15  17
ENDBRANCH   8  13
ENDBRANCH   7   8
ENDBRANCH   4   7
ENDBRANCH   2   3
ENDBRANCH   1   2
BRANCH   1  25
ATOM     25  C   UNL A   1      35.606  30.594  28.460  1.00  0.00     0.002 C 
BRANCH  25  26
ATOM     26  C   UNL A   1      35.523  31.994  27.842  1.00  0.00     0.002 C 
BRANCH  26  27
ATOM     27  C   UNL A   1      34.229  32.772  28.110  1.00  0.00     0.021 C 
BRANCH  27  28
ATOM     28  C   UNL A   1      34.412  34.245  28.467  1.00  0.00     0.116 C 
BRANCH  28  29
ATOM     29  N   UNL A   1      33.859  34.561  29.771  1.00  0.00    -0.352 N 
ATOM     30  C   UNL A   1      34.240  34.146  31.019  1.00  0.00     0.251 C 
ATOM     31  H   UNL A   1      33.087  35.171  29.756  1.00  0.00     0.163 HD
ATOM     32  O   UNL A   1      33.487  34.367  31.972  1.00  0.00    -0.269 OA
BRANCH  30  33
ATOM     33  C   UNL A   1      35.517  33.428  31.239  1.00  0.00     0.039 A 
ATOM     34  C   UNL A   1      35.480  32.193  31.893  1.00  0.00     0.014 A 
ATOM     35  C   UNL A   1      36.748  33.980  30.870  1.00  0.00     0.014 A 
ATOM     36  C   UNL A   1      36.665  31.498  32.141  1.00  0.00     0.010 A 
ATOM     37  C   UNL A   1      37.926  33.254  31.057  1.00  0.00     0.010 A 
ATOM     38  C   UNL A   1      37.899  32.011  31.706  1.00  0.00    -0.014 A 
BRANCH  38  39
ATOM     39  C   UNL A   1      39.154  31.247  31.937  1.00  0.00     0.031 A 
ATOM     40  C   UNL A   1      40.011  31.523  33.143  1.00  0.00     0.074 A 
ATOM     41  C   UNL A   1      39.538  30.322  31.035  1.00  0.00     0.049 A 
ATOM     42  N   UNL A   1      41.123  30.943  33.519  1.00  0.00    -0.248 NA
ATOM     43  C   UNL A   1      39.577  32.616  34.023  1.00  0.00     0.031 C 
ATOM     44  C   UNL A   1      38.829  30.016  29.790  1.00  0.00     0.029 A 
ATOM     45  N   UNL A   1      40.615  29.473  31.021  1.00  0.00    -0.354 N 
ATOM     46  C   UNL A   1      41.528  31.606  34.674  1.00  0.00     0.074 A 
ATOM     47  C   UNL A   1      40.573  32.673  34.895  1.00  0.00     0.031 C 
ATOM     48  C   UNL A   1      39.480  29.035  29.144  1.00  0.00     0.029 A 
ATOM     49  C   UNL A   1      40.663  28.660  29.914  1.00  0.00     0.049 A 
ATOM     50  H   UNL A   1      41.291  29.450  31.737  1.00  0.00     0.167 HD
ATOM     51  C   UNL A   1      42.582  31.337  35.485  1.00  0.00     0.034 A 
ATOM     52  C   UNL A   1      41.556  27.718  29.556  1.00  0.00     0.034 A 
ATOM     53  C   UNL A   1      43.521  30.263  35.251  1.00  0.00     0.049 A 
ATOM     54  C   UNL A   1      42.699  27.408  30.487  1.00  0.00     0.074 A 
ATOM     55  C   UNL A   1      44.580  29.852  36.041  1.00  0.00     0.029 A 
ATOM     56  N   UNL A   1      43.520  29.435  34.133  1.00  0.00    -0.354 N 
ATOM     57  N   UNL A   1      43.018  27.985  31.622  1.00  0.00    -0.248 NA
ATOM     58  C   UNL A   1      43.581  26.301  30.100  1.00  0.00     0.031 C 
ATOM     59  C   UNL A   1      45.258  28.825  35.373  1.00  0.00     0.029 A 
ATOM     60  C   UNL A   1      44.579  28.539  34.199  1.00  0.00     0.049 A 
ATOM     61  H   UNL A   1      42.865  29.478  33.401  1.00  0.00     0.167 HD
ATOM     62  C   UNL A   1      44.133  27.298  32.094  1.00  0.00     0.074 A 
ATOM     63  C   UNL A   1      44.407  26.247  31.134  1.00  0.00     0.031 C 
ATOM     64  C   UNL A   1      44.864  27.515  33.218  1.00  0.00     0.034 A 
BRANCH  51  65
ATOM     65  C   UNL A   1      42.787  32.243  36.680  1.00  0.00     0.023 A 
ATOM     66  C   UNL A   1      42.232  31.947  37.938  1.00  0.00     0.031 A 
ATOM     67  C   UNL A   1      43.509  33.442  36.551  1.00  0.00     0.131 A 
ATOM     68  C   UNL A   1      42.327  32.876  38.986  1.00  0.00     0.055 A 
ATOM     69  C   UNL A   1      43.676  34.323  37.623  1.00  0.00     0.041 A 
ATOM     70  F   UNL A   1      44.051  33.792  35.373  1.00  0.00    -0.206 F 
ATOM     71  C   UNL A   1      43.067  34.051  38.844  1.00  0.00     0.022 A 
BRANCH  68  72
ATOM     72  S   UNL A   1      41.330  32.605  40.477  1.00  0.00     0.124 S 
ATOM     73  O   UNL A   1      41.936  31.392  41.021  1.00  0.00    -0.237 OA
ATOM     74  O   UNL A   1      41.559  33.829  41.235  1.00  0.00    -0.237 OA
ATOM     75  O   UNL A   1      39.975  32.435  39.958  1.00  0.00    -0.744 OA
ENDBRANCH  68  72
ENDBRANCH  51  65
BRANCH  52  76
ATOM     76  C   UNL A   1      41.403  27.000  28.259  1.00  0.00     0.023 A 
ATOM     77  C   UNL A   1      40.955  25.671  28.208  1.00  0.00     0.031 A 
ATOM     78  C   UNL A   1      41.715  27.640  27.047  1.00  0.00     0.131 A 
ATOM     79  C   UNL A   1      40.866  25.011  26.972  1.00  0.00     0.055 A 
ATOM     80  C   UNL A   1      41.581  26.995  25.817  1.00  0.00     0.041 A 
ATOM     81  F   UNL A   1      42.135  28.915  27.041  1.00  0.00    -0.206 F 
ATOM     82  C   UNL A   1      41.165  25.668  25.776  1.00  0.00     0.022 A 
BRANCH  79  83
ATOM     83  S   UNL A   1      40.404  23.258  26.953  1.00  0.00     0.124 S 
ATOM     84  O   UNL A   1      41.308  22.721  25.944  1.00  0.00    -0.237 OA
ATOM     85  O   UNL A   1      40.670  22.859  28.331  1.00  0.00    -0.237 OA
ATOM     86  O   UNL A   1      38.992  23.282  26.578  1.00  0.00    -0.744 OA
ENDBRANCH  79  83
ENDBRANCH  52  76
BRANCH  64  87
ATOM     87  C   UNL A   1      46.019  26.574  33.468  1.00  0.00     0.023 A 
ATOM     88  C   UNL A   1      47.289  26.801  32.908  1.00  0.00     0.031 A 
ATOM     89  C   UNL A   1      45.836  25.411  34.236  1.00  0.00     0.131 A 
ATOM     90  C   UNL A   1      48.303  25.842  33.058  1.00  0.00     0.055 A 
ATOM     91  C   UNL A   1      46.868  24.494  34.439  1.00  0.00     0.041 A 
ATOM     92  F   UNL A   1      44.645  25.139  34.793  1.00  0.00    -0.206 F 
ATOM     93  C   UNL A   1      48.105  24.698  33.833  1.00  0.00     0.022 A 
BRANCH  90  94
ATOM     94  S   UNL A   1      49.841  26.048  32.119  1.00  0.00     0.124 S 
ATOM     95  O   UNL A   1      49.459  25.557  30.799  1.00  0.00    -0.237 OA
ATOM     96  O   UNL A   1      50.078  27.485  32.221  1.00  0.00    -0.237 OA
ATOM     97  O   UNL A   1      50.798  25.210  32.839  1.00  0.00    -0.744 OA
ENDBRANCH  90  94
ENDBRANCH  64  87
ENDBRANCH  38  39
ENDBRANCH  30  33
ENDBRANCH  28  29
ENDBRANCH  27  28
ENDBRANCH  26  27
ENDBRANCH  25  26
ENDBRANCH   1  25
TORSDOF 22
ENDMDL
MODEL 3
REMARK VINA RESULT:      -8.4      7.312     12.380
REMARK SMILES CC(C)(C)N(CC(=O)NCCCCCCNC(=O)c1ccc(-c2c3nc(c(-c4cc(S(=O)(=O)[O-])ccc4F)c4ccc([nH]4)c(-c4cc(S(=O)(=O)[O-])ccc4F)c4nc(c(-c5cc(S(=O)(=O)[O-])ccc5F)c5ccc2[nH]5)C=C4)C=C3)cc1)C(=O)NCCc1cnc[nH]1
REMARK SMILES IDX 11 1 10 2 9 3 7 4 8 5 6 7 5 8 2 9 1 10 3 11 4 12 82 13 83 14
REMARK SMILES IDX 84 15 85 17 86 18 87 19 88 20 91 21 89 22 90 23 12 25 13 26
REMARK SMILES IDX 14 27 15 28 16 29 17 30 18 32 19 33 20 34 81 35 21 36 80 37
REMARK SMILES IDX 22 38 23 39 24 40 74 41 25 42 79 43 73 44 75 45 26 46 78 47
REMARK SMILES IDX 72 48 71 49 27 51 59 52 39 53 58 54 40 55 43 56 57 57 76 58
REMARK SMILES IDX 41 59 42 60 56 62 77 63 44 64 28 65 29 66 37 67 30 68 36 69
REMARK SMILES IDX 38 70 35 71 31 72 32 73 33 74 34 75 60 76 61 77 69 78 62 79
REMARK SMILES IDX 68 80 70 81 67 82 63 83 64 84 65 85 66 86 45 87 46 88 54 89
REMARK SMILES IDX 47 90 53 91 55 92 52 93 48 94 49 95 50 96 51 97
REMARK H PARENT 9 6 84 16 91 24 16 31 75 50 43 61
REMARK Flexibility Score: inf
ROOT
ATOM      1  C   UNL A   1      39.545  28.915  27.310  1.00  0.00     0.021 C 
ENDROOT
BRANCH   1   2
ATOM      2  C   UNL A   1      38.466  29.189  28.352  1.00  0.00     0.116 C 
BRANCH   2   3
ATOM      3  N   UNL A   1      37.319  29.872  27.806  1.00  0.00    -0.355 N 
ATOM      4  C   UNL A   1      36.388  30.609  28.471  1.00  0.00     0.239 C 
ATOM      5  O   UNL A   1      35.682  31.370  27.798  1.00  0.00    -0.273 OA
ATOM      6  H   UNL A   1      37.195  29.796  26.833  1.00  0.00     0.163 HD
BRANCH   4   7
ATOM      7  C   UNL A   1      36.322  30.642  30.012  1.00  0.00     0.221 C 
BRANCH   7   8
ATOM      8  N   UNL A   1      36.380  31.943  30.700  1.00  0.00    -0.311 N 
BRANCH   8   9
ATOM      9  C   UNL A   1      37.652  32.789  30.582  1.00  0.00     0.037 C 
ATOM     10  C   UNL A   1      38.978  31.980  30.636  1.00  0.00     0.034 C 
ATOM     11  C   UNL A   1      37.774  33.844  31.713  1.00  0.00     0.034 C 
ATOM     12  C   UNL A   1      37.673  33.514  29.214  1.00  0.00     0.034 C 
ENDBRANCH   8   9
BRANCH   8  13
ATOM     13  C   UNL A   1      35.267  32.553  31.241  1.00  0.00     0.318 C 
ATOM     14  O   UNL A   1      34.923  32.385  32.414  1.00  0.00    -0.249 OA
ATOM     15  N   UNL A   1      34.448  33.385  30.579  1.00  0.00    -0.338 N 
ATOM     16  H   UNL A   1      33.620  33.522  31.093  1.00  0.00     0.165 HD
BRANCH  15  17
ATOM     17  C   UNL A   1      34.399  34.151  29.343  1.00  0.00     0.124 C 
BRANCH  17  18
ATOM     18  C   UNL A   1      33.212  35.123  29.310  1.00  0.00     0.077 C 
BRANCH  18  19
ATOM     19  C   UNL A   1      33.120  35.984  30.526  1.00  0.00     0.036 A 
ATOM     20  C   UNL A   1      32.420  35.847  31.705  1.00  0.00     0.134 A 
ATOM     21  N   UNL A   1      33.749  37.200  30.640  1.00  0.00    -0.348 N 
ATOM     22  N   UNL A   1      32.619  36.932  32.522  1.00  0.00    -0.245 NA
ATOM     23  C   UNL A   1      33.426  37.725  31.857  1.00  0.00     0.196 A 
ATOM     24  H   UNL A   1      34.331  37.618  29.964  1.00  0.00     0.167 HD
ENDBRANCH  18  19
ENDBRANCH  17  18
ENDBRANCH  15  17
ENDBRANCH   8  13
ENDBRANCH   7   8
ENDBRANCH   4   7
ENDBRANCH   2   3
ENDBRANCH   1   2
BRANCH   1  25
ATOM     25  C   UNL A   1      40.024  27.461  27.260  1.00  0.00     0.002 C 
BRANCH  25  26
ATOM     26  C   UNL A   1      39.641  26.597  28.467  1.00  0.00     0.002 C 
BRANCH  26  27
ATOM     27  C   UNL A   1      39.264  25.143  28.160  1.00  0.00     0.021 C 
BRANCH  27  28
ATOM     28  C   UNL A   1      39.253  24.768  26.681  1.00  0.00     0.116 C 
BRANCH  28  29
ATOM     29  N   UNL A   1      40.082  23.609  26.409  1.00  0.00    -0.352 N 
ATOM     30  C   UNL A   1      41.430  23.516  26.189  1.00  0.00     0.251 C 
ATOM     31  H   UNL A   1      39.598  22.752  26.378  1.00  0.00     0.163 HD
ATOM     32  O   UNL A   1      41.889  22.453  25.759  1.00  0.00    -0.269 OA
BRANCH  30  33
ATOM     33  C   UNL A   1      42.335  24.661  26.438  1.00  0.00     0.039 A 
ATOM     34  C   UNL A   1      42.917  24.786  27.702  1.00  0.00     0.014 A 
ATOM     35  C   UNL A   1      42.567  25.644  25.469  1.00  0.00     0.014 A 
ATOM     36  C   UNL A   1      43.757  25.867  27.983  1.00  0.00     0.010 A 
ATOM     37  C   UNL A   1      43.460  26.686  25.727  1.00  0.00     0.010 A 
ATOM     38  C   UNL A   1      44.054  26.816  26.991  1.00  0.00    -0.014 A 
BRANCH  38  39
ATOM     39  C   UNL A   1      44.981  27.942  27.282  1.00  0.00     0.031 A 
ATOM     40  C   UNL A   1      46.434  27.860  26.897  1.00  0.00     0.074 A 
ATOM     41  C   UNL A   1      44.515  29.030  27.927  1.00  0.00     0.049 A 
ATOM     42  N   UNL A   1      47.383  28.750  27.050  1.00  0.00    -0.248 NA
ATOM     43  C   UNL A   1      46.884  26.600  26.291  1.00  0.00     0.031 C 
ATOM     44  C   UNL A   1      43.144  29.196  28.415  1.00  0.00     0.029 A 
ATOM     45  N   UNL A   1      45.139  30.198  28.286  1.00  0.00    -0.354 N 
ATOM     46  C   UNL A   1      48.545  28.155  26.568  1.00  0.00     0.074 A 
ATOM     47  C   UNL A   1      48.188  26.806  26.180  1.00  0.00     0.031 C 
ATOM     48  C   UNL A   1      43.026  30.403  28.992  1.00  0.00     0.029 A 
ATOM     49  C   UNL A   1      44.316  31.085  28.937  1.00  0.00     0.049 A 
ATOM     50  H   UNL A   1      46.087  30.382  28.095  1.00  0.00     0.167 HD
ATOM     51  C   UNL A   1      49.785  28.690  26.441  1.00  0.00     0.034 A 
ATOM     52  C   UNL A   1      44.567  32.311  29.435  1.00  0.00     0.034 A 
ATOM     53  C   UNL A   1      50.120  30.042  26.829  1.00  0.00     0.049 A 
ATOM     54  C   UNL A   1      45.940  32.903  29.251  1.00  0.00     0.074 A 
ATOM     55  C   UNL A   1      51.320  30.713  26.678  1.00  0.00     0.029 A 
ATOM     56  N   UNL A   1      49.251  30.927  27.457  1.00  0.00    -0.354 N 
ATOM     57  N   UNL A   1      47.007  32.360  28.712  1.00  0.00    -0.248 NA
ATOM     58  C   UNL A   1      46.130  34.281  29.717  1.00  0.00     0.031 C 
ATOM     59  C   UNL A   1      51.199  31.974  27.274  1.00  0.00     0.029 A 
ATOM     60  C   UNL A   1      49.900  32.125  27.730  1.00  0.00     0.049 A 
ATOM     61  H   UNL A   1      48.311  30.734  27.678  1.00  0.00     0.167 HD
ATOM     62  C   UNL A   1      47.994  33.341  28.761  1.00  0.00     0.074 A 
ATOM     63  C   UNL A   1      47.382  34.514  29.353  1.00  0.00     0.031 C 
ATOM     64  C   UNL A   1      49.288  33.278  28.352  1.00  0.00     0.034 A 
BRANCH  51  65
ATOM     65  C   UNL A   1      50.874  27.795  25.888  1.00  0.00     0.023 A 
ATOM     66  C   UNL A   1      51.379  27.961  24.586  1.00  0.00     0.031 A 
ATOM     67  C   UNL A   1      51.383  26.733  26.655  1.00  0.00     0.131 A 
ATOM     68  C   UNL A   1      52.288  27.030  24.059  1.00  0.00     0.055 A 
ATOM     69  C   UNL A   1      52.353  25.860  26.157  1.00  0.00     0.041 A 
ATOM     70  F   UNL A   1      50.931  26.509  27.900  1.00  0.00    -0.206 F 
ATOM     71  C   UNL A   1      52.797  25.994  24.845  1.00  0.00     0.022 A 
BRANCH  68  72
ATOM     72  S   UNL A   1      52.663  27.093  22.286  1.00  0.00     0.124 S 
ATOM     73  O   UNL A   1      52.782  28.531  22.059  1.00  0.00    -0.237 OA
ATOM     74  O   UNL A   1      53.900  26.327  22.198  1.00  0.00    -0.237 OA
ATOM     75  O   UNL A   1      51.496  26.468  21.666  1.00  0.00    -0.744 OA
ENDBRANCH  68  72
ENDBRANCH  51  65
BRANCH  52  76
ATOM     76  C   UNL A   1      43.496  33.059  30.150  1.00  0.00     0.023 A 
ATOM     77  C   UNL A   1      43.210  32.814  31.502  1.00  0.00     0.031 A 
ATOM     78  C   UNL A   1      42.733  34.030  29.478  1.00  0.00     0.131 A 
ATOM     79  C   UNL A   1      42.163  33.506  32.131  1.00  0.00     0.055 A 
ATOM     80  C   UNL A   1      41.722  34.748  30.120  1.00  0.00     0.041 A 
ATOM     81  F   UNL A   1      42.975  34.311  28.188  1.00  0.00    -0.206 F 
ATOM     82  C   UNL A   1      41.426  34.479  31.452  1.00  0.00     0.022 A 
BRANCH  79  83
ATOM     83  S   UNL A   1      41.740  33.076  33.841  1.00  0.00     0.124 S 
ATOM     84  O   UNL A   1      43.056  32.984  34.461  1.00  0.00    -0.237 OA
ATOM     85  O   UNL A   1      40.918  34.213  34.245  1.00  0.00    -0.237 OA
ATOM     86  O   UNL A   1      41.023  31.811  33.707  1.00  0.00    -0.744 OA
ENDBRANCH  79  83
ENDBRANCH  52  76
BRANCH  64  87
ATOM     87  C   UNL A   1      50.114  34.532  28.522  1.00  0.00     0.023 A 
ATOM     88  C   UNL A   1      50.363  35.402  27.445  1.00  0.00     0.031 A 
ATOM     89  C   UNL A   1      50.697  34.837  29.764  1.00  0.00     0.131 A 
ATOM     90  C   UNL A   1      51.235  36.489  27.610  1.00  0.00     0.055 A 
ATOM     91  C   UNL A   1      51.509  35.958  29.940  1.00  0.00     0.041 A 
ATOM     92  F   UNL A   1      50.498  34.041  30.828  1.00  0.00    -0.206 F 
ATOM     93  C   UNL A   1      51.797  36.781  28.855  1.00  0.00     0.022 A 
BRANCH  90  94
ATOM     94  S   UNL A   1      51.728  37.439  26.145  1.00  0.00     0.124 S 
ATOM     95  O   UNL A   1      52.816  36.629  25.609  1.00  0.00    -0.237 OA
ATOM     96  O   UNL A   1      50.498  37.457  25.358  1.00  0.00    -0.237 OA
ATOM     97  O   UNL A   1      52.131  38.733  26.694  1.00  0.00    -0.744 OA
ENDBRANCH  90  94
ENDBRANCH  64  87
ENDBRANCH  38  39
ENDBRANCH  30  33
ENDBRANCH  28  29
ENDBRANCH  27  28
ENDBRANCH  26  27
ENDBRANCH  25  26
ENDBRANCH   1  25
TORSDOF 22
ENDMDL
