MODEL 1
REMARK VINA RESULT:     -10.6      0.000      0.000
REMARK SMILES COc1cccc(-c2c(C(=O)NCCCCCCNC(=O)c3ccc(-c4c5nc(c(-c6cc(S(=O)(=O)[O-])ccc6F)c6ccc([nH]6)c(-c6cc(S(=O)(=O)[O-])ccc6F)c6nc(c(-c7cc(S(=O)(=O)[O-])ccc7F)c7ccc4[nH]7)C=C6)C=C5)cc3)nnn2-c2ccc(OC(F)(F)F)cc2)c1
REMARK SMILES IDX 15 1 14 2 13 3 12 4 10 5 11 6 9 8 8 9 87 10 85 11 86 12 7 13
REMARK SMILES IDX 3 14 4 15 99 16 5 17 6 18 2 19 1 20 88 21 89 22 98 23 90 24
REMARK SMILES IDX 97 25 91 26 92 27 93 28 94 29 95 30 96 31 16 32 17 33 18 34
REMARK SMILES IDX 19 35 20 36 21 38 22 39 23 40 84 41 24 42 83 43 25 44 26 45
REMARK SMILES IDX 27 46 77 47 28 48 82 49 76 50 78 51 29 52 81 53 75 54 74 55
REMARK SMILES IDX 30 57 62 58 42 59 61 60 43 61 46 62 60 63 79 64 44 65 45 66
REMARK SMILES IDX 59 68 80 69 47 70 31 71 32 72 40 73 33 74 39 75 41 76 38 77
REMARK SMILES IDX 34 78 35 79 36 80 37 81 63 82 64 83 72 84 65 85 71 86 73 87
REMARK SMILES IDX 70 88 66 89 67 90 68 91 69 92 48 93 49 94 57 95 50 96 56 97
REMARK SMILES IDX 58 98 55 99 51 100 52 101 53 102 54 103
REMARK H PARENT 12 7 19 37 78 56 46 67
REMARK Flexibility Score: inf
ROOT
ATOM      1  C   UNL A   1      33.834  28.686  27.492  1.00  0.00     0.002 C 
ENDROOT
BRANCH   1   2
ATOM      2  C   UNL A   1      34.129  27.769  26.312  1.00  0.00     0.021 C 
BRANCH   2   3
ATOM      3  C   UNL A   1      32.942  27.184  25.575  1.00  0.00     0.116 C 
BRANCH   3   4
ATOM      4  N   UNL A   1      32.852  27.393  24.160  1.00  0.00    -0.351 N 
ATOM      5  C   UNL A   1      32.511  26.493  23.172  1.00  0.00     0.274 C 
ATOM      6  O   UNL A   1      32.446  26.965  22.032  1.00  0.00    -0.267 OA
ATOM      7  H   UNL A   1      33.062  28.305  23.851  1.00  0.00     0.163 HD
BRANCH   5   8
ATOM      8  C   UNL A   1      32.271  25.052  23.395  1.00  0.00     0.178 A 
ATOM      9  C   UNL A   1      33.051  23.945  23.756  1.00  0.00     0.108 A 
ATOM     10  N   UNL A   1      32.134  22.892  23.786  1.00  0.00    -0.212 N 
ATOM     11  N   UNL A   1      30.973  24.606  23.201  1.00  0.00    -0.124 NA
ATOM     12  N   UNL A   1      30.933  23.294  23.337  1.00  0.00    -0.061 NA
BRANCH   9  13
ATOM     13  C   UNL A   1      34.491  23.702  23.914  1.00  0.00     0.006 A 
ATOM     14  C   UNL A   1      36.457  23.720  25.361  1.00  0.00     0.119 A 
ATOM     15  C   UNL A   1      37.202  23.159  24.326  1.00  0.00     0.046 A 
ATOM     16  C   UNL A   1      35.110  24.012  25.147  1.00  0.00     0.056 A 
ATOM     17  C   UNL A   1      36.608  22.871  23.094  1.00  0.00     0.005 A 
ATOM     18  C   UNL A   1      35.254  23.143  22.884  1.00  0.00     0.011 A 
BRANCH  14  19
ATOM     19  O   UNL A   1      37.150  23.987  26.507  1.00  0.00    -0.497 OA
ATOM     20  C   UNL A   1      38.526  24.333  26.350  1.00  0.00     0.278 C 
ENDBRANCH  14  19
ENDBRANCH   9  13
BRANCH  10  21
ATOM     21  C   UNL A   1      32.351  21.550  24.182  1.00  0.00     0.067 A 
ATOM     22  C   UNL A   1      32.227  20.522  23.247  1.00  0.00     0.032 A 
ATOM     23  C   UNL A   1      32.735  21.259  25.496  1.00  0.00     0.032 A 
ATOM     24  C   UNL A   1      32.574  19.218  23.616  1.00  0.00     0.049 A 
ATOM     25  C   UNL A   1      33.050  19.950  25.863  1.00  0.00     0.049 A 
ATOM     26  C   UNL A   1      32.993  18.925  24.920  1.00  0.00     0.129 A 
BRANCH  26  27
ATOM     27  O   UNL A   1      33.316  17.616  25.139  1.00  0.00    -0.406 OA
BRANCH  27  28
ATOM     28  C   UNL A   1      34.534  17.144  24.591  1.00  0.00     0.573 C 
ATOM     29  F   UNL A   1      34.352  16.602  23.367  1.00  0.00    -0.132 F 
ATOM     30  F   UNL A   1      35.445  18.141  24.506  1.00  0.00    -0.132 F 
ATOM     31  F   UNL A   1      35.040  16.190  25.404  1.00  0.00    -0.132 F 
ENDBRANCH  27  28
ENDBRANCH  26  27
ENDBRANCH  10  21
ENDBRANCH   5   8
ENDBRANCH   3   4
ENDBRANCH   2   3
ENDBRANCH   1   2
BRANCH   1  32
ATOM     32  C   UNL A   1      34.297  30.148  27.393  1.00  0.00     0.002 C 
BRANCH  32  33
ATOM     33  C   UNL A   1      33.272  31.260  27.661  1.00  0.00     0.021 C 
BRANCH  33  34
ATOM     34  C   UNL A   1      33.856  32.656  27.782  1.00  0.00     0.116 C 
BRANCH  34  35
ATOM     35  N   UNL A   1      33.629  33.275  29.091  1.00  0.00    -0.352 N 
ATOM     36  C   UNL A   1      34.466  33.267  30.203  1.00  0.00     0.251 C 
ATOM     37  H   UNL A   1      32.777  33.756  29.197  1.00  0.00     0.163 HD
ATOM     38  O   UNL A   1      34.029  33.485  31.318  1.00  0.00    -0.269 OA
BRANCH  36  39
ATOM     39  C   UNL A   1      35.903  33.003  29.982  1.00  0.00     0.039 A 
ATOM     40  C   UNL A   1      36.775  33.907  29.367  1.00  0.00     0.014 A 
ATOM     41  C   UNL A   1      36.373  31.791  30.466  1.00  0.00     0.014 A 
ATOM     42  C   UNL A   1      38.133  33.583  29.304  1.00  0.00     0.010 A 
ATOM     43  C   UNL A   1      37.707  31.621  30.664  1.00  0.00     0.010 A 
ATOM     44  C   UNL A   1      38.584  32.429  29.962  1.00  0.00    -0.014 A 
BRANCH  44  45
ATOM     45  C   UNL A   1      39.980  32.026  30.043  1.00  0.00     0.031 A 
ATOM     46  C   UNL A   1      40.205  30.589  29.751  1.00  0.00     0.074 A 
ATOM     47  C   UNL A   1      40.969  32.954  30.045  1.00  0.00     0.049 A 
ATOM     48  N   UNL A   1      40.617  29.674  30.562  1.00  0.00    -0.248 NA
ATOM     49  C   UNL A   1      39.745  30.061  28.452  1.00  0.00     0.031 C 
ATOM     50  C   UNL A   1      40.847  34.422  30.008  1.00  0.00     0.029 A 
ATOM     51  N   UNL A   1      42.313  32.785  29.941  1.00  0.00    -0.354 N 
ATOM     52  C   UNL A   1      40.728  28.517  29.798  1.00  0.00     0.074 A 
ATOM     53  C   UNL A   1      39.947  28.752  28.615  1.00  0.00     0.031 C 
ATOM     54  C   UNL A   1      42.027  34.975  29.650  1.00  0.00     0.029 A 
ATOM     55  C   UNL A   1      43.032  33.931  29.593  1.00  0.00     0.049 A 
ATOM     56  H   UNL A   1      42.748  31.916  30.100  1.00  0.00     0.167 HD
ATOM     57  C   UNL A   1      41.686  27.588  30.071  1.00  0.00     0.034 A 
ATOM     58  C   UNL A   1      44.354  34.008  29.264  1.00  0.00     0.034 A 
ATOM     59  C   UNL A   1      42.250  27.806  31.386  1.00  0.00     0.049 A 
ATOM     60  C   UNL A   1      44.984  32.781  29.822  1.00  0.00     0.074 A 
ATOM     61  C   UNL A   1      41.728  27.851  32.665  1.00  0.00     0.029 A 
ATOM     62  N   UNL A   1      43.467  28.449  31.465  1.00  0.00    -0.354 N 
ATOM     63  N   UNL A   1      45.032  32.533  31.104  1.00  0.00    -0.248 NA
ATOM     64  C   UNL A   1      45.054  31.608  28.964  1.00  0.00     0.031 C 
ATOM     65  C   UNL A   1      42.389  28.954  33.288  1.00  0.00     0.029 A 
ATOM     66  C   UNL A   1      43.346  29.451  32.400  1.00  0.00     0.049 A 
ATOM     67  H   UNL A   1      44.275  28.230  30.948  1.00  0.00     0.167 HD
ATOM     68  C   UNL A   1      44.694  31.193  31.226  1.00  0.00     0.074 A 
ATOM     69  C   UNL A   1      44.802  30.654  29.868  1.00  0.00     0.031 C 
ATOM     70  C   UNL A   1      44.062  30.714  32.342  1.00  0.00     0.034 A 
BRANCH  57  71
ATOM     71  C   UNL A   1      42.382  26.734  29.033  1.00  0.00     0.023 A 
ATOM     72  C   UNL A   1      43.521  27.283  28.413  1.00  0.00     0.031 A 
ATOM     73  C   UNL A   1      41.856  25.570  28.426  1.00  0.00     0.131 A 
ATOM     74  C   UNL A   1      44.017  26.751  27.210  1.00  0.00     0.055 A 
ATOM     75  C   UNL A   1      42.398  25.003  27.269  1.00  0.00     0.041 A 
ATOM     76  F   UNL A   1      40.739  24.969  28.847  1.00  0.00    -0.206 F 
ATOM     77  C   UNL A   1      43.464  25.612  26.634  1.00  0.00     0.022 A 
BRANCH  74  78
ATOM     78  S   UNL A   1      45.282  27.688  26.315  1.00  0.00     0.124 S 
ATOM     79  O   UNL A   1      45.408  26.912  25.086  1.00  0.00    -0.237 OA
ATOM     80  O   UNL A   1      44.650  28.997  26.190  1.00  0.00    -0.237 OA
ATOM     81  O   UNL A   1      46.437  27.634  27.208  1.00  0.00    -0.744 OA
ENDBRANCH  74  78
ENDBRANCH  57  71
BRANCH  58  82
ATOM     82  C   UNL A   1      44.976  34.852  28.193  1.00  0.00     0.023 A 
ATOM     83  C   UNL A   1      45.941  35.857  28.442  1.00  0.00     0.031 A 
ATOM     84  C   UNL A   1      44.784  34.492  26.839  1.00  0.00     0.131 A 
ATOM     85  C   UNL A   1      46.652  36.453  27.365  1.00  0.00     0.055 A 
ATOM     86  C   UNL A   1      45.488  35.080  25.785  1.00  0.00     0.041 A 
ATOM     87  F   UNL A   1      43.961  33.488  26.498  1.00  0.00    -0.206 F 
ATOM     88  C   UNL A   1      46.432  36.058  26.043  1.00  0.00     0.022 A 
BRANCH  85  89
ATOM     89  S   UNL A   1      47.942  37.714  27.663  1.00  0.00     0.124 S 
ATOM     90  O   UNL A   1      47.939  38.466  26.415  1.00  0.00    -0.237 OA
ATOM     91  O   UNL A   1      47.436  38.408  28.841  1.00  0.00    -0.237 OA
ATOM     92  O   UNL A   1      49.151  36.920  27.897  1.00  0.00    -0.744 OA
ENDBRANCH  85  89
ENDBRANCH  58  82
BRANCH  70  93
ATOM     93  C   UNL A   1      43.928  31.637  33.544  1.00  0.00     0.023 A 
ATOM     94  C   UNL A   1      42.905  32.600  33.726  1.00  0.00     0.031 A 
ATOM     95  C   UNL A   1      44.813  31.427  34.615  1.00  0.00     0.131 A 
ATOM     96  C   UNL A   1      42.807  33.313  34.941  1.00  0.00     0.055 A 
ATOM     97  C   UNL A   1      44.699  32.116  35.823  1.00  0.00     0.041 A 
ATOM     98  F   UNL A   1      45.787  30.508  34.520  1.00  0.00    -0.206 F 
ATOM     99  C   UNL A   1      43.699  33.067  35.989  1.00  0.00     0.022 A 
BRANCH  96 100
ATOM    100  S   UNL A   1      41.523  34.590  35.179  1.00  0.00     0.124 S 
ATOM    101  O   UNL A   1      40.788  34.117  36.346  1.00  0.00    -0.237 OA
ATOM    102  O   UNL A   1      42.311  35.805  35.370  1.00  0.00    -0.237 OA
ATOM    103  O   UNL A   1      40.766  34.549  33.926  1.00  0.00    -0.744 OA
ENDBRANCH  96 100
ENDBRANCH  70  93
ENDBRANCH  44  45
ENDBRANCH  36  39
ENDBRANCH  34  35
ENDBRANCH  33  34
ENDBRANCH  32  33
ENDBRANCH   1  32
TORSDOF 21
ENDMDL
MODEL 2
REMARK VINA RESULT:     -10.1      5.457      9.786
REMARK SMILES COc1cccc(-c2c(C(=O)NCCCCCCNC(=O)c3ccc(-c4c5nc(c(-c6cc(S(=O)(=O)[O-])ccc6F)c6ccc([nH]6)c(-c6cc(S(=O)(=O)[O-])ccc6F)c6nc(c(-c7cc(S(=O)(=O)[O-])ccc7F)c7ccc4[nH]7)C=C6)C=C5)cc3)nnn2-c2ccc(OC(F)(F)F)cc2)c1
REMARK SMILES IDX 15 1 14 2 13 3 12 4 10 5 11 6 9 8 8 9 87 10 85 11 86 12 7 13
REMARK SMILES IDX 3 14 4 15 99 16 5 17 6 18 2 19 1 20 88 21 89 22 98 23 90 24
REMARK SMILES IDX 97 25 91 26 92 27 93 28 94 29 95 30 96 31 16 32 17 33 18 34
REMARK SMILES IDX 19 35 20 36 21 38 22 39 23 40 84 41 24 42 83 43 25 44 26 45
REMARK SMILES IDX 27 46 77 47 28 48 82 49 76 50 78 51 29 52 81 53 75 54 74 55
REMARK SMILES IDX 30 57 62 58 42 59 61 60 43 61 46 62 60 63 79 64 44 65 45 66
REMARK SMILES IDX 59 68 80 69 47 70 31 71 32 72 40 73 33 74 39 75 41 76 38 77
REMARK SMILES IDX 34 78 35 79 36 80 37 81 63 82 64 83 72 84 65 85 71 86 73 87
REMARK SMILES IDX 70 88 66 89 67 90 68 91 69 92 48 93 49 94 57 95 50 96 56 97
REMARK SMILES IDX 58 98 55 99 51 100 52 101 53 102 54 103
REMARK H PARENT 12 7 19 37 78 56 46 67
REMARK Flexibility Score: inf
ROOT
ATOM      1  C   UNL A   1      43.923  27.705  31.344  1.00  0.00     0.002 C 
ENDROOT
BRANCH   1   2
ATOM      2  C   UNL A   1      44.598  28.653  30.361  1.00  0.00     0.021 C 
BRANCH   2   3
ATOM      3  C   UNL A   1      43.701  29.433  29.423  1.00  0.00     0.116 C 
BRANCH   3   4
ATOM      4  N   UNL A   1      44.302  30.091  28.301  1.00  0.00    -0.351 N 
ATOM      5  C   UNL A   1      44.318  29.704  26.976  1.00  0.00     0.274 C 
ATOM      6  O   UNL A   1      44.855  30.504  26.202  1.00  0.00    -0.267 OA
ATOM      7  H   UNL A   1      44.768  30.936  28.502  1.00  0.00     0.163 HD
BRANCH   5   8
ATOM      8  C   UNL A   1      43.784  28.423  26.470  1.00  0.00     0.178 A 
ATOM      9  C   UNL A   1      44.111  27.067  26.616  1.00  0.00     0.108 A 
ATOM     10  N   UNL A   1      43.148  26.412  25.845  1.00  0.00    -0.212 N 
ATOM     11  N   UNL A   1      42.695  28.503  25.615  1.00  0.00    -0.124 NA
ATOM     12  N   UNL A   1      42.396  27.297  25.169  1.00  0.00    -0.061 NA
BRANCH   9  13
ATOM     13  C   UNL A   1      45.235  26.333  27.212  1.00  0.00     0.006 A 
ATOM     14  C   UNL A   1      47.541  25.553  27.028  1.00  0.00     0.119 A 
ATOM     15  C   UNL A   1      47.454  25.048  28.324  1.00  0.00     0.046 A 
ATOM     16  C   UNL A   1      46.426  26.174  26.466  1.00  0.00     0.056 A 
ATOM     17  C   UNL A   1      46.275  25.177  29.063  1.00  0.00     0.005 A 
ATOM     18  C   UNL A   1      45.163  25.817  28.510  1.00  0.00     0.011 A 
BRANCH  14  19
ATOM     19  O   UNL A   1      48.731  25.341  26.393  1.00  0.00    -0.497 OA
ATOM     20  C   UNL A   1      49.061  26.250  25.343  1.00  0.00     0.278 C 
ENDBRANCH  14  19
ENDBRANCH   9  13
BRANCH  10  21
ATOM     21  C   UNL A   1      42.938  25.019  25.701  1.00  0.00     0.067 A 
ATOM     22  C   UNL A   1      43.709  24.291  24.795  1.00  0.00     0.032 A 
ATOM     23  C   UNL A   1      41.993  24.365  26.501  1.00  0.00     0.032 A 
ATOM     24  C   UNL A   1      43.586  22.898  24.758  1.00  0.00     0.049 A 
ATOM     25  C   UNL A   1      41.856  22.978  26.436  1.00  0.00     0.049 A 
ATOM     26  C   UNL A   1      42.667  22.234  25.581  1.00  0.00     0.129 A 
BRANCH  26  27
ATOM     27  O   UNL A   1      42.662  20.873  25.455  1.00  0.00    -0.406 OA
BRANCH  27  28
ATOM     28  C   UNL A   1      41.734  20.149  26.244  1.00  0.00     0.573 C 
ATOM     29  F   UNL A   1      42.017  20.250  27.561  1.00  0.00    -0.132 F 
ATOM     30  F   UNL A   1      40.471  20.580  26.025  1.00  0.00    -0.132 F 
ATOM     31  F   UNL A   1      41.791  18.844  25.900  1.00  0.00    -0.132 F 
ENDBRANCH  27  28
ENDBRANCH  26  27
ENDBRANCH  10  21
ENDBRANCH   5   8
ENDBRANCH   3   4
ENDBRANCH   2   3
ENDBRANCH   1   2
BRANCH   1  32
ATOM     32  C   UNL A   1      44.776  27.136  32.488  1.00  0.00     0.002 C 
BRANCH  32  33
ATOM     33  C   UNL A   1      44.696  25.630  32.781  1.00  0.00     0.021 C 
BRANCH  33  34
ATOM     34  C   UNL A   1      44.614  25.266  34.252  1.00  0.00     0.116 C 
BRANCH  34  35
ATOM     35  N   UNL A   1      43.443  24.453  34.590  1.00  0.00    -0.352 N 
ATOM     36  C   UNL A   1      42.283  24.846  35.252  1.00  0.00     0.251 C 
ATOM     37  H   UNL A   1      43.481  23.508  34.315  1.00  0.00     0.163 HD
ATOM     38  O   UNL A   1      41.561  24.029  35.793  1.00  0.00    -0.269 OA
BRANCH  36  39
ATOM     39  C   UNL A   1      41.951  26.286  35.263  1.00  0.00     0.039 A 
ATOM     40  C   UNL A   1      42.250  27.147  36.324  1.00  0.00     0.014 A 
ATOM     41  C   UNL A   1      41.346  26.772  34.114  1.00  0.00     0.014 A 
ATOM     42  C   UNL A   1      41.974  28.508  36.175  1.00  0.00     0.010 A 
ATOM     43  C   UNL A   1      41.357  28.108  33.864  1.00  0.00     0.010 A 
ATOM     44  C   UNL A   1      41.525  28.974  34.931  1.00  0.00    -0.014 A 
BRANCH  44  45
ATOM     45  C   UNL A   1      41.284  30.376  34.620  1.00  0.00     0.031 A 
ATOM     46  C   UNL A   1      42.504  31.117  34.217  1.00  0.00     0.074 A 
ATOM     47  C   UNL A   1      40.024  30.828  34.398  1.00  0.00     0.049 A 
ATOM     48  N   UNL A   1      43.088  32.079  34.848  1.00  0.00    -0.248 NA
ATOM     49  C   UNL A   1      43.277  30.613  33.066  1.00  0.00     0.031 C 
ATOM     50  C   UNL A   1      38.758  30.077  34.460  1.00  0.00     0.029 A 
ATOM     51  N   UNL A   1      39.609  32.035  33.934  1.00  0.00    -0.354 N 
ATOM     52  C   UNL A   1      44.141  32.478  34.033  1.00  0.00     0.074 A 
ATOM     53  C   UNL A   1      44.356  31.397  33.112  1.00  0.00     0.031 C 
ATOM     54  C   UNL A   1      37.782  30.764  33.824  1.00  0.00     0.029 A 
ATOM     55  C   UNL A   1      38.297  32.070  33.456  1.00  0.00     0.049 A 
ATOM     56  H   UNL A   1      40.192  32.828  33.933  1.00  0.00     0.167 HD
ATOM     57  C   UNL A   1      44.546  33.778  34.000  1.00  0.00     0.034 A 
ATOM     58  C   UNL A   1      37.687  33.093  32.790  1.00  0.00     0.034 A 
ATOM     59  C   UNL A   1      44.006  34.511  35.126  1.00  0.00     0.049 A 
ATOM     60  C   UNL A   1      38.477  34.312  33.107  1.00  0.00     0.074 A 
ATOM     61  C   UNL A   1      44.089  34.371  36.498  1.00  0.00     0.029 A 
ATOM     62  N   UNL A   1      42.900  35.303  34.906  1.00  0.00    -0.354 N 
ATOM     63  N   UNL A   1      38.581  34.792  34.318  1.00  0.00    -0.248 NA
ATOM     64  C   UNL A   1      39.571  34.660  32.212  1.00  0.00     0.031 C 
ATOM     65  C   UNL A   1      42.765  34.625  36.970  1.00  0.00     0.029 A 
ATOM     66  C   UNL A   1      41.977  35.007  35.881  1.00  0.00     0.049 A 
ATOM     67  H   UNL A   1      42.791  35.962  34.183  1.00  0.00     0.167 HD
ATOM     68  C   UNL A   1      39.923  35.113  34.467  1.00  0.00     0.074 A 
ATOM     69  C   UNL A   1      40.467  35.089  33.108  1.00  0.00     0.031 C 
ATOM     70  C   UNL A   1      40.537  35.063  35.690  1.00  0.00     0.034 A 
BRANCH  57  71
ATOM     71  C   UNL A   1      45.097  34.481  32.778  1.00  0.00     0.023 A 
ATOM     72  C   UNL A   1      44.497  34.179  31.541  1.00  0.00     0.031 A 
ATOM     73  C   UNL A   1      46.318  35.191  32.709  1.00  0.00     0.131 A 
ATOM     74  C   UNL A   1      45.145  34.481  30.330  1.00  0.00     0.055 A 
ATOM     75  C   UNL A   1      46.923  35.552  31.501  1.00  0.00     0.041 A 
ATOM     76  F   UNL A   1      47.051  35.492  33.786  1.00  0.00    -0.206 F 
ATOM     77  C   UNL A   1      46.354  35.168  30.301  1.00  0.00     0.022 A 
BRANCH  74  78
ATOM     78  S   UNL A   1      44.465  33.791  28.800  1.00  0.00     0.124 S 
ATOM     79  O   UNL A   1      43.378  32.962  29.308  1.00  0.00    -0.237 OA
ATOM     80  O   UNL A   1      44.075  34.997  28.077  1.00  0.00    -0.237 OA
ATOM     81  O   UNL A   1      45.594  33.059  28.229  1.00  0.00    -0.744 OA
ENDBRANCH  74  78
ENDBRANCH  57  71
BRANCH  58  82
ATOM     82  C   UNL A   1      36.744  32.987  31.631  1.00  0.00     0.023 A 
ATOM     83  C   UNL A   1      35.610  33.817  31.458  1.00  0.00     0.031 A 
ATOM     84  C   UNL A   1      37.108  32.189  30.522  1.00  0.00     0.131 A 
ATOM     85  C   UNL A   1      34.900  33.815  30.226  1.00  0.00     0.055 A 
ATOM     86  C   UNL A   1      36.407  32.194  29.313  1.00  0.00     0.041 A 
ATOM     87  F   UNL A   1      38.219  31.435  30.545  1.00  0.00    -0.206 F 
ATOM     88  C   UNL A   1      35.303  33.013  29.157  1.00  0.00     0.022 A 
BRANCH  85  89
ATOM     89  S   UNL A   1      33.465  34.917  29.959  1.00  0.00     0.124 S 
ATOM     90  O   UNL A   1      34.098  36.149  29.504  1.00  0.00    -0.237 OA
ATOM     91  O   UNL A   1      32.686  34.183  28.969  1.00  0.00    -0.237 OA
ATOM     92  O   UNL A   1      32.844  35.001  31.283  1.00  0.00    -0.744 OA
ENDBRANCH  85  89
ENDBRANCH  58  82
BRANCH  70  93
ATOM     93  C   UNL A   1      39.670  34.857  36.923  1.00  0.00     0.023 A 
ATOM     94  C   UNL A   1      38.946  33.678  37.228  1.00  0.00     0.031 A 
ATOM     95  C   UNL A   1      39.694  35.868  37.899  1.00  0.00     0.131 A 
ATOM     96  C   UNL A   1      38.276  33.554  38.464  1.00  0.00     0.055 A 
ATOM     97  C   UNL A   1      39.051  35.733  39.130  1.00  0.00     0.041 A 
ATOM     98  F   UNL A   1      40.386  36.999  37.686  1.00  0.00    -0.206 F 
ATOM     99  C   UNL A   1      38.335  34.577  39.415  1.00  0.00     0.022 A 
BRANCH  96 100
ATOM    100  S   UNL A   1      37.301  32.061  38.858  1.00  0.00     0.124 S 
ATOM    101  O   UNL A   1      35.935  32.564  38.953  1.00  0.00    -0.237 OA
ATOM    102  O   UNL A   1      37.582  31.186  37.723  1.00  0.00    -0.237 OA
ATOM    103  O   UNL A   1      37.871  31.608  40.129  1.00  0.00    -0.744 OA
ENDBRANCH  96 100
ENDBRANCH  70  93
ENDBRANCH  44  45
ENDBRANCH  36  39
ENDBRANCH  34  35
ENDBRANCH  33  34
ENDBRANCH  32  33
ENDBRANCH   1  32
TORSDOF 21
ENDMDL
MODEL 3
REMARK VINA RESULT:      -9.9      5.636     13.715
REMARK SMILES COc1cccc(-c2c(C(=O)NCCCCCCNC(=O)c3ccc(-c4c5nc(c(-c6cc(S(=O)(=O)[O-])ccc6F)c6ccc([nH]6)c(-c6cc(S(=O)(=O)[O-])ccc6F)c6nc(c(-c7cc(S(=O)(=O)[O-])ccc7F)c7ccc4[nH]7)C=C6)C=C5)cc3)nnn2-c2ccc(OC(F)(F)F)cc2)c1
REMARK SMILES IDX 15 1 14 2 13 3 12 4 10 5 11 6 9 8 8 9 87 10 85 11 86 12 7 13
REMARK SMILES IDX 3 14 4 15 99 16 5 17 6 18 2 19 1 20 88 21 89 22 98 23 90 24
REMARK SMILES IDX 97 25 91 26 92 27 93 28 94 29 95 30 96 31 16 32 17 33 18 34
REMARK SMILES IDX 19 35 20 36 21 38 22 39 23 40 84 41 24 42 83 43 25 44 26 45
REMARK SMILES IDX 27 46 77 47 28 48 82 49 76 50 78 51 29 52 81 53 75 54 74 55
REMARK SMILES IDX 30 57 62 58 42 59 61 60 43 61 46 62 60 63 79 64 44 65 45 66
REMARK SMILES IDX 59 68 80 69 47 70 31 71 32 72 40 73 33 74 39 75 41 76 38 77
REMARK SMILES IDX 34 78 35 79 36 80 37 81 63 82 64 83 72 84 65 85 71 86 73 87
REMARK SMILES IDX 70 88 66 89 67 90 68 91 69 92 48 93 49 94 57 95 50 96 56 97
REMARK SMILES IDX 58 98 55 99 51 100 52 101 53 102 54 103
REMARK H PARENT 12 7 19 37 78 56 46 67
REMARK Flexibility Score: inf
ROOT
ATOM      1  C   UNL A   1      38.500  32.041  33.272  1.00  0.00     0.002 C 
ENDROOT
BRANCH   1   2
ATOM      2  C   UNL A   1      39.901  31.575  33.644  1.00  0.00     0.021 C 
BRANCH   2   3
ATOM      3  C   UNL A   1      40.225  31.461  35.119  1.00  0.00     0.116 C 
BRANCH   3   4
ATOM      4  N   UNL A   1      39.179  31.064  36.015  1.00  0.00    -0.351 N 
ATOM      5  C   UNL A   1      38.514  31.820  36.959  1.00  0.00     0.274 C 
ATOM      6  O   UNL A   1      37.599  31.235  37.550  1.00  0.00    -0.267 OA
ATOM      7  H   UNL A   1      38.894  30.124  35.946  1.00  0.00     0.163 HD
BRANCH   5   8
ATOM      8  C   UNL A   1      38.854  33.214  37.309  1.00  0.00     0.178 A 
ATOM      9  C   UNL A   1      39.100  33.924  38.493  1.00  0.00     0.108 A 
ATOM     10  N   UNL A   1      39.373  35.220  38.049  1.00  0.00    -0.212 N 
ATOM     11  N   UNL A   1      38.955  34.108  36.254  1.00  0.00    -0.124 NA
ATOM     12  N   UNL A   1      39.162  35.324  36.725  1.00  0.00    -0.061 NA
BRANCH   9  13
ATOM     13  C   UNL A   1      38.969  33.625  39.925  1.00  0.00     0.006 A 
ATOM     14  C   UNL A   1      40.053  33.097  42.047  1.00  0.00     0.119 A 
ATOM     15  C   UNL A   1      38.811  33.158  42.676  1.00  0.00     0.046 A 
ATOM     16  C   UNL A   1      40.128  33.307  40.671  1.00  0.00     0.056 A 
ATOM     17  C   UNL A   1      37.655  33.447  41.946  1.00  0.00     0.005 A 
ATOM     18  C   UNL A   1      37.730  33.679  40.571  1.00  0.00     0.011 A 
BRANCH  14  19
ATOM     19  O   UNL A   1      41.106  32.776  42.855  1.00  0.00    -0.497 OA
ATOM     20  C   UNL A   1      41.113  33.367  44.154  1.00  0.00     0.278 C 
ENDBRANCH  14  19
ENDBRANCH   9  13
BRANCH  10  21
ATOM     21  C   UNL A   1      39.782  36.342  38.810  1.00  0.00     0.067 A 
ATOM     22  C   UNL A   1      41.131  36.696  38.853  1.00  0.00     0.032 A 
ATOM     23  C   UNL A   1      38.831  37.122  39.478  1.00  0.00     0.032 A 
ATOM     24  C   UNL A   1      41.505  37.881  39.495  1.00  0.00     0.049 A 
ATOM     25  C   UNL A   1      39.219  38.286  40.143  1.00  0.00     0.049 A 
ATOM     26  C   UNL A   1      40.554  38.685  40.137  1.00  0.00     0.129 A 
BRANCH  26  27
ATOM     27  O   UNL A   1      41.054  39.819  40.710  1.00  0.00    -0.406 OA
BRANCH  27  28
ATOM     28  C   UNL A   1      41.523  39.723  42.044  1.00  0.00     0.573 C 
ATOM     29  F   UNL A   1      42.872  39.665  42.093  1.00  0.00    -0.132 F 
ATOM     30  F   UNL A   1      41.095  40.771  42.784  1.00  0.00    -0.132 F 
ATOM     31  F   UNL A   1      41.031  38.594  42.601  1.00  0.00    -0.132 F 
ENDBRANCH  27  28
ENDBRANCH  26  27
ENDBRANCH  10  21
ENDBRANCH   5   8
ENDBRANCH   3   4
ENDBRANCH   2   3
ENDBRANCH   1   2
BRANCH   1  32
ATOM     32  C   UNL A   1      37.493  30.977  32.807  1.00  0.00     0.002 C 
BRANCH  32  33
ATOM     33  C   UNL A   1      36.032  31.399  32.586  1.00  0.00     0.021 C 
BRANCH  33  34
ATOM     34  C   UNL A   1      35.823  32.441  31.503  1.00  0.00     0.116 C 
BRANCH  34  35
ATOM     35  N   UNL A   1      35.117  31.929  30.325  1.00  0.00    -0.352 N 
ATOM     36  C   UNL A   1      35.660  31.394  29.161  1.00  0.00     0.251 C 
ATOM     37  H   UNL A   1      34.134  31.970  30.363  1.00  0.00     0.163 HD
ATOM     38  O   UNL A   1      35.013  31.348  28.131  1.00  0.00    -0.269 OA
BRANCH  36  39
ATOM     39  C   UNL A   1      37.039  30.868  29.223  1.00  0.00     0.039 A 
ATOM     40  C   UNL A   1      38.177  31.676  29.316  1.00  0.00     0.014 A 
ATOM     41  C   UNL A   1      37.157  29.486  29.226  1.00  0.00     0.014 A 
ATOM     42  C   UNL A   1      39.421  31.059  29.468  1.00  0.00     0.010 A 
ATOM     43  C   UNL A   1      38.309  28.913  29.665  1.00  0.00     0.010 A 
ATOM     44  C   UNL A   1      39.469  29.668  29.641  1.00  0.00    -0.014 A 
BRANCH  44  45
ATOM     45  C   UNL A   1      40.690  28.916  29.892  1.00  0.00     0.031 A 
ATOM     46  C   UNL A   1      40.962  28.684  31.332  1.00  0.00     0.074 A 
ATOM     47  C   UNL A   1      41.293  28.225  28.894  1.00  0.00     0.049 A 
ATOM     48  N   UNL A   1      41.935  29.155  32.036  1.00  0.00    -0.248 NA
ATOM     49  C   UNL A   1      39.933  27.995  32.134  1.00  0.00     0.031 C 
ATOM     50  C   UNL A   1      40.902  28.133  27.477  1.00  0.00     0.029 A 
ATOM     51  N   UNL A   1      42.320  27.337  28.956  1.00  0.00    -0.354 N 
ATOM     52  C   UNL A   1      41.788  28.596  33.301  1.00  0.00     0.074 A 
ATOM     53  C   UNL A   1      40.433  28.122  33.366  1.00  0.00     0.031 C 
ATOM     54  C   UNL A   1      41.515  27.077  26.895  1.00  0.00     0.029 A 
ATOM     55  C   UNL A   1      42.466  26.516  27.836  1.00  0.00     0.049 A 
ATOM     56  H   UNL A   1      42.918  27.277  29.736  1.00  0.00     0.167 HD
ATOM     57  C   UNL A   1      42.875  28.311  34.071  1.00  0.00     0.034 A 
ATOM     58  C   UNL A   1      43.296  25.441  27.702  1.00  0.00     0.034 A 
ATOM     59  C   UNL A   1      44.053  28.979  33.559  1.00  0.00     0.049 A 
ATOM     60  C   UNL A   1      44.349  25.609  28.738  1.00  0.00     0.074 A 
ATOM     61  C   UNL A   1      44.389  30.298  33.322  1.00  0.00     0.029 A 
ATOM     62  N   UNL A   1      44.935  28.236  32.805  1.00  0.00    -0.354 N 
ATOM     63  N   UNL A   1      45.189  26.610  28.736  1.00  0.00    -0.248 NA
ATOM     64  C   UNL A   1      44.118  25.003  30.041  1.00  0.00     0.031 C 
ATOM     65  C   UNL A   1      45.070  30.279  32.066  1.00  0.00     0.029 A 
ATOM     66  C   UNL A   1      45.205  28.949  31.660  1.00  0.00     0.049 A 
ATOM     67  H   UNL A   1      45.306  27.355  33.042  1.00  0.00     0.167 HD
ATOM     68  C   UNL A   1      45.246  27.039  30.054  1.00  0.00     0.074 A 
ATOM     69  C   UNL A   1      44.631  25.957  30.827  1.00  0.00     0.031 C 
ATOM     70  C   UNL A   1      45.497  28.347  30.370  1.00  0.00     0.034 A 
BRANCH  57  71
ATOM     71  C   UNL A   1      42.970  27.150  35.038  1.00  0.00     0.023 A 
ATOM     72  C   UNL A   1      43.732  26.038  34.630  1.00  0.00     0.031 A 
ATOM     73  C   UNL A   1      42.156  26.949  36.177  1.00  0.00     0.131 A 
ATOM     74  C   UNL A   1      43.592  24.793  35.266  1.00  0.00     0.055 A 
ATOM     75  C   UNL A   1      42.076  25.727  36.851  1.00  0.00     0.041 A 
ATOM     76  F   UNL A   1      41.320  27.879  36.650  1.00  0.00    -0.206 F 
ATOM     77  C   UNL A   1      42.770  24.629  36.377  1.00  0.00     0.022 A 
BRANCH  74  78
ATOM     78  S   UNL A   1      44.363  23.346  34.498  1.00  0.00     0.124 S 
ATOM     79  O   UNL A   1      43.285  22.853  33.649  1.00  0.00    -0.237 OA
ATOM     80  O   UNL A   1      45.503  23.945  33.811  1.00  0.00    -0.237 OA
ATOM     81  O   UNL A   1      44.698  22.496  35.639  1.00  0.00    -0.744 OA
ENDBRANCH  74  78
ENDBRANCH  57  71
BRANCH  58  82
ATOM     82  C   UNL A   1      42.995  24.141  27.021  1.00  0.00     0.023 A 
ATOM     83  C   UNL A   1      43.890  23.484  26.143  1.00  0.00     0.031 A 
ATOM     84  C   UNL A   1      41.869  23.393  27.438  1.00  0.00     0.131 A 
ATOM     85  C   UNL A   1      43.635  22.151  25.720  1.00  0.00     0.055 A 
ATOM     86  C   UNL A   1      41.625  22.082  27.020  1.00  0.00     0.041 A 
ATOM     87  F   UNL A   1      41.006  23.885  28.341  1.00  0.00    -0.206 F 
ATOM     88  C   UNL A   1      42.512  21.451  26.165  1.00  0.00     0.022 A 
BRANCH  85  89
ATOM     89  S   UNL A   1      44.803  21.262  24.630  1.00  0.00     0.124 S 
ATOM     90  O   UNL A   1      46.064  21.392  25.351  1.00  0.00    -0.237 OA
ATOM     91  O   UNL A   1      44.223  19.926  24.571  1.00  0.00    -0.237 OA
ATOM     92  O   UNL A   1      44.738  22.011  23.373  1.00  0.00    -0.744 OA
ENDBRANCH  85  89
ENDBRANCH  58  82
BRANCH  70  93
ATOM     93  C   UNL A   1      45.928  29.287  29.253  1.00  0.00     0.023 A 
ATOM     94  C   UNL A   1      45.053  30.060  28.451  1.00  0.00     0.031 A 
ATOM     95  C   UNL A   1      47.308  29.501  29.093  1.00  0.00     0.131 A 
ATOM     96  C   UNL A   1      45.573  30.994  27.529  1.00  0.00     0.055 A 
ATOM     97  C   UNL A   1      47.817  30.441  28.197  1.00  0.00     0.041 A 
ATOM     98  F   UNL A   1      48.191  28.822  29.842  1.00  0.00    -0.206 F 
ATOM     99  C   UNL A   1      46.952  31.189  27.407  1.00  0.00     0.022 A 
BRANCH  96 100
ATOM    100  S   UNL A   1      44.463  31.968  26.454  1.00  0.00     0.124 S 
ATOM    101  O   UNL A   1      44.012  33.048  27.324  1.00  0.00    -0.237 OA
ATOM    102  O   UNL A   1      45.343  32.358  25.356  1.00  0.00    -0.237 OA
ATOM    103  O   UNL A   1      43.419  31.010  26.084  1.00  0.00    -0.744 OA
ENDBRANCH  96 100
ENDBRANCH  70  93
ENDBRANCH  44  45
ENDBRANCH  36  39
ENDBRANCH  34  35
ENDBRANCH  33  34
ENDBRANCH  32  33
ENDBRANCH   1  32
TORSDOF 21
ENDMDL
