MODEL 1
REMARK VINA RESULT:     -10.7      0.000      0.000
REMARK SMILES C[C@H](C(=O)NCCCCCCNC(=O)c1ccc(-c2c3nc(c(-c4cc(S(=O)(=O)[O-])ccc4F)c4ccc([nH]4)c(-c4cc(S(=O)(=O)[O-])ccc4F)c4nc(c(-c5cc(S(=O)(=O)[O-])ccc5F)c5ccc2[nH]5)C=C4)C=C3)cc1)c1ccc2c(c1)[nH]c1ccc(Cl)cc12
REMARK SMILES IDX 9 1 8 2 7 3 6 4 5 5 3 6 4 7 2 9 1 10 78 11 79 12 83 13 80 14
REMARK SMILES IDX 82 15 81 16 84 17 91 18 85 19 90 21 86 22 88 23 87 24 89 25
REMARK SMILES IDX 10 26 11 27 12 28 13 29 14 31 15 32 16 33 77 34 17 35 76 36
REMARK SMILES IDX 18 37 19 38 20 39 70 40 21 41 75 42 69 43 71 44 22 45 74 46
REMARK SMILES IDX 68 47 67 48 23 50 55 51 35 52 54 53 36 54 39 55 53 56 72 57
REMARK SMILES IDX 37 58 38 59 52 61 73 62 40 63 24 64 25 65 33 66 26 67 32 68
REMARK SMILES IDX 34 69 31 70 27 71 28 72 29 73 30 74 56 75 57 76 65 77 58 78
REMARK SMILES IDX 64 79 66 80 63 81 59 82 60 83 61 84 62 85 41 86 42 87 50 88
REMARK SMILES IDX 43 89 49 90 51 91 48 92 44 93 45 94 46 95 47 96
REMARK H PARENT 5 8 84 20 12 30 71 49 39 60
REMARK Flexibility Score: inf
ROOT
ATOM      1  C   UNL A   1      42.033  19.635  27.504  1.00  0.00     0.002 C 
ENDROOT
BRANCH   1   2
ATOM      2  C   UNL A   1      42.318  19.036  26.123  1.00  0.00     0.002 C 
BRANCH   2   3
ATOM      3  C   UNL A   1      43.748  18.549  25.876  1.00  0.00     0.021 C 
BRANCH   3   4
ATOM      4  C   UNL A   1      44.614  19.436  24.985  1.00  0.00     0.116 C 
BRANCH   4   5
ATOM      5  N   UNL A   1      43.935  20.641  24.535  1.00  0.00    -0.356 N 
ATOM      6  C   UNL A   1      44.353  21.941  24.511  1.00  0.00     0.227 C 
ATOM      7  O   UNL A   1      43.645  22.744  23.893  1.00  0.00    -0.274 OA
ATOM      8  H   UNL A   1      43.024  20.497  24.191  1.00  0.00     0.163 HD
BRANCH   6   9
ATOM      9  C   UNL A   1      45.590  22.435  25.275  1.00  0.00     0.105 C 
ATOM     10  C   UNL A   1      46.443  23.245  24.289  1.00  0.00     0.023 C 
BRANCH   9  11
ATOM     11  C   UNL A   1      45.326  23.113  26.620  1.00  0.00    -0.034 A 
ATOM     12  C   UNL A   1      44.159  22.852  27.357  1.00  0.00     0.005 A 
ATOM     13  C   UNL A   1      46.253  24.036  27.134  1.00  0.00     0.031 A 
ATOM     14  C   UNL A   1      43.959  23.393  28.638  1.00  0.00     0.011 A 
ATOM     15  C   UNL A   1      46.072  24.512  28.436  1.00  0.00     0.047 A 
ATOM     16  C   UNL A   1      44.955  24.209  29.207  1.00  0.00     0.007 A 
ATOM     17  N   UNL A   1      46.896  25.300  29.200  1.00  0.00    -0.355 N 
ATOM     18  C   UNL A   1      45.118  24.869  30.469  1.00  0.00     0.009 A 
ATOM     19  C   UNL A   1      46.333  25.555  30.425  1.00  0.00     0.047 A 
ATOM     20  H   UNL A   1      47.774  25.637  28.908  1.00  0.00     0.167 HD
ATOM     21  C   UNL A   1      44.346  24.950  31.647  1.00  0.00     0.031 A 
ATOM     22  C   UNL A   1      46.813  26.334  31.482  1.00  0.00     0.028 A 
ATOM     23  C   UNL A   1      44.810  25.734  32.708  1.00  0.00     0.041 A 
ATOM     24  C   UNL A   1      46.020  26.420  32.628  1.00  0.00     0.022 A 
ATOM     25  Cl  UNL A   1      43.860  25.863  34.140  1.00  0.00    -0.084 Cl
ENDBRANCH   9  11
ENDBRANCH   6   9
ENDBRANCH   4   5
ENDBRANCH   3   4
ENDBRANCH   2   3
ENDBRANCH   1   2
BRANCH   1  26
ATOM     26  C   UNL A   1      41.037  20.798  27.543  1.00  0.00     0.021 C 
BRANCH  26  27
ATOM     27  C   UNL A   1      40.843  21.561  26.234  1.00  0.00     0.116 C 
BRANCH  27  28
ATOM     28  N   UNL A   1      39.447  21.794  25.915  1.00  0.00    -0.352 N 
ATOM     29  C   UNL A   1      38.647  22.884  26.169  1.00  0.00     0.251 C 
ATOM     30  H   UNL A   1      39.000  21.055  25.442  1.00  0.00     0.163 HD
ATOM     31  O   UNL A   1      37.445  22.806  25.932  1.00  0.00    -0.269 OA
BRANCH  29  32
ATOM     32  C   UNL A   1      39.208  24.128  26.753  1.00  0.00     0.039 A 
ATOM     33  C   UNL A   1      39.876  25.016  25.905  1.00  0.00     0.014 A 
ATOM     34  C   UNL A   1      39.116  24.416  28.118  1.00  0.00     0.014 A 
ATOM     35  C   UNL A   1      40.392  26.212  26.412  1.00  0.00     0.010 A 
ATOM     36  C   UNL A   1      39.566  25.645  28.609  1.00  0.00     0.010 A 
ATOM     37  C   UNL A   1      40.209  26.559  27.761  1.00  0.00    -0.014 A 
BRANCH  37  38
ATOM     38  C   UNL A   1      40.677  27.877  28.274  1.00  0.00     0.031 A 
ATOM     39  C   UNL A   1      42.146  28.197  28.358  1.00  0.00     0.074 A 
ATOM     40  C   UNL A   1      39.768  28.788  28.682  1.00  0.00     0.049 A 
ATOM     41  N   UNL A   1      42.733  29.290  28.779  1.00  0.00    -0.248 NA
ATOM     42  C   UNL A   1      43.079  27.142  27.936  1.00  0.00     0.031 C 
ATOM     43  C   UNL A   1      38.318  28.582  28.696  1.00  0.00     0.029 A 
ATOM     44  N   UNL A   1      39.923  30.067  29.160  1.00  0.00    -0.354 N 
ATOM     45  C   UNL A   1      44.099  29.061  28.660  1.00  0.00     0.074 A 
ATOM     46  C   UNL A   1      44.254  27.696  28.202  1.00  0.00     0.031 C 
ATOM     47  C   UNL A   1      37.717  29.703  29.128  1.00  0.00     0.029 A 
ATOM     48  C   UNL A   1      38.735  30.691  29.467  1.00  0.00     0.049 A 
ATOM     49  H   UNL A   1      40.802  30.496  29.273  1.00  0.00     0.167 HD
ATOM     50  C   UNL A   1      45.130  29.916  28.880  1.00  0.00     0.034 A 
ATOM     51  C   UNL A   1      38.489  31.917  29.973  1.00  0.00     0.034 A 
ATOM     52  C   UNL A   1      44.964  31.273  29.345  1.00  0.00     0.049 A 
ATOM     53  C   UNL A   1      39.655  32.838  30.243  1.00  0.00     0.074 A 
ATOM     54  C   UNL A   1      45.938  32.229  29.582  1.00  0.00     0.029 A 
ATOM     55  N   UNL A   1      43.747  31.870  29.651  1.00  0.00    -0.354 N 
ATOM     56  N   UNL A   1      40.939  32.617  30.076  1.00  0.00    -0.248 NA
ATOM     57  C   UNL A   1      39.335  34.178  30.751  1.00  0.00     0.031 C 
ATOM     58  C   UNL A   1      45.318  33.375  30.093  1.00  0.00     0.029 A 
ATOM     59  C   UNL A   1      43.950  33.168  30.097  1.00  0.00     0.049 A 
ATOM     60  H   UNL A   1      42.868  31.433  29.564  1.00  0.00     0.167 HD
ATOM     61  C   UNL A   1      41.575  33.803  30.432  1.00  0.00     0.074 A 
ATOM     62  C   UNL A   1      40.532  34.742  30.790  1.00  0.00     0.031 C 
ATOM     63  C   UNL A   1      42.902  34.092  30.465  1.00  0.00     0.034 A 
BRANCH  50  64
ATOM     64  C   UNL A   1      46.529  29.402  28.628  1.00  0.00     0.023 A 
ATOM     65  C   UNL A   1      46.961  29.061  27.334  1.00  0.00     0.031 A 
ATOM     66  C   UNL A   1      47.440  29.247  29.687  1.00  0.00     0.131 A 
ATOM     67  C   UNL A   1      48.242  28.520  27.141  1.00  0.00     0.055 A 
ATOM     68  C   UNL A   1      48.742  28.785  29.477  1.00  0.00     0.041 A 
ATOM     69  F   UNL A   1      47.079  29.535  30.948  1.00  0.00    -0.206 F 
ATOM     70  C   UNL A   1      49.146  28.405  28.200  1.00  0.00     0.022 A 
BRANCH  67  71
ATOM     71  S   UNL A   1      48.661  27.845  25.511  1.00  0.00     0.124 S 
ATOM     72  O   UNL A   1      47.684  28.516  24.655  1.00  0.00    -0.237 OA
ATOM     73  O   UNL A   1      50.048  28.260  25.345  1.00  0.00    -0.237 OA
ATOM     74  O   UNL A   1      48.453  26.407  25.672  1.00  0.00    -0.744 OA
ENDBRANCH  67  71
ENDBRANCH  50  64
BRANCH  51  75
ATOM     75  C   UNL A   1      37.093  32.347  30.282  1.00  0.00     0.023 A 
ATOM     76  C   UNL A   1      36.297  32.995  29.323  1.00  0.00     0.031 A 
ATOM     77  C   UNL A   1      36.555  32.174  31.571  1.00  0.00     0.131 A 
ATOM     78  C   UNL A   1      35.040  33.502  29.684  1.00  0.00     0.055 A 
ATOM     79  C   UNL A   1      35.276  32.620  31.905  1.00  0.00     0.041 A 
ATOM     80  F   UNL A   1      37.268  31.558  32.527  1.00  0.00    -0.206 F 
ATOM     81  C   UNL A   1      34.517  33.306  30.964  1.00  0.00     0.022 A 
BRANCH  78  82
ATOM     82  S   UNL A   1      34.142  34.532  28.487  1.00  0.00     0.124 S 
ATOM     83  O   UNL A   1      32.850  33.859  28.428  1.00  0.00    -0.237 OA
ATOM     84  O   UNL A   1      34.158  35.837  29.140  1.00  0.00    -0.237 OA
ATOM     85  O   UNL A   1      34.955  34.432  27.277  1.00  0.00    -0.744 OA
ENDBRANCH  78  82
ENDBRANCH  51  75
BRANCH  63  86
ATOM     86  C   UNL A   1      43.286  35.497  30.867  1.00  0.00     0.023 A 
ATOM     87  C   UNL A   1      43.377  35.882  32.217  1.00  0.00     0.031 A 
ATOM     88  C   UNL A   1      43.527  36.477  29.886  1.00  0.00     0.131 A 
ATOM     89  C   UNL A   1      43.621  37.224  32.548  1.00  0.00     0.055 A 
ATOM     90  C   UNL A   1      43.844  37.793  30.222  1.00  0.00     0.041 A 
ATOM     91  F   UNL A   1      43.453  36.170  28.581  1.00  0.00    -0.206 F 
ATOM     92  C   UNL A   1      43.873  38.178  31.560  1.00  0.00     0.022 A 
BRANCH  89  93
ATOM     93  S   UNL A   1      43.476  37.731  34.284  1.00  0.00     0.124 S 
ATOM     94  O   UNL A   1      44.698  37.183  34.861  1.00  0.00    -0.237 OA
ATOM     95  O   UNL A   1      43.417  39.185  34.179  1.00  0.00    -0.237 OA
ATOM     96  O   UNL A   1      42.239  37.091  34.726  1.00  0.00    -0.744 OA
ENDBRANCH  89  93
ENDBRANCH  63  86
ENDBRANCH  37  38
ENDBRANCH  29  32
ENDBRANCH  27  28
ENDBRANCH  26  27
ENDBRANCH   1  26
TORSDOF 17
ENDMDL
MODEL 2
REMARK VINA RESULT:     -10.6      5.881     11.858
REMARK SMILES C[C@H](C(=O)NCCCCCCNC(=O)c1ccc(-c2c3nc(c(-c4cc(S(=O)(=O)[O-])ccc4F)c4ccc([nH]4)c(-c4cc(S(=O)(=O)[O-])ccc4F)c4nc(c(-c5cc(S(=O)(=O)[O-])ccc5F)c5ccc2[nH]5)C=C4)C=C3)cc1)c1ccc2c(c1)[nH]c1ccc(Cl)cc12
REMARK SMILES IDX 9 1 8 2 7 3 6 4 5 5 3 6 4 7 2 9 1 10 78 11 79 12 83 13 80 14
REMARK SMILES IDX 82 15 81 16 84 17 91 18 85 19 90 21 86 22 88 23 87 24 89 25
REMARK SMILES IDX 10 26 11 27 12 28 13 29 14 31 15 32 16 33 77 34 17 35 76 36
REMARK SMILES IDX 18 37 19 38 20 39 70 40 21 41 75 42 69 43 71 44 22 45 74 46
REMARK SMILES IDX 68 47 67 48 23 50 55 51 35 52 54 53 36 54 39 55 53 56 72 57
REMARK SMILES IDX 37 58 38 59 52 61 73 62 40 63 24 64 25 65 33 66 26 67 32 68
REMARK SMILES IDX 34 69 31 70 27 71 28 72 29 73 30 74 56 75 57 76 65 77 58 78
REMARK SMILES IDX 64 79 66 80 63 81 59 82 60 83 61 84 62 85 41 86 42 87 50 88
REMARK SMILES IDX 43 89 49 90 51 91 48 92 44 93 45 94 46 95 47 96
REMARK H PARENT 5 8 84 20 12 30 71 49 39 60
REMARK Flexibility Score: inf
ROOT
ATOM      1  C   UNL A   1      31.707  29.290  24.272  1.00  0.00     0.002 C 
ENDROOT
BRANCH   1   2
ATOM      2  C   UNL A   1      30.424  28.728  23.653  1.00  0.00     0.002 C 
BRANCH   2   3
ATOM      3  C   UNL A   1      30.508  27.307  23.089  1.00  0.00     0.021 C 
BRANCH   3   4
ATOM      4  C   UNL A   1      29.754  26.231  23.866  1.00  0.00     0.116 C 
BRANCH   4   5
ATOM      5  N   UNL A   1      30.065  26.220  25.287  1.00  0.00    -0.356 N 
ATOM      6  C   UNL A   1      31.255  26.053  25.935  1.00  0.00     0.227 C 
ATOM      7  O   UNL A   1      31.268  26.283  27.149  1.00  0.00    -0.274 OA
ATOM      8  H   UNL A   1      29.291  26.356  25.880  1.00  0.00     0.163 HD
BRANCH   6   9
ATOM      9  C   UNL A   1      32.517  25.521  25.240  1.00  0.00     0.105 C 
ATOM     10  C   UNL A   1      33.712  26.305  25.801  1.00  0.00     0.023 C 
BRANCH   9  11
ATOM     11  C   UNL A   1      32.686  24.002  25.218  1.00  0.00    -0.034 A 
ATOM     12  C   UNL A   1      32.944  23.274  26.391  1.00  0.00     0.005 A 
ATOM     13  C   UNL A   1      32.603  23.305  23.999  1.00  0.00     0.031 A 
ATOM     14  C   UNL A   1      32.999  21.871  26.392  1.00  0.00     0.011 A 
ATOM     15  C   UNL A   1      32.593  21.907  24.027  1.00  0.00     0.047 A 
ATOM     16  C   UNL A   1      32.779  21.169  25.191  1.00  0.00     0.007 A 
ATOM     17  N   UNL A   1      32.388  21.016  23.004  1.00  0.00    -0.355 N 
ATOM     18  C   UNL A   1      32.706  19.783  24.832  1.00  0.00     0.009 A 
ATOM     19  C   UNL A   1      32.477  19.723  23.456  1.00  0.00     0.047 A 
ATOM     20  H   UNL A   1      32.202  21.270  22.071  1.00  0.00     0.167 HD
ATOM     21  C   UNL A   1      32.814  18.573  25.546  1.00  0.00     0.031 A 
ATOM     22  C   UNL A   1      32.371  18.522  22.749  1.00  0.00     0.028 A 
ATOM     23  C   UNL A   1      32.719  17.363  24.849  1.00  0.00     0.041 A 
ATOM     24  C   UNL A   1      32.506  17.336  23.472  1.00  0.00     0.022 A 
ATOM     25  Cl  UNL A   1      32.879  15.879  25.709  1.00  0.00    -0.084 Cl
ENDBRANCH   9  11
ENDBRANCH   6   9
ENDBRANCH   4   5
ENDBRANCH   3   4
ENDBRANCH   2   3
ENDBRANCH   1   2
BRANCH   1  26
ATOM     26  C   UNL A   1      31.655  29.598  25.771  1.00  0.00     0.021 C 
BRANCH  26  27
ATOM     27  C   UNL A   1      32.962  30.076  26.404  1.00  0.00     0.116 C 
BRANCH  27  28
ATOM     28  N   UNL A   1      32.919  31.469  26.809  1.00  0.00    -0.352 N 
ATOM     29  C   UNL A   1      33.762  32.182  27.629  1.00  0.00     0.251 C 
ATOM     30  H   UNL A   1      32.168  31.986  26.438  1.00  0.00     0.163 HD
ATOM     31  O   UNL A   1      33.451  33.326  27.949  1.00  0.00    -0.269 OA
BRANCH  29  32
ATOM     32  C   UNL A   1      35.012  31.580  28.155  1.00  0.00     0.039 A 
ATOM     33  C   UNL A   1      36.163  32.373  28.200  1.00  0.00     0.014 A 
ATOM     34  C   UNL A   1      35.079  30.247  28.570  1.00  0.00     0.014 A 
ATOM     35  C   UNL A   1      37.353  31.851  28.716  1.00  0.00     0.010 A 
ATOM     36  C   UNL A   1      36.247  29.750  29.155  1.00  0.00     0.010 A 
ATOM     37  C   UNL A   1      37.399  30.547  29.236  1.00  0.00    -0.014 A 
BRANCH  37  38
ATOM     38  C   UNL A   1      38.643  30.029  29.872  1.00  0.00     0.031 A 
ATOM     39  C   UNL A   1      39.087  30.529  31.221  1.00  0.00     0.074 A 
ATOM     40  C   UNL A   1      39.386  29.111  29.219  1.00  0.00     0.049 A 
ATOM     41  N   UNL A   1      40.140  30.192  31.924  1.00  0.00    -0.248 NA
ATOM     42  C   UNL A   1      38.251  31.559  31.855  1.00  0.00     0.031 C 
ATOM     43  C   UNL A   1      39.089  28.582  27.886  1.00  0.00     0.029 A 
ATOM     44  N   UNL A   1      40.538  28.457  29.583  1.00  0.00    -0.354 N 
ATOM     45  C   UNL A   1      40.087  30.956  33.084  1.00  0.00     0.074 A 
ATOM     46  C   UNL A   1      38.940  31.830  32.954  1.00  0.00     0.031 C 
ATOM     47  C   UNL A   1      40.014  27.665  27.559  1.00  0.00     0.029 A 
ATOM     48  C   UNL A   1      40.997  27.572  28.633  1.00  0.00     0.049 A 
ATOM     49  H   UNL A   1      40.994  28.609  30.442  1.00  0.00     0.167 HD
ATOM     50  C   UNL A   1      40.898  30.912  34.172  1.00  0.00     0.034 A 
ATOM     51  C   UNL A   1      42.088  26.781  28.622  1.00  0.00     0.034 A 
ATOM     52  C   UNL A   1      42.044  30.042  34.287  1.00  0.00     0.049 A 
ATOM     53  C   UNL A   1      42.995  26.776  29.829  1.00  0.00     0.074 A 
ATOM     54  C   UNL A   1      42.920  29.905  35.351  1.00  0.00     0.029 A 
ATOM     55  N   UNL A   1      42.481  29.163  33.303  1.00  0.00    -0.354 N 
ATOM     56  N   UNL A   1      42.898  27.472  30.938  1.00  0.00    -0.248 NA
ATOM     57  C   UNL A   1      44.146  25.865  29.788  1.00  0.00     0.031 C 
ATOM     58  C   UNL A   1      43.921  28.998  34.986  1.00  0.00     0.029 A 
ATOM     59  C   UNL A   1      43.625  28.503  33.727  1.00  0.00     0.049 A 
ATOM     60  H   UNL A   1      42.042  29.030  32.432  1.00  0.00     0.167 HD
ATOM     61  C   UNL A   1      43.961  27.059  31.738  1.00  0.00     0.074 A 
ATOM     62  C   UNL A   1      44.663  26.033  30.995  1.00  0.00     0.031 C 
ATOM     63  C   UNL A   1      44.327  27.490  32.972  1.00  0.00     0.034 A 
BRANCH  50  64
ATOM     64  C   UNL A   1      40.575  31.842  35.319  1.00  0.00     0.023 A 
ATOM     65  C   UNL A   1      39.492  31.592  36.182  1.00  0.00     0.031 A 
ATOM     66  C   UNL A   1      41.351  32.990  35.556  1.00  0.00     0.131 A 
ATOM     67  C   UNL A   1      39.175  32.510  37.195  1.00  0.00     0.055 A 
ATOM     68  C   UNL A   1      41.080  33.857  36.618  1.00  0.00     0.041 A 
ATOM     69  F   UNL A   1      42.384  33.294  34.755  1.00  0.00    -0.206 F 
ATOM     70  C   UNL A   1      39.978  33.627  37.437  1.00  0.00     0.022 A 
BRANCH  67  71
ATOM     71  S   UNL A   1      37.622  32.292  38.106  1.00  0.00     0.124 S 
ATOM     72  O   UNL A   1      37.425  30.847  38.010  1.00  0.00    -0.237 OA
ATOM     73  O   UNL A   1      37.957  32.805  39.428  1.00  0.00    -0.237 OA
ATOM     74  O   UNL A   1      36.665  33.095  37.347  1.00  0.00    -0.744 OA
ENDBRANCH  67  71
ENDBRANCH  50  64
BRANCH  51  75
ATOM     75  C   UNL A   1      42.408  25.942  27.428  1.00  0.00     0.023 A 
ATOM     76  C   UNL A   1      41.977  24.609  27.333  1.00  0.00     0.031 A 
ATOM     77  C   UNL A   1      43.211  26.446  26.388  1.00  0.00     0.131 A 
ATOM     78  C   UNL A   1      42.403  23.809  26.262  1.00  0.00     0.055 A 
ATOM     79  C   UNL A   1      43.576  25.667  25.290  1.00  0.00     0.041 A 
ATOM     80  F   UNL A   1      43.650  27.715  26.423  1.00  0.00    -0.206 F 
ATOM     81  C   UNL A   1      43.187  24.333  25.232  1.00  0.00     0.022 A 
BRANCH  78  82
ATOM     82  S   UNL A   1      42.017  22.035  26.294  1.00  0.00     0.124 S 
ATOM     83  O   UNL A   1      40.575  22.043  26.079  1.00  0.00    -0.237 OA
ATOM     84  O   UNL A   1      42.828  21.530  25.191  1.00  0.00    -0.237 OA
ATOM     85  O   UNL A   1      42.448  21.619  27.626  1.00  0.00    -0.744 OA
ENDBRANCH  78  82
ENDBRANCH  51  75
BRANCH  63  86
ATOM     86  C   UNL A   1      45.522  26.816  33.605  1.00  0.00     0.023 A 
ATOM     87  C   UNL A   1      45.396  25.625  34.343  1.00  0.00     0.031 A 
ATOM     88  C   UNL A   1      46.801  27.393  33.501  1.00  0.00     0.131 A 
ATOM     89  C   UNL A   1      46.509  25.094  35.013  1.00  0.00     0.055 A 
ATOM     90  C   UNL A   1      47.920  26.818  34.106  1.00  0.00     0.041 A 
ATOM     91  F   UNL A   1      46.984  28.530  32.811  1.00  0.00    -0.206 F 
ATOM     92  C   UNL A   1      47.774  25.673  34.884  1.00  0.00     0.022 A 
BRANCH  89  93
ATOM     93  S   UNL A   1      46.256  23.711  36.158  1.00  0.00     0.124 S 
ATOM     94  O   UNL A   1      44.830  23.444  36.000  1.00  0.00    -0.237 OA
ATOM     95  O   UNL A   1      47.157  22.695  35.624  1.00  0.00    -0.237 OA
ATOM     96  O   UNL A   1      46.644  24.264  37.454  1.00  0.00    -0.744 OA
ENDBRANCH  89  93
ENDBRANCH  63  86
ENDBRANCH  37  38
ENDBRANCH  29  32
ENDBRANCH  27  28
ENDBRANCH  26  27
ENDBRANCH   1  26
TORSDOF 17
ENDMDL
MODEL 3
REMARK VINA RESULT:     -10.5      5.884     10.779
REMARK SMILES C[C@H](C(=O)NCCCCCCNC(=O)c1ccc(-c2c3nc(c(-c4cc(S(=O)(=O)[O-])ccc4F)c4ccc([nH]4)c(-c4cc(S(=O)(=O)[O-])ccc4F)c4nc(c(-c5cc(S(=O)(=O)[O-])ccc5F)c5ccc2[nH]5)C=C4)C=C3)cc1)c1ccc2c(c1)[nH]c1ccc(Cl)cc12
REMARK SMILES IDX 9 1 8 2 7 3 6 4 5 5 3 6 4 7 2 9 1 10 78 11 79 12 83 13 80 14
REMARK SMILES IDX 82 15 81 16 84 17 91 18 85 19 90 21 86 22 88 23 87 24 89 25
REMARK SMILES IDX 10 26 11 27 12 28 13 29 14 31 15 32 16 33 77 34 17 35 76 36
REMARK SMILES IDX 18 37 19 38 20 39 70 40 21 41 75 42 69 43 71 44 22 45 74 46
REMARK SMILES IDX 68 47 67 48 23 50 55 51 35 52 54 53 36 54 39 55 53 56 72 57
REMARK SMILES IDX 37 58 38 59 52 61 73 62 40 63 24 64 25 65 33 66 26 67 32 68
REMARK SMILES IDX 34 69 31 70 27 71 28 72 29 73 30 74 56 75 57 76 65 77 58 78
REMARK SMILES IDX 64 79 66 80 63 81 59 82 60 83 61 84 62 85 41 86 42 87 50 88
REMARK SMILES IDX 43 89 49 90 51 91 48 92 44 93 45 94 46 95 47 96
REMARK H PARENT 5 8 84 20 12 30 71 49 39 60
REMARK Flexibility Score: inf
ROOT
ATOM      1  C   UNL A   1      31.632  30.443  26.020  1.00  0.00     0.002 C 
ENDROOT
BRANCH   1   2
ATOM      2  C   UNL A   1      32.166  29.333  26.930  1.00  0.00     0.002 C 
BRANCH   2   3
ATOM      3  C   UNL A   1      33.620  28.911  26.704  1.00  0.00     0.021 C 
BRANCH   3   4
ATOM      4  C   UNL A   1      33.833  27.489  26.192  1.00  0.00     0.116 C 
BRANCH   4   5
ATOM      5  N   UNL A   1      33.208  27.239  24.902  1.00  0.00    -0.356 N 
ATOM      6  C   UNL A   1      32.087  26.528  24.581  1.00  0.00     0.227 C 
ATOM      7  O   UNL A   1      31.668  26.640  23.423  1.00  0.00    -0.274 OA
ATOM      8  H   UNL A   1      33.668  27.650  24.135  1.00  0.00     0.163 HD
BRANCH   6   9
ATOM      9  C   UNL A   1      31.403  25.559  25.556  1.00  0.00     0.105 C 
ATOM     10  C   UNL A   1      29.892  25.815  25.469  1.00  0.00     0.023 C 
BRANCH   9  11
ATOM     11  C   UNL A   1      31.824  24.093  25.457  1.00  0.00    -0.034 A 
ATOM     12  C   UNL A   1      32.185  23.354  26.595  1.00  0.00     0.005 A 
ATOM     13  C   UNL A   1      31.874  23.461  24.202  1.00  0.00     0.031 A 
ATOM     14  C   UNL A   1      32.475  21.982  26.524  1.00  0.00     0.011 A 
ATOM     15  C   UNL A   1      32.098  22.082  24.156  1.00  0.00     0.047 A 
ATOM     16  C   UNL A   1      32.390  21.321  25.283  1.00  0.00     0.007 A 
ATOM     17  N   UNL A   1      32.058  21.227  23.083  1.00  0.00    -0.355 N 
ATOM     18  C   UNL A   1      32.555  19.965  24.849  1.00  0.00     0.009 A 
ATOM     19  C   UNL A   1      32.357  19.944  23.468  1.00  0.00     0.047 A 
ATOM     20  H   UNL A   1      31.843  21.498  22.161  1.00  0.00     0.167 HD
ATOM     21  C   UNL A   1      32.855  18.751  25.501  1.00  0.00     0.031 A 
ATOM     22  C   UNL A   1      32.461  18.783  22.696  1.00  0.00     0.028 A 
ATOM     23  C   UNL A   1      32.972  17.584  24.739  1.00  0.00     0.041 A 
ATOM     24  C   UNL A   1      32.784  17.597  23.359  1.00  0.00     0.022 A 
ATOM     25  Cl  UNL A   1      33.367  16.101  25.522  1.00  0.00    -0.084 Cl
ENDBRANCH   9  11
ENDBRANCH   6   9
ENDBRANCH   4   5
ENDBRANCH   3   4
ENDBRANCH   2   3
ENDBRANCH   1   2
BRANCH   1  26
ATOM     26  C   UNL A   1      31.468  31.824  26.663  1.00  0.00     0.021 C 
BRANCH  26  27
ATOM     27  C   UNL A   1      32.747  32.480  27.180  1.00  0.00     0.116 C 
BRANCH  27  28
ATOM     28  N   UNL A   1      32.554  33.862  27.580  1.00  0.00    -0.352 N 
ATOM     29  C   UNL A   1      33.184  34.602  28.553  1.00  0.00     0.251 C 
ATOM     30  H   UNL A   1      31.863  34.347  27.074  1.00  0.00     0.163 HD
ATOM     31  O   UNL A   1      32.758  35.723  28.815  1.00  0.00    -0.269 OA
BRANCH  29  32
ATOM     32  C   UNL A   1      34.338  34.053  29.308  1.00  0.00     0.039 A 
ATOM     33  C   UNL A   1      34.080  33.223  30.403  1.00  0.00     0.014 A 
ATOM     34  C   UNL A   1      35.660  34.368  28.979  1.00  0.00     0.014 A 
ATOM     35  C   UNL A   1      35.140  32.663  31.121  1.00  0.00     0.010 A 
ATOM     36  C   UNL A   1      36.718  33.748  29.650  1.00  0.00     0.010 A 
ATOM     37  C   UNL A   1      36.471  32.887  30.730  1.00  0.00    -0.014 A 
BRANCH  37  38
ATOM     38  C   UNL A   1      37.593  32.211  31.440  1.00  0.00     0.031 A 
ATOM     39  C   UNL A   1      38.333  31.065  30.802  1.00  0.00     0.074 A 
ATOM     40  C   UNL A   1      37.937  32.625  32.678  1.00  0.00     0.049 A 
ATOM     41  N   UNL A   1      39.332  30.360  31.272  1.00  0.00    -0.248 NA
ATOM     42  C   UNL A   1      37.877  30.640  29.470  1.00  0.00     0.031 C 
ATOM     43  C   UNL A   1      37.268  33.693  33.424  1.00  0.00     0.029 A 
ATOM     44  N   UNL A   1      38.933  32.206  33.526  1.00  0.00    -0.354 N 
ATOM     45  C   UNL A   1      39.631  29.419  30.292  1.00  0.00     0.074 A 
ATOM     46  C   UNL A   1      38.657  29.595  29.236  1.00  0.00     0.031 C 
ATOM     47  C   UNL A   1      37.889  33.864  34.602  1.00  0.00     0.029 A 
ATOM     48  C   UNL A   1      38.970  32.892  34.719  1.00  0.00     0.049 A 
ATOM     49  H   UNL A   1      39.560  31.481  33.302  1.00  0.00     0.167 HD
ATOM     50  C   UNL A   1      40.643  28.515  30.259  1.00  0.00     0.034 A 
ATOM     51  C   UNL A   1      39.775  32.751  35.791  1.00  0.00     0.034 A 
ATOM     52  C   UNL A   1      41.604  28.343  31.323  1.00  0.00     0.049 A 
ATOM     53  C   UNL A   1      40.871  31.713  35.745  1.00  0.00     0.074 A 
ATOM     54  C   UNL A   1      42.678  27.471  31.382  1.00  0.00     0.029 A 
ATOM     55  N   UNL A   1      41.608  29.052  32.518  1.00  0.00    -0.354 N 
ATOM     56  N   UNL A   1      41.168  30.866  34.786  1.00  0.00    -0.248 NA
ATOM     57  C   UNL A   1      41.751  31.628  36.917  1.00  0.00     0.031 C 
ATOM     58  C   UNL A   1      43.287  27.604  32.636  1.00  0.00     0.029 A 
ATOM     59  C   UNL A   1      42.648  28.618  33.328  1.00  0.00     0.049 A 
ATOM     60  H   UNL A   1      40.965  29.759  32.756  1.00  0.00     0.167 HD
ATOM     61  C   UNL A   1      42.288  30.168  35.231  1.00  0.00     0.074 A 
ATOM     62  C   UNL A   1      42.629  30.717  36.527  1.00  0.00     0.031 C 
ATOM     63  C   UNL A   1      42.971  29.163  34.627  1.00  0.00     0.034 A 
BRANCH  50  64
ATOM     64  C   UNL A   1      40.752  27.636  29.034  1.00  0.00     0.023 A 
ATOM     65  C   UNL A   1      41.702  27.895  28.030  1.00  0.00     0.031 A 
ATOM     66  C   UNL A   1      39.901  26.531  28.863  1.00  0.00     0.131 A 
ATOM     67  C   UNL A   1      41.733  27.103  26.872  1.00  0.00     0.055 A 
ATOM     68  C   UNL A   1      39.991  25.697  27.746  1.00  0.00     0.041 A 
ATOM     69  F   UNL A   1      38.960  26.245  29.776  1.00  0.00    -0.206 F 
ATOM     70  C   UNL A   1      40.902  25.989  26.734  1.00  0.00     0.022 A 
BRANCH  67  71
ATOM     71  S   UNL A   1      42.782  27.631  25.490  1.00  0.00     0.124 S 
ATOM     72  O   UNL A   1      42.042  28.786  24.983  1.00  0.00    -0.237 OA
ATOM     73  O   UNL A   1      44.049  27.923  26.148  1.00  0.00    -0.237 OA
ATOM     74  O   UNL A   1      42.791  26.469  24.603  1.00  0.00    -0.744 OA
ENDBRANCH  67  71
ENDBRANCH  50  64
BRANCH  51  75
ATOM     75  C   UNL A   1      39.573  33.589  37.011  1.00  0.00     0.023 A 
ATOM     76  C   UNL A   1      40.350  34.733  37.250  1.00  0.00     0.031 A 
ATOM     77  C   UNL A   1      38.638  33.215  37.993  1.00  0.00     0.131 A 
ATOM     78  C   UNL A   1      40.225  35.424  38.465  1.00  0.00     0.055 A 
ATOM     79  C   UNL A   1      38.469  33.944  39.171  1.00  0.00     0.041 A 
ATOM     80  F   UNL A   1      37.865  32.131  37.818  1.00  0.00    -0.206 F 
ATOM     81  C   UNL A   1      39.280  35.046  39.421  1.00  0.00     0.022 A 
BRANCH  78  82
ATOM     82  S   UNL A   1      41.403  36.756  38.833  1.00  0.00     0.124 S 
ATOM     83  O   UNL A   1      42.034  36.959  37.535  1.00  0.00    -0.237 OA
ATOM     84  O   UNL A   1      40.519  37.822  39.293  1.00  0.00    -0.237 OA
ATOM     85  O   UNL A   1      42.262  36.173  39.862  1.00  0.00    -0.744 OA
ENDBRANCH  78  82
ENDBRANCH  51  75
BRANCH  63  86
ATOM     86  C   UNL A   1      44.181  28.624  35.355  1.00  0.00     0.023 A 
ATOM     87  C   UNL A   1      44.076  27.584  36.296  1.00  0.00     0.031 A 
ATOM     88  C   UNL A   1      45.452  29.186  35.134  1.00  0.00     0.131 A 
ATOM     89  C   UNL A   1      45.202  27.193  37.036  1.00  0.00     0.055 A 
ATOM     90  C   UNL A   1      46.583  28.740  35.819  1.00  0.00     0.041 A 
ATOM     91  F   UNL A   1      45.614  30.183  34.250  1.00  0.00    -0.206 F 
ATOM     92  C   UNL A   1      46.459  27.751  36.791  1.00  0.00     0.022 A 
BRANCH  89  93
ATOM     93  S   UNL A   1      44.977  26.034  38.414  1.00  0.00     0.124 S 
ATOM     94  O   UNL A   1      46.174  26.278  39.211  1.00  0.00    -0.237 OA
ATOM     95  O   UNL A   1      43.719  26.487  38.999  1.00  0.00    -0.237 OA
ATOM     96  O   UNL A   1      44.921  24.729  37.759  1.00  0.00    -0.744 OA
ENDBRANCH  89  93
ENDBRANCH  63  86
ENDBRANCH  37  38
ENDBRANCH  29  32
ENDBRANCH  27  28
ENDBRANCH  26  27
ENDBRANCH   1  26
TORSDOF 17
ENDMDL
