MODEL 1
REMARK VINA RESULT:     -12.2      0.000      0.000
REMARK SMILES CC(C)(C)c1cc(Nc2ccccc2C(=O)NCCCCCCNC(=O)c2ccc(-c3c4nc(c(-c5cc(S(=O)(=O)[O-])ccc5F)c5ccc([nH]5)c(-c5cc(S(=O)(=O)[O-])ccc5F)c5nc(c(-c6cc(S(=O)(=O)[O-])ccc6F)c6ccc3[nH]6)C=C5)C=C4)cc2)cc2c1OCC2(C)C
REMARK SMILES IDX 20 1 19 2 18 3 17 4 15 5 16 6 14 8 9 9 10 10 11 11 13 12
REMARK SMILES IDX 12 13 8 14 7 16 5 17 6 18 92 19 91 20 93 21 90 22 95 23
REMARK SMILES IDX 94 24 96 25 97 26 2 27 1 28 3 29 4 30 21 31 22 32 23 33
REMARK SMILES IDX 24 34 25 35 26 37 27 38 28 39 89 40 29 41 88 42 30 43 31 44
REMARK SMILES IDX 32 45 82 46 33 47 87 48 81 49 83 50 34 51 86 52 80 53 79 54
REMARK SMILES IDX 35 56 67 57 47 58 66 59 48 60 51 61 65 62 84 63 49 64 50 65
REMARK SMILES IDX 64 67 85 68 52 69 36 70 37 71 45 72 38 73 44 74 46 75 43 76
REMARK SMILES IDX 39 77 40 78 41 79 42 80 68 81 69 82 77 83 70 84 76 85 78 86
REMARK SMILES IDX 75 87 71 88 72 89 73 90 74 91 53 92 54 93 62 94 55 95 61 96
REMARK SMILES IDX 63 97 60 98 56 99 57 100 58 101 59 102
REMARK H PARENT 17 7 8 15 24 36 83 55 51 66
REMARK Flexibility Score: inf
ROOT
ATOM      1  C   UNL A   1      33.719  26.754  24.186  1.00  0.00     0.002 C 
ENDROOT
BRANCH   1   2
ATOM      2  C   UNL A   1      34.071  25.351  23.686  1.00  0.00     0.021 C 
BRANCH   2   3
ATOM      3  C   UNL A   1      33.578  24.872  22.322  1.00  0.00     0.116 C 
BRANCH   3   4
ATOM      4  N   UNL A   1      32.871  23.619  22.263  1.00  0.00    -0.352 N 
ATOM      5  C   UNL A   1      31.761  23.169  22.948  1.00  0.00     0.253 C 
ATOM      6  O   UNL A   1      31.350  22.054  22.603  1.00  0.00    -0.269 OA
ATOM      7  H   UNL A   1      33.243  22.971  21.622  1.00  0.00     0.163 HD
BRANCH   5   8
ATOM      8  C   UNL A   1      31.040  23.846  24.090  1.00  0.00     0.063 A 
ATOM      9  C   UNL A   1      30.834  23.420  25.419  1.00  0.00     0.051 A 
ATOM     10  C   UNL A   1      30.225  24.311  26.343  1.00  0.00     0.027 A 
ATOM     11  C   UNL A   1      29.751  25.564  25.973  1.00  0.00     0.002 A 
ATOM     12  C   UNL A   1      30.554  25.136  23.746  1.00  0.00     0.016 A 
ATOM     13  C   UNL A   1      29.905  25.974  24.662  1.00  0.00     0.001 A 
BRANCH   9  14
ATOM     14  N   UNL A   1      31.122  22.138  25.921  1.00  0.00    -0.355 N 
ATOM     15  H   UNL A   1      30.430  21.704  26.471  1.00  0.00     0.167 HD
BRANCH  14  16
ATOM     16  C   UNL A   1      32.325  21.419  25.704  1.00  0.00     0.039 A 
ATOM     17  C   UNL A   1      34.771  21.479  25.355  1.00  0.00     0.002 A 
ATOM     18  C   UNL A   1      33.562  22.091  25.759  1.00  0.00     0.034 A 
ATOM     19  C   UNL A   1      34.689  20.135  24.989  1.00  0.00     0.127 A 
ATOM     20  C   UNL A   1      33.492  19.452  24.943  1.00  0.00     0.006 A 
ATOM     21  O   UNL A   1      35.757  19.365  24.615  1.00  0.00    -0.492 OA
ATOM     22  C   UNL A   1      32.310  20.081  25.284  1.00  0.00     0.034 A 
ATOM     23  C   UNL A   1      33.710  18.042  24.516  1.00  0.00     0.028 C 
ATOM     24  C   UNL A   1      35.207  18.112  24.160  1.00  0.00     0.240 C 
ATOM     25  C   UNL A   1      33.448  17.102  25.695  1.00  0.00     0.020 C 
ATOM     26  C   UNL A   1      32.873  17.640  23.300  1.00  0.00     0.020 C 
BRANCH  17  27
ATOM     27  C   UNL A   1      36.077  22.258  25.172  1.00  0.00    -0.009 C 
ATOM     28  C   UNL A   1      37.299  21.467  25.670  1.00  0.00     0.016 C 
ATOM     29  C   UNL A   1      36.094  23.600  25.936  1.00  0.00     0.016 C 
ATOM     30  C   UNL A   1      36.219  22.552  23.660  1.00  0.00     0.016 C 
ENDBRANCH  17  27
ENDBRANCH  14  16
ENDBRANCH   9  14
ENDBRANCH   5   8
ENDBRANCH   3   4
ENDBRANCH   2   3
ENDBRANCH   1   2
BRANCH   1  31
ATOM     31  C   UNL A   1      33.318  26.958  25.651  1.00  0.00     0.002 C 
BRANCH  31  32
ATOM     32  C   UNL A   1      32.651  28.278  26.063  1.00  0.00     0.021 C 
BRANCH  32  33
ATOM     33  C   UNL A   1      33.164  29.588  25.447  1.00  0.00     0.116 C 
BRANCH  33  34
ATOM     34  N   UNL A   1      32.800  30.781  26.198  1.00  0.00    -0.352 N 
ATOM     35  C   UNL A   1      33.440  31.429  27.239  1.00  0.00     0.251 C 
ATOM     36  H   UNL A   1      31.953  31.198  25.917  1.00  0.00     0.163 HD
ATOM     37  O   UNL A   1      32.871  32.374  27.785  1.00  0.00    -0.269 OA
BRANCH  35  38
ATOM     38  C   UNL A   1      34.778  31.008  27.743  1.00  0.00     0.039 A 
ATOM     39  C   UNL A   1      35.087  29.675  27.987  1.00  0.00     0.014 A 
ATOM     40  C   UNL A   1      35.792  31.959  27.897  1.00  0.00     0.014 A 
ATOM     41  C   UNL A   1      36.323  29.322  28.564  1.00  0.00     0.010 A 
ATOM     42  C   UNL A   1      37.057  31.588  28.399  1.00  0.00     0.010 A 
ATOM     43  C   UNL A   1      37.329  30.272  28.811  1.00  0.00    -0.014 A 
BRANCH  43  44
ATOM     44  C   UNL A   1      38.622  29.918  29.513  1.00  0.00     0.031 A 
ATOM     45  C   UNL A   1      39.618  28.958  28.877  1.00  0.00     0.074 A 
ATOM     46  C   UNL A   1      38.951  30.438  30.717  1.00  0.00     0.049 A 
ATOM     47  N   UNL A   1      40.706  28.428  29.385  1.00  0.00    -0.248 NA
ATOM     48  C   UNL A   1      39.348  28.531  27.495  1.00  0.00     0.031 C 
ATOM     49  C   UNL A   1      38.145  31.396  31.469  1.00  0.00     0.029 A 
ATOM     50  N   UNL A   1      40.054  30.237  31.525  1.00  0.00    -0.354 N 
ATOM     51  C   UNL A   1      41.216  27.570  28.410  1.00  0.00     0.074 A 
ATOM     52  C   UNL A   1      40.301  27.632  27.291  1.00  0.00     0.031 C 
ATOM     53  C   UNL A   1      38.793  31.735  32.593  1.00  0.00     0.029 A 
ATOM     54  C   UNL A   1      40.018  30.944  32.707  1.00  0.00     0.049 A 
ATOM     55  H   UNL A   1      40.798  29.641  31.278  1.00  0.00     0.167 HD
ATOM     56  C   UNL A   1      42.343  26.814  28.430  1.00  0.00     0.034 A 
ATOM     57  C   UNL A   1      40.837  30.946  33.786  1.00  0.00     0.034 A 
ATOM     58  C   UNL A   1      43.303  26.797  29.508  1.00  0.00     0.049 A 
ATOM     59  C   UNL A   1      42.064  30.067  33.808  1.00  0.00     0.074 A 
ATOM     60  C   UNL A   1      44.497  26.097  29.572  1.00  0.00     0.029 A 
ATOM     61  N   UNL A   1      43.203  27.511  30.692  1.00  0.00    -0.354 N 
ATOM     62  N   UNL A   1      42.528  29.274  32.872  1.00  0.00    -0.248 NA
ATOM     63  C   UNL A   1      42.878  30.074  35.035  1.00  0.00     0.031 C 
ATOM     64  C   UNL A   1      45.078  26.324  30.818  1.00  0.00     0.029 A 
ATOM     65  C   UNL A   1      44.296  27.238  31.502  1.00  0.00     0.049 A 
ATOM     66  H   UNL A   1      42.465  28.121  30.924  1.00  0.00     0.167 HD
ATOM     67  C   UNL A   1      43.694  28.711  33.387  1.00  0.00     0.074 A 
ATOM     68  C   UNL A   1      43.882  29.270  34.707  1.00  0.00     0.031 C 
ATOM     69  C   UNL A   1      44.522  27.804  32.811  1.00  0.00     0.034 A 
BRANCH  56  70
ATOM     70  C   UNL A   1      42.653  25.926  27.242  1.00  0.00     0.023 A 
ATOM     71  C   UNL A   1      42.213  24.586  27.237  1.00  0.00     0.031 A 
ATOM     72  C   UNL A   1      43.515  26.343  26.213  1.00  0.00     0.131 A 
ATOM     73  C   UNL A   1      42.671  23.703  26.250  1.00  0.00     0.055 A 
ATOM     74  C   UNL A   1      43.926  25.471  25.201  1.00  0.00     0.041 A 
ATOM     75  F   UNL A   1      43.973  27.604  26.175  1.00  0.00    -0.206 F 
ATOM     76  C   UNL A   1      43.518  24.141  25.227  1.00  0.00     0.022 A 
BRANCH  73  77
ATOM     77  S   UNL A   1      42.264  21.936  26.308  1.00  0.00     0.124 S 
ATOM     78  O   UNL A   1      40.840  21.947  25.974  1.00  0.00    -0.237 OA
ATOM     79  O   UNL A   1      43.139  21.387  25.272  1.00  0.00    -0.237 OA
ATOM     80  O   UNL A   1      42.579  21.546  27.673  1.00  0.00    -0.744 OA
ENDBRANCH  73  77
ENDBRANCH  56  70
BRANCH  57  81
ATOM     81  C   UNL A   1      40.511  31.839  34.943  1.00  0.00     0.023 A 
ATOM     82  C   UNL A   1      39.579  31.445  35.921  1.00  0.00     0.031 A 
ATOM     83  C   UNL A   1      41.048  33.134  35.031  1.00  0.00     0.131 A 
ATOM     84  C   UNL A   1      39.143  32.366  36.881  1.00  0.00     0.055 A 
ATOM     85  C   UNL A   1      40.676  34.020  36.045  1.00  0.00     0.041 A 
ATOM     86  F   UNL A   1      41.942  33.559  34.125  1.00  0.00    -0.206 F 
ATOM     87  C   UNL A   1      39.700  33.645  36.963  1.00  0.00     0.022 A 
BRANCH  84  88
ATOM     88  S   UNL A   1      37.726  31.988  37.952  1.00  0.00     0.124 S 
ATOM     89  O   UNL A   1      37.423  30.610  37.583  1.00  0.00    -0.237 OA
ATOM     90  O   UNL A   1      38.305  32.175  39.281  1.00  0.00    -0.237 OA
ATOM     91  O   UNL A   1      36.728  32.980  37.566  1.00  0.00    -0.744 OA
ENDBRANCH  84  88
ENDBRANCH  57  81
BRANCH  69  92
ATOM     92  C   UNL A   1      45.751  27.332  33.561  1.00  0.00     0.023 A 
ATOM     93  C   UNL A   1      45.660  26.234  34.441  1.00  0.00     0.031 A 
ATOM     94  C   UNL A   1      46.950  28.064  33.543  1.00  0.00     0.131 A 
ATOM     95  C   UNL A   1      46.725  25.935  35.302  1.00  0.00     0.055 A 
ATOM     96  C   UNL A   1      48.028  27.730  34.365  1.00  0.00     0.041 A 
ATOM     97  F   UNL A   1      47.088  29.126  32.732  1.00  0.00    -0.206 F 
ATOM     98  C   UNL A   1      47.912  26.672  35.263  1.00  0.00     0.022 A 
BRANCH  95  99
ATOM     99  S   UNL A   1      46.573  24.647  36.573  1.00  0.00     0.124 S 
ATOM    100  O   UNL A   1      47.969  24.271  36.791  1.00  0.00    -0.237 OA
ATOM    101  O   UNL A   1      45.946  25.373  37.674  1.00  0.00    -0.237 OA
ATOM    102  O   UNL A   1      45.747  23.624  35.942  1.00  0.00    -0.744 OA
ENDBRANCH  95  99
ENDBRANCH  69  92
ENDBRANCH  43  44
ENDBRANCH  35  38
ENDBRANCH  33  34
ENDBRANCH  32  33
ENDBRANCH  31  32
ENDBRANCH   1  31
TORSDOF 19
ENDMDL
MODEL 2
REMARK VINA RESULT:     -12.1      1.424      2.414
REMARK SMILES CC(C)(C)c1cc(Nc2ccccc2C(=O)NCCCCCCNC(=O)c2ccc(-c3c4nc(c(-c5cc(S(=O)(=O)[O-])ccc5F)c5ccc([nH]5)c(-c5cc(S(=O)(=O)[O-])ccc5F)c5nc(c(-c6cc(S(=O)(=O)[O-])ccc6F)c6ccc3[nH]6)C=C5)C=C4)cc2)cc2c1OCC2(C)C
REMARK SMILES IDX 20 1 19 2 18 3 17 4 15 5 16 6 14 8 9 9 10 10 11 11 13 12
REMARK SMILES IDX 12 13 8 14 7 16 5 17 6 18 92 19 91 20 93 21 90 22 95 23
REMARK SMILES IDX 94 24 96 25 97 26 2 27 1 28 3 29 4 30 21 31 22 32 23 33
REMARK SMILES IDX 24 34 25 35 26 37 27 38 28 39 89 40 29 41 88 42 30 43 31 44
REMARK SMILES IDX 32 45 82 46 33 47 87 48 81 49 83 50 34 51 86 52 80 53 79 54
REMARK SMILES IDX 35 56 67 57 47 58 66 59 48 60 51 61 65 62 84 63 49 64 50 65
REMARK SMILES IDX 64 67 85 68 52 69 36 70 37 71 45 72 38 73 44 74 46 75 43 76
REMARK SMILES IDX 39 77 40 78 41 79 42 80 68 81 69 82 77 83 70 84 76 85 78 86
REMARK SMILES IDX 75 87 71 88 72 89 73 90 74 91 53 92 54 93 62 94 55 95 61 96
REMARK SMILES IDX 63 97 60 98 56 99 57 100 58 101 59 102
REMARK H PARENT 17 7 8 15 24 36 83 55 51 66
REMARK Flexibility Score: inf
ROOT
ATOM      1  C   UNL A   1      33.716  26.754  24.609  1.00  0.00     0.002 C 
ENDROOT
BRANCH   1   2
ATOM      2  C   UNL A   1      34.015  25.350  24.079  1.00  0.00     0.021 C 
BRANCH   2   3
ATOM      3  C   UNL A   1      33.661  24.978  22.640  1.00  0.00     0.116 C 
BRANCH   3   4
ATOM      4  N   UNL A   1      33.018  23.710  22.410  1.00  0.00    -0.352 N 
ATOM      5  C   UNL A   1      31.918  23.129  23.005  1.00  0.00     0.253 C 
ATOM      6  O   UNL A   1      31.570  22.045  22.517  1.00  0.00    -0.269 OA
ATOM      7  H   UNL A   1      33.436  23.164  21.706  1.00  0.00     0.163 HD
BRANCH   5   8
ATOM      8  C   UNL A   1      31.140  23.626  24.201  1.00  0.00     0.063 A 
ATOM      9  C   UNL A   1      31.059  23.116  25.513  1.00  0.00     0.051 A 
ATOM     10  C   UNL A   1      30.348  23.852  26.499  1.00  0.00     0.027 A 
ATOM     11  C   UNL A   1      29.659  25.023  26.205  1.00  0.00     0.002 A 
ATOM     12  C   UNL A   1      30.434  24.830  23.936  1.00  0.00     0.016 A 
ATOM     13  C   UNL A   1      29.692  25.508  24.910  1.00  0.00     0.001 A 
BRANCH   9  14
ATOM     14  N   UNL A   1      31.575  21.879  25.944  1.00  0.00    -0.355 N 
ATOM     15  H   UNL A   1      31.075  21.401  26.644  1.00  0.00     0.167 HD
BRANCH  14  16
ATOM     16  C   UNL A   1      32.755  21.263  25.455  1.00  0.00     0.039 A 
ATOM     17  C   UNL A   1      33.920  19.183  24.801  1.00  0.00     0.002 A 
ATOM     18  C   UNL A   1      32.737  19.900  25.099  1.00  0.00     0.034 A 
ATOM     19  C   UNL A   1      35.101  19.924  24.785  1.00  0.00     0.127 A 
ATOM     20  C   UNL A   1      35.141  21.262  25.115  1.00  0.00     0.006 A 
ATOM     21  O   UNL A   1      36.334  19.414  24.474  1.00  0.00    -0.492 OA
ATOM     22  C   UNL A   1      33.986  21.935  25.462  1.00  0.00     0.034 A 
ATOM     23  C   UNL A   1      36.532  21.784  25.014  1.00  0.00     0.028 C 
ATOM     24  C   UNL A   1      37.282  20.465  24.747  1.00  0.00     0.240 C 
ATOM     25  C   UNL A   1      36.634  22.748  23.828  1.00  0.00     0.020 C 
ATOM     26  C   UNL A   1      37.027  22.449  26.300  1.00  0.00     0.020 C 
BRANCH  17  27
ATOM     27  C   UNL A   1      33.952  17.659  24.655  1.00  0.00    -0.009 C 
ATOM     28  C   UNL A   1      35.256  17.052  25.202  1.00  0.00     0.016 C 
ATOM     29  C   UNL A   1      33.842  17.188  23.189  1.00  0.00     0.016 C 
ATOM     30  C   UNL A   1      32.742  17.104  25.441  1.00  0.00     0.016 C 
ENDBRANCH  17  27
ENDBRANCH  14  16
ENDBRANCH   9  14
ENDBRANCH   5   8
ENDBRANCH   3   4
ENDBRANCH   2   3
ENDBRANCH   1   2
BRANCH   1  31
ATOM     31  C   UNL A   1      32.818  26.925  25.839  1.00  0.00     0.002 C 
BRANCH  31  32
ATOM     32  C   UNL A   1      32.046  28.238  26.021  1.00  0.00     0.021 C 
BRANCH  32  33
ATOM     33  C   UNL A   1      32.523  29.486  25.262  1.00  0.00     0.116 C 
BRANCH  33  34
ATOM     34  N   UNL A   1      32.130  30.744  25.881  1.00  0.00    -0.352 N 
ATOM     35  C   UNL A   1      32.725  31.486  26.886  1.00  0.00     0.251 C 
ATOM     36  H   UNL A   1      31.300  31.134  25.522  1.00  0.00     0.163 HD
ATOM     37  O   UNL A   1      32.136  32.478  27.313  1.00  0.00    -0.269 OA
BRANCH  35  38
ATOM     38  C   UNL A   1      34.035  31.112  27.489  1.00  0.00     0.039 A 
ATOM     39  C   UNL A   1      34.335  29.802  27.843  1.00  0.00     0.014 A 
ATOM     40  C   UNL A   1      35.035  32.079  27.631  1.00  0.00     0.014 A 
ATOM     41  C   UNL A   1      35.540  29.499  28.510  1.00  0.00     0.010 A 
ATOM     42  C   UNL A   1      36.273  31.755  28.225  1.00  0.00     0.010 A 
ATOM     43  C   UNL A   1      36.527  30.473  28.743  1.00  0.00    -0.014 A 
BRANCH  43  44
ATOM     44  C   UNL A   1      37.781  30.179  29.536  1.00  0.00     0.031 A 
ATOM     45  C   UNL A   1      38.879  29.295  28.962  1.00  0.00     0.074 A 
ATOM     46  C   UNL A   1      37.984  30.688  30.773  1.00  0.00     0.049 A 
ATOM     47  N   UNL A   1      39.956  28.819  29.543  1.00  0.00    -0.248 NA
ATOM     48  C   UNL A   1      38.743  28.887  27.555  1.00  0.00     0.031 C 
ATOM     49  C   UNL A   1      37.066  31.579  31.478  1.00  0.00     0.029 A 
ATOM     50  N   UNL A   1      39.032  30.533  31.661  1.00  0.00    -0.354 N 
ATOM     51  C   UNL A   1      40.591  28.016  28.595  1.00  0.00     0.074 A 
ATOM     52  C   UNL A   1      39.763  28.051  27.409  1.00  0.00     0.031 C 
ATOM     53  C   UNL A   1      37.603  31.928  32.656  1.00  0.00     0.029 A 
ATOM     54  C   UNL A   1      38.862  31.209  32.850  1.00  0.00     0.049 A 
ATOM     55  H   UNL A   1      39.828  29.989  31.461  1.00  0.00     0.167 HD
ATOM     56  C   UNL A   1      41.757  27.328  28.688  1.00  0.00     0.034 A 
ATOM     57  C   UNL A   1      39.593  31.233  33.989  1.00  0.00     0.034 A 
ATOM     58  C   UNL A   1      42.630  27.342  29.838  1.00  0.00     0.049 A 
ATOM     59  C   UNL A   1      40.867  30.428  34.091  1.00  0.00     0.074 A 
ATOM     60  C   UNL A   1      43.856  26.712  29.981  1.00  0.00     0.029 A 
ATOM     61  N   UNL A   1      42.396  28.020  31.024  1.00  0.00    -0.354 N 
ATOM     62  N   UNL A   1      41.448  29.687  33.178  1.00  0.00    -0.248 NA
ATOM     63  C   UNL A   1      41.582  30.453  35.378  1.00  0.00     0.031 C 
ATOM     64  C   UNL A   1      44.325  26.944  31.273  1.00  0.00     0.029 A 
ATOM     65  C   UNL A   1      43.438  27.793  31.911  1.00  0.00     0.049 A 
ATOM     66  H   UNL A   1      41.607  28.579  31.209  1.00  0.00     0.167 HD
ATOM     67  C   UNL A   1      42.604  29.181  33.772  1.00  0.00     0.074 A 
ATOM     68  C   UNL A   1      42.655  29.719  35.113  1.00  0.00     0.031 C 
ATOM     69  C   UNL A   1      43.528  28.339  33.245  1.00  0.00     0.034 A 
BRANCH  56  70
ATOM     70  C   UNL A   1      42.211  26.489  27.512  1.00  0.00     0.023 A 
ATOM     71  C   UNL A   1      41.845  25.129  27.439  1.00  0.00     0.031 A 
ATOM     72  C   UNL A   1      43.132  26.977  26.568  1.00  0.00     0.131 A 
ATOM     73  C   UNL A   1      42.430  24.297  26.475  1.00  0.00     0.055 A 
ATOM     74  C   UNL A   1      43.671  26.155  25.575  1.00  0.00     0.041 A 
ATOM     75  F   UNL A   1      43.522  28.261  26.596  1.00  0.00    -0.206 F 
ATOM     76  C   UNL A   1      43.334  24.806  25.537  1.00  0.00     0.022 A 
BRANCH  73  77
ATOM     77  S   UNL A   1      42.114  22.511  26.460  1.00  0.00     0.124 S 
ATOM     78  O   UNL A   1      40.653  22.465  26.527  1.00  0.00    -0.237 OA
ATOM     79  O   UNL A   1      42.688  22.111  25.175  1.00  0.00    -0.237 OA
ATOM     80  O   UNL A   1      42.806  22.020  27.641  1.00  0.00    -0.744 OA
ENDBRANCH  73  77
ENDBRANCH  56  70
BRANCH  57  81
ATOM     81  C   UNL A   1      39.126  32.076  35.134  1.00  0.00     0.023 A 
ATOM     82  C   UNL A   1      39.565  33.406  35.281  1.00  0.00     0.031 A 
ATOM     83  C   UNL A   1      38.318  31.536  36.149  1.00  0.00     0.131 A 
ATOM     84  C   UNL A   1      39.278  34.110  36.456  1.00  0.00     0.055 A 
ATOM     85  C   UNL A   1      37.959  32.275  37.278  1.00  0.00     0.041 A 
ATOM     86  F   UNL A   1      37.871  30.274  36.058  1.00  0.00    -0.206 F 
ATOM     87  C   UNL A   1      38.459  33.562  37.447  1.00  0.00     0.022 A 
BRANCH  84  88
ATOM     88  S   UNL A   1      40.085  35.698  36.806  1.00  0.00     0.124 S 
ATOM     89  O   UNL A   1      41.498  35.347  36.727  1.00  0.00    -0.237 OA
ATOM     90  O   UNL A   1      39.578  36.531  35.717  1.00  0.00    -0.237 OA
ATOM     91  O   UNL A   1      39.594  36.049  38.134  1.00  0.00    -0.744 OA
ENDBRANCH  84  88
ENDBRANCH  57  81
BRANCH  69  92
ATOM     92  C   UNL A   1      44.721  27.923  34.080  1.00  0.00     0.023 A 
ATOM     93  C   UNL A   1      44.633  26.795  34.922  1.00  0.00     0.031 A 
ATOM     94  C   UNL A   1      45.868  28.729  34.177  1.00  0.00     0.131 A 
ATOM     95  C   UNL A   1      45.643  26.538  35.858  1.00  0.00     0.055 A 
ATOM     96  C   UNL A   1      46.897  28.438  35.075  1.00  0.00     0.041 A 
ATOM     97  F   UNL A   1      46.000  29.821  33.407  1.00  0.00    -0.206 F 
ATOM     98  C   UNL A   1      46.779  27.348  35.933  1.00  0.00     0.022 A 
BRANCH  95  99
ATOM     99  S   UNL A   1      45.476  25.204  37.079  1.00  0.00     0.124 S 
ATOM    100  O   UNL A   1      44.231  25.565  37.753  1.00  0.00    -0.237 OA
ATOM    101  O   UNL A   1      45.403  24.018  36.231  1.00  0.00    -0.237 OA
ATOM    102  O   UNL A   1      46.679  25.321  37.896  1.00  0.00    -0.744 OA
ENDBRANCH  95  99
ENDBRANCH  69  92
ENDBRANCH  43  44
ENDBRANCH  35  38
ENDBRANCH  33  34
ENDBRANCH  32  33
ENDBRANCH  31  32
ENDBRANCH   1  31
TORSDOF 19
ENDMDL
MODEL 3
REMARK VINA RESULT:     -11.9      1.351      2.362
REMARK SMILES CC(C)(C)c1cc(Nc2ccccc2C(=O)NCCCCCCNC(=O)c2ccc(-c3c4nc(c(-c5cc(S(=O)(=O)[O-])ccc5F)c5ccc([nH]5)c(-c5cc(S(=O)(=O)[O-])ccc5F)c5nc(c(-c6cc(S(=O)(=O)[O-])ccc6F)c6ccc3[nH]6)C=C5)C=C4)cc2)cc2c1OCC2(C)C
REMARK SMILES IDX 20 1 19 2 18 3 17 4 15 5 16 6 14 8 9 9 10 10 11 11 13 12
REMARK SMILES IDX 12 13 8 14 7 16 5 17 6 18 92 19 91 20 93 21 90 22 95 23
REMARK SMILES IDX 94 24 96 25 97 26 2 27 1 28 3 29 4 30 21 31 22 32 23 33
REMARK SMILES IDX 24 34 25 35 26 37 27 38 28 39 89 40 29 41 88 42 30 43 31 44
REMARK SMILES IDX 32 45 82 46 33 47 87 48 81 49 83 50 34 51 86 52 80 53 79 54
REMARK SMILES IDX 35 56 67 57 47 58 66 59 48 60 51 61 65 62 84 63 49 64 50 65
REMARK SMILES IDX 64 67 85 68 52 69 36 70 37 71 45 72 38 73 44 74 46 75 43 76
REMARK SMILES IDX 39 77 40 78 41 79 42 80 68 81 69 82 77 83 70 84 76 85 78 86
REMARK SMILES IDX 75 87 71 88 72 89 73 90 74 91 53 92 54 93 62 94 55 95 61 96
REMARK SMILES IDX 63 97 60 98 56 99 57 100 58 101 59 102
REMARK H PARENT 17 7 8 15 24 36 83 55 51 66
REMARK Flexibility Score: inf
ROOT
ATOM      1  C   UNL A   1      33.740  26.756  24.706  1.00  0.00     0.002 C 
ENDROOT
BRANCH   1   2
ATOM      2  C   UNL A   1      34.035  25.338  24.213  1.00  0.00     0.021 C 
BRANCH   2   3
ATOM      3  C   UNL A   1      33.794  24.963  22.752  1.00  0.00     0.116 C 
BRANCH   3   4
ATOM      4  N   UNL A   1      33.115  23.724  22.476  1.00  0.00    -0.352 N 
ATOM      5  C   UNL A   1      31.996  23.156  23.048  1.00  0.00     0.253 C 
ATOM      6  O   UNL A   1      31.617  22.101  22.522  1.00  0.00    -0.269 OA
ATOM      7  H   UNL A   1      33.517  23.191  21.753  1.00  0.00     0.163 HD
BRANCH   5   8
ATOM      8  C   UNL A   1      31.229  23.634  24.259  1.00  0.00     0.063 A 
ATOM      9  C   UNL A   1      31.116  23.072  25.547  1.00  0.00     0.051 A 
ATOM     10  C   UNL A   1      30.429  23.795  26.559  1.00  0.00     0.027 A 
ATOM     11  C   UNL A   1      29.793  25.006  26.312  1.00  0.00     0.002 A 
ATOM     12  C   UNL A   1      30.577  24.878  24.042  1.00  0.00     0.016 A 
ATOM     13  C   UNL A   1      29.857  25.544  25.040  1.00  0.00     0.001 A 
BRANCH   9  14
ATOM     14  N   UNL A   1      31.575  21.797  25.927  1.00  0.00    -0.355 N 
ATOM     15  H   UNL A   1      31.036  21.302  26.586  1.00  0.00     0.167 HD
BRANCH  14  16
ATOM     16  C   UNL A   1      32.748  21.165  25.443  1.00  0.00     0.039 A 
ATOM     17  C   UNL A   1      33.883  19.070  24.783  1.00  0.00     0.002 A 
ATOM     18  C   UNL A   1      32.710  19.804  25.078  1.00  0.00     0.034 A 
ATOM     19  C   UNL A   1      35.077  19.792  24.779  1.00  0.00     0.127 A 
ATOM     20  C   UNL A   1      35.136  21.127  25.117  1.00  0.00     0.006 A 
ATOM     21  O   UNL A   1      36.303  19.264  24.473  1.00  0.00    -0.492 OA
ATOM     22  C   UNL A   1      33.989  21.817  25.461  1.00  0.00     0.034 A 
ATOM     23  C   UNL A   1      36.536  21.628  25.028  1.00  0.00     0.028 C 
ATOM     24  C   UNL A   1      37.266  20.298  24.758  1.00  0.00     0.240 C 
ATOM     25  C   UNL A   1      36.661  22.596  23.849  1.00  0.00     0.020 C 
ATOM     26  C   UNL A   1      37.032  22.276  26.322  1.00  0.00     0.020 C 
BRANCH  17  27
ATOM     27  C   UNL A   1      33.892  17.546  24.628  1.00  0.00    -0.009 C 
ATOM     28  C   UNL A   1      35.098  16.899  25.331  1.00  0.00     0.016 C 
ATOM     29  C   UNL A   1      33.957  17.087  23.156  1.00  0.00     0.016 C 
ATOM     30  C   UNL A   1      32.576  17.022  25.248  1.00  0.00     0.016 C 
ENDBRANCH  17  27
ENDBRANCH  14  16
ENDBRANCH   9  14
ENDBRANCH   5   8
ENDBRANCH   3   4
ENDBRANCH   2   3
ENDBRANCH   1   2
BRANCH   1  31
ATOM     31  C   UNL A   1      32.969  26.959  26.015  1.00  0.00     0.002 C 
BRANCH  31  32
ATOM     32  C   UNL A   1      32.413  28.351  26.344  1.00  0.00     0.021 C 
BRANCH  32  33
ATOM     33  C   UNL A   1      33.037  29.576  25.658  1.00  0.00     0.116 C 
BRANCH  33  34
ATOM     34  N   UNL A   1      32.767  30.837  26.334  1.00  0.00    -0.352 N 
ATOM     35  C   UNL A   1      33.480  31.517  27.306  1.00  0.00     0.251 C 
ATOM     36  H   UNL A   1      31.936  31.283  26.051  1.00  0.00     0.163 HD
ATOM     37  O   UNL A   1      32.985  32.529  27.800  1.00  0.00    -0.269 OA
BRANCH  35  38
ATOM     38  C   UNL A   1      34.809  31.054  27.795  1.00  0.00     0.039 A 
ATOM     39  C   UNL A   1      35.095  29.707  27.984  1.00  0.00     0.014 A 
ATOM     40  C   UNL A   1      35.837  31.981  27.993  1.00  0.00     0.014 A 
ATOM     41  C   UNL A   1      36.324  29.310  28.550  1.00  0.00     0.010 A 
ATOM     42  C   UNL A   1      37.094  31.570  28.483  1.00  0.00     0.010 A 
ATOM     43  C   UNL A   1      37.343  30.234  28.840  1.00  0.00    -0.014 A 
BRANCH  43  44
ATOM     44  C   UNL A   1      38.628  29.829  29.530  1.00  0.00     0.031 A 
ATOM     45  C   UNL A   1      39.572  28.819  28.894  1.00  0.00     0.074 A 
ATOM     46  C   UNL A   1      38.995  30.348  30.724  1.00  0.00     0.049 A 
ATOM     47  N   UNL A   1      40.642  28.246  29.395  1.00  0.00    -0.248 NA
ATOM     48  C   UNL A   1      39.266  28.388  27.521  1.00  0.00     0.031 C 
ATOM     49  C   UNL A   1      38.242  31.350  31.474  1.00  0.00     0.029 A 
ATOM     50  N   UNL A   1      40.098  30.107  31.521  1.00  0.00    -0.354 N 
ATOM     51  C   UNL A   1      41.101  27.355  28.425  1.00  0.00     0.074 A 
ATOM     52  C   UNL A   1      40.175  27.445  27.316  1.00  0.00     0.031 C 
ATOM     53  C   UNL A   1      38.919  31.673  32.586  1.00  0.00     0.029 A 
ATOM     54  C   UNL A   1      40.109  30.829  32.695  1.00  0.00     0.049 A 
ATOM     55  H   UNL A   1      40.812  29.476  31.272  1.00  0.00     0.167 HD
ATOM     56  C   UNL A   1      42.193  26.549  28.440  1.00  0.00     0.034 A 
ATOM     57  C   UNL A   1      40.940  30.807  33.763  1.00  0.00     0.034 A 
ATOM     58  C   UNL A   1      43.165  26.502  29.507  1.00  0.00     0.049 A 
ATOM     59  C   UNL A   1      42.127  29.873  33.782  1.00  0.00     0.074 A 
ATOM     60  C   UNL A   1      44.327  25.749  29.565  1.00  0.00     0.029 A 
ATOM     61  N   UNL A   1      43.111  27.233  30.683  1.00  0.00    -0.354 N 
ATOM     62  N   UNL A   1      42.543  29.050  32.850  1.00  0.00    -0.248 NA
ATOM     63  C   UNL A   1      42.956  29.858  34.999  1.00  0.00     0.031 C 
ATOM     64  C   UNL A   1      44.933  25.965  30.801  1.00  0.00     0.029 A 
ATOM     65  C   UNL A   1      44.202  26.921  31.483  1.00  0.00     0.049 A 
ATOM     66  H   UNL A   1      42.405  27.878  30.917  1.00  0.00     0.167 HD
ATOM     67  C   UNL A   1      43.690  28.441  33.357  1.00  0.00     0.074 A 
ATOM     68  C   UNL A   1      43.919  29.006  34.668  1.00  0.00     0.031 C 
ATOM     69  C   UNL A   1      44.469  27.491  32.782  1.00  0.00     0.034 A 
BRANCH  56  70
ATOM     70  C   UNL A   1      42.448  25.635  27.260  1.00  0.00     0.023 A 
ATOM     71  C   UNL A   1      41.963  24.311  27.283  1.00  0.00     0.031 A 
ATOM     72  C   UNL A   1      43.301  26.008  26.206  1.00  0.00     0.131 A 
ATOM     73  C   UNL A   1      42.371  23.399  26.300  1.00  0.00     0.055 A 
ATOM     74  C   UNL A   1      43.661  25.109  25.199  1.00  0.00     0.041 A 
ATOM     75  F   UNL A   1      43.799  27.253  26.140  1.00  0.00    -0.206 F 
ATOM     76  C   UNL A   1      43.210  23.794  25.254  1.00  0.00     0.022 A 
BRANCH  73  77
ATOM     77  S   UNL A   1      41.907  21.647  26.394  1.00  0.00     0.124 S 
ATOM     78  O   UNL A   1      41.877  21.423  27.839  1.00  0.00    -0.237 OA
ATOM     79  O   UNL A   1      40.598  21.643  25.740  1.00  0.00    -0.237 OA
ATOM     80  O   UNL A   1      42.972  20.961  25.680  1.00  0.00    -0.744 OA
ENDBRANCH  73  77
ENDBRANCH  56  70
BRANCH  57  81
ATOM     81  C   UNL A   1      40.670  31.726  34.913  1.00  0.00     0.023 A 
ATOM     82  C   UNL A   1      39.647  31.446  35.840  1.00  0.00     0.031 A 
ATOM     83  C   UNL A   1      41.358  32.944  35.044  1.00  0.00     0.131 A 
ATOM     84  C   UNL A   1      39.280  32.409  36.787  1.00  0.00     0.055 A 
ATOM     85  C   UNL A   1      41.047  33.863  36.049  1.00  0.00     0.041 A 
ATOM     86  F   UNL A   1      42.342  33.260  34.189  1.00  0.00    -0.206 F 
ATOM     87  C   UNL A   1      39.987  33.607  36.912  1.00  0.00     0.022 A 
BRANCH  84  88
ATOM     88  S   UNL A   1      37.775  32.204  37.782  1.00  0.00     0.124 S 
ATOM     89  O   UNL A   1      36.811  33.018  37.049  1.00  0.00    -0.237 OA
ATOM     90  O   UNL A   1      37.569  30.759  37.709  1.00  0.00    -0.237 OA
ATOM     91  O   UNL A   1      38.159  32.710  39.095  1.00  0.00    -0.744 OA
ENDBRANCH  84  88
ENDBRANCH  57  81
BRANCH  69  92
ATOM     92  C   UNL A   1      45.684  26.973  33.523  1.00  0.00     0.023 A 
ATOM     93  C   UNL A   1      46.953  27.538  33.278  1.00  0.00     0.031 A 
ATOM     94  C   UNL A   1      45.620  25.823  34.328  1.00  0.00     0.131 A 
ATOM     95  C   UNL A   1      48.105  26.922  33.784  1.00  0.00     0.055 A 
ATOM     96  C   UNL A   1      46.767  25.243  34.875  1.00  0.00     0.041 A 
ATOM     97  F   UNL A   1      44.439  25.237  34.586  1.00  0.00    -0.206 F 
ATOM     98  C   UNL A   1      48.018  25.782  34.589  1.00  0.00     0.022 A 
BRANCH  95  99
ATOM     99  S   UNL A   1      49.762  27.514  33.337  1.00  0.00     0.124 S 
ATOM    100  O   UNL A   1      50.390  26.299  32.823  1.00  0.00    -0.237 OA
ATOM    101  O   UNL A   1      49.464  28.533  32.334  1.00  0.00    -0.237 OA
ATOM    102  O   UNL A   1      50.310  28.011  34.594  1.00  0.00    -0.744 OA
ENDBRANCH  95  99
ENDBRANCH  69  92
ENDBRANCH  43  44
ENDBRANCH  35  38
ENDBRANCH  33  34
ENDBRANCH  32  33
ENDBRANCH  31  32
ENDBRANCH   1  31
TORSDOF 19
ENDMDL
