MODEL 1
REMARK VINA RESULT:     -12.7      0.000      0.000
REMARK SMILES Cc1cc2c(=O)c3ccccc3oc2c(C(=O)NCCCCCCNC(=O)c2ccc(-c3c4nc(c(-c5cc(S(=O)(=O)[O-])ccc5F)c5ccc([nH]5)c(-c5cc(S(=O)(=O)[O-])ccc5F)c5nc(c(-c6cc(S(=O)(=O)[O-])ccc6F)c6ccc3[nH]6)C=C5)C=C4)cc2)c1C
REMARK SMILES IDX 23 1 22 2 21 3 20 4 19 5 18 6 16 7 17 8 15 10 1 11 2 12 3 13
REMARK SMILES IDX 91 14 4 15 92 16 5 17 14 18 6 19 7 20 13 21 8 22 12 23 9 24
REMARK SMILES IDX 11 25 10 26 24 27 25 28 26 29 27 31 28 32 29 33 90 34 30 35
REMARK SMILES IDX 89 36 31 37 32 38 33 39 83 40 34 41 88 42 82 43 84 44 35 45
REMARK SMILES IDX 87 46 81 47 80 48 36 50 68 51 48 52 67 53 49 54 52 55 66 56
REMARK SMILES IDX 85 57 50 58 51 59 65 61 86 62 53 63 37 64 38 65 46 66 39 67
REMARK SMILES IDX 45 68 47 69 44 70 40 71 41 72 42 73 43 74 69 75 70 76 78 77
REMARK SMILES IDX 71 78 77 79 79 80 76 81 72 82 73 83 74 84 75 85 54 86 55 87
REMARK SMILES IDX 63 88 56 89 62 90 64 91 61 92 57 93 58 94 59 95 60 96
REMARK H PARENT 18 9 25 30 84 49 52 60
REMARK Flexibility Score: inf
ROOT
ATOM      1  C   UNL A   1      31.254  31.475  26.388  1.00  0.00     0.021 C 
ENDROOT
BRANCH   1   2
ATOM      2  C   UNL A   1      31.400  30.179  25.592  1.00  0.00     0.002 C 
BRANCH   2   3
ATOM      3  C   UNL A   1      32.317  29.081  26.147  1.00  0.00     0.002 C 
BRANCH   3   4
ATOM      4  C   UNL A   1      33.560  28.666  25.349  1.00  0.00     0.021 C 
BRANCH   4   5
ATOM      5  C   UNL A   1      33.659  29.072  23.880  1.00  0.00     0.116 C 
BRANCH   5   6
ATOM      6  N   UNL A   1      34.103  28.056  22.950  1.00  0.00    -0.352 N 
ATOM      7  C   UNL A   1      33.501  26.889  22.512  1.00  0.00     0.255 C 
ATOM      8  O   UNL A   1      34.018  26.351  21.530  1.00  0.00    -0.269 OA
ATOM      9  H   UNL A   1      34.990  28.225  22.559  1.00  0.00     0.163 HD
BRANCH   7  10
ATOM     10  C   UNL A   1      32.318  26.216  23.175  1.00  0.00     0.086 A 
ATOM     11  C   UNL A   1      31.200  23.120  25.195  1.00  0.00     0.044 C 
ATOM     12  C   UNL A   1      31.199  24.448  24.480  1.00  0.00    -0.046 A 
ATOM     13  C   UNL A   1      29.980  25.112  24.341  1.00  0.00     0.019 A 
ATOM     14  C   UNL A   1      32.393  25.061  24.004  1.00  0.00    -0.032 A 
ATOM     15  C   UNL A   1      29.924  26.332  23.679  1.00  0.00     0.066 A 
ATOM     16  C   UNL A   1      33.690  24.488  24.514  1.00  0.00     0.045 C 
ATOM     17  C   UNL A   1      28.656  27.079  23.683  1.00  0.00     0.200 A 
ATOM     18  C   UNL A   1      31.055  26.866  23.050  1.00  0.00     0.151 A 
ATOM     19  O   UNL A   1      27.650  26.647  24.232  1.00  0.00    -0.288 OA
ATOM     20  C   UNL A   1      28.659  28.385  23.029  1.00  0.00     0.065 A 
ATOM     21  O   UNL A   1      30.964  28.030  22.306  1.00  0.00    -0.455 OA
ATOM     22  C   UNL A   1      27.526  29.207  23.072  1.00  0.00     0.016 A 
ATOM     23  C   UNL A   1      29.815  28.783  22.368  1.00  0.00     0.138 A 
ATOM     24  C   UNL A   1      27.548  30.443  22.427  1.00  0.00     0.001 A 
ATOM     25  C   UNL A   1      29.829  30.019  21.719  1.00  0.00     0.048 A 
ATOM     26  C   UNL A   1      28.698  30.846  21.747  1.00  0.00     0.004 A 
ENDBRANCH   7  10
ENDBRANCH   5   6
ENDBRANCH   4   5
ENDBRANCH   3   4
ENDBRANCH   2   3
ENDBRANCH   1   2
BRANCH   1  27
ATOM     27  C   UNL A   1      32.526  32.079  26.970  1.00  0.00     0.116 C 
BRANCH  27  28
ATOM     28  N   UNL A   1      32.405  33.487  27.301  1.00  0.00    -0.352 N 
ATOM     29  C   UNL A   1      33.140  34.259  28.176  1.00  0.00     0.251 C 
ATOM     30  H   UNL A   1      31.687  33.965  26.829  1.00  0.00     0.163 HD
ATOM     31  O   UNL A   1      32.802  35.415  28.390  1.00  0.00    -0.269 OA
BRANCH  29  32
ATOM     32  C   UNL A   1      34.310  33.683  28.884  1.00  0.00     0.039 A 
ATOM     33  C   UNL A   1      35.609  34.120  28.617  1.00  0.00     0.014 A 
ATOM     34  C   UNL A   1      34.098  32.684  29.841  1.00  0.00     0.014 A 
ATOM     35  C   UNL A   1      36.695  33.452  29.175  1.00  0.00     0.010 A 
ATOM     36  C   UNL A   1      35.189  32.069  30.465  1.00  0.00     0.010 A 
ATOM     37  C   UNL A   1      36.499  32.417  30.105  1.00  0.00    -0.014 A 
BRANCH  37  38
ATOM     38  C   UNL A   1      37.677  31.734  30.709  1.00  0.00     0.031 A 
ATOM     39  C   UNL A   1      38.107  32.035  32.120  1.00  0.00     0.074 A 
ATOM     40  C   UNL A   1      38.339  30.808  29.985  1.00  0.00     0.049 A 
ATOM     41  N   UNL A   1      39.100  31.527  32.802  1.00  0.00    -0.248 NA
ATOM     42  C   UNL A   1      37.323  33.036  32.864  1.00  0.00     0.031 C 
ATOM     43  C   UNL A   1      38.005  30.430  28.612  1.00  0.00     0.029 A 
ATOM     44  N   UNL A   1      39.411  30.009  30.298  1.00  0.00    -0.354 N 
ATOM     45  C   UNL A   1      39.072  32.149  34.045  1.00  0.00     0.074 A 
ATOM     46  C   UNL A   1      37.980  33.098  34.015  1.00  0.00     0.031 C 
ATOM     47  C   UNL A   1      38.818  29.441  28.218  1.00  0.00     0.029 A 
ATOM     48  C   UNL A   1      39.785  29.165  29.277  1.00  0.00     0.049 A 
ATOM     49  H   UNL A   1      39.867  30.036  31.169  1.00  0.00     0.167 HD
ATOM     50  C   UNL A   1      39.874  31.934  35.116  1.00  0.00     0.034 A 
ATOM     51  C   UNL A   1      40.801  28.282  29.189  1.00  0.00     0.034 A 
ATOM     52  C   UNL A   1      40.944  30.969  35.135  1.00  0.00     0.049 A 
ATOM     53  C   UNL A   1      41.710  28.102  30.376  1.00  0.00     0.074 A 
ATOM     54  C   UNL A   1      41.785  30.651  36.188  1.00  0.00     0.029 A 
ATOM     55  N   UNL A   1      41.324  30.170  34.067  1.00  0.00    -0.354 N 
ATOM     56  N   UNL A   1      41.635  28.661  31.561  1.00  0.00    -0.248 NA
ATOM     57  C   UNL A   1      42.845  27.182  30.221  1.00  0.00     0.031 C 
ATOM     58  C   UNL A   1      42.713  29.712  35.738  1.00  0.00     0.029 A 
ATOM     59  C   UNL A   1      42.408  29.386  34.425  1.00  0.00     0.049 A 
ATOM     60  H   UNL A   1      40.887  30.160  33.185  1.00  0.00     0.167 HD
ATOM     61  C   UNL A   1      42.702  28.152  32.295  1.00  0.00     0.074 A 
ATOM     62  C   UNL A   1      43.389  27.214  31.431  1.00  0.00     0.031 C 
ATOM     63  C   UNL A   1      43.083  28.445  33.563  1.00  0.00     0.034 A 
BRANCH  50  64
ATOM     64  C   UNL A   1      39.641  32.729  36.378  1.00  0.00     0.023 A 
ATOM     65  C   UNL A   1      38.746  32.250  37.354  1.00  0.00     0.031 A 
ATOM     66  C   UNL A   1      40.166  34.022  36.537  1.00  0.00     0.131 A 
ATOM     67  C   UNL A   1      38.369  33.076  38.420  1.00  0.00     0.055 A 
ATOM     68  C   UNL A   1      39.819  34.828  37.622  1.00  0.00     0.041 A 
ATOM     69  F   UNL A   1      41.022  34.526  35.632  1.00  0.00    -0.206 F 
ATOM     70  C   UNL A   1      38.905  34.361  38.562  1.00  0.00     0.022 A 
BRANCH  67  71
ATOM     71  S   UNL A   1      37.118  32.547  39.623  1.00  0.00     0.124 S 
ATOM     72  O   UNL A   1      37.299  33.526  40.693  1.00  0.00    -0.237 OA
ATOM     73  O   UNL A   1      35.883  32.683  38.857  1.00  0.00    -0.237 OA
ATOM     74  O   UNL A   1      37.510  31.183  39.960  1.00  0.00    -0.744 OA
ENDBRANCH  67  71
ENDBRANCH  50  64
BRANCH  51  75
ATOM     75  C   UNL A   1      40.975  27.492  27.933  1.00  0.00     0.023 A 
ATOM     76  C   UNL A   1      40.675  26.118  27.894  1.00  0.00     0.031 A 
ATOM     77  C   UNL A   1      41.548  28.074  26.789  1.00  0.00     0.131 A 
ATOM     78  C   UNL A   1      41.023  25.358  26.771  1.00  0.00     0.055 A 
ATOM     79  C   UNL A   1      41.820  27.327  25.641  1.00  0.00     0.041 A 
ATOM     80  F   UNL A   1      41.862  29.378  26.778  1.00  0.00    -0.206 F 
ATOM     81  C   UNL A   1      41.578  25.956  25.637  1.00  0.00     0.022 A 
BRANCH  78  82
ATOM     82  S   UNL A   1      40.913  23.546  26.807  1.00  0.00     0.124 S 
ATOM     83  O   UNL A   1      41.292  23.246  28.183  1.00  0.00    -0.237 OA
ATOM     84  O   UNL A   1      39.506  23.325  26.477  1.00  0.00    -0.237 OA
ATOM     85  O   UNL A   1      41.862  23.124  25.782  1.00  0.00    -0.744 OA
ENDBRANCH  78  82
ENDBRANCH  51  75
BRANCH  63  86
ATOM     86  C   UNL A   1      44.306  27.762  34.127  1.00  0.00     0.023 A 
ATOM     87  C   UNL A   1      44.169  26.589  34.893  1.00  0.00     0.031 A 
ATOM     88  C   UNL A   1      45.574  28.361  34.046  1.00  0.00     0.131 A 
ATOM     89  C   UNL A   1      45.271  26.081  35.592  1.00  0.00     0.055 A 
ATOM     90  C   UNL A   1      46.681  27.822  34.704  1.00  0.00     0.041 A 
ATOM     91  F   UNL A   1      45.752  29.485  33.335  1.00  0.00    -0.206 F 
ATOM     92  C   UNL A   1      46.528  26.686  35.494  1.00  0.00     0.022 A 
BRANCH  89  93
ATOM     93  S   UNL A   1      45.094  24.675  36.725  1.00  0.00     0.124 S 
ATOM     94  O   UNL A   1      46.437  24.571  37.289  1.00  0.00    -0.237 OA
ATOM     95  O   UNL A   1      44.066  25.152  37.645  1.00  0.00    -0.237 OA
ATOM     96  O   UNL A   1      44.698  23.571  35.858  1.00  0.00    -0.744 OA
ENDBRANCH  89  93
ENDBRANCH  63  86
ENDBRANCH  37  38
ENDBRANCH  29  32
ENDBRANCH  27  28
ENDBRANCH   1  27
TORSDOF 16
ENDMDL
MODEL 2
REMARK VINA RESULT:     -12.5      1.966      2.292
REMARK SMILES Cc1cc2c(=O)c3ccccc3oc2c(C(=O)NCCCCCCNC(=O)c2ccc(-c3c4nc(c(-c5cc(S(=O)(=O)[O-])ccc5F)c5ccc([nH]5)c(-c5cc(S(=O)(=O)[O-])ccc5F)c5nc(c(-c6cc(S(=O)(=O)[O-])ccc6F)c6ccc3[nH]6)C=C5)C=C4)cc2)c1C
REMARK SMILES IDX 23 1 22 2 21 3 20 4 19 5 18 6 16 7 17 8 15 10 1 11 2 12 3 13
REMARK SMILES IDX 91 14 4 15 92 16 5 17 14 18 6 19 7 20 13 21 8 22 12 23 9 24
REMARK SMILES IDX 11 25 10 26 24 27 25 28 26 29 27 31 28 32 29 33 90 34 30 35
REMARK SMILES IDX 89 36 31 37 32 38 33 39 83 40 34 41 88 42 82 43 84 44 35 45
REMARK SMILES IDX 87 46 81 47 80 48 36 50 68 51 48 52 67 53 49 54 52 55 66 56
REMARK SMILES IDX 85 57 50 58 51 59 65 61 86 62 53 63 37 64 38 65 46 66 39 67
REMARK SMILES IDX 45 68 47 69 44 70 40 71 41 72 42 73 43 74 69 75 70 76 78 77
REMARK SMILES IDX 71 78 77 79 79 80 76 81 72 82 73 83 74 84 75 85 54 86 55 87
REMARK SMILES IDX 63 88 56 89 62 90 64 91 61 92 57 93 58 94 59 95 60 96
REMARK H PARENT 18 9 25 30 84 49 52 60
REMARK Flexibility Score: inf
ROOT
ATOM      1  C   UNL A   1      31.470  31.645  26.871  1.00  0.00     0.021 C 
ENDROOT
BRANCH   1   2
ATOM      2  C   UNL A   1      31.523  30.613  25.745  1.00  0.00     0.002 C 
BRANCH   2   3
ATOM      3  C   UNL A   1      32.166  29.251  26.033  1.00  0.00     0.002 C 
BRANCH   3   4
ATOM      4  C   UNL A   1      33.425  28.835  25.261  1.00  0.00     0.021 C 
BRANCH   4   5
ATOM      5  C   UNL A   1      33.520  29.174  23.774  1.00  0.00     0.116 C 
BRANCH   5   6
ATOM      6  N   UNL A   1      34.006  28.131  22.897  1.00  0.00    -0.352 N 
ATOM      7  C   UNL A   1      33.437  26.935  22.492  1.00  0.00     0.255 C 
ATOM      8  O   UNL A   1      33.989  26.370  21.544  1.00  0.00    -0.269 OA
ATOM      9  H   UNL A   1      34.899  28.302  22.521  1.00  0.00     0.163 HD
BRANCH   7  10
ATOM     10  C   UNL A   1      32.250  26.266  23.151  1.00  0.00     0.086 A 
ATOM     11  C   UNL A   1      31.111  23.160  25.143  1.00  0.00     0.044 C 
ATOM     12  C   UNL A   1      31.120  24.495  24.442  1.00  0.00    -0.046 A 
ATOM     13  C   UNL A   1      29.907  25.171  24.313  1.00  0.00     0.019 A 
ATOM     14  C   UNL A   1      32.317  25.102  23.968  1.00  0.00    -0.032 A 
ATOM     15  C   UNL A   1      29.859  26.397  23.663  1.00  0.00     0.066 A 
ATOM     16  C   UNL A   1      33.611  24.512  24.468  1.00  0.00     0.045 C 
ATOM     17  C   UNL A   1      28.597  27.155  23.679  1.00  0.00     0.200 A 
ATOM     18  C   UNL A   1      30.993  26.928  23.036  1.00  0.00     0.151 A 
ATOM     19  O   UNL A   1      27.589  26.726  24.227  1.00  0.00    -0.288 OA
ATOM     20  C   UNL A   1      28.609  28.469  23.038  1.00  0.00     0.065 A 
ATOM     21  O   UNL A   1      30.909  28.100  22.304  1.00  0.00    -0.455 OA
ATOM     22  C   UNL A   1      27.484  29.300  23.092  1.00  0.00     0.016 A 
ATOM     23  C   UNL A   1      29.767  28.863  22.378  1.00  0.00     0.138 A 
ATOM     24  C   UNL A   1      27.515  30.541  22.460  1.00  0.00     0.001 A 
ATOM     25  C   UNL A   1      29.790  30.106  21.741  1.00  0.00     0.048 A 
ATOM     26  C   UNL A   1      28.667  30.941  21.780  1.00  0.00     0.004 A 
ENDBRANCH   7  10
ENDBRANCH   5   6
ENDBRANCH   4   5
ENDBRANCH   3   4
ENDBRANCH   2   3
ENDBRANCH   1   2
BRANCH   1  27
ATOM     27  C   UNL A   1      32.759  32.393  27.186  1.00  0.00     0.116 C 
BRANCH  27  28
ATOM     28  N   UNL A   1      32.555  33.788  27.534  1.00  0.00    -0.352 N 
ATOM     29  C   UNL A   1      33.201  34.575  28.464  1.00  0.00     0.251 C 
ATOM     30  H   UNL A   1      31.844  34.242  27.027  1.00  0.00     0.163 HD
ATOM     31  O   UNL A   1      32.798  35.710  28.676  1.00  0.00    -0.269 OA
BRANCH  29  32
ATOM     32  C   UNL A   1      34.353  34.038  29.230  1.00  0.00     0.039 A 
ATOM     33  C   UNL A   1      35.666  34.382  28.904  1.00  0.00     0.014 A 
ATOM     34  C   UNL A   1      34.108  33.173  30.302  1.00  0.00     0.014 A 
ATOM     35  C   UNL A   1      36.728  33.740  29.534  1.00  0.00     0.010 A 
ATOM     36  C   UNL A   1      35.179  32.590  30.990  1.00  0.00     0.010 A 
ATOM     37  C   UNL A   1      36.499  32.834  30.583  1.00  0.00    -0.014 A 
BRANCH  37  38
ATOM     38  C   UNL A   1      37.652  32.179  31.259  1.00  0.00     0.031 A 
ATOM     39  C   UNL A   1      38.096  32.615  32.630  1.00  0.00     0.074 A 
ATOM     40  C   UNL A   1      38.280  31.158  30.641  1.00  0.00     0.049 A 
ATOM     41  N   UNL A   1      39.072  32.148  33.365  1.00  0.00    -0.248 NA
ATOM     42  C   UNL A   1      37.350  33.718  33.261  1.00  0.00     0.031 C 
ATOM     43  C   UNL A   1      37.929  30.646  29.315  1.00  0.00     0.029 A 
ATOM     44  N   UNL A   1      39.323  30.359  31.040  1.00  0.00    -0.354 N 
ATOM     45  C   UNL A   1      39.069  32.901  34.534  1.00  0.00     0.074 A 
ATOM     46  C   UNL A   1      38.012  33.880  34.400  1.00  0.00     0.031 C 
ATOM     47  C   UNL A   1      38.705  29.592  29.032  1.00  0.00     0.029 A 
ATOM     48  C   UNL A   1      39.664  29.397  30.116  1.00  0.00     0.049 A 
ATOM     49  H   UNL A   1      39.781  30.463  31.903  1.00  0.00     0.167 HD
ATOM     50  C   UNL A   1      39.866  32.774  35.623  1.00  0.00     0.034 A 
ATOM     51  C   UNL A   1      40.648  28.474  30.125  1.00  0.00     0.034 A 
ATOM     52  C   UNL A   1      40.900  31.779  35.747  1.00  0.00     0.049 A 
ATOM     53  C   UNL A   1      41.552  28.391  31.326  1.00  0.00     0.074 A 
ATOM     54  C   UNL A   1      41.732  31.547  36.830  1.00  0.00     0.029 A 
ATOM     55  N   UNL A   1      41.249  30.856  34.772  1.00  0.00    -0.354 N 
ATOM     56  N   UNL A   1      41.501  29.076  32.444  1.00  0.00    -0.248 NA
ATOM     57  C   UNL A   1      42.653  27.419  31.273  1.00  0.00     0.031 C 
ATOM     58  C   UNL A   1      42.624  30.532  36.485  1.00  0.00     0.029 A 
ATOM     59  C   UNL A   1      42.306  30.078  35.215  1.00  0.00     0.049 A 
ATOM     60  H   UNL A   1      40.810  30.767  33.895  1.00  0.00     0.167 HD
ATOM     61  C   UNL A   1      42.550  28.611  33.230  1.00  0.00     0.074 A 
ATOM     62  C   UNL A   1      43.201  27.562  32.473  1.00  0.00     0.031 C 
ATOM     63  C   UNL A   1      42.944  29.025  34.460  1.00  0.00     0.034 A 
BRANCH  50  64
ATOM     64  C   UNL A   1      39.663  33.708  36.791  1.00  0.00     0.023 A 
ATOM     65  C   UNL A   1      40.579  34.752  37.023  1.00  0.00     0.031 A 
ATOM     66  C   UNL A   1      38.674  33.465  37.760  1.00  0.00     0.131 A 
ATOM     67  C   UNL A   1      40.514  35.485  38.215  1.00  0.00     0.055 A 
ATOM     68  C   UNL A   1      38.589  34.223  38.928  1.00  0.00     0.041 A 
ATOM     69  F   UNL A   1      37.779  32.479  37.586  1.00  0.00    -0.206 F 
ATOM     70  C   UNL A   1      39.521  35.229  39.166  1.00  0.00     0.022 A 
BRANCH  67  71
ATOM     71  S   UNL A   1      41.756  36.748  38.611  1.00  0.00     0.124 S 
ATOM     72  O   UNL A   1      42.609  36.040  39.563  1.00  0.00    -0.237 OA
ATOM     73  O   UNL A   1      42.356  37.004  37.306  1.00  0.00    -0.237 OA
ATOM     74  O   UNL A   1      40.974  37.843  39.176  1.00  0.00    -0.744 OA
ENDBRANCH  67  71
ENDBRANCH  50  64
BRANCH  51  75
ATOM     75  C   UNL A   1      40.791  27.548  28.962  1.00  0.00     0.023 A 
ATOM     76  C   UNL A   1      41.775  27.767  27.979  1.00  0.00     0.031 A 
ATOM     77  C   UNL A   1      39.878  26.500  28.757  1.00  0.00     0.131 A 
ATOM     78  C   UNL A   1      41.771  27.005  26.804  1.00  0.00     0.055 A 
ATOM     79  C   UNL A   1      39.927  25.691  27.620  1.00  0.00     0.041 A 
ATOM     80  F   UNL A   1      38.914  26.256  29.659  1.00  0.00    -0.206 F 
ATOM     81  C   UNL A   1      40.865  25.956  26.625  1.00  0.00     0.022 A 
BRANCH  78  82
ATOM     82  S   UNL A   1      42.838  27.453  25.406  1.00  0.00     0.124 S 
ATOM     83  O   UNL A   1      42.873  26.210  24.641  1.00  0.00    -0.237 OA
ATOM     84  O   UNL A   1      42.088  28.548  24.796  1.00  0.00    -0.237 OA
ATOM     85  O   UNL A   1      44.093  27.841  26.042  1.00  0.00    -0.744 OA
ENDBRANCH  78  82
ENDBRANCH  51  75
BRANCH  63  86
ATOM     86  C   UNL A   1      44.143  28.364  35.096  1.00  0.00     0.023 A 
ATOM     87  C   UNL A   1      43.966  27.437  36.142  1.00  0.00     0.031 A 
ATOM     88  C   UNL A   1      45.450  28.773  34.783  1.00  0.00     0.131 A 
ATOM     89  C   UNL A   1      45.075  26.991  36.871  1.00  0.00     0.055 A 
ATOM     90  C   UNL A   1      46.556  28.287  35.481  1.00  0.00     0.041 A 
ATOM     91  F   UNL A   1      45.668  29.662  33.800  1.00  0.00    -0.206 F 
ATOM     92  C   UNL A   1      46.369  27.405  36.541  1.00  0.00     0.022 A 
BRANCH  89  93
ATOM     93  S   UNL A   1      44.870  25.935  38.332  1.00  0.00     0.124 S 
ATOM     94  O   UNL A   1      43.569  26.369  38.838  1.00  0.00    -0.237 OA
ATOM     95  O   UNL A   1      44.898  24.597  37.749  1.00  0.00    -0.237 OA
ATOM     96  O   UNL A   1      46.009  26.277  39.177  1.00  0.00    -0.744 OA
ENDBRANCH  89  93
ENDBRANCH  63  86
ENDBRANCH  37  38
ENDBRANCH  29  32
ENDBRANCH  27  28
ENDBRANCH   1  27
TORSDOF 16
ENDMDL
MODEL 3
REMARK VINA RESULT:     -12.5      0.412      7.389
REMARK SMILES Cc1cc2c(=O)c3ccccc3oc2c(C(=O)NCCCCCCNC(=O)c2ccc(-c3c4nc(c(-c5cc(S(=O)(=O)[O-])ccc5F)c5ccc([nH]5)c(-c5cc(S(=O)(=O)[O-])ccc5F)c5nc(c(-c6cc(S(=O)(=O)[O-])ccc6F)c6ccc3[nH]6)C=C5)C=C4)cc2)c1C
REMARK SMILES IDX 23 1 22 2 21 3 20 4 19 5 18 6 16 7 17 8 15 10 1 11 2 12 3 13
REMARK SMILES IDX 91 14 4 15 92 16 5 17 14 18 6 19 7 20 13 21 8 22 12 23 9 24
REMARK SMILES IDX 11 25 10 26 24 27 25 28 26 29 27 31 28 32 29 33 90 34 30 35
REMARK SMILES IDX 89 36 31 37 32 38 33 39 83 40 34 41 88 42 82 43 84 44 35 45
REMARK SMILES IDX 87 46 81 47 80 48 36 50 68 51 48 52 67 53 49 54 52 55 66 56
REMARK SMILES IDX 85 57 50 58 51 59 65 61 86 62 53 63 37 64 38 65 46 66 39 67
REMARK SMILES IDX 45 68 47 69 44 70 40 71 41 72 42 73 43 74 69 75 70 76 78 77
REMARK SMILES IDX 71 78 77 79 79 80 76 81 72 82 73 83 74 84 75 85 54 86 55 87
REMARK SMILES IDX 63 88 56 89 62 90 64 91 61 92 57 93 58 94 59 95 60 96
REMARK H PARENT 18 9 25 30 84 49 52 60
REMARK Flexibility Score: inf
ROOT
ATOM      1  C   UNL A   1      31.402  30.814  25.838  1.00  0.00     0.021 C 
ENDROOT
BRANCH   1   2
ATOM      2  C   UNL A   1      31.408  29.303  25.610  1.00  0.00     0.002 C 
BRANCH   2   3
ATOM      3  C   UNL A   1      32.560  28.481  26.201  1.00  0.00     0.002 C 
BRANCH   3   4
ATOM      4  C   UNL A   1      33.796  28.191  25.339  1.00  0.00     0.021 C 
BRANCH   4   5
ATOM      5  C   UNL A   1      33.863  28.779  23.931  1.00  0.00     0.116 C 
BRANCH   5   6
ATOM      6  N   UNL A   1      34.122  27.855  22.848  1.00  0.00    -0.352 N 
ATOM      7  C   UNL A   1      33.371  26.810  22.337  1.00  0.00     0.255 C 
ATOM      8  O   UNL A   1      33.745  26.359  21.251  1.00  0.00    -0.269 OA
ATOM      9  H   UNL A   1      34.984  27.993  22.395  1.00  0.00     0.163 HD
BRANCH   7  10
ATOM     10  C   UNL A   1      32.188  26.166  23.027  1.00  0.00     0.086 A 
ATOM     11  C   UNL A   1      31.032  23.072  25.030  1.00  0.00     0.044 C 
ATOM     12  C   UNL A   1      31.054  24.413  24.339  1.00  0.00    -0.046 A 
ATOM     13  C   UNL A   1      29.854  25.120  24.253  1.00  0.00     0.019 A 
ATOM     14  C   UNL A   1      32.251  24.993  23.833  1.00  0.00    -0.032 A 
ATOM     15  C   UNL A   1      29.818  26.353  23.615  1.00  0.00     0.066 A 
ATOM     16  C   UNL A   1      33.544  24.367  24.288  1.00  0.00     0.045 C 
ATOM     17  C   UNL A   1      28.577  27.142  23.676  1.00  0.00     0.200 A 
ATOM     18  C   UNL A   1      30.945  26.860  22.957  1.00  0.00     0.151 A 
ATOM     19  O   UNL A   1      27.576  26.734  24.251  1.00  0.00    -0.288 OA
ATOM     20  C   UNL A   1      28.603  28.460  23.044  1.00  0.00     0.065 A 
ATOM     21  O   UNL A   1      30.869  28.040  22.237  1.00  0.00    -0.455 OA
ATOM     22  C   UNL A   1      27.502  29.319  23.140  1.00  0.00     0.016 A 
ATOM     23  C   UNL A   1      29.749  28.830  22.352  1.00  0.00     0.138 A 
ATOM     24  C   UNL A   1      27.544  30.564  22.517  1.00  0.00     0.001 A 
ATOM     25  C   UNL A   1      29.784  30.078  21.724  1.00  0.00     0.048 A 
ATOM     26  C   UNL A   1      28.685  30.941  21.805  1.00  0.00     0.004 A 
ENDBRANCH   7  10
ENDBRANCH   5   6
ENDBRANCH   4   5
ENDBRANCH   3   4
ENDBRANCH   2   3
ENDBRANCH   1   2
BRANCH   1  27
ATOM     27  C   UNL A   1      32.399  31.368  26.848  1.00  0.00     0.116 C 
BRANCH  27  28
ATOM     28  N   UNL A   1      32.268  32.795  27.075  1.00  0.00    -0.352 N 
ATOM     29  C   UNL A   1      33.015  33.640  27.869  1.00  0.00     0.251 C 
ATOM     30  H   UNL A   1      31.530  33.228  26.588  1.00  0.00     0.163 HD
ATOM     31  O   UNL A   1      32.667  34.805  28.004  1.00  0.00    -0.269 OA
BRANCH  29  32
ATOM     32  C   UNL A   1      34.212  33.133  28.585  1.00  0.00     0.039 A 
ATOM     33  C   UNL A   1      35.483  33.196  28.011  1.00  0.00     0.014 A 
ATOM     34  C   UNL A   1      34.054  32.585  29.863  1.00  0.00     0.014 A 
ATOM     35  C   UNL A   1      36.558  32.569  28.635  1.00  0.00     0.010 A 
ATOM     36  C   UNL A   1      35.153  32.028  30.526  1.00  0.00     0.010 A 
ATOM     37  C   UNL A   1      36.407  31.975  29.899  1.00  0.00    -0.014 A 
BRANCH  37  38
ATOM     38  C   UNL A   1      37.577  31.333  30.558  1.00  0.00     0.031 A 
ATOM     39  C   UNL A   1      38.414  30.315  29.830  1.00  0.00     0.074 A 
ATOM     40  C   UNL A   1      37.904  31.700  31.814  1.00  0.00     0.049 A 
ATOM     41  N   UNL A   1      39.469  29.667  30.250  1.00  0.00    -0.248 NA
ATOM     42  C   UNL A   1      38.019  29.979  28.451  1.00  0.00     0.031 C 
ATOM     43  C   UNL A   1      37.169  32.682  32.612  1.00  0.00     0.029 A 
ATOM     44  N   UNL A   1      38.936  31.312  32.633  1.00  0.00    -0.354 N 
ATOM     45  C   UNL A   1      39.858  28.841  29.202  1.00  0.00     0.074 A 
ATOM     46  C   UNL A   1      38.906  29.045  28.132  1.00  0.00     0.031 C 
ATOM     47  C   UNL A   1      37.798  32.858  33.781  1.00  0.00     0.029 A 
ATOM     48  C   UNL A   1      38.936  31.946  33.856  1.00  0.00     0.049 A 
ATOM     49  H   UNL A   1      39.611  30.647  32.371  1.00  0.00     0.167 HD
ATOM     50  C   UNL A   1      40.921  28.002  29.135  1.00  0.00     0.034 A 
ATOM     51  C   UNL A   1      39.744  31.799  34.926  1.00  0.00     0.034 A 
ATOM     52  C   UNL A   1      41.871  27.827  30.203  1.00  0.00     0.049 A 
ATOM     53  C   UNL A   1      40.886  30.821  34.843  1.00  0.00     0.074 A 
ATOM     54  C   UNL A   1      43.004  27.031  30.213  1.00  0.00     0.029 A 
ATOM     55  N   UNL A   1      41.811  28.447  31.443  1.00  0.00    -0.354 N 
ATOM     56  N   UNL A   1      41.268  30.087  33.824  1.00  0.00    -0.248 NA
ATOM     57  C   UNL A   1      41.705  30.638  36.049  1.00  0.00     0.031 C 
ATOM     58  C   UNL A   1      43.588  27.117  31.476  1.00  0.00     0.029 A 
ATOM     59  C   UNL A   1      42.864  28.024  32.236  1.00  0.00     0.049 A 
ATOM     60  H   UNL A   1      41.121  29.093  31.718  1.00  0.00     0.167 HD
ATOM     61  C   UNL A   1      42.376  29.368  34.261  1.00  0.00     0.074 A 
ATOM     62  C   UNL A   1      42.624  29.780  35.627  1.00  0.00     0.031 C 
ATOM     63  C   UNL A   1      43.112  28.445  33.594  1.00  0.00     0.034 A 
BRANCH  50  64
ATOM     64  C   UNL A   1      41.151  27.209  27.871  1.00  0.00     0.023 A 
ATOM     65  C   UNL A   1      40.901  25.824  27.856  1.00  0.00     0.031 A 
ATOM     66  C   UNL A   1      41.767  27.786  26.748  1.00  0.00     0.131 A 
ATOM     67  C   UNL A   1      41.309  25.054  26.759  1.00  0.00     0.055 A 
ATOM     68  C   UNL A   1      42.136  27.021  25.640  1.00  0.00     0.041 A 
ATOM     69  F   UNL A   1      42.028  29.103  26.714  1.00  0.00    -0.206 F 
ATOM     70  C   UNL A   1      41.920  25.646  25.649  1.00  0.00     0.022 A 
BRANCH  67  71
ATOM     71  S   UNL A   1      41.128  23.248  26.759  1.00  0.00     0.124 S 
ATOM     72  O   UNL A   1      41.561  22.904  28.111  1.00  0.00    -0.237 OA
ATOM     73  O   UNL A   1      39.701  23.086  26.501  1.00  0.00    -0.237 OA
ATOM     74  O   UNL A   1      42.020  22.807  25.692  1.00  0.00    -0.744 OA
ENDBRANCH  67  71
ENDBRANCH  50  64
BRANCH  51  75
ATOM     75  C   UNL A   1      39.500  32.628  36.144  1.00  0.00     0.023 A 
ATOM     76  C   UNL A   1      38.696  32.151  37.195  1.00  0.00     0.031 A 
ATOM     77  C   UNL A   1      39.974  33.949  36.224  1.00  0.00     0.131 A 
ATOM     78  C   UNL A   1      38.324  33.010  38.237  1.00  0.00     0.055 A 
ATOM     79  C   UNL A   1      39.666  34.777  37.305  1.00  0.00     0.041 A 
ATOM     80  F   UNL A   1      40.736  34.455  35.243  1.00  0.00    -0.206 F 
ATOM     81  C   UNL A   1      38.817  34.315  38.308  1.00  0.00     0.022 A 
BRANCH  78  82
ATOM     82  S   UNL A   1      37.064  32.512  39.444  1.00  0.00     0.124 S 
ATOM     83  O   UNL A   1      37.434  31.127  39.715  1.00  0.00    -0.237 OA
ATOM     84  O   UNL A   1      37.304  33.455  40.534  1.00  0.00    -0.237 OA
ATOM     85  O   UNL A   1      35.806  32.703  38.728  1.00  0.00    -0.744 OA
ENDBRANCH  78  82
ENDBRANCH  51  75
BRANCH  63  86
ATOM     86  C   UNL A   1      44.267  27.786  34.310  1.00  0.00     0.023 A 
ATOM     87  C   UNL A   1      44.038  26.672  35.142  1.00  0.00     0.031 A 
ATOM     88  C   UNL A   1      45.550  28.357  34.299  1.00  0.00     0.131 A 
ATOM     89  C   UNL A   1      45.065  26.198  35.968  1.00  0.00     0.055 A 
ATOM     90  C   UNL A   1      46.584  27.849  35.087  1.00  0.00     0.041 A 
ATOM     91  F   UNL A   1      45.814  29.425  33.530  1.00  0.00    -0.206 F 
ATOM     92  C   UNL A   1      46.338  26.776  35.939  1.00  0.00     0.022 A 
BRANCH  89  93
ATOM     93  S   UNL A   1      44.759  24.880  37.176  1.00  0.00     0.124 S 
ATOM     94  O   UNL A   1      44.550  23.721  36.313  1.00  0.00    -0.237 OA
ATOM     95  O   UNL A   1      46.003  24.872  37.941  1.00  0.00    -0.237 OA
ATOM     96  O   UNL A   1      43.578  25.334  37.902  1.00  0.00    -0.744 OA
ENDBRANCH  89  93
ENDBRANCH  63  86
ENDBRANCH  37  38
ENDBRANCH  29  32
ENDBRANCH  27  28
ENDBRANCH   1  27
TORSDOF 16
ENDMDL
