MODEL 1
REMARK VINA RESULT:     -11.0      0.000      0.000
REMARK SMILES CC[C@@]1(C(=O)NCCCCCCNC(=O)c2ccc(-c3c4nc(c(-c5cc(S(=O)(=O)[O-])ccc5F)c5ccc([nH]5)c(-c5cc(S(=O)(=O)[O-])ccc5F)c5nc(c(-c6cc(S(=O)(=O)[O-])ccc6F)c6ccc3[nH]6)C=C5)C=C4)cc2)CCC[N@@H+](Cc2ccc(C3CC3)cc2)C1
REMARK SMILES IDX 9 1 8 2 7 3 6 4 4 5 5 6 3 8 79 9 93 10 80 11 82 12 81 13
REMARK SMILES IDX 2 15 1 16 83 17 84 18 85 19 92 20 86 21 91 22 87 23 88 24
REMARK SMILES IDX 89 25 90 26 10 27 11 28 12 29 13 30 14 31 15 33 16 34 17 35
REMARK SMILES IDX 78 36 18 37 77 38 19 39 20 40 21 41 71 42 22 43 76 44 70 45
REMARK SMILES IDX 72 46 23 47 75 48 69 49 68 50 24 52 56 53 36 54 55 55 37 56
REMARK SMILES IDX 40 57 54 58 73 59 38 60 39 61 53 63 74 64 41 65 25 66 26 67
REMARK SMILES IDX 34 68 27 69 33 70 35 71 32 72 28 73 29 74 30 75 31 76 57 77
REMARK SMILES IDX 58 78 66 79 59 80 65 81 67 82 64 83 60 84 61 85 62 86 63 87
REMARK SMILES IDX 42 88 43 89 51 90 44 91 50 92 52 93 49 94 45 95 46 96 47 97
REMARK SMILES IDX 48 98
REMARK H PARENT 6 7 82 14 13 32 72 51 40 62
REMARK Flexibility Score: inf
ROOT
ATOM      1  C   UNL A   1      33.823  30.394  27.400  1.00  0.00     0.002 C 
ENDROOT
BRANCH   1   2
ATOM      2  C   UNL A   1      34.350  28.974  27.229  1.00  0.00     0.021 C 
BRANCH   2   3
ATOM      3  C   UNL A   1      33.349  27.979  26.660  1.00  0.00     0.116 C 
BRANCH   3   4
ATOM      4  N   UNL A   1      33.969  26.806  26.087  1.00  0.00    -0.355 N 
ATOM      5  C   UNL A   1      33.675  26.077  24.979  1.00  0.00     0.231 C 
ATOM      6  O   UNL A   1      34.520  25.218  24.685  1.00  0.00    -0.274 OA
ATOM      7  H   UNL A   1      34.746  26.475  26.593  1.00  0.00     0.163 HD
BRANCH   5   8
ATOM      8  C   UNL A   1      32.336  26.141  24.193  1.00  0.00     0.098 C 
ATOM      9  C   UNL A   1      31.179  26.085  25.240  1.00  0.00     0.028 C 
ATOM     10  C   UNL A   1      31.997  25.014  23.203  1.00  0.00     0.279 C 
ATOM     11  C   UNL A   1      31.069  24.689  25.874  1.00  0.00     0.063 C 
ATOM     12  N   UNL A   1      32.068  23.693  23.839  1.00  0.00    -0.330 N 
ATOM     13  C   UNL A   1      30.999  23.561  24.833  1.00  0.00     0.262 C 
ATOM     14  H   UNL A   1      32.962  23.635  24.329  1.00  0.00     0.348 HD
BRANCH   8  15
ATOM     15  C   UNL A   1      32.284  27.515  23.463  1.00  0.00     0.019 C 
ATOM     16  C   UNL A   1      33.550  27.899  22.699  1.00  0.00     0.005 C 
ENDBRANCH   8  15
BRANCH  12  17
ATOM     17  C   UNL A   1      32.140  22.569  22.884  1.00  0.00     0.299 C 
BRANCH  17  18
ATOM     18  C   UNL A   1      32.594  21.249  23.460  1.00  0.00     0.006 A 
ATOM     19  C   UNL A   1      32.097  20.044  22.964  1.00  0.00     0.010 A 
ATOM     20  C   UNL A   1      33.580  21.208  24.452  1.00  0.00     0.010 A 
ATOM     21  C   UNL A   1      32.667  18.832  23.365  1.00  0.00     0.004 A 
ATOM     22  C   UNL A   1      34.161  19.997  24.824  1.00  0.00     0.004 A 
ATOM     23  C   UNL A   1      33.754  18.780  24.255  1.00  0.00    -0.045 A 
BRANCH  23  24
ATOM     24  C   UNL A   1      34.453  17.464  24.524  1.00  0.00     0.019 C 
ATOM     25  C   UNL A   1      33.758  16.387  25.330  1.00  0.00     0.009 C 
ATOM     26  C   UNL A   1      34.018  16.182  23.864  1.00  0.00     0.009 C 
ENDBRANCH  23  24
ENDBRANCH  17  18
ENDBRANCH  12  17
ENDBRANCH   5   8
ENDBRANCH   3   4
ENDBRANCH   2   3
ENDBRANCH   1   2
BRANCH   1  27
ATOM     27  C   UNL A   1      32.313  30.565  27.214  1.00  0.00     0.002 C 
BRANCH  27  28
ATOM     28  C   UNL A   1      31.825  31.993  26.952  1.00  0.00     0.021 C 
BRANCH  28  29
ATOM     29  C   UNL A   1      32.921  33.050  26.852  1.00  0.00     0.116 C 
BRANCH  29  30
ATOM     30  N   UNL A   1      32.631  34.220  27.658  1.00  0.00    -0.352 N 
ATOM     31  C   UNL A   1      33.170  34.607  28.859  1.00  0.00     0.251 C 
ATOM     32  H   UNL A   1      31.946  34.825  27.290  1.00  0.00     0.163 HD
ATOM     33  O   UNL A   1      32.653  35.527  29.485  1.00  0.00    -0.269 OA
BRANCH  31  34
ATOM     34  C   UNL A   1      34.355  33.906  29.400  1.00  0.00     0.039 A 
ATOM     35  C   UNL A   1      34.162  32.866  30.313  1.00  0.00     0.014 A 
ATOM     36  C   UNL A   1      35.650  34.286  29.034  1.00  0.00     0.014 A 
ATOM     37  C   UNL A   1      35.265  32.183  30.829  1.00  0.00     0.010 A 
ATOM     38  C   UNL A   1      36.744  33.555  29.489  1.00  0.00     0.010 A 
ATOM     39  C   UNL A   1      36.565  32.507  30.404  1.00  0.00    -0.014 A 
BRANCH  39  40
ATOM     40  C   UNL A   1      37.749  31.785  30.941  1.00  0.00     0.031 A 
ATOM     41  C   UNL A   1      38.290  32.142  32.301  1.00  0.00     0.074 A 
ATOM     42  C   UNL A   1      38.358  30.844  30.192  1.00  0.00     0.049 A 
ATOM     43  N   UNL A   1      39.346  31.679  32.919  1.00  0.00    -0.248 NA
ATOM     44  C   UNL A   1      37.562  33.179  33.047  1.00  0.00     0.031 C 
ATOM     45  C   UNL A   1      37.944  30.437  28.848  1.00  0.00     0.029 A 
ATOM     46  N   UNL A   1      39.457  30.065  30.450  1.00  0.00    -0.354 N 
ATOM     47  C   UNL A   1      39.417  32.378  34.121  1.00  0.00     0.074 A 
ATOM     48  C   UNL A   1      38.336  33.341  34.108  1.00  0.00     0.031 C 
ATOM     49  C   UNL A   1      38.762  29.466  28.411  1.00  0.00     0.029 A 
ATOM     50  C   UNL A   1      39.785  29.213  29.421  1.00  0.00     0.049 A 
ATOM     51  H   UNL A   1      39.964  30.111  31.293  1.00  0.00     0.167 HD
ATOM     52  C   UNL A   1      40.286  32.214  35.149  1.00  0.00     0.034 A 
ATOM     53  C   UNL A   1      40.803  28.337  29.300  1.00  0.00     0.034 A 
ATOM     54  C   UNL A   1      41.349  31.238  35.148  1.00  0.00     0.049 A 
ATOM     55  C   UNL A   1      41.774  28.189  30.446  1.00  0.00     0.074 A 
ATOM     56  C   UNL A   1      42.257  30.951  36.151  1.00  0.00     0.029 A 
ATOM     57  N   UNL A   1      41.652  30.393  34.087  1.00  0.00    -0.354 N 
ATOM     58  N   UNL A   1      41.801  28.826  31.594  1.00  0.00    -0.248 NA
ATOM     59  C   UNL A   1      42.844  27.197  30.283  1.00  0.00     0.031 C 
ATOM     60  C   UNL A   1      43.151  29.986  35.673  1.00  0.00     0.029 A 
ATOM     61  C   UNL A   1      42.751  29.608  34.401  1.00  0.00     0.049 A 
ATOM     62  H   UNL A   1      41.158  30.356  33.236  1.00  0.00     0.167 HD
ATOM     63  C   UNL A   1      42.868  28.282  32.305  1.00  0.00     0.074 A 
ATOM     64  C   UNL A   1      43.449  27.258  31.460  1.00  0.00     0.031 C 
ATOM     65  C   UNL A   1      43.324  28.595  33.545  1.00  0.00     0.034 A 
BRANCH  52  66
ATOM     66  C   UNL A   1      40.134  33.129  36.341  1.00  0.00     0.023 A 
ATOM     67  C   UNL A   1      39.464  32.720  37.509  1.00  0.00     0.031 A 
ATOM     68  C   UNL A   1      40.639  34.441  36.303  1.00  0.00     0.131 A 
ATOM     69  C   UNL A   1      39.245  33.634  38.550  1.00  0.00     0.055 A 
ATOM     70  C   UNL A   1      40.496  35.319  37.379  1.00  0.00     0.041 A 
ATOM     71  F   UNL A   1      41.269  34.900  35.210  1.00  0.00    -0.206 F 
ATOM     72  C   UNL A   1      39.780  34.924  38.505  1.00  0.00     0.022 A 
BRANCH  69  73
ATOM     73  S   UNL A   1      38.120  33.163  39.893  1.00  0.00     0.124 S 
ATOM     74  O   UNL A   1      38.042  34.405  40.659  1.00  0.00    -0.237 OA
ATOM     75  O   UNL A   1      36.912  32.780  39.173  1.00  0.00    -0.237 OA
ATOM     76  O   UNL A   1      38.824  32.071  40.562  1.00  0.00    -0.744 OA
ENDBRANCH  69  73
ENDBRANCH  52  66
BRANCH  53  77
ATOM     77  C   UNL A   1      40.967  27.535  28.053  1.00  0.00     0.023 A 
ATOM     78  C   UNL A   1      40.658  26.166  28.026  1.00  0.00     0.031 A 
ATOM     79  C   UNL A   1      41.483  28.116  26.881  1.00  0.00     0.131 A 
ATOM     80  C   UNL A   1      40.913  25.413  26.869  1.00  0.00     0.055 A 
ATOM     81  C   UNL A   1      41.681  27.376  25.714  1.00  0.00     0.041 A 
ATOM     82  F   UNL A   1      41.793  29.423  26.850  1.00  0.00    -0.206 F 
ATOM     83  C   UNL A   1      41.409  26.012  25.708  1.00  0.00     0.022 A 
BRANCH  80  84
ATOM     84  S   UNL A   1      40.675  23.616  26.932  1.00  0.00     0.124 S 
ATOM     85  O   UNL A   1      41.592  23.160  25.893  1.00  0.00    -0.237 OA
ATOM     86  O   UNL A   1      41.057  23.308  28.306  1.00  0.00    -0.237 OA
ATOM     87  O   UNL A   1      39.255  23.450  26.628  1.00  0.00    -0.744 OA
ENDBRANCH  80  84
ENDBRANCH  53  77
BRANCH  65  88
ATOM     88  C   UNL A   1      44.477  27.781  34.080  1.00  0.00     0.023 A 
ATOM     89  C   UNL A   1      44.275  26.637  34.872  1.00  0.00     0.031 A 
ATOM     90  C   UNL A   1      45.801  28.163  33.797  1.00  0.00     0.131 A 
ATOM     91  C   UNL A   1      45.379  25.951  35.404  1.00  0.00     0.055 A 
ATOM     92  C   UNL A   1      46.894  27.438  34.273  1.00  0.00     0.041 A 
ATOM     93  F   UNL A   1      46.055  29.248  33.048  1.00  0.00    -0.206 F 
ATOM     94  C   UNL A   1      46.686  26.334  35.093  1.00  0.00     0.022 A 
BRANCH  91  95
ATOM     95  S   UNL A   1      45.081  24.610  36.587  1.00  0.00     0.124 S 
ATOM     96  O   UNL A   1      44.530  23.565  35.730  1.00  0.00    -0.237 OA
ATOM     97  O   UNL A   1      46.418  24.359  37.117  1.00  0.00    -0.237 OA
ATOM     98  O   UNL A   1      44.137  25.195  37.538  1.00  0.00    -0.744 OA
ENDBRANCH  91  95
ENDBRANCH  65  88
ENDBRANCH  39  40
ENDBRANCH  31  34
ENDBRANCH  29  30
ENDBRANCH  28  29
ENDBRANCH  27  28
ENDBRANCH   1  27
TORSDOF 20
ENDMDL
MODEL 2
REMARK VINA RESULT:     -10.9      5.266      8.286
REMARK SMILES CC[C@@]1(C(=O)NCCCCCCNC(=O)c2ccc(-c3c4nc(c(-c5cc(S(=O)(=O)[O-])ccc5F)c5ccc([nH]5)c(-c5cc(S(=O)(=O)[O-])ccc5F)c5nc(c(-c6cc(S(=O)(=O)[O-])ccc6F)c6ccc3[nH]6)C=C5)C=C4)cc2)CCC[N@@H+](Cc2ccc(C3CC3)cc2)C1
REMARK SMILES IDX 9 1 8 2 7 3 6 4 4 5 5 6 3 8 79 9 93 10 80 11 82 12 81 13
REMARK SMILES IDX 2 15 1 16 83 17 84 18 85 19 92 20 86 21 91 22 87 23 88 24
REMARK SMILES IDX 89 25 90 26 10 27 11 28 12 29 13 30 14 31 15 33 16 34 17 35
REMARK SMILES IDX 78 36 18 37 77 38 19 39 20 40 21 41 71 42 22 43 76 44 70 45
REMARK SMILES IDX 72 46 23 47 75 48 69 49 68 50 24 52 56 53 36 54 55 55 37 56
REMARK SMILES IDX 40 57 54 58 73 59 38 60 39 61 53 63 74 64 41 65 25 66 26 67
REMARK SMILES IDX 34 68 27 69 33 70 35 71 32 72 28 73 29 74 30 75 31 76 57 77
REMARK SMILES IDX 58 78 66 79 59 80 65 81 67 82 64 83 60 84 61 85 62 86 63 87
REMARK SMILES IDX 42 88 43 89 51 90 44 91 50 92 52 93 49 94 45 95 46 96 47 97
REMARK SMILES IDX 48 98
REMARK H PARENT 6 7 82 14 13 32 72 51 40 62
REMARK Flexibility Score: inf
ROOT
ATOM      1  C   UNL A   1      33.948  23.198  22.520  1.00  0.00     0.002 C 
ENDROOT
BRANCH   1   2
ATOM      2  C   UNL A   1      32.615  23.896  22.764  1.00  0.00     0.021 C 
BRANCH   2   3
ATOM      3  C   UNL A   1      32.455  25.240  22.072  1.00  0.00     0.116 C 
BRANCH   3   4
ATOM      4  N   UNL A   1      33.298  26.275  22.624  1.00  0.00    -0.355 N 
ATOM      5  C   UNL A   1      33.028  27.317  23.453  1.00  0.00     0.231 C 
ATOM      6  O   UNL A   1      34.028  27.923  23.867  1.00  0.00    -0.274 OA
ATOM      7  H   UNL A   1      34.242  26.213  22.349  1.00  0.00     0.163 HD
BRANCH   5   8
ATOM      8  C   UNL A   1      31.610  27.866  23.770  1.00  0.00     0.098 C 
ATOM      9  C   UNL A   1      31.790  29.131  24.665  1.00  0.00     0.028 C 
ATOM     10  C   UNL A   1      30.629  26.985  24.563  1.00  0.00     0.279 C 
ATOM     11  C   UNL A   1      32.269  28.752  26.076  1.00  0.00     0.063 C 
ATOM     12  N   UNL A   1      31.213  26.526  25.829  1.00  0.00    -0.330 N 
ATOM     13  C   UNL A   1      31.403  27.665  26.732  1.00  0.00     0.262 C 
ATOM     14  H   UNL A   1      32.132  26.135  25.620  1.00  0.00     0.348 HD
BRANCH   8  15
ATOM     15  C   UNL A   1      30.959  28.294  22.422  1.00  0.00     0.019 C 
ATOM     16  C   UNL A   1      29.939  29.427  22.518  1.00  0.00     0.005 C 
ENDBRANCH   8  15
BRANCH  12  17
ATOM     17  C   UNL A   1      30.500  25.389  26.443  1.00  0.00     0.299 C 
BRANCH  17  18
ATOM     18  C   UNL A   1      31.186  24.048  26.331  1.00  0.00     0.006 A 
ATOM     19  C   UNL A   1      30.580  22.988  25.657  1.00  0.00     0.010 A 
ATOM     20  C   UNL A   1      32.479  23.867  26.837  1.00  0.00     0.010 A 
ATOM     21  C   UNL A   1      31.303  21.821  25.389  1.00  0.00     0.004 A 
ATOM     22  C   UNL A   1      33.200  22.712  26.540  1.00  0.00     0.004 A 
ATOM     23  C   UNL A   1      32.650  21.679  25.768  1.00  0.00    -0.045 A 
BRANCH  23  24
ATOM     24  C   UNL A   1      33.445  20.475  25.304  1.00  0.00     0.019 C 
ATOM     25  C   UNL A   1      32.903  19.079  25.522  1.00  0.00     0.009 C 
ATOM     26  C   UNL A   1      33.009  19.637  24.131  1.00  0.00     0.009 C 
ENDBRANCH  23  24
ENDBRANCH  17  18
ENDBRANCH  12  17
ENDBRANCH   5   8
ENDBRANCH   3   4
ENDBRANCH   2   3
ENDBRANCH   1   2
BRANCH   1  27
ATOM     27  C   UNL A   1      35.060  23.531  23.519  1.00  0.00     0.002 C 
BRANCH  27  28
ATOM     28  C   UNL A   1      36.057  22.407  23.815  1.00  0.00     0.021 C 
BRANCH  28  29
ATOM     29  C   UNL A   1      36.419  22.224  25.286  1.00  0.00     0.116 C 
BRANCH  29  30
ATOM     30  N   UNL A   1      37.304  21.095  25.496  1.00  0.00    -0.352 N 
ATOM     31  C   UNL A   1      38.641  21.082  25.807  1.00  0.00     0.251 C 
ATOM     32  H   UNL A   1      36.886  20.209  25.403  1.00  0.00     0.163 HD
ATOM     33  O   UNL A   1      39.264  20.027  25.749  1.00  0.00    -0.269 OA
BRANCH  31  34
ATOM     34  C   UNL A   1      39.326  22.336  26.190  1.00  0.00     0.039 A 
ATOM     35  C   UNL A   1      40.600  22.261  26.758  1.00  0.00     0.014 A 
ATOM     36  C   UNL A   1      38.709  23.579  26.016  1.00  0.00     0.014 A 
ATOM     37  C   UNL A   1      41.270  23.432  27.116  1.00  0.00     0.010 A 
ATOM     38  C   UNL A   1      39.408  24.749  26.302  1.00  0.00     0.010 A 
ATOM     39  C   UNL A   1      40.689  24.687  26.871  1.00  0.00    -0.014 A 
BRANCH  39  40
ATOM     40  C   UNL A   1      41.393  25.943  27.243  1.00  0.00     0.031 A 
ATOM     41  C   UNL A   1      40.676  26.990  28.054  1.00  0.00     0.074 A 
ATOM     42  C   UNL A   1      42.653  26.158  26.816  1.00  0.00     0.049 A 
ATOM     43  N   UNL A   1      41.088  28.175  28.425  1.00  0.00    -0.248 NA
ATOM     44  C   UNL A   1      39.304  26.671  28.476  1.00  0.00     0.031 C 
ATOM     45  C   UNL A   1      43.437  25.231  25.997  1.00  0.00     0.029 A 
ATOM     46  N   UNL A   1      43.495  27.224  27.006  1.00  0.00    -0.354 N 
ATOM     47  C   UNL A   1      40.022  28.749  29.112  1.00  0.00     0.074 A 
ATOM     48  C   UNL A   1      38.925  27.806  29.044  1.00  0.00     0.031 C 
ATOM     49  C   UNL A   1      44.652  25.757  25.778  1.00  0.00     0.029 A 
ATOM     50  C   UNL A   1      44.721  27.076  26.398  1.00  0.00     0.049 A 
ATOM     51  H   UNL A   1      43.246  28.021  27.528  1.00  0.00     0.167 HD
ATOM     52  C   UNL A   1      39.970  29.938  29.760  1.00  0.00     0.034 A 
ATOM     53  C   UNL A   1      45.775  27.915  26.338  1.00  0.00     0.034 A 
ATOM     54  C   UNL A   1      41.079  30.859  29.829  1.00  0.00     0.049 A 
ATOM     55  C   UNL A   1      45.686  29.245  27.045  1.00  0.00     0.074 A 
ATOM     56  C   UNL A   1      41.157  32.068  30.497  1.00  0.00     0.029 A 
ATOM     57  N   UNL A   1      42.305  30.676  29.200  1.00  0.00    -0.354 N 
ATOM     58  N   UNL A   1      44.687  29.753  27.729  1.00  0.00    -0.248 NA
ATOM     59  C   UNL A   1      46.872  30.108  26.983  1.00  0.00     0.031 C 
ATOM     60  C   UNL A   1      42.398  32.648  30.215  1.00  0.00     0.029 A 
ATOM     61  C   UNL A   1      43.131  31.764  29.440  1.00  0.00     0.049 A 
ATOM     62  H   UNL A   1      42.551  29.889  28.663  1.00  0.00     0.167 HD
ATOM     63  C   UNL A   1      45.140  30.980  28.208  1.00  0.00     0.074 A 
ATOM     64  C   UNL A   1      46.505  31.126  27.746  1.00  0.00     0.031 C 
ATOM     65  C   UNL A   1      44.489  31.900  28.966  1.00  0.00     0.034 A 
BRANCH  52  66
ATOM     66  C   UNL A   1      38.664  30.316  30.420  1.00  0.00     0.023 A 
ATOM     67  C   UNL A   1      37.742  31.178  29.800  1.00  0.00     0.031 A 
ATOM     68  C   UNL A   1      38.347  29.833  31.702  1.00  0.00     0.131 A 
ATOM     69  C   UNL A   1      36.594  31.595  30.490  1.00  0.00     0.055 A 
ATOM     70  C   UNL A   1      37.159  30.181  32.349  1.00  0.00     0.041 A 
ATOM     71  F   UNL A   1      39.195  29.024  32.358  1.00  0.00    -0.206 F 
ATOM     72  C   UNL A   1      36.282  31.081  31.751  1.00  0.00     0.022 A 
BRANCH  69  73
ATOM     73  S   UNL A   1      35.598  32.935  29.783  1.00  0.00     0.124 S 
ATOM     74  O   UNL A   1      34.406  32.214  29.343  1.00  0.00    -0.237 OA
ATOM     75  O   UNL A   1      35.419  33.830  30.919  1.00  0.00    -0.237 OA
ATOM     76  O   UNL A   1      36.436  33.453  28.704  1.00  0.00    -0.744 OA
ENDBRANCH  69  73
ENDBRANCH  52  66
BRANCH  53  77
ATOM     77  C   UNL A   1      47.002  27.535  25.580  1.00  0.00     0.023 A 
ATOM     78  C   UNL A   1      47.154  27.879  24.227  1.00  0.00     0.031 A 
ATOM     79  C   UNL A   1      48.022  26.778  26.184  1.00  0.00     0.131 A 
ATOM     80  C   UNL A   1      48.272  27.426  23.510  1.00  0.00     0.055 A 
ATOM     81  C   UNL A   1      49.161  26.378  25.482  1.00  0.00     0.041 A 
ATOM     82  F   UNL A   1      47.931  26.424  27.476  1.00  0.00    -0.206 F 
ATOM     83  C   UNL A   1      49.284  26.691  24.132  1.00  0.00     0.022 A 
BRANCH  80  84
ATOM     84  S   UNL A   1      48.341  27.733  21.724  1.00  0.00     0.124 S 
ATOM     85  O   UNL A   1      46.992  28.221  21.455  1.00  0.00    -0.237 OA
ATOM     86  O   UNL A   1      49.412  28.720  21.627  1.00  0.00    -0.237 OA
ATOM     87  O   UNL A   1      48.653  26.420  21.164  1.00  0.00    -0.744 OA
ENDBRANCH  80  84
ENDBRANCH  53  77
BRANCH  65  88
ATOM     88  C   UNL A   1      45.271  33.121  29.386  1.00  0.00     0.023 A 
ATOM     89  C   UNL A   1      45.205  34.328  28.668  1.00  0.00     0.031 A 
ATOM     90  C   UNL A   1      46.103  33.070  30.519  1.00  0.00     0.131 A 
ATOM     91  C   UNL A   1      46.002  35.417  29.058  1.00  0.00     0.055 A 
ATOM     92  C   UNL A   1      46.842  34.176  30.940  1.00  0.00     0.041 A 
ATOM     93  F   UNL A   1      46.207  31.943  31.241  1.00  0.00    -0.206 F 
ATOM     94  C   UNL A   1      46.806  35.353  30.199  1.00  0.00     0.022 A 
BRANCH  91  95
ATOM     95  S   UNL A   1      46.051  36.884  27.994  1.00  0.00     0.124 S 
ATOM     96  O   UNL A   1      45.520  36.366  26.737  1.00  0.00    -0.237 OA
ATOM     97  O   UNL A   1      45.191  37.819  28.712  1.00  0.00    -0.237 OA
ATOM     98  O   UNL A   1      47.468  37.242  27.967  1.00  0.00    -0.744 OA
ENDBRANCH  91  95
ENDBRANCH  65  88
ENDBRANCH  39  40
ENDBRANCH  31  34
ENDBRANCH  29  30
ENDBRANCH  28  29
ENDBRANCH  27  28
ENDBRANCH   1  27
TORSDOF 20
ENDMDL
MODEL 3
REMARK VINA RESULT:     -10.9      5.080      9.954
REMARK SMILES CC[C@@]1(C(=O)NCCCCCCNC(=O)c2ccc(-c3c4nc(c(-c5cc(S(=O)(=O)[O-])ccc5F)c5ccc([nH]5)c(-c5cc(S(=O)(=O)[O-])ccc5F)c5nc(c(-c6cc(S(=O)(=O)[O-])ccc6F)c6ccc3[nH]6)C=C5)C=C4)cc2)CCC[N@@H+](Cc2ccc(C3CC3)cc2)C1
REMARK SMILES IDX 9 1 8 2 7 3 6 4 4 5 5 6 3 8 79 9 93 10 80 11 82 12 81 13
REMARK SMILES IDX 2 15 1 16 83 17 84 18 85 19 92 20 86 21 91 22 87 23 88 24
REMARK SMILES IDX 89 25 90 26 10 27 11 28 12 29 13 30 14 31 15 33 16 34 17 35
REMARK SMILES IDX 78 36 18 37 77 38 19 39 20 40 21 41 71 42 22 43 76 44 70 45
REMARK SMILES IDX 72 46 23 47 75 48 69 49 68 50 24 52 56 53 36 54 55 55 37 56
REMARK SMILES IDX 40 57 54 58 73 59 38 60 39 61 53 63 74 64 41 65 25 66 26 67
REMARK SMILES IDX 34 68 27 69 33 70 35 71 32 72 28 73 29 74 30 75 31 76 57 77
REMARK SMILES IDX 58 78 66 79 59 80 65 81 67 82 64 83 60 84 61 85 62 86 63 87
REMARK SMILES IDX 42 88 43 89 51 90 44 91 50 92 52 93 49 94 45 95 46 96 47 97
REMARK SMILES IDX 48 98
REMARK H PARENT 6 7 82 14 13 32 72 51 40 62
REMARK Flexibility Score: inf
ROOT
ATOM      1  C   UNL A   1      34.701  23.863  22.751  1.00  0.00     0.002 C 
ENDROOT
BRANCH   1   2
ATOM      2  C   UNL A   1      33.190  24.056  22.700  1.00  0.00     0.021 C 
BRANCH   2   3
ATOM      3  C   UNL A   1      32.729  25.406  22.174  1.00  0.00     0.116 C 
BRANCH   3   4
ATOM      4  N   UNL A   1      33.489  26.517  22.700  1.00  0.00    -0.355 N 
ATOM      5  C   UNL A   1      33.148  27.532  23.535  1.00  0.00     0.231 C 
ATOM      6  O   UNL A   1      34.099  28.230  23.918  1.00  0.00    -0.274 OA
ATOM      7  H   UNL A   1      34.426  26.541  22.397  1.00  0.00     0.163 HD
BRANCH   5   8
ATOM      8  C   UNL A   1      31.695  27.948  23.893  1.00  0.00     0.098 C 
ATOM      9  C   UNL A   1      31.786  29.113  24.929  1.00  0.00     0.028 C 
ATOM     10  C   UNL A   1      30.769  26.922  24.568  1.00  0.00     0.279 C 
ATOM     11  C   UNL A   1      32.281  28.606  26.293  1.00  0.00     0.063 C 
ATOM     12  N   UNL A   1      31.375  26.360  25.781  1.00  0.00    -0.330 N 
ATOM     13  C   UNL A   1      31.484  27.398  26.810  1.00  0.00     0.262 C 
ATOM     14  H   UNL A   1      32.319  26.055  25.541  1.00  0.00     0.348 HD
BRANCH   8  15
ATOM     15  C   UNL A   1      31.025  28.485  22.594  1.00  0.00     0.019 C 
ATOM     16  C   UNL A   1      29.554  28.872  22.727  1.00  0.00     0.005 C 
ENDBRANCH   8  15
BRANCH  12  17
ATOM     17  C   UNL A   1      30.734  25.116  26.252  1.00  0.00     0.299 C 
BRANCH  17  18
ATOM     18  C   UNL A   1      31.481  23.839  25.947  1.00  0.00     0.006 A 
ATOM     19  C   UNL A   1      32.505  23.392  26.782  1.00  0.00     0.010 A 
ATOM     20  C   UNL A   1      31.106  23.040  24.861  1.00  0.00     0.010 A 
ATOM     21  C   UNL A   1      33.050  22.117  26.602  1.00  0.00     0.004 A 
ATOM     22  C   UNL A   1      31.636  21.759  24.707  1.00  0.00     0.004 A 
ATOM     23  C   UNL A   1      32.586  21.244  25.601  1.00  0.00    -0.045 A 
BRANCH  23  24
ATOM     24  C   UNL A   1      33.080  19.812  25.554  1.00  0.00     0.019 C 
ATOM     25  C   UNL A   1      33.004  19.026  24.263  1.00  0.00     0.009 C 
ATOM     26  C   UNL A   1      34.339  19.428  24.823  1.00  0.00     0.009 C 
ENDBRANCH  23  24
ENDBRANCH  17  18
ENDBRANCH  12  17
ENDBRANCH   5   8
ENDBRANCH   3   4
ENDBRANCH   2   3
ENDBRANCH   1   2
BRANCH   1  27
ATOM     27  C   UNL A   1      35.308  23.781  24.155  1.00  0.00     0.002 C 
BRANCH  27  28
ATOM     28  C   UNL A   1      36.001  22.462  24.511  1.00  0.00     0.021 C 
BRANCH  28  29
ATOM     29  C   UNL A   1      36.681  22.429  25.876  1.00  0.00     0.116 C 
BRANCH  29  30
ATOM     30  N   UNL A   1      37.700  21.401  25.957  1.00  0.00    -0.352 N 
ATOM     31  C   UNL A   1      39.050  21.526  26.173  1.00  0.00     0.251 C 
ATOM     32  H   UNL A   1      37.377  20.478  25.840  1.00  0.00     0.163 HD
ATOM     33  O   UNL A   1      39.781  20.554  26.008  1.00  0.00    -0.269 OA
BRANCH  31  34
ATOM     34  C   UNL A   1      39.618  22.830  26.581  1.00  0.00     0.039 A 
ATOM     35  C   UNL A   1      39.285  23.969  25.845  1.00  0.00     0.014 A 
ATOM     36  C   UNL A   1      40.495  22.928  27.666  1.00  0.00     0.014 A 
ATOM     37  C   UNL A   1      39.801  25.211  26.219  1.00  0.00     0.010 A 
ATOM     38  C   UNL A   1      40.947  24.176  28.084  1.00  0.00     0.010 A 
ATOM     39  C   UNL A   1      40.619  25.329  27.355  1.00  0.00    -0.014 A 
BRANCH  39  40
ATOM     40  C   UNL A   1      41.171  26.646  27.768  1.00  0.00     0.031 A 
ATOM     41  C   UNL A   1      42.609  26.982  27.469  1.00  0.00     0.074 A 
ATOM     42  C   UNL A   1      40.397  27.517  28.446  1.00  0.00     0.049 A 
ATOM     43  N   UNL A   1      43.297  28.044  27.800  1.00  0.00    -0.248 NA
ATOM     44  C   UNL A   1      43.379  25.973  26.726  1.00  0.00     0.031 C 
ATOM     45  C   UNL A   1      39.000  27.288  28.822  1.00  0.00     0.029 A 
ATOM     46  N   UNL A   1      40.673  28.764  28.945  1.00  0.00    -0.354 N 
ATOM     47  C   UNL A   1      44.585  27.826  27.318  1.00  0.00     0.074 A 
ATOM     48  C   UNL A   1      44.593  26.501  26.734  1.00  0.00     0.031 C 
ATOM     49  C   UNL A   1      38.536  28.369  29.467  1.00  0.00     0.029 A 
ATOM     50  C   UNL A   1      39.610  29.349  29.594  1.00  0.00     0.049 A 
ATOM     51  H   UNL A   1      41.550  29.200  28.847  1.00  0.00     0.167 HD
ATOM     52  C   UNL A   1      45.652  28.662  27.338  1.00  0.00     0.034 A 
ATOM     53  C   UNL A   1      39.517  30.534  30.230  1.00  0.00     0.034 A 
ATOM     54  C   UNL A   1      45.619  29.985  27.913  1.00  0.00     0.049 A 
ATOM     55  C   UNL A   1      40.726  31.438  30.262  1.00  0.00     0.074 A 
ATOM     56  C   UNL A   1      46.624  30.936  27.946  1.00  0.00     0.029 A 
ATOM     57  N   UNL A   1      44.525  30.543  28.563  1.00  0.00    -0.354 N 
ATOM     58  N   UNL A   1      41.923  31.236  29.762  1.00  0.00    -0.248 NA
ATOM     59  C   UNL A   1      40.565  32.733  30.934  1.00  0.00     0.031 C 
ATOM     60  C   UNL A   1      46.164  32.037  28.676  1.00  0.00     0.029 A 
ATOM     61  C   UNL A   1      44.842  31.811  29.027  1.00  0.00     0.049 A 
ATOM     62  H   UNL A   1      43.652  30.103  28.677  1.00  0.00     0.167 HD
ATOM     63  C   UNL A   1      42.645  32.396  30.028  1.00  0.00     0.074 A 
ATOM     64  C   UNL A   1      41.745  33.296  30.719  1.00  0.00     0.031 C 
ATOM     65  C   UNL A   1      43.935  32.694  29.723  1.00  0.00     0.034 A 
BRANCH  52  66
ATOM     66  C   UNL A   1      46.945  28.154  26.743  1.00  0.00     0.023 A 
ATOM     67  C   UNL A   1      47.205  28.227  25.362  1.00  0.00     0.031 A 
ATOM     68  C   UNL A   1      47.922  27.560  27.561  1.00  0.00     0.131 A 
ATOM     69  C   UNL A   1      48.366  27.644  24.834  1.00  0.00     0.055 A 
ATOM     70  C   UNL A   1      49.117  27.060  27.041  1.00  0.00     0.041 A 
ATOM     71  F   UNL A   1      47.725  27.439  28.884  1.00  0.00    -0.206 F 
ATOM     72  C   UNL A   1      49.338  27.084  25.666  1.00  0.00     0.022 A 
BRANCH  69  73
ATOM     73  S   UNL A   1      48.514  27.489  23.033  1.00  0.00     0.124 S 
ATOM     74  O   UNL A   1      49.784  28.167  22.783  1.00  0.00    -0.237 OA
ATOM     75  O   UNL A   1      48.512  26.045  22.839  1.00  0.00    -0.237 OA
ATOM     76  O   UNL A   1      47.334  28.190  22.531  1.00  0.00    -0.744 OA
ENDBRANCH  69  73
ENDBRANCH  52  66
BRANCH  53  77
ATOM     77  C   UNL A   1      38.245  30.939  30.895  1.00  0.00     0.023 A 
ATOM     78  C   UNL A   1      37.253  31.643  30.193  1.00  0.00     0.031 A 
ATOM     79  C   UNL A   1      38.020  30.668  32.257  1.00  0.00     0.131 A 
ATOM     80  C   UNL A   1      36.108  32.097  30.866  1.00  0.00     0.055 A 
ATOM     81  C   UNL A   1      36.853  31.071  32.908  1.00  0.00     0.041 A 
ATOM     82  F   UNL A   1      38.934  29.995  32.975  1.00  0.00    -0.206 F 
ATOM     83  C   UNL A   1      35.894  31.803  32.215  1.00  0.00     0.022 A 
BRANCH  80  84
ATOM     84  S   UNL A   1      34.940  33.160  29.974  1.00  0.00     0.124 S 
ATOM     85  O   UNL A   1      34.122  33.680  31.064  1.00  0.00    -0.237 OA
ATOM     86  O   UNL A   1      35.833  34.116  29.328  1.00  0.00    -0.237 OA
ATOM     87  O   UNL A   1      34.260  32.234  29.070  1.00  0.00    -0.744 OA
ENDBRANCH  80  84
ENDBRANCH  53  77
BRANCH  65  88
ATOM     88  C   UNL A   1      44.427  34.074  30.091  1.00  0.00     0.023 A 
ATOM     89  C   UNL A   1      44.352  35.153  29.193  1.00  0.00     0.031 A 
ATOM     90  C   UNL A   1      44.989  34.306  31.359  1.00  0.00     0.131 A 
ATOM     91  C   UNL A   1      44.885  36.401  29.555  1.00  0.00     0.055 A 
ATOM     92  C   UNL A   1      45.456  35.565  31.737  1.00  0.00     0.041 A 
ATOM     93  F   UNL A   1      45.089  33.311  32.256  1.00  0.00    -0.206 F 
ATOM     94  C   UNL A   1      45.419  36.618  30.828  1.00  0.00     0.022 A 
BRANCH  91  95
ATOM     95  S   UNL A   1      44.959  37.711  28.304  1.00  0.00     0.124 S 
ATOM     96  O   UNL A   1      43.739  37.471  27.540  1.00  0.00    -0.237 OA
ATOM     97  O   UNL A   1      44.973  38.922  29.119  1.00  0.00    -0.237 OA
ATOM     98  O   UNL A   1      46.204  37.432  27.589  1.00  0.00    -0.744 OA
ENDBRANCH  91  95
ENDBRANCH  65  88
ENDBRANCH  39  40
ENDBRANCH  31  34
ENDBRANCH  29  30
ENDBRANCH  28  29
ENDBRANCH  27  28
ENDBRANCH   1  27
TORSDOF 20
ENDMDL
