MODEL 1
REMARK VINA RESULT:     -10.5      0.000      0.000
REMARK SMILES Cc1n[nH]cc1CNC(=O)NC[C@H](CC(C)C)C(=O)NCCCCCCNC(=O)c1ccc(-c2c3nc(c(-c4cc(S(=O)(=O)[O-])ccc4F)c4ccc([nH]4)c(-c4cc(S(=O)(=O)[O-])ccc4F)c4nc(c(-c5cc(S(=O)(=O)[O-])ccc5F)c5ccc2[nH]5)C=C4)C=C3)cc1
REMARK SMILES IDX 23 1 22 2 21 3 20 4 18 5 19 6 13 8 12 9 11 10 8 11 9 12
REMARK SMILES IDX 10 14 7 16 6 17 1 18 2 19 3 20 4 21 5 22 14 24 15 25 16 26
REMARK SMILES IDX 17 27 24 28 25 29 26 30 27 31 28 32 29 34 30 35 31 36 92 37
REMARK SMILES IDX 32 38 91 39 33 40 34 41 35 42 85 43 36 44 90 45 84 46 86 47
REMARK SMILES IDX 37 48 89 49 83 50 82 51 38 53 70 54 50 55 69 56 51 57 54 58
REMARK SMILES IDX 68 59 87 60 52 61 53 62 67 64 88 65 55 66 39 67 40 68 48 69
REMARK SMILES IDX 41 70 47 71 49 72 46 73 42 74 43 75 44 76 45 77 71 78 72 79
REMARK SMILES IDX 80 80 73 81 79 82 81 83 78 84 74 85 75 86 76 87 77 88 56 89
REMARK SMILES IDX 57 90 65 91 58 92 64 93 66 94 63 95 59 96 60 97 61 98 62 99
REMARK H PARENT 20 7 8 13 11 15 4 23 27 33 86 52 54 63
REMARK Flexibility Score: inf
ROOT
ATOM      1  C   UNL A   1      36.987  21.944  24.002  1.00  0.00     0.002 C 
ENDROOT
BRANCH   1   2
ATOM      2  C   UNL A   1      36.183  23.149  24.492  1.00  0.00     0.021 C 
BRANCH   2   3
ATOM      3  C   UNL A   1      36.444  23.563  25.942  1.00  0.00     0.116 C 
BRANCH   3   4
ATOM      4  N   UNL A   1      35.524  22.935  26.873  1.00  0.00    -0.356 N 
ATOM      5  C   UNL A   1      34.171  22.807  26.876  1.00  0.00     0.224 C 
ATOM      6  O   UNL A   1      33.682  22.192  27.831  1.00  0.00    -0.275 OA
ATOM      7  H   UNL A   1      35.965  22.522  27.649  1.00  0.00     0.163 HD
BRANCH   5   8
ATOM      8  C   UNL A   1      33.244  23.373  25.793  1.00  0.00     0.098 C 
BRANCH   8   9
ATOM      9  C   UNL A   1      32.854  24.840  26.033  1.00  0.00     0.131 C 
BRANCH   9  10
ATOM     10  N   UNL A   1      31.519  25.013  26.575  1.00  0.00    -0.337 N 
ATOM     11  N   UNL A   1      29.984  25.321  24.794  1.00  0.00    -0.334 N 
ATOM     12  C   UNL A   1      30.286  25.119  26.074  1.00  0.00     0.315 C 
ATOM     13  H   UNL A   1      29.019  25.223  24.624  1.00  0.00     0.165 HD
ATOM     14  O   UNL A   1      29.351  25.028  26.874  1.00  0.00    -0.249 OA
ATOM     15  H   UNL A   1      31.524  25.067  27.558  1.00  0.00     0.165 HD
BRANCH  11  16
ATOM     16  C   UNL A   1      30.711  25.647  23.591  1.00  0.00     0.157 C 
BRANCH  16  17
ATOM     17  C   UNL A   1      31.148  27.067  23.598  1.00  0.00     0.012 A 
ATOM     18  C   UNL A   1      33.656  26.770  22.921  1.00  0.00     0.069 C 
ATOM     19  C   UNL A   1      32.456  27.552  23.299  1.00  0.00     0.064 A 
ATOM     20  N   UNL A   1      32.531  28.883  23.391  1.00  0.00    -0.181 NA
ATOM     21  N   UNL A   1      31.305  29.253  23.781  1.00  0.00    -0.285 N 
ATOM     22  C   UNL A   1      30.432  28.213  23.880  1.00  0.00     0.111 A 
ATOM     23  H   UNL A   1      31.058  30.186  23.976  1.00  0.00     0.189 HD
ENDBRANCH  16  17
ENDBRANCH  11  16
ENDBRANCH   9  10
ENDBRANCH   8   9
BRANCH   8  24
ATOM     24  C   UNL A   1      32.211  22.359  25.237  1.00  0.00     0.018 C 
BRANCH  24  25
ATOM     25  C   UNL A   1      32.166  22.021  23.739  1.00  0.00    -0.017 C 
ATOM     26  C   UNL A   1      33.091  22.881  22.884  1.00  0.00     0.007 C 
ATOM     27  C   UNL A   1      32.537  20.549  23.512  1.00  0.00     0.007 C 
ENDBRANCH  24  25
ENDBRANCH   8  24
ENDBRANCH   5   8
ENDBRANCH   3   4
ENDBRANCH   2   3
ENDBRANCH   1   2
BRANCH   1  28
ATOM     28  C   UNL A   1      36.631  20.599  24.643  1.00  0.00     0.002 C 
BRANCH  28  29
ATOM     29  C   UNL A   1      37.803  19.654  24.928  1.00  0.00     0.021 C 
BRANCH  29  30
ATOM     30  C   UNL A   1      38.772  20.112  26.014  1.00  0.00     0.116 C 
BRANCH  30  31
ATOM     31  N   UNL A   1      39.966  19.287  26.058  1.00  0.00    -0.352 N 
ATOM     32  C   UNL A   1      41.295  19.627  26.118  1.00  0.00     0.251 C 
ATOM     33  H   UNL A   1      39.794  18.318  26.042  1.00  0.00     0.163 HD
ATOM     34  O   UNL A   1      42.134  18.762  25.877  1.00  0.00    -0.269 OA
BRANCH  32  35
ATOM     35  C   UNL A   1      41.734  21.004  26.453  1.00  0.00     0.039 A 
ATOM     36  C   UNL A   1      41.677  21.987  25.457  1.00  0.00     0.014 A 
ATOM     37  C   UNL A   1      42.277  21.325  27.700  1.00  0.00     0.014 A 
ATOM     38  C   UNL A   1      42.117  23.289  25.725  1.00  0.00     0.010 A 
ATOM     39  C   UNL A   1      42.641  22.641  27.992  1.00  0.00     0.010 A 
ATOM     40  C   UNL A   1      42.580  23.635  27.004  1.00  0.00    -0.014 A 
BRANCH  40  41
ATOM     41  C   UNL A   1      43.032  25.020  27.318  1.00  0.00     0.031 A 
ATOM     42  C   UNL A   1      42.098  25.982  28.008  1.00  0.00     0.074 A 
ATOM     43  C   UNL A   1      44.256  25.433  26.932  1.00  0.00     0.049 A 
ATOM     44  N   UNL A   1      42.265  27.251  28.281  1.00  0.00    -0.248 NA
ATOM     45  C   UNL A   1      40.789  25.450  28.417  1.00  0.00     0.031 C 
ATOM     46  C   UNL A   1      45.244  24.608  26.233  1.00  0.00     0.029 A 
ATOM     47  N   UNL A   1      44.877  26.650  27.065  1.00  0.00    -0.354 N 
ATOM     48  C   UNL A   1      41.077  27.675  28.869  1.00  0.00     0.074 A 
ATOM     49  C   UNL A   1      40.180  26.539  28.863  1.00  0.00     0.031 C 
ATOM     50  C   UNL A   1      46.352  25.335  26.019  1.00  0.00     0.029 A 
ATOM     51  C   UNL A   1      46.140  26.689  26.519  1.00  0.00     0.049 A 
ATOM     52  H   UNL A   1      44.458  27.423  27.507  1.00  0.00     0.167 HD
ATOM     53  C   UNL A   1      40.769  28.893  29.382  1.00  0.00     0.034 A 
ATOM     54  C   UNL A   1      47.023  27.703  26.422  1.00  0.00     0.034 A 
ATOM     55  C   UNL A   1      41.683  30.008  29.409  1.00  0.00     0.049 A 
ATOM     56  C   UNL A   1      46.652  29.052  26.987  1.00  0.00     0.074 A 
ATOM     57  C   UNL A   1      41.499  31.262  29.966  1.00  0.00     0.029 A 
ATOM     58  N   UNL A   1      42.955  30.009  28.848  1.00  0.00    -0.354 N 
ATOM     59  N   UNL A   1      45.541  29.422  27.580  1.00  0.00    -0.248 NA
ATOM     60  C   UNL A   1      47.660  30.116  26.877  1.00  0.00     0.031 C 
ATOM     61  C   UNL A   1      42.629  32.040  29.686  1.00  0.00     0.029 A 
ATOM     62  C   UNL A   1      43.551  31.250  29.019  1.00  0.00     0.049 A 
ATOM     63  H   UNL A   1      43.372  29.241  28.396  1.00  0.00     0.167 HD
ATOM     64  C   UNL A   1      45.731  30.753  27.943  1.00  0.00     0.074 A 
ATOM     65  C   UNL A   1      47.066  31.114  27.513  1.00  0.00     0.031 C 
ATOM     66  C   UNL A   1      44.881  31.600  28.579  1.00  0.00     0.034 A 
BRANCH  53  67
ATOM     67  C   UNL A   1      39.374  29.086  29.932  1.00  0.00     0.023 A 
ATOM     68  C   UNL A   1      38.371  29.745  29.198  1.00  0.00     0.031 A 
ATOM     69  C   UNL A   1      39.047  28.624  31.219  1.00  0.00     0.131 A 
ATOM     70  C   UNL A   1      37.120  29.991  29.783  1.00  0.00     0.055 A 
ATOM     71  C   UNL A   1      37.773  28.798  31.766  1.00  0.00     0.041 A 
ATOM     72  F   UNL A   1      39.966  28.004  31.977  1.00  0.00    -0.206 F 
ATOM     73  C   UNL A   1      36.806  29.499  31.053  1.00  0.00     0.022 A 
BRANCH  70  74
ATOM     74  S   UNL A   1      35.961  31.086  28.920  1.00  0.00     0.124 S 
ATOM     75  O   UNL A   1      35.267  30.147  28.042  1.00  0.00    -0.237 OA
ATOM     76  O   UNL A   1      35.173  31.639  30.015  1.00  0.00    -0.237 OA
ATOM     77  O   UNL A   1      36.834  32.038  28.235  1.00  0.00    -0.744 OA
ENDBRANCH  70  74
ENDBRANCH  53  67
BRANCH  54  78
ATOM     78  C   UNL A   1      48.342  27.498  25.757  1.00  0.00     0.023 A 
ATOM     79  C   UNL A   1      48.468  27.597  24.362  1.00  0.00     0.031 A 
ATOM     80  C   UNL A   1      49.486  27.155  26.499  1.00  0.00     0.131 A 
ATOM     81  C   UNL A   1      49.697  27.309  23.747  1.00  0.00     0.055 A 
ATOM     82  C   UNL A   1      50.719  26.921  25.888  1.00  0.00     0.041 A 
ATOM     83  F   UNL A   1      49.421  27.052  27.837  1.00  0.00    -0.206 F 
ATOM     84  C   UNL A   1      50.826  26.983  24.502  1.00  0.00     0.022 A 
BRANCH  81  85
ATOM     85  S   UNL A   1      49.775  27.279  21.936  1.00  0.00     0.124 S 
ATOM     86  O   UNL A   1      49.616  28.691  21.608  1.00  0.00    -0.237 OA
ATOM     87  O   UNL A   1      51.098  26.710  21.700  1.00  0.00    -0.237 OA
ATOM     88  O   UNL A   1      48.654  26.420  21.561  1.00  0.00    -0.744 OA
ENDBRANCH  81  85
ENDBRANCH  54  78
BRANCH  66  89
ATOM     89  C   UNL A   1      45.397  32.983  28.890  1.00  0.00     0.023 A 
ATOM     90  C   UNL A   1      45.127  34.080  28.053  1.00  0.00     0.031 A 
ATOM     91  C   UNL A   1      46.182  33.203  30.035  1.00  0.00     0.131 A 
ATOM     92  C   UNL A   1      45.685  35.334  28.343  1.00  0.00     0.055 A 
ATOM     93  C   UNL A   1      46.685  34.465  30.351  1.00  0.00     0.041 A 
ATOM     94  F   UNL A   1      46.473  32.190  30.868  1.00  0.00    -0.206 F 
ATOM     95  C   UNL A   1      46.449  35.537  29.496  1.00  0.00     0.022 A 
BRANCH  92  96
ATOM     96  S   UNL A   1      45.473  36.681  27.147  1.00  0.00     0.124 S 
ATOM     97  O   UNL A   1      44.068  36.537  26.774  1.00  0.00    -0.237 OA
ATOM     98  O   UNL A   1      45.803  37.860  27.941  1.00  0.00    -0.237 OA
ATOM     99  O   UNL A   1      46.430  36.356  26.091  1.00  0.00    -0.744 OA
ENDBRANCH  92  96
ENDBRANCH  66  89
ENDBRANCH  40  41
ENDBRANCH  32  35
ENDBRANCH  30  31
ENDBRANCH  29  30
ENDBRANCH  28  29
ENDBRANCH   1  28
TORSDOF 22
ENDMDL
MODEL 2
REMARK VINA RESULT:     -10.2      1.989      2.394
REMARK SMILES Cc1n[nH]cc1CNC(=O)NC[C@H](CC(C)C)C(=O)NCCCCCCNC(=O)c1ccc(-c2c3nc(c(-c4cc(S(=O)(=O)[O-])ccc4F)c4ccc([nH]4)c(-c4cc(S(=O)(=O)[O-])ccc4F)c4nc(c(-c5cc(S(=O)(=O)[O-])ccc5F)c5ccc2[nH]5)C=C4)C=C3)cc1
REMARK SMILES IDX 23 1 22 2 21 3 20 4 18 5 19 6 13 8 12 9 11 10 8 11 9 12
REMARK SMILES IDX 10 14 7 16 6 17 1 18 2 19 3 20 4 21 5 22 14 24 15 25 16 26
REMARK SMILES IDX 17 27 24 28 25 29 26 30 27 31 28 32 29 34 30 35 31 36 92 37
REMARK SMILES IDX 32 38 91 39 33 40 34 41 35 42 85 43 36 44 90 45 84 46 86 47
REMARK SMILES IDX 37 48 89 49 83 50 82 51 38 53 70 54 50 55 69 56 51 57 54 58
REMARK SMILES IDX 68 59 87 60 52 61 53 62 67 64 88 65 55 66 39 67 40 68 48 69
REMARK SMILES IDX 41 70 47 71 49 72 46 73 42 74 43 75 44 76 45 77 71 78 72 79
REMARK SMILES IDX 80 80 73 81 79 82 81 83 78 84 74 85 75 86 76 87 77 88 56 89
REMARK SMILES IDX 57 90 65 91 58 92 64 93 66 94 63 95 59 96 60 97 61 98 62 99
REMARK H PARENT 20 7 8 13 11 15 4 23 27 33 86 52 54 63
REMARK Flexibility Score: inf
ROOT
ATOM      1  C   UNL A   1      36.560  21.958  23.967  1.00  0.00     0.002 C 
ENDROOT
BRANCH   1   2
ATOM      2  C   UNL A   1      36.167  23.295  24.595  1.00  0.00     0.021 C 
BRANCH   2   3
ATOM      3  C   UNL A   1      36.224  23.341  26.124  1.00  0.00     0.116 C 
BRANCH   3   4
ATOM      4  N   UNL A   1      35.033  22.785  26.741  1.00  0.00    -0.356 N 
ATOM      5  C   UNL A   1      33.708  22.981  26.512  1.00  0.00     0.224 C 
ATOM      6  O   UNL A   1      32.929  22.332  27.220  1.00  0.00    -0.275 OA
ATOM      7  H   UNL A   1      35.222  22.143  27.462  1.00  0.00     0.163 HD
BRANCH   5   8
ATOM      8  C   UNL A   1      33.143  23.940  25.456  1.00  0.00     0.098 C 
BRANCH   8   9
ATOM      9  C   UNL A   1      32.681  25.284  26.042  1.00  0.00     0.131 C 
BRANCH   9  10
ATOM     10  N   UNL A   1      31.340  25.256  26.597  1.00  0.00    -0.337 N 
ATOM     11  N   UNL A   1      29.768  25.663  24.868  1.00  0.00    -0.334 N 
ATOM     12  C   UNL A   1      30.099  25.314  26.109  1.00  0.00     0.315 C 
ATOM     13  H   UNL A   1      28.816  25.500  24.682  1.00  0.00     0.165 HD
ATOM     14  O   UNL A   1      29.183  25.027  26.885  1.00  0.00    -0.249 OA
ATOM     15  H   UNL A   1      31.349  25.173  27.577  1.00  0.00     0.165 HD
BRANCH  11  16
ATOM     16  C   UNL A   1      30.452  26.218  23.725  1.00  0.00     0.157 C 
BRANCH  16  17
ATOM     17  C   UNL A   1      30.580  27.694  23.842  1.00  0.00     0.012 A 
ATOM     18  C   UNL A   1      28.219  28.419  22.987  1.00  0.00     0.069 C 
ATOM     19  C   UNL A   1      29.584  28.659  23.511  1.00  0.00     0.064 A 
ATOM     20  N   UNL A   1      30.003  29.909  23.729  1.00  0.00    -0.181 NA
ATOM     21  N   UNL A   1      31.263  29.761  24.156  1.00  0.00    -0.285 N 
ATOM     22  C   UNL A   1      31.643  28.459  24.279  1.00  0.00     0.111 A 
ATOM     23  H   UNL A   1      31.857  30.518  24.361  1.00  0.00     0.189 HD
ENDBRANCH  16  17
ENDBRANCH  11  16
ENDBRANCH   9  10
ENDBRANCH   8   9
BRANCH   8  24
ATOM     24  C   UNL A   1      32.337  23.250  24.327  1.00  0.00     0.018 C 
BRANCH  24  25
ATOM     25  C   UNL A   1      33.028  22.314  23.324  1.00  0.00    -0.017 C 
ATOM     26  C   UNL A   1      32.225  21.061  22.993  1.00  0.00     0.007 C 
ATOM     27  C   UNL A   1      33.318  23.056  22.013  1.00  0.00     0.007 C 
ENDBRANCH  24  25
ENDBRANCH   8  24
ENDBRANCH   5   8
ENDBRANCH   3   4
ENDBRANCH   2   3
ENDBRANCH   1   2
BRANCH   1  28
ATOM     28  C   UNL A   1      36.548  20.749  24.908  1.00  0.00     0.002 C 
BRANCH  28  29
ATOM     29  C   UNL A   1      37.843  19.932  24.977  1.00  0.00     0.021 C 
BRANCH  29  30
ATOM     30  C   UNL A   1      38.992  20.578  25.746  1.00  0.00     0.116 C 
BRANCH  30  31
ATOM     31  N   UNL A   1      40.076  19.644  25.988  1.00  0.00    -0.352 N 
ATOM     32  C   UNL A   1      41.416  19.853  26.205  1.00  0.00     0.251 C 
ATOM     33  H   UNL A   1      39.805  18.698  25.997  1.00  0.00     0.163 HD
ATOM     34  O   UNL A   1      42.181  18.896  26.120  1.00  0.00    -0.269 OA
BRANCH  32  35
ATOM     35  C   UNL A   1      41.953  21.199  26.526  1.00  0.00     0.039 A 
ATOM     36  C   UNL A   1      42.153  22.108  25.480  1.00  0.00     0.014 A 
ATOM     37  C   UNL A   1      42.341  21.551  27.821  1.00  0.00     0.014 A 
ATOM     38  C   UNL A   1      42.692  23.373  25.739  1.00  0.00     0.010 A 
ATOM     39  C   UNL A   1      42.804  22.840  28.091  1.00  0.00     0.010 A 
ATOM     40  C   UNL A   1      43.000  23.761  27.052  1.00  0.00    -0.014 A 
BRANCH  40  41
ATOM     41  C   UNL A   1      43.554  25.111  27.354  1.00  0.00     0.031 A 
ATOM     42  C   UNL A   1      42.674  26.171  27.968  1.00  0.00     0.074 A 
ATOM     43  C   UNL A   1      44.828  25.406  27.023  1.00  0.00     0.049 A 
ATOM     44  N   UNL A   1      42.937  27.428  28.217  1.00  0.00    -0.248 NA
ATOM     45  C   UNL A   1      41.304  25.765  28.320  1.00  0.00     0.031 C 
ATOM     46  C   UNL A   1      45.774  24.479  26.400  1.00  0.00     0.029 A 
ATOM     47  N   UNL A   1      45.545  26.569  27.158  1.00  0.00    -0.354 N 
ATOM     48  C   UNL A   1      41.762  27.970  28.729  1.00  0.00     0.074 A 
ATOM     49  C   UNL A   1      40.771  26.915  28.705  1.00  0.00     0.031 C 
ATOM     50  C   UNL A   1      46.951  25.101  26.227  1.00  0.00     0.029 A 
ATOM     51  C   UNL A   1      46.833  26.483  26.680  1.00  0.00     0.049 A 
ATOM     52  H   UNL A   1      45.173  27.388  27.557  1.00  0.00     0.167 HD
ATOM     53  C   UNL A   1      41.535  29.225  29.194  1.00  0.00     0.034 A 
ATOM     54  C   UNL A   1      47.805  27.414  26.604  1.00  0.00     0.034 A 
ATOM     55  C   UNL A   1      42.541  30.258  29.240  1.00  0.00     0.049 A 
ATOM     56  C   UNL A   1      47.525  28.806  27.113  1.00  0.00     0.074 A 
ATOM     57  C   UNL A   1      42.439  31.539  29.754  1.00  0.00     0.029 A 
ATOM     58  N   UNL A   1      43.835  30.133  28.749  1.00  0.00    -0.354 N 
ATOM     59  N   UNL A   1      46.421  29.288  27.635  1.00  0.00    -0.248 NA
ATOM     60  C   UNL A   1      48.625  29.776  27.030  1.00  0.00     0.031 C 
ATOM     61  C   UNL A   1      43.644  32.209  29.515  1.00  0.00     0.029 A 
ATOM     62  C   UNL A   1      44.527  31.323  28.919  1.00  0.00     0.049 A 
ATOM     63  H   UNL A   1      44.206  29.318  28.339  1.00  0.00     0.167 HD
ATOM     64  C   UNL A   1      46.707  30.609  27.974  1.00  0.00     0.074 A 
ATOM     65  C   UNL A   1      48.089  30.841  27.607  1.00  0.00     0.031 C 
ATOM     66  C   UNL A   1      45.903  31.543  28.541  1.00  0.00     0.034 A 
BRANCH  53  67
ATOM     67  C   UNL A   1      40.136  29.554  29.663  1.00  0.00     0.023 A 
ATOM     68  C   UNL A   1      39.808  29.627  31.028  1.00  0.00     0.031 A 
ATOM     69  C   UNL A   1      39.108  29.777  28.729  1.00  0.00     0.131 A 
ATOM     70  C   UNL A   1      38.478  29.837  31.421  1.00  0.00     0.055 A 
ATOM     71  C   UNL A   1      37.801  30.068  29.126  1.00  0.00     0.041 A 
ATOM     72  F   UNL A   1      39.353  29.702  27.411  1.00  0.00    -0.206 F 
ATOM     73  C   UNL A   1      37.476  30.084  30.479  1.00  0.00     0.022 A 
BRANCH  70  74
ATOM     74  S   UNL A   1      38.050  29.639  33.172  1.00  0.00     0.124 S 
ATOM     75  O   UNL A   1      39.360  29.386  33.768  1.00  0.00    -0.237 OA
ATOM     76  O   UNL A   1      37.437  30.922  33.495  1.00  0.00    -0.237 OA
ATOM     77  O   UNL A   1      37.142  28.493  33.175  1.00  0.00    -0.744 OA
ENDBRANCH  70  74
ENDBRANCH  53  67
BRANCH  54  78
ATOM     78  C   UNL A   1      49.133  27.077  26.015  1.00  0.00     0.023 A 
ATOM     79  C   UNL A   1      49.451  27.444  24.698  1.00  0.00     0.031 A 
ATOM     80  C   UNL A   1      50.086  26.343  26.743  1.00  0.00     0.131 A 
ATOM     81  C   UNL A   1      50.669  27.036  24.132  1.00  0.00     0.055 A 
ATOM     82  C   UNL A   1      51.319  25.985  26.194  1.00  0.00     0.041 A 
ATOM     83  F   UNL A   1      49.834  25.970  28.009  1.00  0.00    -0.206 F 
ATOM     84  C   UNL A   1      51.610  26.319  24.875  1.00  0.00     0.022 A 
BRANCH  81  85
ATOM     85  S   UNL A   1      50.969  27.380  22.376  1.00  0.00     0.124 S 
ATOM     86  O   UNL A   1      52.277  26.769  22.174  1.00  0.00    -0.237 OA
ATOM     87  O   UNL A   1      49.840  26.709  21.740  1.00  0.00    -0.237 OA
ATOM     88  O   UNL A   1      50.944  28.840  22.308  1.00  0.00    -0.744 OA
ENDBRANCH  81  85
ENDBRANCH  54  78
BRANCH  66  89
ATOM     89  C   UNL A   1      46.521  32.887  28.843  1.00  0.00     0.023 A 
ATOM     90  C   UNL A   1      47.148  33.154  30.073  1.00  0.00     0.031 A 
ATOM     91  C   UNL A   1      46.470  33.918  27.889  1.00  0.00     0.131 A 
ATOM     92  C   UNL A   1      47.647  34.438  30.338  1.00  0.00     0.055 A 
ATOM     93  C   UNL A   1      47.020  35.176  28.135  1.00  0.00     0.041 A 
ATOM     94  F   UNL A   1      45.882  33.718  26.699  1.00  0.00    -0.206 F 
ATOM     95  C   UNL A   1      47.602  35.446  29.371  1.00  0.00     0.022 A 
BRANCH  92  96
ATOM     96  S   UNL A   1      48.279  34.802  31.999  1.00  0.00     0.124 S 
ATOM     97  O   UNL A   1      47.107  34.551  32.832  1.00  0.00    -0.237 OA
ATOM     98  O   UNL A   1      49.374  33.847  32.133  1.00  0.00    -0.237 OA
ATOM     99  O   UNL A   1      48.687  36.204  31.911  1.00  0.00    -0.744 OA
ENDBRANCH  92  96
ENDBRANCH  66  89
ENDBRANCH  40  41
ENDBRANCH  32  35
ENDBRANCH  30  31
ENDBRANCH  29  30
ENDBRANCH  28  29
ENDBRANCH   1  28
TORSDOF 22
ENDMDL
MODEL 3
REMARK VINA RESULT:     -10.2      5.275     10.406
REMARK SMILES Cc1n[nH]cc1CNC(=O)NC[C@H](CC(C)C)C(=O)NCCCCCCNC(=O)c1ccc(-c2c3nc(c(-c4cc(S(=O)(=O)[O-])ccc4F)c4ccc([nH]4)c(-c4cc(S(=O)(=O)[O-])ccc4F)c4nc(c(-c5cc(S(=O)(=O)[O-])ccc5F)c5ccc2[nH]5)C=C4)C=C3)cc1
REMARK SMILES IDX 23 1 22 2 21 3 20 4 18 5 19 6 13 8 12 9 11 10 8 11 9 12
REMARK SMILES IDX 10 14 7 16 6 17 1 18 2 19 3 20 4 21 5 22 14 24 15 25 16 26
REMARK SMILES IDX 17 27 24 28 25 29 26 30 27 31 28 32 29 34 30 35 31 36 92 37
REMARK SMILES IDX 32 38 91 39 33 40 34 41 35 42 85 43 36 44 90 45 84 46 86 47
REMARK SMILES IDX 37 48 89 49 83 50 82 51 38 53 70 54 50 55 69 56 51 57 54 58
REMARK SMILES IDX 68 59 87 60 52 61 53 62 67 64 88 65 55 66 39 67 40 68 48 69
REMARK SMILES IDX 41 70 47 71 49 72 46 73 42 74 43 75 44 76 45 77 71 78 72 79
REMARK SMILES IDX 80 80 73 81 79 82 81 83 78 84 74 85 75 86 76 87 77 88 56 89
REMARK SMILES IDX 57 90 65 91 58 92 64 93 66 94 63 95 59 96 60 97 61 98 62 99
REMARK H PARENT 20 7 8 13 11 15 4 23 27 33 86 52 54 63
REMARK Flexibility Score: inf
ROOT
ATOM      1  C   UNL A   1      30.485  27.656  23.452  1.00  0.00     0.002 C 
ENDROOT
BRANCH   1   2
ATOM      2  C   UNL A   1      30.625  26.743  24.672  1.00  0.00     0.021 C 
BRANCH   2   3
ATOM      3  C   UNL A   1      31.138  25.331  24.376  1.00  0.00     0.116 C 
BRANCH   3   4
ATOM      4  N   UNL A   1      32.040  25.296  23.239  1.00  0.00    -0.356 N 
ATOM      5  C   UNL A   1      33.135  24.539  22.964  1.00  0.00     0.224 C 
ATOM      6  O   UNL A   1      33.689  24.752  21.879  1.00  0.00    -0.275 OA
ATOM      7  H   UNL A   1      31.816  25.943  22.533  1.00  0.00     0.163 HD
BRANCH   5   8
ATOM      8  C   UNL A   1      33.707  23.469  23.903  1.00  0.00     0.098 C 
BRANCH   8   9
ATOM      9  C   UNL A   1      32.627  22.724  24.704  1.00  0.00     0.131 C 
BRANCH   9  10
ATOM     10  N   UNL A   1      33.048  22.331  26.036  1.00  0.00    -0.337 N 
ATOM     11  N   UNL A   1      33.140  19.964  26.163  1.00  0.00    -0.334 N 
ATOM     12  C   UNL A   1      33.364  21.185  26.644  1.00  0.00     0.315 C 
ATOM     13  H   UNL A   1      33.580  19.270  26.705  1.00  0.00     0.165 HD
ATOM     14  O   UNL A   1      33.903  21.274  27.750  1.00  0.00    -0.249 OA
ATOM     15  H   UNL A   1      33.115  23.102  26.644  1.00  0.00     0.165 HD
BRANCH  11  16
ATOM     16  C   UNL A   1      32.417  19.401  25.049  1.00  0.00     0.157 C 
BRANCH  16  17
ATOM     17  C   UNL A   1      33.030  18.121  24.605  1.00  0.00     0.012 A 
ATOM     18  C   UNL A   1      32.516  18.240  22.045  1.00  0.00     0.069 C 
ATOM     19  C   UNL A   1      33.066  17.618  23.272  1.00  0.00     0.064 A 
ATOM     20  N   UNL A   1      33.691  16.439  23.197  1.00  0.00    -0.181 NA
ATOM     21  N   UNL A   1      34.019  16.162  24.465  1.00  0.00    -0.285 N 
ATOM     22  C   UNL A   1      33.683  17.151  25.339  1.00  0.00     0.111 A 
ATOM     23  H   UNL A   1      34.460  15.327  24.740  1.00  0.00     0.189 HD
ENDBRANCH  16  17
ENDBRANCH  11  16
ENDBRANCH   9  10
ENDBRANCH   8   9
BRANCH   8  24
ATOM     24  C   UNL A   1      35.060  23.847  24.559  1.00  0.00     0.018 C 
BRANCH  24  25
ATOM     25  C   UNL A   1      36.316  22.995  24.320  1.00  0.00    -0.017 C 
ATOM     26  C   UNL A   1      36.181  21.551  24.790  1.00  0.00     0.007 C 
ATOM     27  C   UNL A   1      36.677  22.981  22.829  1.00  0.00     0.007 C 
ENDBRANCH  24  25
ENDBRANCH   8  24
ENDBRANCH   5   8
ENDBRANCH   3   4
ENDBRANCH   2   3
ENDBRANCH   1   2
BRANCH   1  28
ATOM     28  C   UNL A   1      31.262  28.975  23.513  1.00  0.00     0.002 C 
BRANCH  28  29
ATOM     29  C   UNL A   1      32.786  28.858  23.620  1.00  0.00     0.021 C 
BRANCH  29  30
ATOM     30  C   UNL A   1      33.380  29.187  24.987  1.00  0.00     0.116 C 
BRANCH  30  31
ATOM     31  N   UNL A   1      32.787  30.380  25.562  1.00  0.00    -0.352 N 
ATOM     32  C   UNL A   1      33.057  31.047  26.732  1.00  0.00     0.251 C 
ATOM     33  H   UNL A   1      32.069  30.780  25.022  1.00  0.00     0.163 HD
ATOM     34  O   UNL A   1      32.246  31.877  27.135  1.00  0.00    -0.269 OA
BRANCH  32  35
ATOM     35  C   UNL A   1      34.288  30.780  27.517  1.00  0.00     0.039 A 
ATOM     36  C   UNL A   1      35.250  31.792  27.620  1.00  0.00     0.014 A 
ATOM     37  C   UNL A   1      34.549  29.529  28.081  1.00  0.00     0.014 A 
ATOM     38  C   UNL A   1      36.440  31.565  28.322  1.00  0.00     0.010 A 
ATOM     39  C   UNL A   1      35.699  29.328  28.847  1.00  0.00     0.010 A 
ATOM     40  C   UNL A   1      36.665  30.338  28.964  1.00  0.00    -0.014 A 
BRANCH  40  41
ATOM     41  C   UNL A   1      37.915  30.083  29.734  1.00  0.00     0.031 A 
ATOM     42  C   UNL A   1      38.963  29.147  29.186  1.00  0.00     0.074 A 
ATOM     43  C   UNL A   1      38.084  30.642  30.949  1.00  0.00     0.049 A 
ATOM     44  N   UNL A   1      40.068  28.720  29.741  1.00  0.00    -0.248 NA
ATOM     45  C   UNL A   1      38.715  28.595  27.845  1.00  0.00     0.031 C 
ATOM     46  C   UNL A   1      37.133  31.543  31.604  1.00  0.00     0.029 A 
ATOM     47  N   UNL A   1      39.110  30.531  31.855  1.00  0.00    -0.354 N 
ATOM     48  C   UNL A   1      40.635  27.832  28.832  1.00  0.00     0.074 A 
ATOM     49  C   UNL A   1      39.722  27.743  27.712  1.00  0.00     0.031 C 
ATOM     50  C   UNL A   1      37.630  31.919  32.793  1.00  0.00     0.029 A 
ATOM     51  C   UNL A   1      38.909  31.251  33.011  1.00  0.00     0.049 A 
ATOM     52  H   UNL A   1      39.913  29.985  31.694  1.00  0.00     0.167 HD
ATOM     53  C   UNL A   1      41.815  27.168  28.914  1.00  0.00     0.034 A 
ATOM     54  C   UNL A   1      39.662  31.353  34.124  1.00  0.00     0.034 A 
ATOM     55  C   UNL A   1      42.730  27.289  30.023  1.00  0.00     0.049 A 
ATOM     56  C   UNL A   1      40.963  30.593  34.198  1.00  0.00     0.074 A 
ATOM     57  C   UNL A   1      43.981  26.717  30.176  1.00  0.00     0.029 A 
ATOM     58  N   UNL A   1      42.492  28.030  31.174  1.00  0.00    -0.354 N 
ATOM     59  N   UNL A   1      41.504  29.792  33.309  1.00  0.00    -0.248 NA
ATOM     60  C   UNL A   1      41.757  30.757  35.422  1.00  0.00     0.031 C 
ATOM     61  C   UNL A   1      44.470  27.056  31.442  1.00  0.00     0.029 A 
ATOM     62  C   UNL A   1      43.558  27.903  32.052  1.00  0.00     0.049 A 
ATOM     63  H   UNL A   1      41.685  28.567  31.342  1.00  0.00     0.167 HD
ATOM     64  C   UNL A   1      42.719  29.386  33.855  1.00  0.00     0.074 A 
ATOM     65  C   UNL A   1      42.834  30.039  35.143  1.00  0.00     0.031 C 
ATOM     66  C   UNL A   1      43.657  28.553  33.338  1.00  0.00     0.034 A 
BRANCH  53  67
ATOM     67  C   UNL A   1      42.167  26.228  27.783  1.00  0.00     0.023 A 
ATOM     68  C   UNL A   1      41.687  24.907  27.738  1.00  0.00     0.031 A 
ATOM     69  C   UNL A   1      43.015  26.653  26.744  1.00  0.00     0.131 A 
ATOM     70  C   UNL A   1      42.117  24.038  26.724  1.00  0.00     0.055 A 
ATOM     71  C   UNL A   1      43.374  25.808  25.692  1.00  0.00     0.041 A 
ATOM     72  F   UNL A   1      43.522  27.896  26.741  1.00  0.00    -0.206 F 
ATOM     73  C   UNL A   1      42.937  24.487  25.686  1.00  0.00     0.022 A 
BRANCH  70  74
ATOM     74  S   UNL A   1      41.707  22.277  26.862  1.00  0.00     0.124 S 
ATOM     75  O   UNL A   1      42.025  21.795  25.519  1.00  0.00    -0.237 OA
ATOM     76  O   UNL A   1      42.593  21.828  27.929  1.00  0.00    -0.237 OA
ATOM     77  O   UNL A   1      40.282  22.281  27.191  1.00  0.00    -0.744 OA
ENDBRANCH  70  74
ENDBRANCH  53  67
BRANCH  54  78
ATOM     78  C   UNL A   1      39.212  32.195  35.269  1.00  0.00     0.023 A 
ATOM     79  C   UNL A   1      39.639  33.527  35.396  1.00  0.00     0.031 A 
ATOM     80  C   UNL A   1      38.386  31.669  36.278  1.00  0.00     0.131 A 
ATOM     81  C   UNL A   1      39.280  34.273  36.529  1.00  0.00     0.055 A 
ATOM     82  C   UNL A   1      37.986  32.433  37.377  1.00  0.00     0.041 A 
ATOM     83  F   UNL A   1      37.944  30.403  36.203  1.00  0.00    -0.206 F 
ATOM     84  C   UNL A   1      38.446  33.738  37.515  1.00  0.00     0.022 A 
BRANCH  81  85
ATOM     85  S   UNL A   1      39.992  35.927  36.741  1.00  0.00     0.124 S 
ATOM     86  O   UNL A   1      39.663  36.557  35.467  1.00  0.00    -0.237 OA
ATOM     87  O   UNL A   1      39.268  36.421  37.908  1.00  0.00    -0.237 OA
ATOM     88  O   UNL A   1      41.412  35.660  36.957  1.00  0.00    -0.744 OA
ENDBRANCH  81  85
ENDBRANCH  54  78
BRANCH  66  89
ATOM     89  C   UNL A   1      44.912  28.345  34.150  1.00  0.00     0.023 A 
ATOM     90  C   UNL A   1      44.961  27.434  35.220  1.00  0.00     0.031 A 
ATOM     91  C   UNL A   1      46.074  29.081  33.855  1.00  0.00     0.131 A 
ATOM     92  C   UNL A   1      46.127  27.325  35.991  1.00  0.00     0.055 A 
ATOM     93  C   UNL A   1      47.249  28.925  34.588  1.00  0.00     0.041 A 
ATOM     94  F   UNL A   1      46.083  29.967  32.845  1.00  0.00    -0.206 F 
ATOM     95  C   UNL A   1      47.277  28.052  35.672  1.00  0.00     0.022 A 
BRANCH  92  96
ATOM     96  S   UNL A   1      46.096  26.281  37.475  1.00  0.00     0.124 S 
ATOM     97  O   UNL A   1      44.664  26.080  37.674  1.00  0.00    -0.237 OA
ATOM     98  O   UNL A   1      46.852  25.109  37.048  1.00  0.00    -0.237 OA
ATOM     99  O   UNL A   1      46.752  27.106  38.488  1.00  0.00    -0.744 OA
ENDBRANCH  92  96
ENDBRANCH  66  89
ENDBRANCH  40  41
ENDBRANCH  32  35
ENDBRANCH  30  31
ENDBRANCH  29  30
ENDBRANCH  28  29
ENDBRANCH   1  28
TORSDOF 22
ENDMDL
