MODEL 1
REMARK VINA RESULT:      -9.7      0.000      0.000
REMARK SMILES C[C@H]1[C@H](C(=O)NCCCCCCNC(=O)c2ccc(-c3c4nc(c(-c5cc(S(=O)(=O)[O-])ccc5F)c5ccc([nH]5)c(-c5cc(S(=O)(=O)[O-])ccc5F)c5nc(c(-c6cc(S(=O)(=O)[O-])ccc6F)c6ccc3[nH]6)C=C5)C=C4)cc2)CCN1C(=O)N(C)CCS(C)(=O)=O
REMARK SMILES IDX 8 1 7 2 6 3 4 4 5 5 3 7 1 8 2 9 81 10 79 11 80 12 82 13
REMARK SMILES IDX 83 14 84 15 85 16 86 17 87 18 88 19 89 20 90 21 91 22 9 23
REMARK SMILES IDX 10 24 11 25 12 26 13 27 14 28 15 30 16 31 17 32 78 33 18 34
REMARK SMILES IDX 77 35 19 36 20 37 21 38 71 39 22 40 76 41 70 42 72 43 23 44
REMARK SMILES IDX 75 45 69 46 68 47 24 49 56 50 36 51 55 52 37 53 40 54 54 55
REMARK SMILES IDX 73 56 38 57 39 58 53 60 74 61 41 62 25 63 26 64 34 65 27 66
REMARK SMILES IDX 33 67 35 68 32 69 28 70 29 71 30 72 31 73 57 74 58 75 66 76
REMARK SMILES IDX 59 77 65 78 67 79 64 80 60 81 61 82 62 83 63 84 42 85 43 86
REMARK SMILES IDX 51 87 44 88 50 89 52 90 49 91 45 92 46 93 47 94 48 95
REMARK H PARENT 6 6 13 29 72 48 40 59
REMARK Flexibility Score: inf
ROOT
ATOM      1  C   UNL A   1      33.269  23.413  26.670  1.00  0.00     0.021 C 
ENDROOT
BRANCH   1   2
ATOM      2  C   UNL A   1      31.913  22.984  26.114  1.00  0.00     0.116 C 
BRANCH   2   3
ATOM      3  N   UNL A   1      32.061  22.127  24.946  1.00  0.00    -0.356 N 
ATOM      4  C   UNL A   1      32.118  22.425  23.621  1.00  0.00     0.225 C 
ATOM      5  O   UNL A   1      32.210  21.485  22.826  1.00  0.00    -0.275 OA
ATOM      6  H   UNL A   1      32.133  21.167  25.152  1.00  0.00     0.163 HD
BRANCH   4   7
ATOM      7  C   UNL A   1      32.054  23.853  23.104  1.00  0.00     0.102 C 
ATOM      8  C   UNL A   1      29.854  25.056  22.841  1.00  0.00     0.032 C 
ATOM      9  C   UNL A   1      30.970  24.679  23.819  1.00  0.00     0.096 C 
ATOM     10  N   UNL A   1      31.635  25.880  24.314  1.00  0.00    -0.321 N 
ATOM     11  C   UNL A   1      33.363  24.619  23.250  1.00  0.00     0.037 C 
ATOM     12  C   UNL A   1      32.955  26.005  23.709  1.00  0.00     0.122 C 
BRANCH  10  13
ATOM     13  C   UNL A   1      31.233  26.908  25.122  1.00  0.00     0.320 C 
ATOM     14  O   UNL A   1      31.010  26.657  26.314  1.00  0.00    -0.248 OA
BRANCH  13  15
ATOM     15  N   UNL A   1      31.005  28.189  24.665  1.00  0.00    -0.327 N 
ATOM     16  C   UNL A   1      31.655  29.450  24.998  1.00  0.00     0.148 C 
BRANCH  15  17
ATOM     17  C   UNL A   1      29.948  28.325  23.645  1.00  0.00     0.137 C 
BRANCH  17  18
ATOM     18  C   UNL A   1      29.899  29.678  22.944  1.00  0.00     0.158 C 
BRANCH  18  19
ATOM     19  S   UNL A   1      28.299  30.267  22.425  1.00  0.00     0.149 S 
ATOM     20  C   UNL A   1      28.300  32.032  22.699  1.00  0.00     0.158 C 
ATOM     21  O   UNL A   1      28.256  30.076  20.983  1.00  0.00    -0.229 OA
ATOM     22  O   UNL A   1      27.282  29.636  23.239  1.00  0.00    -0.229 OA
ENDBRANCH  18  19
ENDBRANCH  17  18
ENDBRANCH  15  17
ENDBRANCH  13  15
ENDBRANCH  10  13
ENDBRANCH   4   7
ENDBRANCH   2   3
ENDBRANCH   1   2
BRANCH   1  23
ATOM     23  C   UNL A   1      33.984  22.333  27.486  1.00  0.00     0.002 C 
BRANCH  23  24
ATOM     24  C   UNL A   1      34.983  21.481  26.697  1.00  0.00     0.002 C 
BRANCH  24  25
ATOM     25  C   UNL A   1      35.654  22.193  25.519  1.00  0.00     0.021 C 
BRANCH  25  26
ATOM     26  C   UNL A   1      36.904  22.985  25.883  1.00  0.00     0.116 C 
BRANCH  26  27
ATOM     27  N   UNL A   1      38.047  22.118  26.124  1.00  0.00    -0.352 N 
ATOM     28  C   UNL A   1      39.325  22.449  26.501  1.00  0.00     0.251 C 
ATOM     29  H   UNL A   1      37.879  21.155  26.000  1.00  0.00     0.163 HD
ATOM     30  O   UNL A   1      40.214  21.603  26.445  1.00  0.00    -0.269 OA
BRANCH  28  31
ATOM     31  C   UNL A   1      39.626  23.824  26.952  1.00  0.00     0.039 A 
ATOM     32  C   UNL A   1      40.003  24.033  28.281  1.00  0.00     0.014 A 
ATOM     33  C   UNL A   1      39.537  24.904  26.069  1.00  0.00     0.014 A 
ATOM     34  C   UNL A   1      40.349  25.318  28.707  1.00  0.00     0.010 A 
ATOM     35  C   UNL A   1      39.957  26.169  26.475  1.00  0.00     0.010 A 
ATOM     36  C   UNL A   1      40.365  26.390  27.799  1.00  0.00    -0.014 A 
BRANCH  36  37
ATOM     37  C   UNL A   1      40.804  27.747  28.219  1.00  0.00     0.031 A 
ATOM     38  C   UNL A   1      42.260  28.122  28.164  1.00  0.00     0.074 A 
ATOM     39  C   UNL A   1      39.897  28.621  28.699  1.00  0.00     0.049 A 
ATOM     40  N   UNL A   1      42.846  29.230  28.542  1.00  0.00    -0.248 NA
ATOM     41  C   UNL A   1      43.183  27.105  27.638  1.00  0.00     0.031 C 
ATOM     42  C   UNL A   1      38.463  28.358  28.837  1.00  0.00     0.029 A 
ATOM     43  N   UNL A   1      40.044  29.903  29.167  1.00  0.00    -0.354 N 
ATOM     44  C   UNL A   1      44.203  29.041  28.307  1.00  0.00     0.074 A 
ATOM     45  C   UNL A   1      44.359  27.689  27.817  1.00  0.00     0.031 C 
ATOM     46  C   UNL A   1      37.860  29.453  29.323  1.00  0.00     0.029 A 
ATOM     47  C   UNL A   1      38.865  30.477  29.586  1.00  0.00     0.049 A 
ATOM     48  H   UNL A   1      40.911  30.369  29.199  1.00  0.00     0.167 HD
ATOM     49  C   UNL A   1      45.222  29.923  28.464  1.00  0.00     0.034 A 
ATOM     50  C   UNL A   1      38.624  31.685  30.134  1.00  0.00     0.034 A 
ATOM     51  C   UNL A   1      45.046  31.270  28.953  1.00  0.00     0.049 A 
ATOM     52  C   UNL A   1      39.780  32.631  30.344  1.00  0.00     0.074 A 
ATOM     53  C   UNL A   1      46.000  32.263  29.104  1.00  0.00     0.029 A 
ATOM     54  N   UNL A   1      43.841  31.811  29.386  1.00  0.00    -0.354 N 
ATOM     55  N   UNL A   1      41.052  32.458  30.067  1.00  0.00    -0.248 NA
ATOM     56  C   UNL A   1      39.465  33.939  30.934  1.00  0.00     0.031 C 
ATOM     57  C   UNL A   1      45.389  33.372  29.700  1.00  0.00     0.029 A 
ATOM     58  C   UNL A   1      44.036  33.109  29.839  1.00  0.00     0.049 A 
ATOM     59  H   UNL A   1      42.976  31.343  29.372  1.00  0.00     0.167 HD
ATOM     60  C   UNL A   1      41.683  33.648  30.421  1.00  0.00     0.074 A 
ATOM     61  C   UNL A   1      40.648  34.534  30.912  1.00  0.00     0.031 C 
ATOM     62  C   UNL A   1      42.998  33.979  30.342  1.00  0.00     0.034 A 
BRANCH  49  63
ATOM     63  C   UNL A   1      46.616  29.444  28.128  1.00  0.00     0.023 A 
ATOM     64  C   UNL A   1      47.442  28.838  29.091  1.00  0.00     0.031 A 
ATOM     65  C   UNL A   1      47.138  29.617  26.834  1.00  0.00     0.131 A 
ATOM     66  C   UNL A   1      48.766  28.504  28.771  1.00  0.00     0.055 A 
ATOM     67  C   UNL A   1      48.427  29.201  26.497  1.00  0.00     0.041 A 
ATOM     68  F   UNL A   1      46.409  30.210  25.875  1.00  0.00    -0.206 F 
ATOM     69  C   UNL A   1      49.257  28.656  27.473  1.00  0.00     0.022 A 
BRANCH  66  70
ATOM     70  S   UNL A   1      49.886  28.019  30.114  1.00  0.00     0.124 S 
ATOM     71  O   UNL A   1      50.575  26.874  29.523  1.00  0.00    -0.237 OA
ATOM     72  O   UNL A   1      50.689  29.220  30.305  1.00  0.00    -0.237 OA
ATOM     73  O   UNL A   1      48.980  27.690  31.213  1.00  0.00    -0.744 OA
ENDBRANCH  66  70
ENDBRANCH  49  63
BRANCH  50  74
ATOM     74  C   UNL A   1      37.241  32.070  30.538  1.00  0.00     0.023 A 
ATOM     75  C   UNL A   1      36.348  32.636  29.614  1.00  0.00     0.031 A 
ATOM     76  C   UNL A   1      36.805  31.921  31.867  1.00  0.00     0.131 A 
ATOM     77  C   UNL A   1      35.084  33.076  30.040  1.00  0.00     0.055 A 
ATOM     78  C   UNL A   1      35.525  32.304  32.272  1.00  0.00     0.041 A 
ATOM     79  F   UNL A   1      37.618  31.386  32.792  1.00  0.00    -0.206 F 
ATOM     80  C   UNL A   1      34.661  32.899  31.358  1.00  0.00     0.022 A 
BRANCH  77  81
ATOM     81  S   UNL A   1      34.036  33.973  28.864  1.00  0.00     0.124 S 
ATOM     82  O   UNL A   1      34.988  34.902  28.265  1.00  0.00    -0.237 OA
ATOM     83  O   UNL A   1      33.559  32.898  28.000  1.00  0.00    -0.237 OA
ATOM     84  O   UNL A   1      33.016  34.585  29.714  1.00  0.00    -0.744 OA
ENDBRANCH  77  81
ENDBRANCH  50  74
BRANCH  62  85
ATOM     85  C   UNL A   1      43.379  35.380  30.759  1.00  0.00     0.023 A 
ATOM     86  C   UNL A   1      43.406  36.446  29.842  1.00  0.00     0.031 A 
ATOM     87  C   UNL A   1      43.731  35.649  32.094  1.00  0.00     0.131 A 
ATOM     88  C   UNL A   1      43.833  37.716  30.259  1.00  0.00     0.055 A 
ATOM     89  C   UNL A   1      44.089  36.929  32.517  1.00  0.00     0.041 A 
ATOM     90  F   UNL A   1      43.728  34.670  33.012  1.00  0.00    -0.206 F 
ATOM     91  C   UNL A   1      44.155  37.969  31.595  1.00  0.00     0.022 A 
BRANCH  88  92
ATOM     92  S   UNL A   1      44.058  39.013  29.012  1.00  0.00     0.124 S 
ATOM     93  O   UNL A   1      43.707  38.314  27.780  1.00  0.00    -0.237 OA
ATOM     94  O   UNL A   1      43.119  40.039  29.453  1.00  0.00    -0.237 OA
ATOM     95  O   UNL A   1      45.470  39.372  29.139  1.00  0.00    -0.744 OA
ENDBRANCH  88  92
ENDBRANCH  62  85
ENDBRANCH  36  37
ENDBRANCH  28  31
ENDBRANCH  26  27
ENDBRANCH  25  26
ENDBRANCH  24  25
ENDBRANCH  23  24
ENDBRANCH   1  23
TORSDOF 21
ENDMDL
MODEL 2
REMARK VINA RESULT:      -9.3      5.976     10.686
REMARK SMILES C[C@H]1[C@H](C(=O)NCCCCCCNC(=O)c2ccc(-c3c4nc(c(-c5cc(S(=O)(=O)[O-])ccc5F)c5ccc([nH]5)c(-c5cc(S(=O)(=O)[O-])ccc5F)c5nc(c(-c6cc(S(=O)(=O)[O-])ccc6F)c6ccc3[nH]6)C=C5)C=C4)cc2)CCN1C(=O)N(C)CCS(C)(=O)=O
REMARK SMILES IDX 8 1 7 2 6 3 4 4 5 5 3 7 1 8 2 9 81 10 79 11 80 12 82 13
REMARK SMILES IDX 83 14 84 15 85 16 86 17 87 18 88 19 89 20 90 21 91 22 9 23
REMARK SMILES IDX 10 24 11 25 12 26 13 27 14 28 15 30 16 31 17 32 78 33 18 34
REMARK SMILES IDX 77 35 19 36 20 37 21 38 71 39 22 40 76 41 70 42 72 43 23 44
REMARK SMILES IDX 75 45 69 46 68 47 24 49 56 50 36 51 55 52 37 53 40 54 54 55
REMARK SMILES IDX 73 56 38 57 39 58 53 60 74 61 41 62 25 63 26 64 34 65 27 66
REMARK SMILES IDX 33 67 35 68 32 69 28 70 29 71 30 72 31 73 57 74 58 75 66 76
REMARK SMILES IDX 59 77 65 78 67 79 64 80 60 81 61 82 62 83 63 84 42 85 43 86
REMARK SMILES IDX 51 87 44 88 50 89 52 90 49 91 45 92 46 93 47 94 48 95
REMARK H PARENT 6 6 13 29 72 48 40 59
REMARK Flexibility Score: inf
ROOT
ATOM      1  C   UNL A   1      38.441  31.392  29.702  1.00  0.00     0.021 C 
ENDROOT
BRANCH   1   2
ATOM      2  C   UNL A   1      37.606  30.182  29.288  1.00  0.00     0.116 C 
BRANCH   2   3
ATOM      3  N   UNL A   1      37.904  29.019  30.112  1.00  0.00    -0.356 N 
ATOM      4  C   UNL A   1      38.625  27.898  29.848  1.00  0.00     0.225 C 
ATOM      5  O   UNL A   1      38.686  27.036  30.730  1.00  0.00    -0.275 OA
ATOM      6  H   UNL A   1      37.516  29.052  31.017  1.00  0.00     0.163 HD
BRANCH   4   7
ATOM      7  C   UNL A   1      39.326  27.675  28.518  1.00  0.00     0.102 C 
ATOM      8  C   UNL A   1      41.068  29.288  27.667  1.00  0.00     0.032 C 
ATOM      9  C   UNL A   1      40.811  28.080  28.573  1.00  0.00     0.096 C 
ATOM     10  N   UNL A   1      41.564  26.924  28.098  1.00  0.00    -0.321 N 
ATOM     11  C   UNL A   1      39.278  26.232  28.032  1.00  0.00     0.037 C 
ATOM     12  C   UNL A   1      40.663  25.960  27.478  1.00  0.00     0.122 C 
BRANCH  10  13
ATOM     13  C   UNL A   1      42.900  26.636  28.042  1.00  0.00     0.320 C 
ATOM     14  O   UNL A   1      43.549  26.679  29.096  1.00  0.00    -0.248 OA
BRANCH  13  15
ATOM     15  N   UNL A   1      43.570  26.361  26.868  1.00  0.00    -0.327 N 
ATOM     16  C   UNL A   1      43.887  27.212  25.729  1.00  0.00     0.148 C 
BRANCH  15  17
ATOM     17  C   UNL A   1      44.085  24.985  26.734  1.00  0.00     0.137 C 
BRANCH  17  18
ATOM     18  C   UNL A   1      44.238  24.491  25.300  1.00  0.00     0.158 C 
BRANCH  18  19
ATOM     19  S   UNL A   1      43.805  22.794  24.975  1.00  0.00     0.149 S 
ATOM     20  C   UNL A   1      45.077  21.796  25.734  1.00  0.00     0.158 C 
ATOM     21  O   UNL A   1      42.585  22.545  25.729  1.00  0.00    -0.229 OA
ATOM     22  O   UNL A   1      43.791  22.580  23.543  1.00  0.00    -0.229 OA
ENDBRANCH  18  19
ENDBRANCH  17  18
ENDBRANCH  15  17
ENDBRANCH  13  15
ENDBRANCH  10  13
ENDBRANCH   4   7
ENDBRANCH   2   3
ENDBRANCH   1   2
BRANCH   1  23
ATOM     23  C   UNL A   1      37.697  32.397  30.585  1.00  0.00     0.002 C 
BRANCH  23  24
ATOM     24  C   UNL A   1      36.246  32.026  30.907  1.00  0.00     0.002 C 
BRANCH  24  25
ATOM     25  C   UNL A   1      35.639  32.761  32.105  1.00  0.00     0.021 C 
BRANCH  25  26
ATOM     26  C   UNL A   1      36.608  33.671  32.850  1.00  0.00     0.116 C 
BRANCH  26  27
ATOM     27  N   UNL A   1      36.615  33.405  34.281  1.00  0.00    -0.352 N 
ATOM     28  C   UNL A   1      37.403  32.542  35.001  1.00  0.00     0.251 C 
ATOM     29  H   UNL A   1      35.959  33.918  34.808  1.00  0.00     0.163 HD
ATOM     30  O   UNL A   1      37.119  32.290  36.169  1.00  0.00    -0.269 OA
BRANCH  28  31
ATOM     31  C   UNL A   1      38.576  31.909  34.360  1.00  0.00     0.039 A 
ATOM     32  C   UNL A   1      38.400  30.715  33.657  1.00  0.00     0.014 A 
ATOM     33  C   UNL A   1      39.845  32.489  34.454  1.00  0.00     0.014 A 
ATOM     34  C   UNL A   1      39.486  30.136  32.995  1.00  0.00     0.010 A 
ATOM     35  C   UNL A   1      40.907  31.953  33.731  1.00  0.00     0.010 A 
ATOM     36  C   UNL A   1      40.740  30.770  32.996  1.00  0.00    -0.014 A 
BRANCH  36  37
ATOM     37  C   UNL A   1      41.886  30.205  32.235  1.00  0.00     0.031 A 
ATOM     38  C   UNL A   1      42.541  28.928  32.690  1.00  0.00     0.074 A 
ATOM     39  C   UNL A   1      42.368  30.870  31.167  1.00  0.00     0.049 A 
ATOM     40  N   UNL A   1      43.585  28.312  32.198  1.00  0.00    -0.248 NA
ATOM     41  C   UNL A   1      41.959  28.274  33.870  1.00  0.00     0.031 C 
ATOM     42  C   UNL A   1      41.841  32.137  30.654  1.00  0.00     0.029 A 
ATOM     43  N   UNL A   1      43.412  30.581  30.323  1.00  0.00    -0.354 N 
ATOM     44  C   UNL A   1      43.790  27.203  33.011  1.00  0.00     0.074 A 
ATOM     45  C   UNL A   1      42.802  27.271  34.066  1.00  0.00     0.031 C 
ATOM     46  C   UNL A   1      42.543  32.498  29.569  1.00  0.00     0.029 A 
ATOM     47  C   UNL A   1      43.604  31.523  29.338  1.00  0.00     0.049 A 
ATOM     48  H   UNL A   1      43.971  29.776  30.414  1.00  0.00     0.167 HD
ATOM     49  C   UNL A   1      44.703  26.209  32.876  1.00  0.00     0.034 A 
ATOM     50  C   UNL A   1      44.538  31.601  28.369  1.00  0.00     0.034 A 
ATOM     51  C   UNL A   1      45.680  26.157  31.814  1.00  0.00     0.049 A 
ATOM     52  C   UNL A   1      45.574  30.509  28.268  1.00  0.00     0.074 A 
ATOM     53  C   UNL A   1      46.618  25.173  31.553  1.00  0.00     0.029 A 
ATOM     54  N   UNL A   1      45.858  27.138  30.845  1.00  0.00    -0.354 N 
ATOM     55  N   UNL A   1      45.721  29.438  29.014  1.00  0.00    -0.248 NA
ATOM     56  C   UNL A   1      46.563  30.632  27.190  1.00  0.00     0.031 C 
ATOM     57  C   UNL A   1      47.411  25.595  30.481  1.00  0.00     0.029 A 
ATOM     58  C   UNL A   1      46.914  26.800  30.011  1.00  0.00     0.049 A 
ATOM     59  H   UNL A   1      45.313  27.954  30.763  1.00  0.00     0.167 HD
ATOM     60  C   UNL A   1      46.802  28.745  28.473  1.00  0.00     0.074 A 
ATOM     61  C   UNL A   1      47.253  29.511  27.330  1.00  0.00     0.031 C 
ATOM     62  C   UNL A   1      47.366  27.580  28.882  1.00  0.00     0.034 A 
BRANCH  49  63
ATOM     63  C   UNL A   1      44.700  25.114  33.919  1.00  0.00     0.023 A 
ATOM     64  C   UNL A   1      45.261  25.306  35.194  1.00  0.00     0.031 A 
ATOM     65  C   UNL A   1      44.151  23.852  33.628  1.00  0.00     0.131 A 
ATOM     66  C   UNL A   1      45.336  24.235  36.097  1.00  0.00     0.055 A 
ATOM     67  C   UNL A   1      44.148  22.816  34.564  1.00  0.00     0.041 A 
ATOM     68  F   UNL A   1      43.621  23.598  32.422  1.00  0.00    -0.206 F 
ATOM     69  C   UNL A   1      44.759  22.998  35.801  1.00  0.00     0.022 A 
BRANCH  66  70
ATOM     70  S   UNL A   1      46.338  24.434  37.596  1.00  0.00     0.124 S 
ATOM     71  O   UNL A   1      46.330  25.886  37.764  1.00  0.00    -0.237 OA
ATOM     72  O   UNL A   1      45.585  23.672  38.583  1.00  0.00    -0.237 OA
ATOM     73  O   UNL A   1      47.632  23.867  37.220  1.00  0.00    -0.744 OA
ENDBRANCH  66  70
ENDBRANCH  49  63
BRANCH  50  74
ATOM     74  C   UNL A   1      44.555  32.756  27.426  1.00  0.00     0.023 A 
ATOM     75  C   UNL A   1      45.122  33.987  27.797  1.00  0.00     0.031 A 
ATOM     76  C   UNL A   1      43.963  32.663  26.153  1.00  0.00     0.131 A 
ATOM     77  C   UNL A   1      45.043  35.086  26.927  1.00  0.00     0.055 A 
ATOM     78  C   UNL A   1      43.941  33.742  25.268  1.00  0.00     0.041 A 
ATOM     79  F   UNL A   1      43.405  31.512  25.747  1.00  0.00    -0.206 F 
ATOM     80  C   UNL A   1      44.471  34.967  25.659  1.00  0.00     0.022 A 
BRANCH  77  81
ATOM     81  S   UNL A   1      45.614  36.703  27.517  1.00  0.00     0.124 S 
ATOM     82  O   UNL A   1      45.543  36.533  28.964  1.00  0.00    -0.237 OA
ATOM     83  O   UNL A   1      46.954  36.779  26.946  1.00  0.00    -0.237 OA
ATOM     84  O   UNL A   1      44.643  37.635  26.948  1.00  0.00    -0.744 OA
ENDBRANCH  77  81
ENDBRANCH  50  74
BRANCH  62  85
ATOM     85  C   UNL A   1      48.509  27.042  28.054  1.00  0.00     0.023 A 
ATOM     86  C   UNL A   1      49.852  27.289  28.394  1.00  0.00     0.031 A 
ATOM     87  C   UNL A   1      48.250  26.280  26.901  1.00  0.00     0.131 A 
ATOM     88  C   UNL A   1      50.880  26.828  27.558  1.00  0.00     0.055 A 
ATOM     89  C   UNL A   1      49.279  25.767  26.111  1.00  0.00     0.041 A 
ATOM     90  F   UNL A   1      46.989  26.017  26.525  1.00  0.00    -0.206 F 
ATOM     91  C   UNL A   1      50.604  26.052  26.430  1.00  0.00     0.022 A 
BRANCH  88  92
ATOM     92  S   UNL A   1      52.584  27.342  27.908  1.00  0.00     0.124 S 
ATOM     93  O   UNL A   1      52.397  28.706  28.393  1.00  0.00    -0.237 OA
ATOM     94  O   UNL A   1      53.008  26.364  28.905  1.00  0.00    -0.237 OA
ATOM     95  O   UNL A   1      53.251  27.231  26.612  1.00  0.00    -0.744 OA
ENDBRANCH  88  92
ENDBRANCH  62  85
ENDBRANCH  36  37
ENDBRANCH  28  31
ENDBRANCH  26  27
ENDBRANCH  25  26
ENDBRANCH  24  25
ENDBRANCH  23  24
ENDBRANCH   1  23
TORSDOF 21
ENDMDL
MODEL 3
REMARK VINA RESULT:      -9.3      2.497      2.994
REMARK SMILES C[C@H]1[C@H](C(=O)NCCCCCCNC(=O)c2ccc(-c3c4nc(c(-c5cc(S(=O)(=O)[O-])ccc5F)c5ccc([nH]5)c(-c5cc(S(=O)(=O)[O-])ccc5F)c5nc(c(-c6cc(S(=O)(=O)[O-])ccc6F)c6ccc3[nH]6)C=C5)C=C4)cc2)CCN1C(=O)N(C)CCS(C)(=O)=O
REMARK SMILES IDX 8 1 7 2 6 3 4 4 5 5 3 7 1 8 2 9 81 10 79 11 80 12 82 13
REMARK SMILES IDX 83 14 84 15 85 16 86 17 87 18 88 19 89 20 90 21 91 22 9 23
REMARK SMILES IDX 10 24 11 25 12 26 13 27 14 28 15 30 16 31 17 32 78 33 18 34
REMARK SMILES IDX 77 35 19 36 20 37 21 38 71 39 22 40 76 41 70 42 72 43 23 44
REMARK SMILES IDX 75 45 69 46 68 47 24 49 56 50 36 51 55 52 37 53 40 54 54 55
REMARK SMILES IDX 73 56 38 57 39 58 53 60 74 61 41 62 25 63 26 64 34 65 27 66
REMARK SMILES IDX 33 67 35 68 32 69 28 70 29 71 30 72 31 73 57 74 58 75 66 76
REMARK SMILES IDX 59 77 65 78 67 79 64 80 60 81 61 82 62 83 63 84 42 85 43 86
REMARK SMILES IDX 51 87 44 88 50 89 52 90 49 91 45 92 46 93 47 94 48 95
REMARK H PARENT 6 6 13 29 72 48 40 59
REMARK Flexibility Score: inf
ROOT
ATOM      1  C   UNL A   1      32.792  23.559  26.781  1.00  0.00     0.021 C 
ENDROOT
BRANCH   1   2
ATOM      2  C   UNL A   1      31.499  23.143  26.084  1.00  0.00     0.116 C 
BRANCH   2   3
ATOM      3  N   UNL A   1      31.762  22.296  24.929  1.00  0.00    -0.356 N 
ATOM      4  C   UNL A   1      31.890  22.598  23.610  1.00  0.00     0.225 C 
ATOM      5  O   UNL A   1      32.077  21.665  22.824  1.00  0.00    -0.275 OA
ATOM      6  H   UNL A   1      31.867  21.340  25.141  1.00  0.00     0.163 HD
BRANCH   4   7
ATOM      7  C   UNL A   1      31.791  24.022  23.088  1.00  0.00     0.102 C 
ATOM      8  C   UNL A   1      29.588  25.249  23.031  1.00  0.00     0.032 C 
ATOM      9  C   UNL A   1      30.791  24.867  23.898  1.00  0.00     0.096 C 
ATOM     10  N   UNL A   1      31.515  26.065  24.313  1.00  0.00    -0.321 N 
ATOM     11  C   UNL A   1      33.116  24.774  23.097  1.00  0.00     0.037 C 
ATOM     12  C   UNL A   1      32.771  26.169  23.580  1.00  0.00     0.122 C 
BRANCH  10  13
ATOM     13  C   UNL A   1      31.206  27.104  25.147  1.00  0.00     0.320 C 
ATOM     14  O   UNL A   1      31.144  26.876  26.362  1.00  0.00    -0.248 OA
BRANCH  13  15
ATOM     15  N   UNL A   1      30.901  28.372  24.699  1.00  0.00    -0.327 N 
ATOM     16  C   UNL A   1      31.457  29.670  25.057  1.00  0.00     0.148 C 
BRANCH  15  17
ATOM     17  C   UNL A   1      29.857  28.449  23.659  1.00  0.00     0.137 C 
BRANCH  17  18
ATOM     18  C   UNL A   1      29.830  29.750  22.866  1.00  0.00     0.158 C 
BRANCH  18  19
ATOM     19  S   UNL A   1      28.232  30.377  22.387  1.00  0.00     0.149 S 
ATOM     20  C   UNL A   1      28.330  32.156  22.516  1.00  0.00     0.158 C 
ATOM     21  O   UNL A   1      28.099  30.077  20.969  1.00  0.00    -0.229 OA
ATOM     22  O   UNL A   1      27.234  29.864  23.302  1.00  0.00    -0.229 OA
ENDBRANCH  18  19
ENDBRANCH  17  18
ENDBRANCH  15  17
ENDBRANCH  13  15
ENDBRANCH  10  13
ENDBRANCH   4   7
ENDBRANCH   2   3
ENDBRANCH   1   2
BRANCH   1  23
ATOM     23  C   UNL A   1      33.422  22.461  27.644  1.00  0.00     0.002 C 
BRANCH  23  24
ATOM     24  C   UNL A   1      34.455  21.586  26.925  1.00  0.00     0.002 C 
BRANCH  24  25
ATOM     25  C   UNL A   1      35.178  22.263  25.758  1.00  0.00     0.021 C 
BRANCH  25  26
ATOM     26  C   UNL A   1      36.575  22.777  26.088  1.00  0.00     0.116 C 
BRANCH  26  27
ATOM     27  N   UNL A   1      37.564  21.709  26.083  1.00  0.00    -0.352 N 
ATOM     28  C   UNL A   1      38.927  21.785  26.222  1.00  0.00     0.251 C 
ATOM     29  H   UNL A   1      37.201  20.801  25.961  1.00  0.00     0.163 HD
ATOM     30  O   UNL A   1      39.620  20.802  25.973  1.00  0.00    -0.269 OA
BRANCH  28  31
ATOM     31  C   UNL A   1      39.552  23.054  26.652  1.00  0.00     0.039 A 
ATOM     32  C   UNL A   1      40.386  23.053  27.772  1.00  0.00     0.014 A 
ATOM     33  C   UNL A   1      39.317  24.243  25.953  1.00  0.00     0.014 A 
ATOM     34  C   UNL A   1      41.033  24.231  28.155  1.00  0.00     0.010 A 
ATOM     35  C   UNL A   1      40.022  25.396  26.289  1.00  0.00     0.010 A 
ATOM     36  C   UNL A   1      40.885  25.403  27.395  1.00  0.00    -0.014 A 
BRANCH  36  37
ATOM     37  C   UNL A   1      41.625  26.644  27.746  1.00  0.00     0.031 A 
ATOM     38  C   UNL A   1      43.041  26.839  27.274  1.00  0.00     0.074 A 
ATOM     39  C   UNL A   1      41.039  27.569  28.531  1.00  0.00     0.049 A 
ATOM     40  N   UNL A   1      43.870  27.820  27.525  1.00  0.00    -0.248 NA
ATOM     41  C   UNL A   1      43.607  25.776  26.431  1.00  0.00     0.031 C 
ATOM     42  C   UNL A   1      39.685  27.474  29.081  1.00  0.00     0.029 A 
ATOM     43  N   UNL A   1      41.506  28.768  29.011  1.00  0.00    -0.354 N 
ATOM     44  C   UNL A   1      45.056  27.490  26.878  1.00  0.00     0.074 A 
ATOM     45  C   UNL A   1      44.858  26.187  26.281  1.00  0.00     0.031 C 
ATOM     46  C   UNL A   1      39.421  28.579  29.794  1.00  0.00     0.029 A 
ATOM     47  C   UNL A   1      40.601  29.438  29.802  1.00  0.00     0.049 A 
ATOM     48  H   UNL A   1      42.404  29.117  28.807  1.00  0.00     0.167 HD
ATOM     49  C   UNL A   1      46.196  28.218  26.773  1.00  0.00     0.034 A 
ATOM     50  C   UNL A   1      40.713  30.602  30.471  1.00  0.00     0.034 A 
ATOM     51  C   UNL A   1      46.374  29.518  27.375  1.00  0.00     0.049 A 
ATOM     52  C   UNL A   1      42.009  31.371  30.379  1.00  0.00     0.074 A 
ATOM     53  C   UNL A   1      47.467  30.364  27.290  1.00  0.00     0.029 A 
ATOM     54  N   UNL A   1      45.443  30.157  28.185  1.00  0.00    -0.354 N 
ATOM     55  N   UNL A   1      43.104  31.070  29.719  1.00  0.00    -0.248 NA
ATOM     56  C   UNL A   1      42.079  32.639  31.116  1.00  0.00     0.031 C 
ATOM     57  C   UNL A   1      47.230  31.472  28.111  1.00  0.00     0.029 A 
ATOM     58  C   UNL A   1      45.953  31.366  28.638  1.00  0.00     0.049 A 
ATOM     59  H   UNL A   1      44.551  29.803  28.406  1.00  0.00     0.167 HD
ATOM     60  C   UNL A   1      43.981  32.129  29.938  1.00  0.00     0.074 A 
ATOM     61  C   UNL A   1      43.279  33.082  30.774  1.00  0.00     0.031 C 
ATOM     62  C   UNL A   1      45.249  32.301  29.484  1.00  0.00     0.034 A 
BRANCH  49  63
ATOM     63  C   UNL A   1      47.343  27.607  26.001  1.00  0.00     0.023 A 
ATOM     64  C   UNL A   1      47.654  28.013  24.692  1.00  0.00     0.031 A 
ATOM     65  C   UNL A   1      48.123  26.585  26.572  1.00  0.00     0.131 A 
ATOM     66  C   UNL A   1      48.656  27.348  23.969  1.00  0.00     0.055 A 
ATOM     67  C   UNL A   1      49.178  25.988  25.879  1.00  0.00     0.041 A 
ATOM     68  F   UNL A   1      47.863  26.136  27.810  1.00  0.00    -0.206 F 
ATOM     69  C   UNL A   1      49.439  26.356  24.563  1.00  0.00     0.022 A 
BRANCH  66  70
ATOM     70  S   UNL A   1      48.812  27.687  22.193  1.00  0.00     0.124 S 
ATOM     71  O   UNL A   1      50.142  28.291  22.125  1.00  0.00    -0.237 OA
ATOM     72  O   UNL A   1      48.683  26.360  21.606  1.00  0.00    -0.237 OA
ATOM     73  O   UNL A   1      47.707  28.603  21.921  1.00  0.00    -0.744 OA
ENDBRANCH  66  70
ENDBRANCH  49  63
BRANCH  50  74
ATOM     74  C   UNL A   1      39.582  31.112  31.299  1.00  0.00     0.023 A 
ATOM     75  C   UNL A   1      38.414  31.612  30.700  1.00  0.00     0.031 A 
ATOM     76  C   UNL A   1      39.670  31.150  32.702  1.00  0.00     0.131 A 
ATOM     77  C   UNL A   1      37.403  32.171  31.497  1.00  0.00     0.055 A 
ATOM     78  C   UNL A   1      38.634  31.652  33.493  1.00  0.00     0.041 A 
ATOM     79  F   UNL A   1      40.763  30.687  33.328  1.00  0.00    -0.206 F 
ATOM     80  C   UNL A   1      37.498  32.180  32.889  1.00  0.00     0.022 A 
BRANCH  77  81
ATOM     81  S   UNL A   1      36.000  32.978  30.678  1.00  0.00     0.124 S 
ATOM     82  O   UNL A   1      34.940  31.992  30.863  1.00  0.00    -0.237 OA
ATOM     83  O   UNL A   1      35.868  34.212  31.446  1.00  0.00    -0.237 OA
ATOM     84  O   UNL A   1      36.461  33.149  29.302  1.00  0.00    -0.744 OA
ENDBRANCH  77  81
ENDBRANCH  50  74
BRANCH  62  85
ATOM     85  C   UNL A   1      45.941  33.593  29.852  1.00  0.00     0.023 A 
ATOM     86  C   UNL A   1      45.810  34.754  29.069  1.00  0.00     0.031 A 
ATOM     87  C   UNL A   1      46.752  33.659  30.999  1.00  0.00     0.131 A 
ATOM     88  C   UNL A   1      46.526  35.912  29.411  1.00  0.00     0.055 A 
ATOM     89  C   UNL A   1      47.407  34.833  31.371  1.00  0.00     0.041 A 
ATOM     90  F   UNL A   1      46.918  32.581  31.781  1.00  0.00    -0.206 F 
ATOM     91  C   UNL A   1      47.307  35.965  30.567  1.00  0.00     0.022 A 
BRANCH  88  92
ATOM     92  S   UNL A   1      46.501  37.320  28.268  1.00  0.00     0.124 S 
ATOM     93  O   UNL A   1      45.091  37.390  27.900  1.00  0.00    -0.237 OA
ATOM     94  O   UNL A   1      46.997  38.410  29.103  1.00  0.00    -0.237 OA
ATOM     95  O   UNL A   1      47.402  36.907  27.193  1.00  0.00    -0.744 OA
ENDBRANCH  88  92
ENDBRANCH  62  85
ENDBRANCH  36  37
ENDBRANCH  28  31
ENDBRANCH  26  27
ENDBRANCH  25  26
ENDBRANCH  24  25
ENDBRANCH  23  24
ENDBRANCH   1  23
TORSDOF 21
ENDMDL
