MODEL 1
REMARK VINA RESULT:     -10.9      0.000      0.000
REMARK SMILES COc1cc(/C=N/NC(=O)c2cc(Cl)ccc2O)ccc1OCC(=O)NCCCCCCNC(=O)c1ccc(-c2c3nc(c(-c4cc(S(=O)(=O)[O-])ccc4F)c4ccc([nH]4)c(-c4cc(S(=O)(=O)[O-])ccc4F)c4nc(c(-c5cc(S(=O)(=O)[O-])ccc5F)c5ccc2[nH]5)C=C4)C=C3)cc1
REMARK SMILES IDX 28 1 27 2 26 3 24 4 25 5 23 7 22 8 21 9 3 10 4 11 5 12 20 13
REMARK SMILES IDX 19 14 2 15 1 16 6 17 7 18 8 19 9 20 10 22 11 23 12 24 17 25
REMARK SMILES IDX 13 26 16 27 14 28 15 29 18 30 29 32 30 33 31 34 32 35 33 36
REMARK SMILES IDX 34 37 35 39 36 40 37 41 98 42 38 43 97 44 39 45 40 46 41 47
REMARK SMILES IDX 91 48 42 49 96 50 90 51 92 52 43 53 95 54 89 55 88 56 44 58
REMARK SMILES IDX 76 59 56 60 75 61 57 62 60 63 74 64 93 65 58 66 59 67 73 69
REMARK SMILES IDX 94 70 61 71 45 72 46 73 54 74 47 75 53 76 55 77 52 78 48 79
REMARK SMILES IDX 49 80 50 81 51 82 77 83 78 84 86 85 79 86 85 87 87 88 84 89
REMARK SMILES IDX 80 90 81 91 82 92 83 93 62 94 63 95 71 96 64 97 70 98 72 99
REMARK SMILES IDX 69 100 65 101 66 102 67 103 68 104
REMARK H PARENT 26 6 8 21 18 31 33 38 92 57 60 68
REMARK Flexibility Score: inf
ROOT
ATOM      1  C   UNL A   1      35.052  31.998  29.019  1.00  0.00     0.021 C 
ENDROOT
BRANCH   1   2
ATOM      2  C   UNL A   1      34.740  30.906  27.999  1.00  0.00     0.116 C 
BRANCH   2   3
ATOM      3  N   UNL A   1      33.325  30.805  27.710  1.00  0.00    -0.353 N 
ATOM      4  C   UNL A   1      32.703  30.010  26.794  1.00  0.00     0.257 C 
ATOM      5  O   UNL A   1      31.479  29.883  26.881  1.00  0.00    -0.271 OA
ATOM      6  H   UNL A   1      32.736  31.384  28.245  1.00  0.00     0.163 HD
BRANCH   4   7
ATOM      7  C   UNL A   1      33.527  29.250  25.744  1.00  0.00     0.329 C 
BRANCH   7   8
ATOM      8  O   UNL A   1      33.040  29.158  24.417  1.00  0.00    -0.480 OA
BRANCH   8   9
ATOM      9  C   UNL A   1      32.883  27.934  23.829  1.00  0.00     0.161 A 
ATOM     10  C   UNL A   1      31.942  27.554  22.864  1.00  0.00     0.161 A 
ATOM     11  C   UNL A   1      31.899  26.226  22.412  1.00  0.00     0.060 A 
ATOM     12  C   UNL A   1      32.813  25.289  22.905  1.00  0.00    -0.002 A 
ATOM     13  C   UNL A   1      33.776  26.973  24.326  1.00  0.00     0.051 A 
ATOM     14  C   UNL A   1      33.760  25.660  23.857  1.00  0.00     0.014 A 
BRANCH  10  15
ATOM     15  O   UNL A   1      30.969  28.432  22.473  1.00  0.00    -0.493 OA
ATOM     16  C   UNL A   1      29.674  28.093  22.970  1.00  0.00     0.278 C 
ENDBRANCH  10  15
BRANCH  12  17
ATOM     17  C   UNL A   1      32.731  23.866  22.525  1.00  0.00     0.141 C 
ATOM     18  N   UNL A   1      31.686  23.156  22.826  1.00  0.00    -0.180 NA
BRANCH  18  19
ATOM     19  N   UNL A   1      31.737  21.812  22.588  1.00  0.00    -0.243 N 
ATOM     20  C   UNL A   1      32.369  20.810  23.307  1.00  0.00     0.275 C 
ATOM     21  H   UNL A   1      31.252  21.511  21.787  1.00  0.00     0.194 HD
ATOM     22  O   UNL A   1      32.330  19.647  22.906  1.00  0.00    -0.267 OA
BRANCH  20  23
ATOM     23  C   UNL A   1      33.095  21.109  24.562  1.00  0.00     0.084 A 
ATOM     24  C   UNL A   1      34.495  21.048  24.511  1.00  0.00     0.038 A 
ATOM     25  C   UNL A   1      32.463  21.436  25.770  1.00  0.00     0.128 A 
ATOM     26  C   UNL A   1      35.244  21.383  25.636  1.00  0.00     0.042 A 
ATOM     27  C   UNL A   1      33.221  21.772  26.891  1.00  0.00     0.048 A 
ATOM     28  Cl  UNL A   1      36.962  21.346  25.555  1.00  0.00    -0.084 Cl
ATOM     29  C   UNL A   1      34.614  21.763  26.819  1.00  0.00     0.024 A 
BRANCH  25  30
ATOM     30  O   UNL A   1      31.107  21.466  25.930  1.00  0.00    -0.507 OA
ATOM     31  H   UNL A   1      30.735  21.767  26.736  1.00  0.00     0.293 HD
ENDBRANCH  25  30
ENDBRANCH  20  23
ENDBRANCH  18  19
ENDBRANCH  12  17
ENDBRANCH   8   9
ENDBRANCH   7   8
ENDBRANCH   4   7
ENDBRANCH   2   3
ENDBRANCH   1   2
BRANCH   1  32
ATOM     32  C   UNL A   1      35.695  33.269  28.452  1.00  0.00     0.002 C 
BRANCH  32  33
ATOM     33  C   UNL A   1      34.733  34.294  27.846  1.00  0.00     0.002 C 
BRANCH  33  34
ATOM     34  C   UNL A   1      33.503  34.628  28.691  1.00  0.00     0.021 C 
BRANCH  34  35
ATOM     35  C   UNL A   1      33.534  35.997  29.356  1.00  0.00     0.116 C 
BRANCH  35  36
ATOM     36  N   UNL A   1      32.724  36.042  30.561  1.00  0.00    -0.352 N 
ATOM     37  C   UNL A   1      32.888  35.348  31.735  1.00  0.00     0.251 C 
ATOM     38  H   UNL A   1      31.951  36.651  30.531  1.00  0.00     0.163 HD
ATOM     39  O   UNL A   1      31.994  35.357  32.579  1.00  0.00    -0.269 OA
BRANCH  37  40
ATOM     40  C   UNL A   1      34.127  34.572  31.961  1.00  0.00     0.039 A 
ATOM     41  C   UNL A   1      35.362  35.212  31.834  1.00  0.00     0.014 A 
ATOM     42  C   UNL A   1      34.070  33.221  32.316  1.00  0.00     0.014 A 
ATOM     43  C   UNL A   1      36.536  34.511  32.124  1.00  0.00     0.010 A 
ATOM     44  C   UNL A   1      35.232  32.551  32.686  1.00  0.00     0.010 A 
ATOM     45  C   UNL A   1      36.479  33.186  32.587  1.00  0.00    -0.014 A 
BRANCH  45  46
ATOM     46  C   UNL A   1      37.713  32.446  32.963  1.00  0.00     0.031 A 
ATOM     47  C   UNL A   1      38.418  32.759  34.255  1.00  0.00     0.074 A 
ATOM     48  C   UNL A   1      38.229  31.533  32.118  1.00  0.00     0.049 A 
ATOM     49  N   UNL A   1      39.527  32.260  34.737  1.00  0.00    -0.248 NA
ATOM     50  C   UNL A   1      37.808  33.798  35.097  1.00  0.00     0.031 C 
ATOM     51  C   UNL A   1      37.656  31.162  30.823  1.00  0.00     0.029 A 
ATOM     52  N   UNL A   1      39.349  30.748  32.222  1.00  0.00    -0.354 N 
ATOM     53  C   UNL A   1      39.753  32.930  35.936  1.00  0.00     0.074 A 
ATOM     54  C   UNL A   1      38.709  33.926  36.057  1.00  0.00     0.031 C 
ATOM     55  C   UNL A   1      38.400  30.187  30.277  1.00  0.00     0.029 A 
ATOM     56  C   UNL A   1      39.532  29.902  31.152  1.00  0.00     0.049 A 
ATOM     57  H   UNL A   1      39.964  30.785  32.989  1.00  0.00     0.167 HD
ATOM     58  C   UNL A   1      40.723  32.716  36.862  1.00  0.00     0.034 A 
ATOM     59  C   UNL A   1      40.503  29.001  30.904  1.00  0.00     0.034 A 
ATOM     60  C   UNL A   1      41.759  31.722  36.717  1.00  0.00     0.049 A 
ATOM     61  C   UNL A   1      41.610  28.826  31.912  1.00  0.00     0.074 A 
ATOM     62  C   UNL A   1      42.762  31.384  37.610  1.00  0.00     0.029 A 
ATOM     63  N   UNL A   1      41.939  30.915  35.600  1.00  0.00    -0.354 N 
ATOM     64  N   UNL A   1      41.784  29.428  33.066  1.00  0.00    -0.248 NA
ATOM     65  C   UNL A   1      42.650  27.842  31.583  1.00  0.00     0.031 C 
ATOM     66  C   UNL A   1      43.596  30.441  36.998  1.00  0.00     0.029 A 
ATOM     67  C   UNL A   1      43.062  30.115  35.760  1.00  0.00     0.049 A 
ATOM     68  H   UNL A   1      41.354  30.910  34.807  1.00  0.00     0.167 HD
ATOM     69  C   UNL A   1      42.933  28.868  33.618  1.00  0.00     0.074 A 
ATOM     70  C   UNL A   1      43.403  27.875  32.672  1.00  0.00     0.031 C 
ATOM     71  C   UNL A   1      43.537  29.141  34.803  1.00  0.00     0.034 A 
BRANCH  58  72
ATOM     72  C   UNL A   1      40.716  33.609  38.083  1.00  0.00     0.023 A 
ATOM     73  C   UNL A   1      39.872  33.354  39.180  1.00  0.00     0.031 A 
ATOM     74  C   UNL A   1      41.507  34.771  38.127  1.00  0.00     0.131 A 
ATOM     75  C   UNL A   1      39.748  34.301  40.207  1.00  0.00     0.055 A 
ATOM     76  C   UNL A   1      41.460  35.657  39.205  1.00  0.00     0.041 A 
ATOM     77  F   UNL A   1      42.319  35.086  37.105  1.00  0.00    -0.206 F 
ATOM     78  C   UNL A   1      40.557  35.438  40.243  1.00  0.00     0.022 A 
BRANCH  75  79
ATOM     79  S   UNL A   1      38.367  34.130  41.372  1.00  0.00     0.124 S 
ATOM     80  O   UNL A   1      38.136  35.520  41.759  1.00  0.00    -0.237 OA
ATOM     81  O   UNL A   1      37.334  33.515  40.548  1.00  0.00    -0.237 OA
ATOM     82  O   UNL A   1      38.914  33.282  42.428  1.00  0.00    -0.744 OA
ENDBRANCH  75  79
ENDBRANCH  58  72
BRANCH  59  83
ATOM     83  C   UNL A   1      40.467  28.181  29.661  1.00  0.00     0.023 A 
ATOM     84  C   UNL A   1      41.371  28.426  28.615  1.00  0.00     0.031 A 
ATOM     85  C   UNL A   1      39.521  27.155  29.487  1.00  0.00     0.131 A 
ATOM     86  C   UNL A   1      41.288  27.683  27.428  1.00  0.00     0.055 A 
ATOM     87  C   UNL A   1      39.476  26.382  28.326  1.00  0.00     0.041 A 
ATOM     88  F   UNL A   1      38.635  26.876  30.458  1.00  0.00    -0.206 F 
ATOM     89  C   UNL A   1      40.357  26.652  27.283  1.00  0.00     0.022 A 
BRANCH  86  90
ATOM     90  S   UNL A   1      42.374  28.130  26.046  1.00  0.00     0.124 S 
ATOM     91  O   UNL A   1      43.683  28.143  26.691  1.00  0.00    -0.237 OA
ATOM     92  O   UNL A   1      42.132  27.042  25.106  1.00  0.00    -0.237 OA
ATOM     93  O   UNL A   1      41.870  29.436  25.629  1.00  0.00    -0.744 OA
ENDBRANCH  86  90
ENDBRANCH  59  83
BRANCH  71  94
ATOM     94  C   UNL A   1      44.753  28.317  35.163  1.00  0.00     0.023 A 
ATOM     95  C   UNL A   1      44.649  27.103  35.865  1.00  0.00     0.031 A 
ATOM     96  C   UNL A   1      46.038  28.765  34.808  1.00  0.00     0.131 A 
ATOM     97  C   UNL A   1      45.811  26.411  36.240  1.00  0.00     0.055 A 
ATOM     98  C   UNL A   1      47.185  28.036  35.123  1.00  0.00     0.041 A 
ATOM     99  F   UNL A   1      46.201  29.922  34.143  1.00  0.00    -0.206 F 
ATOM    100  C   UNL A   1      47.077  26.859  35.856  1.00  0.00     0.022 A 
BRANCH  97 101
ATOM    101  S   UNL A   1      45.652  24.971  37.332  1.00  0.00     0.124 S 
ATOM    102  O   UNL A   1      44.204  24.811  37.414  1.00  0.00    -0.237 OA
ATOM    103  O   UNL A   1      46.367  23.937  36.593  1.00  0.00    -0.237 OA
ATOM    104  O   UNL A   1      46.297  25.407  38.570  1.00  0.00    -0.744 OA
ENDBRANCH  97 101
ENDBRANCH  71  94
ENDBRANCH  45  46
ENDBRANCH  37  40
ENDBRANCH  35  36
ENDBRANCH  34  35
ENDBRANCH  33  34
ENDBRANCH  32  33
ENDBRANCH   1  32
TORSDOF 23
ENDMDL
MODEL 2
REMARK VINA RESULT:     -10.7      6.180     12.074
REMARK SMILES COc1cc(/C=N/NC(=O)c2cc(Cl)ccc2O)ccc1OCC(=O)NCCCCCCNC(=O)c1ccc(-c2c3nc(c(-c4cc(S(=O)(=O)[O-])ccc4F)c4ccc([nH]4)c(-c4cc(S(=O)(=O)[O-])ccc4F)c4nc(c(-c5cc(S(=O)(=O)[O-])ccc5F)c5ccc2[nH]5)C=C4)C=C3)cc1
REMARK SMILES IDX 28 1 27 2 26 3 24 4 25 5 23 7 22 8 21 9 3 10 4 11 5 12 20 13
REMARK SMILES IDX 19 14 2 15 1 16 6 17 7 18 8 19 9 20 10 22 11 23 12 24 17 25
REMARK SMILES IDX 13 26 16 27 14 28 15 29 18 30 29 32 30 33 31 34 32 35 33 36
REMARK SMILES IDX 34 37 35 39 36 40 37 41 98 42 38 43 97 44 39 45 40 46 41 47
REMARK SMILES IDX 91 48 42 49 96 50 90 51 92 52 43 53 95 54 89 55 88 56 44 58
REMARK SMILES IDX 76 59 56 60 75 61 57 62 60 63 74 64 93 65 58 66 59 67 73 69
REMARK SMILES IDX 94 70 61 71 45 72 46 73 54 74 47 75 53 76 55 77 52 78 48 79
REMARK SMILES IDX 49 80 50 81 51 82 77 83 78 84 86 85 79 86 85 87 87 88 84 89
REMARK SMILES IDX 80 90 81 91 82 92 83 93 62 94 63 95 71 96 64 97 70 98 72 99
REMARK SMILES IDX 69 100 65 101 66 102 67 103 68 104
REMARK H PARENT 26 6 8 21 18 31 33 38 92 57 60 68
REMARK Flexibility Score: inf
ROOT
ATOM      1  C   UNL A   1      39.634  23.186  27.158  1.00  0.00     0.021 C 
ENDROOT
BRANCH   1   2
ATOM      2  C   UNL A   1      38.649  22.640  26.128  1.00  0.00     0.116 C 
BRANCH   2   3
ATOM      3  N   UNL A   1      38.762  21.207  25.955  1.00  0.00    -0.353 N 
ATOM      4  C   UNL A   1      37.964  20.376  25.228  1.00  0.00     0.257 C 
ATOM      5  O   UNL A   1      38.378  19.236  25.001  1.00  0.00    -0.271 OA
ATOM      6  H   UNL A   1      39.514  20.779  26.424  1.00  0.00     0.163 HD
BRANCH   4   7
ATOM      7  C   UNL A   1      36.632  20.887  24.657  1.00  0.00     0.329 C 
BRANCH   7   8
ATOM      8  O   UNL A   1      35.431  20.220  25.002  1.00  0.00    -0.480 OA
BRANCH   8   9
ATOM      9  C   UNL A   1      34.233  20.867  24.889  1.00  0.00     0.161 A 
ATOM     10  C   UNL A   1      32.954  20.369  25.168  1.00  0.00     0.161 A 
ATOM     11  C   UNL A   1      31.825  21.171  24.940  1.00  0.00     0.060 A 
ATOM     12  C   UNL A   1      31.979  22.476  24.461  1.00  0.00    -0.002 A 
ATOM     13  C   UNL A   1      34.362  22.171  24.388  1.00  0.00     0.051 A 
ATOM     14  C   UNL A   1      33.247  22.984  24.190  1.00  0.00     0.014 A 
BRANCH  10  15
ATOM     15  O   UNL A   1      32.790  19.057  25.516  1.00  0.00    -0.493 OA
ATOM     16  C   UNL A   1      32.627  18.193  24.391  1.00  0.00     0.278 C 
ENDBRANCH  10  15
BRANCH  12  17
ATOM     17  C   UNL A   1      30.810  23.308  24.118  1.00  0.00     0.141 C 
ATOM     18  N   UNL A   1      30.907  24.602  24.063  1.00  0.00    -0.180 NA
BRANCH  18  19
ATOM     19  N   UNL A   1      29.758  25.322  23.896  1.00  0.00    -0.243 N 
ATOM     20  C   UNL A   1      29.585  26.689  23.751  1.00  0.00     0.275 C 
ATOM     21  H   UNL A   1      28.931  24.790  23.876  1.00  0.00     0.194 HD
ATOM     22  O   UNL A   1      28.452  27.159  23.649  1.00  0.00    -0.267 OA
BRANCH  20  23
ATOM     23  C   UNL A   1      30.746  27.609  23.713  1.00  0.00     0.084 A 
ATOM     24  C   UNL A   1      30.878  28.501  24.787  1.00  0.00     0.038 A 
ATOM     25  C   UNL A   1      31.689  27.631  22.678  1.00  0.00     0.128 A 
ATOM     26  C   UNL A   1      31.981  29.348  24.851  1.00  0.00     0.042 A 
ATOM     27  C   UNL A   1      32.793  28.480  22.750  1.00  0.00     0.048 A 
ATOM     28  Cl  UNL A   1      32.161  30.412  26.189  1.00  0.00    -0.084 Cl
ATOM     29  C   UNL A   1      32.949  29.328  23.847  1.00  0.00     0.024 A 
BRANCH  25  30
ATOM     30  O   UNL A   1      31.613  26.838  21.567  1.00  0.00    -0.507 OA
ATOM     31  H   UNL A   1      31.441  25.921  21.656  1.00  0.00     0.293 HD
ENDBRANCH  25  30
ENDBRANCH  20  23
ENDBRANCH  18  19
ENDBRANCH  12  17
ENDBRANCH   8   9
ENDBRANCH   7   8
ENDBRANCH   4   7
ENDBRANCH   2   3
ENDBRANCH   1   2
BRANCH   1  32
ATOM     32  C   UNL A   1      41.099  22.786  26.948  1.00  0.00     0.002 C 
BRANCH  32  33
ATOM     33  C   UNL A   1      41.687  21.825  27.985  1.00  0.00     0.002 C 
BRANCH  33  34
ATOM     34  C   UNL A   1      41.982  20.411  27.483  1.00  0.00     0.021 C 
BRANCH  34  35
ATOM     35  C   UNL A   1      41.832  20.219  25.980  1.00  0.00     0.116 C 
BRANCH  35  36
ATOM     36  N   UNL A   1      43.016  19.630  25.380  1.00  0.00    -0.352 N 
ATOM     37  C   UNL A   1      44.185  20.243  25.000  1.00  0.00     0.251 C 
ATOM     38  H   UNL A   1      42.976  18.659  25.224  1.00  0.00     0.163 HD
ATOM     39  O   UNL A   1      45.006  19.626  24.324  1.00  0.00    -0.269 OA
BRANCH  37  40
ATOM     40  C   UNL A   1      44.432  21.651  25.381  1.00  0.00     0.039 A 
ATOM     41  C   UNL A   1      43.939  22.672  24.566  1.00  0.00     0.014 A 
ATOM     42  C   UNL A   1      45.134  21.963  26.550  1.00  0.00     0.014 A 
ATOM     43  C   UNL A   1      44.096  24.005  24.957  1.00  0.00     0.010 A 
ATOM     44  C   UNL A   1      45.214  23.284  26.979  1.00  0.00     0.010 A 
ATOM     45  C   UNL A   1      44.703  24.321  26.184  1.00  0.00    -0.014 A 
BRANCH  45  46
ATOM     46  C   UNL A   1      44.820  25.729  26.647  1.00  0.00     0.031 A 
ATOM     47  C   UNL A   1      46.143  26.441  26.576  1.00  0.00     0.074 A 
ATOM     48  C   UNL A   1      43.750  26.348  27.183  1.00  0.00     0.049 A 
ATOM     49  N   UNL A   1      46.459  27.648  26.971  1.00  0.00    -0.248 NA
ATOM     50  C   UNL A   1      47.267  25.677  26.015  1.00  0.00     0.031 C 
ATOM     51  C   UNL A   1      42.421  25.755  27.335  1.00  0.00     0.029 A 
ATOM     52  N   UNL A   1      43.609  27.613  27.695  1.00  0.00    -0.354 N 
ATOM     53  C   UNL A   1      47.820  27.786  26.715  1.00  0.00     0.074 A 
ATOM     54  C   UNL A   1      48.278  26.508  26.210  1.00  0.00     0.031 C 
ATOM     55  C   UNL A   1      41.588  26.671  27.856  1.00  0.00     0.029 A 
ATOM     56  C   UNL A   1      42.334  27.895  28.126  1.00  0.00     0.049 A 
ATOM     57  H   UNL A   1      44.350  28.258  27.747  1.00  0.00     0.167 HD
ATOM     58  C   UNL A   1      48.608  28.882  26.860  1.00  0.00     0.034 A 
ATOM     59  C   UNL A   1      41.824  29.013  28.679  1.00  0.00     0.034 A 
ATOM     60  C   UNL A   1      48.131  30.145  27.373  1.00  0.00     0.049 A 
ATOM     61  C   UNL A   1      42.730  30.198  28.897  1.00  0.00     0.074 A 
ATOM     62  C   UNL A   1      48.825  31.334  27.517  1.00  0.00     0.029 A 
ATOM     63  N   UNL A   1      46.844  30.381  27.842  1.00  0.00    -0.354 N 
ATOM     64  N   UNL A   1      44.003  30.334  28.602  1.00  0.00    -0.248 NA
ATOM     65  C   UNL A   1      42.125  31.384  29.517  1.00  0.00     0.031 C 
ATOM     66  C   UNL A   1      47.986  32.257  28.153  1.00  0.00     0.029 A 
ATOM     67  C   UNL A   1      46.737  31.679  28.320  1.00  0.00     0.049 A 
ATOM     68  H   UNL A   1      46.113  29.721  27.837  1.00  0.00     0.167 HD
ATOM     69  C   UNL A   1      44.341  31.634  28.967  1.00  0.00     0.074 A 
ATOM     70  C   UNL A   1      43.135  32.242  29.495  1.00  0.00     0.031 C 
ATOM     71  C   UNL A   1      45.536  32.272  28.864  1.00  0.00     0.034 A 
BRANCH  58  72
ATOM     72  C   UNL A   1      50.068  28.733  26.494  1.00  0.00     0.023 A 
ATOM     73  C   UNL A   1      50.527  28.953  25.183  1.00  0.00     0.031 A 
ATOM     74  C   UNL A   1      51.005  28.294  27.447  1.00  0.00     0.131 A 
ATOM     75  C   UNL A   1      51.844  28.620  24.833  1.00  0.00     0.055 A 
ATOM     76  C   UNL A   1      52.343  28.069  27.117  1.00  0.00     0.041 A 
ATOM     77  F   UNL A   1      50.631  28.046  28.712  1.00  0.00    -0.206 F 
ATOM     78  C   UNL A   1      52.765  28.207  25.797  1.00  0.00     0.022 A 
BRANCH  75  79
ATOM     79  S   UNL A   1      52.270  28.529  23.071  1.00  0.00     0.124 S 
ATOM     80  O   UNL A   1      51.535  29.671  22.532  1.00  0.00    -0.237 OA
ATOM     81  O   UNL A   1      53.721  28.654  23.091  1.00  0.00    -0.237 OA
ATOM     82  O   UNL A   1      51.758  27.223  22.664  1.00  0.00    -0.744 OA
ENDBRANCH  75  79
ENDBRANCH  58  72
BRANCH  59  83
ATOM     83  C   UNL A   1      40.383  29.078  29.050  1.00  0.00     0.023 A 
ATOM     84  C   UNL A   1      39.984  28.982  30.393  1.00  0.00     0.031 A 
ATOM     85  C   UNL A   1      39.380  29.216  28.073  1.00  0.00     0.131 A 
ATOM     86  C   UNL A   1      38.620  28.988  30.721  1.00  0.00     0.055 A 
ATOM     87  C   UNL A   1      38.026  29.275  28.409  1.00  0.00     0.041 A 
ATOM     88  F   UNL A   1      39.707  29.316  26.775  1.00  0.00    -0.206 F 
ATOM     89  C   UNL A   1      37.640  29.149  29.740  1.00  0.00     0.022 A 
BRANCH  86  90
ATOM     90  S   UNL A   1      38.142  28.712  32.449  1.00  0.00     0.124 S 
ATOM     91  O   UNL A   1      39.201  29.416  33.165  1.00  0.00    -0.237 OA
ATOM     92  O   UNL A   1      36.818  29.320  32.499  1.00  0.00    -0.237 OA
ATOM     93  O   UNL A   1      38.163  27.256  32.577  1.00  0.00    -0.744 OA
ENDBRANCH  86  90
ENDBRANCH  59  83
BRANCH  71  94
ATOM     94  C   UNL A   1      45.583  33.720  29.293  1.00  0.00     0.023 A 
ATOM     95  C   UNL A   1      45.326  34.772  28.396  1.00  0.00     0.031 A 
ATOM     96  C   UNL A   1      45.906  34.052  30.621  1.00  0.00     0.131 A 
ATOM     97  C   UNL A   1      45.453  36.103  28.823  1.00  0.00     0.055 A 
ATOM     98  C   UNL A   1      45.963  35.376  31.057  1.00  0.00     0.041 A 
ATOM     99  F   UNL A   1      46.169  33.091  31.523  1.00  0.00    -0.206 F 
ATOM    100  C   UNL A   1      45.750  36.411  30.153  1.00  0.00     0.022 A 
BRANCH  97 101
ATOM    101  S   UNL A   1      45.333  37.428  27.590  1.00  0.00     0.124 S 
ATOM    102  O   UNL A   1      46.034  36.846  26.450  1.00  0.00    -0.237 OA
ATOM    103  O   UNL A   1      43.890  37.584  27.439  1.00  0.00    -0.237 OA
ATOM    104  O   UNL A   1      46.015  38.553  28.228  1.00  0.00    -0.744 OA
ENDBRANCH  97 101
ENDBRANCH  71  94
ENDBRANCH  45  46
ENDBRANCH  37  40
ENDBRANCH  35  36
ENDBRANCH  34  35
ENDBRANCH  33  34
ENDBRANCH  32  33
ENDBRANCH   1  32
TORSDOF 23
ENDMDL
MODEL 3
REMARK VINA RESULT:     -10.6      1.588      2.055
REMARK SMILES COc1cc(/C=N/NC(=O)c2cc(Cl)ccc2O)ccc1OCC(=O)NCCCCCCNC(=O)c1ccc(-c2c3nc(c(-c4cc(S(=O)(=O)[O-])ccc4F)c4ccc([nH]4)c(-c4cc(S(=O)(=O)[O-])ccc4F)c4nc(c(-c5cc(S(=O)(=O)[O-])ccc5F)c5ccc2[nH]5)C=C4)C=C3)cc1
REMARK SMILES IDX 28 1 27 2 26 3 24 4 25 5 23 7 22 8 21 9 3 10 4 11 5 12 20 13
REMARK SMILES IDX 19 14 2 15 1 16 6 17 7 18 8 19 9 20 10 22 11 23 12 24 17 25
REMARK SMILES IDX 13 26 16 27 14 28 15 29 18 30 29 32 30 33 31 34 32 35 33 36
REMARK SMILES IDX 34 37 35 39 36 40 37 41 98 42 38 43 97 44 39 45 40 46 41 47
REMARK SMILES IDX 91 48 42 49 96 50 90 51 92 52 43 53 95 54 89 55 88 56 44 58
REMARK SMILES IDX 76 59 56 60 75 61 57 62 60 63 74 64 93 65 58 66 59 67 73 69
REMARK SMILES IDX 94 70 61 71 45 72 46 73 54 74 47 75 53 76 55 77 52 78 48 79
REMARK SMILES IDX 49 80 50 81 51 82 77 83 78 84 86 85 79 86 85 87 87 88 84 89
REMARK SMILES IDX 80 90 81 91 82 92 83 93 62 94 63 95 71 96 64 97 70 98 72 99
REMARK SMILES IDX 69 100 65 101 66 102 67 103 68 104
REMARK H PARENT 26 6 8 21 18 31 33 38 92 57 60 68
REMARK Flexibility Score: inf
ROOT
ATOM      1  C   UNL A   1      35.564  29.688  27.528  1.00  0.00     0.021 C 
ENDROOT
BRANCH   1   2
ATOM      2  C   UNL A   1      34.512  28.951  26.702  1.00  0.00     0.116 C 
BRANCH   2   3
ATOM      3  N   UNL A   1      33.350  28.585  27.483  1.00  0.00    -0.353 N 
ATOM      4  C   UNL A   1      32.044  28.906  27.260  1.00  0.00     0.257 C 
ATOM      5  O   UNL A   1      31.184  28.285  27.890  1.00  0.00    -0.271 OA
ATOM      6  H   UNL A   1      33.526  28.031  28.278  1.00  0.00     0.163 HD
BRANCH   4   7
ATOM      7  C   UNL A   1      31.677  29.956  26.200  1.00  0.00     0.329 C 
BRANCH   7   8
ATOM      8  O   UNL A   1      30.982  29.549  25.035  1.00  0.00    -0.480 OA
BRANCH   8   9
ATOM      9  C   UNL A   1      31.283  28.355  24.441  1.00  0.00     0.161 A 
ATOM     10  C   UNL A   1      32.333  28.068  23.561  1.00  0.00     0.161 A 
ATOM     11  C   UNL A   1      32.453  26.785  23.006  1.00  0.00     0.060 A 
ATOM     12  C   UNL A   1      31.539  25.785  23.353  1.00  0.00    -0.002 A 
ATOM     13  C   UNL A   1      30.364  27.343  24.758  1.00  0.00     0.051 A 
ATOM     14  C   UNL A   1      30.496  26.057  24.235  1.00  0.00     0.014 A 
BRANCH  10  15
ATOM     15  O   UNL A   1      33.153  29.072  23.123  1.00  0.00    -0.493 OA
ATOM     16  C   UNL A   1      34.435  28.606  22.699  1.00  0.00     0.278 C 
ENDBRANCH  10  15
BRANCH  12  17
ATOM     17  C   UNL A   1      31.578  24.456  22.713  1.00  0.00     0.141 C 
ATOM     18  N   UNL A   1      31.192  23.396  23.355  1.00  0.00    -0.180 NA
BRANCH  18  19
ATOM     19  N   UNL A   1      31.400  22.181  22.767  1.00  0.00    -0.243 N 
ATOM     20  C   UNL A   1      32.231  21.142  23.153  1.00  0.00     0.275 C 
ATOM     21  H   UNL A   1      30.882  22.020  21.946  1.00  0.00     0.194 HD
ATOM     22  O   UNL A   1      32.311  20.128  22.461  1.00  0.00    -0.267 OA
BRANCH  20  23
ATOM     23  C   UNL A   1      33.034  21.225  24.395  1.00  0.00     0.084 A 
ATOM     24  C   UNL A   1      34.424  21.114  24.256  1.00  0.00     0.038 A 
ATOM     25  C   UNL A   1      32.480  21.398  25.671  1.00  0.00     0.128 A 
ATOM     26  C   UNL A   1      35.245  21.250  25.373  1.00  0.00     0.042 A 
ATOM     27  C   UNL A   1      33.308  21.536  26.784  1.00  0.00     0.048 A 
ATOM     28  Cl  UNL A   1      36.952  21.153  25.191  1.00  0.00    -0.084 Cl
ATOM     29  C   UNL A   1      34.694  21.478  26.633  1.00  0.00     0.024 A 
BRANCH  25  30
ATOM     30  O   UNL A   1      31.136  21.461  25.910  1.00  0.00    -0.507 OA
ATOM     31  H   UNL A   1      30.541  20.969  25.379  1.00  0.00     0.293 HD
ENDBRANCH  25  30
ENDBRANCH  20  23
ENDBRANCH  18  19
ENDBRANCH  12  17
ENDBRANCH   8   9
ENDBRANCH   7   8
ENDBRANCH   4   7
ENDBRANCH   2   3
ENDBRANCH   1   2
BRANCH   1  32
ATOM     32  C   UNL A   1      35.379  31.206  27.632  1.00  0.00     0.002 C 
BRANCH  32  33
ATOM     33  C   UNL A   1      34.300  31.685  28.606  1.00  0.00     0.002 C 
BRANCH  33  34
ATOM     34  C   UNL A   1      33.201  32.558  27.998  1.00  0.00     0.021 C 
BRANCH  34  35
ATOM     35  C   UNL A   1      33.623  33.982  27.666  1.00  0.00     0.116 C 
BRANCH  35  36
ATOM     36  N   UNL A   1      33.017  34.958  28.556  1.00  0.00    -0.352 N 
ATOM     37  C   UNL A   1      33.296  35.207  29.877  1.00  0.00     0.251 C 
ATOM     38  H   UNL A   1      32.310  35.515  28.158  1.00  0.00     0.163 HD
ATOM     39  O   UNL A   1      32.549  35.931  30.532  1.00  0.00    -0.269 OA
BRANCH  37  40
ATOM     40  C   UNL A   1      34.477  34.579  30.509  1.00  0.00     0.039 A 
ATOM     41  C   UNL A   1      34.292  33.729  31.601  1.00  0.00     0.014 A 
ATOM     42  C   UNL A   1      35.764  34.814  30.013  1.00  0.00     0.014 A 
ATOM     43  C   UNL A   1      35.391  33.067  32.156  1.00  0.00     0.010 A 
ATOM     44  C   UNL A   1      36.842  34.090  30.511  1.00  0.00     0.010 A 
ATOM     45  C   UNL A   1      36.669  33.214  31.593  1.00  0.00    -0.014 A 
BRANCH  45  46
ATOM     46  C   UNL A   1      37.838  32.466  32.128  1.00  0.00     0.031 A 
ATOM     47  C   UNL A   1      38.411  32.822  33.473  1.00  0.00     0.074 A 
ATOM     48  C   UNL A   1      38.417  31.506  31.382  1.00  0.00     0.049 A 
ATOM     49  N   UNL A   1      39.451  32.321  34.090  1.00  0.00    -0.248 NA
ATOM     50  C   UNL A   1      37.743  33.908  34.202  1.00  0.00     0.031 C 
ATOM     51  C   UNL A   1      37.974  31.090  30.050  1.00  0.00     0.029 A 
ATOM     52  N   UNL A   1      39.500  30.703  31.636  1.00  0.00    -0.354 N 
ATOM     53  C   UNL A   1      39.568  33.039  35.277  1.00  0.00     0.074 A 
ATOM     54  C   UNL A   1      38.542  34.060  35.246  1.00  0.00     0.031 C 
ATOM     55  C   UNL A   1      38.747  30.077  29.626  1.00  0.00     0.029 A 
ATOM     56  C   UNL A   1      39.773  29.808  30.628  1.00  0.00     0.049 A 
ATOM     57  H   UNL A   1      40.032  30.762  32.462  1.00  0.00     0.167 HD
ATOM     58  C   UNL A   1      40.429  32.846  36.309  1.00  0.00     0.034 A 
ATOM     59  C   UNL A   1      40.742  28.877  30.521  1.00  0.00     0.034 A 
ATOM     60  C   UNL A   1      41.450  31.826  36.316  1.00  0.00     0.049 A 
ATOM     61  C   UNL A   1      41.733  28.724  31.647  1.00  0.00     0.074 A 
ATOM     62  C   UNL A   1      42.345  31.507  37.323  1.00  0.00     0.029 A 
ATOM     63  N   UNL A   1      41.726  30.966  35.259  1.00  0.00    -0.354 N 
ATOM     64  N   UNL A   1      41.800  29.373  32.787  1.00  0.00    -0.248 NA
ATOM     65  C   UNL A   1      42.776  27.705  31.471  1.00  0.00     0.031 C 
ATOM     66  C   UNL A   1      43.214  30.521  36.842  1.00  0.00     0.029 A 
ATOM     67  C   UNL A   1      42.805  30.152  35.570  1.00  0.00     0.049 A 
ATOM     68  H   UNL A   1      41.227  30.939  34.409  1.00  0.00     0.167 HD
ATOM     69  C   UNL A   1      42.870  28.814  33.480  1.00  0.00     0.074 A 
ATOM     70  C   UNL A   1      43.412  27.771  32.631  1.00  0.00     0.031 C 
ATOM     71  C   UNL A   1      43.353  29.127  34.710  1.00  0.00     0.034 A 
BRANCH  58  72
ATOM     72  C   UNL A   1      40.317  33.792  37.484  1.00  0.00     0.023 A 
ATOM     73  C   UNL A   1      41.107  34.953  37.576  1.00  0.00     0.031 A 
ATOM     74  C   UNL A   1      39.465  33.497  38.564  1.00  0.00     0.131 A 
ATOM     75  C   UNL A   1      41.120  35.702  38.762  1.00  0.00     0.055 A 
ATOM     76  C   UNL A   1      39.401  34.309  39.698  1.00  0.00     0.041 A 
ATOM     77  F   UNL A   1      38.698  32.394  38.550  1.00  0.00    -0.206 F 
ATOM     78  C   UNL A   1      40.251  35.406  39.814  1.00  0.00     0.022 A 
BRANCH  75  79
ATOM     79  S   UNL A   1      42.438  36.930  38.989  1.00  0.00     0.124 S 
ATOM     80  O   UNL A   1      43.387  36.191  39.819  1.00  0.00    -0.237 OA
ATOM     81  O   UNL A   1      42.858  37.198  37.620  1.00  0.00    -0.237 OA
ATOM     82  O   UNL A   1      41.762  38.035  39.666  1.00  0.00    -0.744 OA
ENDBRANCH  75  79
ENDBRANCH  58  72
BRANCH  59  83
ATOM     83  C   UNL A   1      40.816  28.004  29.317  1.00  0.00     0.023 A 
ATOM     84  C   UNL A   1      41.769  28.245  28.315  1.00  0.00     0.031 A 
ATOM     85  C   UNL A   1      39.926  26.930  29.135  1.00  0.00     0.131 A 
ATOM     86  C   UNL A   1      41.790  27.449  27.160  1.00  0.00     0.055 A 
ATOM     87  C   UNL A   1      39.984  26.106  28.009  1.00  0.00     0.041 A 
ATOM     88  F   UNL A   1      38.997  26.653  30.064  1.00  0.00    -0.206 F 
ATOM     89  C   UNL A   1      40.914  26.372  27.008  1.00  0.00     0.022 A 
BRANCH  86  90
ATOM     90  S   UNL A   1      42.937  27.885  25.825  1.00  0.00     0.124 S 
ATOM     91  O   UNL A   1      43.099  29.320  26.032  1.00  0.00    -0.237 OA
ATOM     92  O   UNL A   1      44.095  27.056  26.137  1.00  0.00    -0.237 OA
ATOM     93  O   UNL A   1      42.208  27.506  24.616  1.00  0.00    -0.744 OA
ENDBRANCH  86  90
ENDBRANCH  59  83
BRANCH  71  94
ATOM     94  C   UNL A   1      44.504  28.295  35.230  1.00  0.00     0.023 A 
ATOM     95  C   UNL A   1      44.297  27.118  35.971  1.00  0.00     0.031 A 
ATOM     96  C   UNL A   1      45.830  28.698  34.990  1.00  0.00     0.131 A 
ATOM     97  C   UNL A   1      45.396  26.420  36.496  1.00  0.00     0.055 A 
ATOM     98  C   UNL A   1      46.919  27.960  35.454  1.00  0.00     0.041 A 
ATOM     99  F   UNL A   1      46.090  29.817  34.294  1.00  0.00    -0.206 F 
ATOM    100  C   UNL A   1      46.705  26.822  36.225  1.00  0.00     0.022 A 
BRANCH  97 101
ATOM    101  S   UNL A   1      45.087  25.038  37.630  1.00  0.00     0.124 S 
ATOM    102  O   UNL A   1      46.286  25.054  38.461  1.00  0.00    -0.237 OA
ATOM    103  O   UNL A   1      43.849  25.444  38.288  1.00  0.00    -0.237 OA
ATOM    104  O   UNL A   1      44.966  23.884  36.740  1.00  0.00    -0.744 OA
ENDBRANCH  97 101
ENDBRANCH  71  94
ENDBRANCH  45  46
ENDBRANCH  37  40
ENDBRANCH  35  36
ENDBRANCH  34  35
ENDBRANCH  33  34
ENDBRANCH  32  33
ENDBRANCH   1  32
TORSDOF 23
ENDMDL
