MODEL 1
REMARK VINA RESULT:     -14.3      0.000      0.000
REMARK SMILES CC1(C)OC(=O)C(=CNc2ccccc2C(=O)NCCCCCCNC(=O)c2ccc(-c3c4nc(c(-c5cc(S(=O)(=O)[O-])ccc5F)c5ccc([nH]5)c(-c5cc(S(=O)(=O)[O-])ccc5F)c5nc(c(-c6cc(S(=O)(=O)[O-])ccc6F)c6ccc3[nH]6)C=C5)C=C4)cc2)C(=O)O1
REMARK SMILES IDX 22 1 21 2 20 3 19 4 18 5 16 6 17 7 15 9 10 10 11 11 12 12
REMARK SMILES IDX 14 13 13 14 9 15 8 17 1 18 2 19 3 20 4 21 93 22 5 23 91 24
REMARK SMILES IDX 6 25 7 26 92 27 23 28 24 29 25 30 26 31 27 33 28 34 29 35
REMARK SMILES IDX 90 36 30 37 89 38 31 39 32 40 33 41 83 42 34 43 88 44 82 45
REMARK SMILES IDX 84 46 35 47 87 48 81 49 80 50 36 52 68 53 48 54 67 55 49 56
REMARK SMILES IDX 52 57 66 58 85 59 50 60 51 61 65 63 86 64 53 65 37 66 38 67
REMARK SMILES IDX 46 68 39 69 45 70 47 71 44 72 40 73 41 74 42 75 43 76 69 77
REMARK SMILES IDX 70 78 78 79 71 80 77 81 79 82 76 83 72 84 73 85 74 86 75 87
REMARK SMILES IDX 54 88 55 89 63 90 56 91 62 92 64 93 61 94 57 95 58 96 59 97
REMARK SMILES IDX 60 98
REMARK H PARENT 18 8 9 16 25 32 84 51 52 62
REMARK Flexibility Score: inf
ROOT
ATOM      1  C   UNL A   1      34.222  25.850  24.991  1.00  0.00     0.002 C 
ENDROOT
BRANCH   1   2
ATOM      2  C   UNL A   1      33.389  26.834  26.159  1.00  0.00     0.002 C 
BRANCH   2   3
ATOM      3  C   UNL A   1      31.937  27.330  26.022  1.00  0.00     0.021 C 
BRANCH   3   4
ATOM      4  C   UNL A   1      31.657  28.471  25.065  1.00  0.00     0.116 C 
BRANCH   4   5
ATOM      5  N   UNL A   1      31.810  28.112  23.676  1.00  0.00    -0.352 N 
ATOM      6  C   UNL A   1      30.816  27.821  22.777  1.00  0.00     0.253 C 
ATOM      7  O   UNL A   1      31.115  27.466  21.639  1.00  0.00    -0.269 OA
ATOM      8  H   UNL A   1      32.733  28.070  23.336  1.00  0.00     0.163 HD
BRANCH   6   9
ATOM      9  C   UNL A   1      29.407  27.748  23.227  1.00  0.00     0.063 A 
ATOM     10  C   UNL A   1      28.781  26.660  23.879  1.00  0.00     0.051 A 
ATOM     11  C   UNL A   1      27.394  26.765  24.106  1.00  0.00     0.027 A 
ATOM     12  C   UNL A   1      26.652  27.875  23.686  1.00  0.00     0.002 A 
ATOM     13  C   UNL A   1      28.652  28.872  22.822  1.00  0.00     0.016 A 
ATOM     14  C   UNL A   1      27.280  28.929  23.036  1.00  0.00     0.001 A 
BRANCH  10  15
ATOM     15  N   UNL A   1      29.380  25.435  24.270  1.00  0.00    -0.360 N 
ATOM     16  H   UNL A   1      28.971  24.981  25.042  1.00  0.00     0.166 HD
BRANCH  15  17
ATOM     17  C   UNL A   1      30.459  24.804  23.708  1.00  0.00     0.106 C 
ATOM     18  C   UNL A   1      32.207  19.047  23.778  1.00  0.00     0.106 C 
ATOM     19  C   UNL A   1      32.744  20.426  24.264  1.00  0.00     0.252 C 
ATOM     20  C   UNL A   1      34.254  20.103  24.593  1.00  0.00     0.106 C 
ATOM     21  O   UNL A   1      32.991  21.657  22.951  1.00  0.00    -0.419 OA
ATOM     22  O   UNL A   1      31.541  21.033  25.566  1.00  0.00    -0.419 OA
ATOM     23  C   UNL A   1      32.428  23.180  22.880  1.00  0.00     0.350 C 
ATOM     24  C   UNL A   1      30.813  22.650  25.618  1.00  0.00     0.350 C 
ATOM     25  O   UNL A   1      32.791  23.907  21.960  1.00  0.00    -0.246 OA
ATOM     26  C   UNL A   1      31.209  23.774  24.147  1.00  0.00     0.161 C 
ATOM     27  O   UNL A   1      30.141  22.998  26.577  1.00  0.00    -0.246 OA
ENDBRANCH  15  17
ENDBRANCH  10  15
ENDBRANCH   6   9
ENDBRANCH   4   5
ENDBRANCH   3   4
ENDBRANCH   2   3
ENDBRANCH   1   2
BRANCH   1  28
ATOM     28  C   UNL A   1      35.031  23.847  25.110  1.00  0.00     0.021 C 
BRANCH  28  29
ATOM     29  C   UNL A   1      35.981  23.075  26.453  1.00  0.00     0.116 C 
BRANCH  29  30
ATOM     30  N   UNL A   1      36.777  21.866  26.132  1.00  0.00    -0.352 N 
ATOM     31  C   UNL A   1      38.112  21.722  25.860  1.00  0.00     0.251 C 
ATOM     32  H   UNL A   1      36.261  21.027  26.112  1.00  0.00     0.163 HD
ATOM     33  O   UNL A   1      38.562  20.772  25.238  1.00  0.00    -0.269 OA
BRANCH  31  34
ATOM     34  C   UNL A   1      38.971  22.735  26.448  1.00  0.00     0.039 A 
ATOM     35  C   UNL A   1      40.029  22.424  27.301  1.00  0.00     0.014 A 
ATOM     36  C   UNL A   1      38.705  24.031  26.010  1.00  0.00     0.014 A 
ATOM     37  C   UNL A   1      40.864  23.460  27.706  1.00  0.00     0.010 A 
ATOM     38  C   UNL A   1      39.576  25.033  26.347  1.00  0.00     0.010 A 
ATOM     39  C   UNL A   1      40.640  24.759  27.220  1.00  0.00    -0.014 A 
BRANCH  39  40
ATOM     40  C   UNL A   1      41.428  25.924  27.653  1.00  0.00     0.031 A 
ATOM     41  C   UNL A   1      40.722  26.977  28.457  1.00  0.00     0.074 A 
ATOM     42  C   UNL A   1      42.674  26.091  27.183  1.00  0.00     0.049 A 
ATOM     43  N   UNL A   1      41.091  28.196  28.730  1.00  0.00    -0.248 NA
ATOM     44  C   UNL A   1      39.379  26.625  28.957  1.00  0.00     0.031 C 
ATOM     45  C   UNL A   1      43.408  25.131  26.355  1.00  0.00     0.029 A 
ATOM     46  N   UNL A   1      43.533  27.146  27.315  1.00  0.00    -0.354 N 
ATOM     47  C   UNL A   1      40.020  28.764  29.410  1.00  0.00     0.074 A 
ATOM     48  C   UNL A   1      38.954  27.787  29.422  1.00  0.00     0.031 C 
ATOM     49  C   UNL A   1      44.619  25.636  26.071  1.00  0.00     0.029 A 
ATOM     50  C   UNL A   1      44.722  26.971  26.649  1.00  0.00     0.049 A 
ATOM     51  H   UNL A   1      43.320  27.953  27.835  1.00  0.00     0.167 HD
ATOM     52  C   UNL A   1      39.954  29.978  30.004  1.00  0.00     0.034 A 
ATOM     53  C   UNL A   1      45.764  27.814  26.521  1.00  0.00     0.034 A 
ATOM     54  C   UNL A   1      41.050  30.909  29.991  1.00  0.00     0.049 A 
ATOM     55  C   UNL A   1      45.662  29.168  27.183  1.00  0.00     0.074 A 
ATOM     56  C   UNL A   1      41.138  32.153  30.586  1.00  0.00     0.029 A 
ATOM     57  N   UNL A   1      42.264  30.685  29.348  1.00  0.00    -0.354 N 
ATOM     58  N   UNL A   1      44.661  29.685  27.862  1.00  0.00    -0.248 NA
ATOM     59  C   UNL A   1      46.833  30.045  27.075  1.00  0.00     0.031 C 
ATOM     60  C   UNL A   1      42.380  32.703  30.256  1.00  0.00     0.029 A 
ATOM     61  C   UNL A   1      43.100  31.773  29.522  1.00  0.00     0.049 A 
ATOM     62  H   UNL A   1      42.493  29.872  28.844  1.00  0.00     0.167 HD
ATOM     63  C   UNL A   1      45.104  30.930  28.301  1.00  0.00     0.074 A 
ATOM     64  C   UNL A   1      46.464  31.075  27.821  1.00  0.00     0.031 C 
ATOM     65  C   UNL A   1      44.455  31.872  29.033  1.00  0.00     0.034 A 
BRANCH  52  66
ATOM     66  C   UNL A   1      38.666  30.341  30.704  1.00  0.00     0.023 A 
ATOM     67  C   UNL A   1      37.614  30.974  30.018  1.00  0.00     0.031 A 
ATOM     68  C   UNL A   1      38.499  30.092  32.076  1.00  0.00     0.131 A 
ATOM     69  C   UNL A   1      36.482  31.413  30.719  1.00  0.00     0.055 A 
ATOM     70  C   UNL A   1      37.328  30.449  32.751  1.00  0.00     0.041 A 
ATOM     71  F   UNL A   1      39.477  29.514  32.792  1.00  0.00    -0.206 F 
ATOM     72  C   UNL A   1      36.318  31.127  32.075  1.00  0.00     0.022 A 
BRANCH  69  73
ATOM     73  S   UNL A   1      35.300  32.488  29.862  1.00  0.00     0.124 S 
ATOM     74  O   UNL A   1      36.183  33.509  29.303  1.00  0.00    -0.237 OA
ATOM     75  O   UNL A   1      34.685  31.581  28.901  1.00  0.00    -0.237 OA
ATOM     76  O   UNL A   1      34.421  32.953  30.933  1.00  0.00    -0.744 OA
ENDBRANCH  69  73
ENDBRANCH  52  66
BRANCH  53  77
ATOM     77  C   UNL A   1      46.988  27.414  25.771  1.00  0.00     0.023 A 
ATOM     78  C   UNL A   1      47.173  27.831  24.444  1.00  0.00     0.031 A 
ATOM     79  C   UNL A   1      47.960  26.572  26.337  1.00  0.00     0.131 A 
ATOM     80  C   UNL A   1      48.259  27.347  23.701  1.00  0.00     0.055 A 
ATOM     81  C   UNL A   1      49.077  26.146  25.614  1.00  0.00     0.041 A 
ATOM     82  F   UNL A   1      47.842  26.151  27.607  1.00  0.00    -0.206 F 
ATOM     83  C   UNL A   1      49.220  26.518  24.281  1.00  0.00     0.022 A 
BRANCH  80  84
ATOM     84  S   UNL A   1      48.321  27.720  21.928  1.00  0.00     0.124 S 
ATOM     85  O   UNL A   1      47.003  28.300  21.701  1.00  0.00    -0.237 OA
ATOM     86  O   UNL A   1      49.450  28.642  21.854  1.00  0.00    -0.237 OA
ATOM     87  O   UNL A   1      48.544  26.412  21.314  1.00  0.00    -0.744 OA
ENDBRANCH  80  84
ENDBRANCH  53  77
BRANCH  65  88
ATOM     88  C   UNL A   1      45.241  33.102  29.406  1.00  0.00     0.023 A 
ATOM     89  C   UNL A   1      45.238  34.254  28.602  1.00  0.00     0.031 A 
ATOM     90  C   UNL A   1      46.005  33.117  30.587  1.00  0.00     0.131 A 
ATOM     91  C   UNL A   1      46.035  35.350  28.955  1.00  0.00     0.055 A 
ATOM     92  C   UNL A   1      46.739  34.239  30.970  1.00  0.00     0.041 A 
ATOM     93  F   UNL A   1      46.041  32.043  31.391  1.00  0.00    -0.206 F 
ATOM     94  C   UNL A   1      46.769  35.359  30.144  1.00  0.00     0.022 A 
BRANCH  91  95
ATOM     95  S   UNL A   1      46.179  36.727  27.785  1.00  0.00     0.124 S 
ATOM     96  O   UNL A   1      44.802  37.204  27.708  1.00  0.00    -0.237 OA
ATOM     97  O   UNL A   1      47.123  37.613  28.459  1.00  0.00    -0.237 OA
ATOM     98  O   UNL A   1      46.685  36.092  26.570  1.00  0.00    -0.744 OA
ENDBRANCH  91  95
ENDBRANCH  65  88
ENDBRANCH  39  40
ENDBRANCH  31  34
ENDBRANCH  29  30
ENDBRANCH  28  29
ENDBRANCH   1  28
TORSDOF 18
ENDMDL
MODEL 2
REMARK VINA RESULT:     -13.8      2.358      3.256
REMARK SMILES CC1(C)OC(=O)C(=CNc2ccccc2C(=O)NCCCCCCNC(=O)c2ccc(-c3c4nc(c(-c5cc(S(=O)(=O)[O-])ccc5F)c5ccc([nH]5)c(-c5cc(S(=O)(=O)[O-])ccc5F)c5nc(c(-c6cc(S(=O)(=O)[O-])ccc6F)c6ccc3[nH]6)C=C5)C=C4)cc2)C(=O)O1
REMARK SMILES IDX 22 1 21 2 20 3 19 4 18 5 16 6 17 7 15 9 10 10 11 11 12 12
REMARK SMILES IDX 14 13 13 14 9 15 8 17 1 18 2 19 3 20 4 21 93 22 5 23 91 24
REMARK SMILES IDX 6 25 7 26 92 27 23 28 24 29 25 30 26 31 27 33 28 34 29 35
REMARK SMILES IDX 90 36 30 37 89 38 31 39 32 40 33 41 83 42 34 43 88 44 82 45
REMARK SMILES IDX 84 46 35 47 87 48 81 49 80 50 36 52 68 53 48 54 67 55 49 56
REMARK SMILES IDX 52 57 66 58 85 59 50 60 51 61 65 63 86 64 53 65 37 66 38 67
REMARK SMILES IDX 46 68 39 69 45 70 47 71 44 72 40 73 41 74 42 75 43 76 69 77
REMARK SMILES IDX 70 78 78 79 71 80 77 81 79 82 76 83 72 84 73 85 74 86 75 87
REMARK SMILES IDX 54 88 55 89 63 90 56 91 62 92 64 93 61 94 57 95 58 96 59 97
REMARK SMILES IDX 60 98
REMARK H PARENT 18 8 9 16 25 32 84 51 52 62
REMARK Flexibility Score: inf
ROOT
ATOM      1  C   UNL A   1      36.187  21.877  24.555  1.00  0.00     0.002 C 
ENDROOT
BRANCH   1   2
ATOM      2  C   UNL A   1      36.131  23.615  24.507  1.00  0.00     0.002 C 
BRANCH   2   3
ATOM      3  C   UNL A   1      35.184  24.492  25.348  1.00  0.00     0.021 C 
BRANCH   3   4
ATOM      4  C   UNL A   1      34.099  25.269  24.630  1.00  0.00     0.116 C 
BRANCH   4   5
ATOM      5  N   UNL A   1      34.009  24.969  23.222  1.00  0.00    -0.352 N 
ATOM      6  C   UNL A   1      32.992  25.302  22.363  1.00  0.00     0.253 C 
ATOM      7  O   UNL A   1      33.034  24.913  21.197  1.00  0.00    -0.269 OA
ATOM      8  H   UNL A   1      34.763  24.469  22.833  1.00  0.00     0.163 HD
BRANCH   6   9
ATOM      9  C   UNL A   1      31.767  25.954  22.881  1.00  0.00     0.063 A 
ATOM     10  C   UNL A   1      30.729  25.340  23.621  1.00  0.00     0.051 A 
ATOM     11  C   UNL A   1      29.597  26.130  23.906  1.00  0.00     0.027 A 
ATOM     12  C   UNL A   1      29.479  27.452  23.459  1.00  0.00     0.002 A 
ATOM     13  C   UNL A   1      31.647  27.294  22.450  1.00  0.00     0.016 A 
ATOM     14  C   UNL A   1      30.502  28.034  22.724  1.00  0.00     0.001 A 
BRANCH  10  15
ATOM     15  N   UNL A   1      30.665  23.990  24.051  1.00  0.00    -0.360 N 
ATOM     16  H   UNL A   1      30.217  23.833  24.913  1.00  0.00     0.166 HD
BRANCH  15  17
ATOM     17  C   UNL A   1      31.150  22.876  23.415  1.00  0.00     0.106 C 
ATOM     18  C   UNL A   1      32.502  17.381  25.459  1.00  0.00     0.106 C 
ATOM     19  C   UNL A   1      33.238  18.584  24.798  1.00  0.00     0.252 C 
ATOM     20  C   UNL A   1      34.620  17.946  24.378  1.00  0.00     0.106 C 
ATOM     21  O   UNL A   1      32.623  19.049  23.153  1.00  0.00    -0.419 OA
ATOM     22  O   UNL A   1      33.119  20.007  26.011  1.00  0.00    -0.419 OA
ATOM     23  C   UNL A   1      32.153  20.515  22.631  1.00  0.00     0.350 C 
ATOM     24  C   UNL A   1      32.599  21.656  25.613  1.00  0.00     0.350 C 
ATOM     25  O   UNL A   1      31.869  20.663  21.447  1.00  0.00    -0.246 OA
ATOM     26  C   UNL A   1      32.000  21.919  23.836  1.00  0.00     0.161 C 
ATOM     27  O   UNL A   1      32.676  22.550  26.441  1.00  0.00    -0.246 OA
ENDBRANCH  15  17
ENDBRANCH  10  15
ENDBRANCH   6   9
ENDBRANCH   4   5
ENDBRANCH   3   4
ENDBRANCH   2   3
ENDBRANCH   1   2
BRANCH   1  28
ATOM     28  C   UNL A   1      37.786  20.499  25.028  1.00  0.00     0.021 C 
BRANCH  28  29
ATOM     29  C   UNL A   1      39.245  20.758  26.077  1.00  0.00     0.116 C 
BRANCH  29  30
ATOM     30  N   UNL A   1      40.324  19.741  26.028  1.00  0.00    -0.352 N 
ATOM     31  C   UNL A   1      41.682  19.884  25.927  1.00  0.00     0.251 C 
ATOM     32  H   UNL A   1      40.011  18.808  26.078  1.00  0.00     0.163 HD
ATOM     33  O   UNL A   1      42.411  18.998  25.506  1.00  0.00    -0.269 OA
BRANCH  31  34
ATOM     34  C   UNL A   1      42.208  21.134  26.447  1.00  0.00     0.039 A 
ATOM     35  C   UNL A   1      42.504  21.324  27.795  1.00  0.00     0.014 A 
ATOM     36  C   UNL A   1      42.481  22.087  25.468  1.00  0.00     0.014 A 
ATOM     37  C   UNL A   1      43.121  22.516  28.164  1.00  0.00     0.010 A 
ATOM     38  C   UNL A   1      43.159  23.223  25.824  1.00  0.00     0.010 A 
ATOM     39  C   UNL A   1      43.456  23.456  27.176  1.00  0.00    -0.014 A 
BRANCH  39  40
ATOM     40  C   UNL A   1      44.041  24.770  27.484  1.00  0.00     0.031 A 
ATOM     41  C   UNL A   1      43.111  25.849  27.960  1.00  0.00     0.074 A 
ATOM     42  C   UNL A   1      45.325  25.011  27.175  1.00  0.00     0.049 A 
ATOM     43  N   UNL A   1      43.308  27.134  28.043  1.00  0.00    -0.248 NA
ATOM     44  C   UNL A   1      41.746  25.420  28.321  1.00  0.00     0.031 C 
ATOM     45  C   UNL A   1      46.277  24.023  26.662  1.00  0.00     0.029 A 
ATOM     46  N   UNL A   1      46.042  26.174  27.222  1.00  0.00    -0.354 N 
ATOM     47  C   UNL A   1      42.088  27.670  28.440  1.00  0.00     0.074 A 
ATOM     48  C   UNL A   1      41.137  26.582  28.486  1.00  0.00     0.031 C 
ATOM     49  C   UNL A   1      47.462  24.621  26.463  1.00  0.00     0.029 A 
ATOM     50  C   UNL A   1      47.336  26.039  26.781  1.00  0.00     0.049 A 
ATOM     51  H   UNL A   1      45.666  27.026  27.541  1.00  0.00     0.167 HD
ATOM     52  C   UNL A   1      41.804  28.950  28.772  1.00  0.00     0.034 A 
ATOM     53  C   UNL A   1      48.295  26.973  26.643  1.00  0.00     0.034 A 
ATOM     54  C   UNL A   1      42.790  29.998  28.736  1.00  0.00     0.049 A 
ATOM     55  C   UNL A   1      47.952  28.397  27.010  1.00  0.00     0.074 A 
ATOM     56  C   UNL A   1      42.655  31.327  29.086  1.00  0.00     0.029 A 
ATOM     57  N   UNL A   1      44.110  29.822  28.330  1.00  0.00    -0.354 N 
ATOM     58  N   UNL A   1      46.806  28.893  27.425  1.00  0.00    -0.248 NA
ATOM     59  C   UNL A   1      49.032  29.384  26.904  1.00  0.00     0.031 C 
ATOM     60  C   UNL A   1      43.874  31.966  28.838  1.00  0.00     0.029 A 
ATOM     61  C   UNL A   1      44.793  31.022  28.409  1.00  0.00     0.049 A 
ATOM     62  H   UNL A   1      44.498  28.969  28.031  1.00  0.00     0.167 HD
ATOM     63  C   UNL A   1      47.045  30.242  27.674  1.00  0.00     0.074 A 
ATOM     64  C   UNL A   1      48.444  30.473  27.375  1.00  0.00     0.031 C 
ATOM     65  C   UNL A   1      46.194  31.207  28.110  1.00  0.00     0.034 A 
BRANCH  52  66
ATOM     66  C   UNL A   1      40.390  29.262  29.196  1.00  0.00     0.023 A 
ATOM     67  C   UNL A   1      40.038  29.357  30.555  1.00  0.00     0.031 A 
ATOM     68  C   UNL A   1      39.372  29.427  28.242  1.00  0.00     0.131 A 
ATOM     69  C   UNL A   1      38.695  29.523  30.924  1.00  0.00     0.055 A 
ATOM     70  C   UNL A   1      38.050  29.685  28.614  1.00  0.00     0.041 A 
ATOM     71  F   UNL A   1      39.639  29.322  26.930  1.00  0.00    -0.206 F 
ATOM     72  C   UNL A   1      37.703  29.718  29.962  1.00  0.00     0.022 A 
BRANCH  69  73
ATOM     73  S   UNL A   1      38.250  29.331  32.670  1.00  0.00     0.124 S 
ATOM     74  O   UNL A   1      36.803  29.150  32.587  1.00  0.00    -0.237 OA
ATOM     75  O   UNL A   1      39.017  28.157  33.067  1.00  0.00    -0.237 OA
ATOM     76  O   UNL A   1      38.681  30.591  33.274  1.00  0.00    -0.744 OA
ENDBRANCH  69  73
ENDBRANCH  52  66
BRANCH  53  77
ATOM     77  C   UNL A   1      49.659  26.608  26.168  1.00  0.00     0.023 A 
ATOM     78  C   UNL A   1      50.122  27.064  24.924  1.00  0.00     0.031 A 
ATOM     79  C   UNL A   1      50.499  25.761  26.911  1.00  0.00     0.131 A 
ATOM     80  C   UNL A   1      51.352  26.614  24.424  1.00  0.00     0.055 A 
ATOM     81  C   UNL A   1      51.754  25.368  26.439  1.00  0.00     0.041 A 
ATOM     82  F   UNL A   1      50.115  25.303  28.113  1.00  0.00    -0.206 F 
ATOM     83  C   UNL A   1      52.178  25.779  25.178  1.00  0.00     0.022 A 
BRANCH  80  84
ATOM     84  S   UNL A   1      51.792  27.037  22.717  1.00  0.00     0.124 S 
ATOM     85  O   UNL A   1      52.845  26.067  22.435  1.00  0.00    -0.237 OA
ATOM     86  O   UNL A   1      50.527  26.832  22.020  1.00  0.00    -0.237 OA
ATOM     87  O   UNL A   1      52.232  28.427  22.815  1.00  0.00    -0.744 OA
ENDBRANCH  80  84
ENDBRANCH  53  77
BRANCH  65  88
ATOM     88  C   UNL A   1      46.782  32.574  28.347  1.00  0.00     0.023 A 
ATOM     89  C   UNL A   1      46.985  33.483  27.296  1.00  0.00     0.031 A 
ATOM     90  C   UNL A   1      47.143  32.967  29.648  1.00  0.00     0.131 A 
ATOM     91  C   UNL A   1      47.594  34.718  27.555  1.00  0.00     0.055 A 
ATOM     92  C   UNL A   1      47.682  34.226  29.909  1.00  0.00     0.041 A 
ATOM     93  F   UNL A   1      46.968  32.136  30.687  1.00  0.00    -0.206 F 
ATOM     94  C   UNL A   1      47.925  35.104  28.857  1.00  0.00     0.022 A 
BRANCH  91  95
ATOM     95  S   UNL A   1      48.041  35.772  26.150  1.00  0.00     0.124 S 
ATOM     96  O   UNL A   1      49.305  36.350  26.595  1.00  0.00    -0.237 OA
ATOM     97  O   UNL A   1      48.129  34.812  25.054  1.00  0.00    -0.237 OA
ATOM     98  O   UNL A   1      46.926  36.713  26.060  1.00  0.00    -0.744 OA
ENDBRANCH  91  95
ENDBRANCH  65  88
ENDBRANCH  39  40
ENDBRANCH  31  34
ENDBRANCH  29  30
ENDBRANCH  28  29
ENDBRANCH   1  28
TORSDOF 18
ENDMDL
MODEL 3
REMARK VINA RESULT:     -13.7      1.815      7.585
REMARK SMILES CC1(C)OC(=O)C(=CNc2ccccc2C(=O)NCCCCCCNC(=O)c2ccc(-c3c4nc(c(-c5cc(S(=O)(=O)[O-])ccc5F)c5ccc([nH]5)c(-c5cc(S(=O)(=O)[O-])ccc5F)c5nc(c(-c6cc(S(=O)(=O)[O-])ccc6F)c6ccc3[nH]6)C=C5)C=C4)cc2)C(=O)O1
REMARK SMILES IDX 22 1 21 2 20 3 19 4 18 5 16 6 17 7 15 9 10 10 11 11 12 12
REMARK SMILES IDX 14 13 13 14 9 15 8 17 1 18 2 19 3 20 4 21 93 22 5 23 91 24
REMARK SMILES IDX 6 25 7 26 92 27 23 28 24 29 25 30 26 31 27 33 28 34 29 35
REMARK SMILES IDX 90 36 30 37 89 38 31 39 32 40 33 41 83 42 34 43 88 44 82 45
REMARK SMILES IDX 84 46 35 47 87 48 81 49 80 50 36 52 68 53 48 54 67 55 49 56
REMARK SMILES IDX 52 57 66 58 85 59 50 60 51 61 65 63 86 64 53 65 37 66 38 67
REMARK SMILES IDX 46 68 39 69 45 70 47 71 44 72 40 73 41 74 42 75 43 76 69 77
REMARK SMILES IDX 70 78 78 79 71 80 77 81 79 82 76 83 72 84 73 85 74 86 75 87
REMARK SMILES IDX 54 88 55 89 63 90 56 91 62 92 64 93 61 94 57 95 58 96 59 97
REMARK SMILES IDX 60 98
REMARK H PARENT 18 8 9 16 25 32 84 51 52 62
REMARK Flexibility Score: inf
ROOT
ATOM      1  C   UNL A   1      34.075  25.605  25.454  1.00  0.00     0.002 C 
ENDROOT
BRANCH   1   2
ATOM      2  C   UNL A   1      33.378  26.975  26.270  1.00  0.00     0.002 C 
BRANCH   2   3
ATOM      3  C   UNL A   1      31.946  27.498  26.052  1.00  0.00     0.021 C 
BRANCH   3   4
ATOM      4  C   UNL A   1      31.736  28.622  25.057  1.00  0.00     0.116 C 
BRANCH   4   5
ATOM      5  N   UNL A   1      31.921  28.220  23.684  1.00  0.00    -0.352 N 
ATOM      6  C   UNL A   1      30.946  27.930  22.763  1.00  0.00     0.253 C 
ATOM      7  O   UNL A   1      31.269  27.536  21.644  1.00  0.00    -0.269 OA
ATOM      8  H   UNL A   1      32.852  28.144  23.372  1.00  0.00     0.163 HD
BRANCH   6   9
ATOM      9  C   UNL A   1      29.522  27.907  23.172  1.00  0.00     0.063 A 
ATOM     10  C   UNL A   1      28.823  26.819  23.743  1.00  0.00     0.051 A 
ATOM     11  C   UNL A   1      27.437  26.985  23.941  1.00  0.00     0.027 A 
ATOM     12  C   UNL A   1      26.767  28.156  23.568  1.00  0.00     0.002 A 
ATOM     13  C   UNL A   1      28.840  29.092  22.815  1.00  0.00     0.016 A 
ATOM     14  C   UNL A   1      27.467  29.210  22.998  1.00  0.00     0.001 A 
BRANCH  10  15
ATOM     15  N   UNL A   1      29.346  25.543  24.076  1.00  0.00    -0.360 N 
ATOM     16  H   UNL A   1      28.840  25.031  24.749  1.00  0.00     0.166 HD
BRANCH  15  17
ATOM     17  C   UNL A   1      30.469  24.934  23.580  1.00  0.00     0.106 C 
ATOM     18  C   UNL A   1      32.536  19.309  24.125  1.00  0.00     0.106 C 
ATOM     19  C   UNL A   1      32.987  20.751  24.508  1.00  0.00     0.252 C 
ATOM     20  C   UNL A   1      34.507  20.542  24.882  1.00  0.00     0.106 C 
ATOM     21  O   UNL A   1      33.187  21.888  23.106  1.00  0.00    -0.419 OA
ATOM     22  O   UNL A   1      31.728  21.386  25.743  1.00  0.00    -0.419 OA
ATOM     23  C   UNL A   1      32.540  23.366  22.908  1.00  0.00     0.350 C 
ATOM     24  C   UNL A   1      30.909  22.958  25.658  1.00  0.00     0.350 C 
ATOM     25  O   UNL A   1      32.878  24.040  21.940  1.00  0.00    -0.246 OA
ATOM     26  C   UNL A   1      31.267  23.986  24.109  1.00  0.00     0.161 C 
ATOM     27  O   UNL A   1      30.202  23.341  26.577  1.00  0.00    -0.246 OA
ENDBRANCH  15  17
ENDBRANCH  10  15
ENDBRANCH   6   9
ENDBRANCH   4   5
ENDBRANCH   3   4
ENDBRANCH   2   3
ENDBRANCH   1   2
BRANCH   1  28
ATOM     28  C   UNL A   1      35.520  24.130  26.095  1.00  0.00     0.021 C 
BRANCH  28  29
ATOM     29  C   UNL A   1      36.904  23.406  25.168  1.00  0.00     0.116 C 
BRANCH  29  30
ATOM     30  N   UNL A   1      37.794  22.456  25.879  1.00  0.00    -0.352 N 
ATOM     31  C   UNL A   1      39.016  22.647  26.467  1.00  0.00     0.251 C 
ATOM     32  H   UNL A   1      37.449  21.536  25.938  1.00  0.00     0.163 HD
ATOM     33  O   UNL A   1      39.807  21.736  26.661  1.00  0.00    -0.269 OA
BRANCH  31  34
ATOM     34  C   UNL A   1      39.269  23.999  26.932  1.00  0.00     0.039 A 
ATOM     35  C   UNL A   1      38.936  24.431  28.214  1.00  0.00     0.014 A 
ATOM     36  C   UNL A   1      39.959  24.795  26.019  1.00  0.00     0.014 A 
ATOM     37  C   UNL A   1      39.337  25.707  28.597  1.00  0.00     0.010 A 
ATOM     38  C   UNL A   1      40.420  26.019  26.427  1.00  0.00     0.010 A 
ATOM     39  C   UNL A   1      40.086  26.493  27.705  1.00  0.00    -0.014 A 
BRANCH  39  40
ATOM     40  C   UNL A   1      40.487  27.878  27.999  1.00  0.00     0.031 A 
ATOM     41  C   UNL A   1      41.946  28.214  27.894  1.00  0.00     0.074 A 
ATOM     42  C   UNL A   1      39.585  28.733  28.505  1.00  0.00     0.049 A 
ATOM     43  N   UNL A   1      42.590  29.253  28.343  1.00  0.00    -0.248 NA
ATOM     44  C   UNL A   1      42.806  27.197  27.258  1.00  0.00     0.031 C 
ATOM     45  C   UNL A   1      38.157  28.459  28.681  1.00  0.00     0.029 A 
ATOM     46  N   UNL A   1      39.746  30.000  28.992  1.00  0.00    -0.354 N 
ATOM     47  C   UNL A   1      43.930  29.005  28.069  1.00  0.00     0.074 A 
ATOM     48  C   UNL A   1      44.013  27.678  27.502  1.00  0.00     0.031 C 
ATOM     49  C   UNL A   1      37.568  29.540  29.219  1.00  0.00     0.029 A 
ATOM     50  C   UNL A   1      38.585  30.555  29.473  1.00  0.00     0.049 A 
ATOM     51  H   UNL A   1      40.611  30.469  28.997  1.00  0.00     0.167 HD
ATOM     52  C   UNL A   1      44.987  29.832  28.240  1.00  0.00     0.034 A 
ATOM     53  C   UNL A   1      38.386  31.749  30.062  1.00  0.00     0.034 A 
ATOM     54  C   UNL A   1      44.855  31.158  28.784  1.00  0.00     0.049 A 
ATOM     55  C   UNL A   1      39.583  32.650  30.252  1.00  0.00     0.074 A 
ATOM     56  C   UNL A   1      45.830  32.118  28.973  1.00  0.00     0.029 A 
ATOM     57  N   UNL A   1      43.655  31.713  29.218  1.00  0.00    -0.354 N 
ATOM     58  N   UNL A   1      40.844  32.427  29.952  1.00  0.00    -0.248 NA
ATOM     59  C   UNL A   1      39.328  33.967  30.846  1.00  0.00     0.031 C 
ATOM     60  C   UNL A   1      45.232  33.230  29.574  1.00  0.00     0.029 A 
ATOM     61  C   UNL A   1      43.870  32.997  29.688  1.00  0.00     0.049 A 
ATOM     62  H   UNL A   1      42.783  31.258  29.196  1.00  0.00     0.167 HD
ATOM     63  C   UNL A   1      41.524  33.598  30.279  1.00  0.00     0.074 A 
ATOM     64  C   UNL A   1      40.529  34.523  30.784  1.00  0.00     0.031 C 
ATOM     65  C   UNL A   1      42.846  33.890  30.175  1.00  0.00     0.034 A 
BRANCH  52  66
ATOM     66  C   UNL A   1      46.347  29.318  27.832  1.00  0.00     0.023 A 
ATOM     67  C   UNL A   1      46.635  28.994  26.494  1.00  0.00     0.031 A 
ATOM     68  C   UNL A   1      47.354  29.109  28.789  1.00  0.00     0.131 A 
ATOM     69  C   UNL A   1      47.862  28.402  26.162  1.00  0.00     0.055 A 
ATOM     70  C   UNL A   1      48.608  28.604  28.438  1.00  0.00     0.041 A 
ATOM     71  F   UNL A   1      47.131  29.374  30.086  1.00  0.00    -0.206 F 
ATOM     72  C   UNL A   1      48.862  28.233  27.121  1.00  0.00     0.022 A 
BRANCH  69  73
ATOM     73  S   UNL A   1      48.070  27.724  24.494  1.00  0.00     0.124 S 
ATOM     74  O   UNL A   1      47.047  28.455  23.750  1.00  0.00    -0.237 OA
ATOM     75  O   UNL A   1      49.452  28.067  24.182  1.00  0.00    -0.237 OA
ATOM     76  O   UNL A   1      47.805  26.297  24.669  1.00  0.00    -0.744 OA
ENDBRANCH  69  73
ENDBRANCH  52  66
BRANCH  53  77
ATOM     77  C   UNL A   1      37.024  32.176  30.490  1.00  0.00     0.023 A 
ATOM     78  C   UNL A   1      36.132  32.733  29.560  1.00  0.00     0.031 A 
ATOM     79  C   UNL A   1      36.608  32.089  31.829  1.00  0.00     0.131 A 
ATOM     80  C   UNL A   1      34.903  33.251  29.990  1.00  0.00     0.055 A 
ATOM     81  C   UNL A   1      35.353  32.545  32.242  1.00  0.00     0.041 A 
ATOM     82  F   UNL A   1      37.414  31.554  32.760  1.00  0.00    -0.206 F 
ATOM     83  C   UNL A   1      34.501  33.150  31.323  1.00  0.00     0.022 A 
BRANCH  80  84
ATOM     84  S   UNL A   1      33.895  34.174  28.799  1.00  0.00     0.124 S 
ATOM     85  O   UNL A   1      34.844  35.174  28.321  1.00  0.00    -0.237 OA
ATOM     86  O   UNL A   1      33.526  33.132  27.846  1.00  0.00    -0.237 OA
ATOM     87  O   UNL A   1      32.797  34.692  29.612  1.00  0.00    -0.744 OA
ENDBRANCH  80  84
ENDBRANCH  53  77
BRANCH  65  88
ATOM     88  C   UNL A   1      43.264  35.287  30.554  1.00  0.00     0.023 A 
ATOM     89  C   UNL A   1      43.353  36.317  29.603  1.00  0.00     0.031 A 
ATOM     90  C   UNL A   1      43.579  35.587  31.892  1.00  0.00     0.131 A 
ATOM     91  C   UNL A   1      43.808  37.583  29.991  1.00  0.00     0.055 A 
ATOM     92  C   UNL A   1      43.961  36.869  32.284  1.00  0.00     0.041 A 
ATOM     93  F   UNL A   1      43.509  34.639  32.840  1.00  0.00    -0.206 F 
ATOM     94  C   UNL A   1      44.093  37.872  31.329  1.00  0.00     0.022 A 
BRANCH  91  95
ATOM     95  S   UNL A   1      44.120  38.821  28.705  1.00  0.00     0.124 S 
ATOM     96  O   UNL A   1      43.129  38.465  27.695  1.00  0.00    -0.237 OA
ATOM     97  O   UNL A   1      43.886  40.075  29.414  1.00  0.00    -0.237 OA
ATOM     98  O   UNL A   1      45.510  38.576  28.324  1.00  0.00    -0.744 OA
ENDBRANCH  91  95
ENDBRANCH  65  88
ENDBRANCH  39  40
ENDBRANCH  31  34
ENDBRANCH  29  30
ENDBRANCH  28  29
ENDBRANCH   1  28
TORSDOF 18
ENDMDL
