MODEL 1
REMARK VINA RESULT:     -12.8      0.000      0.000
REMARK SMILES Cc1ccc([C@H](C)Nc2ccc(C(=O)NCCCCCCNC(=O)c3ccc(-c4c5nc(c(-c6cc(S(=O)(=O)[O-])ccc6F)c6ccc([nH]6)c(-c6cc(S(=O)(=O)[O-])ccc6F)c6nc(c(-c7cc(S(=O)(=O)[O-])ccc7F)c7ccc4[nH]7)C=C6)C=C5)cc3)cc2Cl)cc1F
REMARK SMILES IDX 18 1 17 2 16 3 15 4 13 5 14 6 12 8 9 9 10 10 89 11 11 12
REMARK SMILES IDX 88 13 90 14 8 15 6 17 7 18 5 19 1 20 2 21 3 22 92 23 4 24
REMARK SMILES IDX 91 25 93 26 19 27 20 28 21 29 22 30 23 31 24 33 25 34 26 35
REMARK SMILES IDX 87 36 27 37 86 38 28 39 29 40 30 41 80 42 31 43 85 44 79 45
REMARK SMILES IDX 81 46 32 47 84 48 78 49 77 50 33 52 65 53 45 54 64 55 46 56
REMARK SMILES IDX 49 57 63 58 82 59 47 60 48 61 62 63 83 64 50 65 34 66 35 67
REMARK SMILES IDX 43 68 36 69 42 70 44 71 41 72 37 73 38 74 39 75 40 76 66 77
REMARK SMILES IDX 67 78 75 79 68 80 74 81 76 82 73 83 69 84 70 85 71 86 72 87
REMARK SMILES IDX 51 88 52 89 60 90 53 91 59 92 61 93 58 94 54 95 55 96 56 97
REMARK SMILES IDX 57 98
REMARK H PARENT 15 7 8 16 22 32 81 51 49 62
REMARK Flexibility Score: inf
ROOT
ATOM      1  C   UNL A   1      31.994  28.926  26.802  1.00  0.00     0.002 C 
ENDROOT
BRANCH   1   2
ATOM      2  C   UNL A   1      31.576  29.970  25.762  1.00  0.00     0.021 C 
BRANCH   2   3
ATOM      3  C   UNL A   1      32.075  29.605  24.363  1.00  0.00     0.116 C 
BRANCH   3   4
ATOM      4  N   UNL A   1      30.949  29.464  23.469  1.00  0.00    -0.352 N 
ATOM      5  C   UNL A   1      30.287  28.372  22.981  1.00  0.00     0.251 C 
ATOM      6  O   UNL A   1      29.363  28.570  22.191  1.00  0.00    -0.269 OA
ATOM      7  H   UNL A   1      30.587  30.322  23.149  1.00  0.00     0.163 HD
BRANCH   5   8
ATOM      8  C   UNL A   1      30.574  26.983  23.432  1.00  0.00     0.041 A 
ATOM      9  C   UNL A   1      31.264  24.457  24.559  1.00  0.00     0.053 A 
ATOM     10  C   UNL A   1      30.322  25.312  25.164  1.00  0.00     0.028 A 
ATOM     11  C   UNL A   1      31.865  24.927  23.381  1.00  0.00     0.065 A 
ATOM     12  C   UNL A   1      30.016  26.571  24.639  1.00  0.00     0.016 A 
ATOM     13  C   UNL A   1      31.406  26.095  22.765  1.00  0.00     0.036 A 
ATOM     14  Cl  UNL A   1      33.207  24.196  22.568  1.00  0.00    -0.082 Cl
BRANCH   9  15
ATOM     15  N   UNL A   1      31.495  23.262  25.206  1.00  0.00    -0.377 N 
ATOM     16  H   UNL A   1      30.726  22.649  25.258  1.00  0.00     0.161 HD
BRANCH  15  17
ATOM     17  C   UNL A   1      32.723  22.780  25.825  1.00  0.00     0.106 C 
ATOM     18  C   UNL A   1      32.451  22.767  27.343  1.00  0.00     0.036 C 
BRANCH  17  19
ATOM     19  C   UNL A   1      33.150  21.461  25.182  1.00  0.00    -0.023 A 
ATOM     20  C   UNL A   1      34.530  17.478  24.126  1.00  0.00     0.047 C 
ATOM     21  C   UNL A   1      34.043  18.863  24.420  1.00  0.00    -0.015 A 
ATOM     22  C   UNL A   1      32.694  19.214  24.325  1.00  0.00     0.007 A 
ATOM     23  C   UNL A   1      34.941  19.829  24.849  1.00  0.00     0.126 A 
ATOM     24  C   UNL A   1      32.253  20.494  24.706  1.00  0.00     0.006 A 
ATOM     25  C   UNL A   1      34.512  21.106  25.189  1.00  0.00     0.045 A 
ATOM     26  F   UNL A   1      36.244  19.534  24.965  1.00  0.00    -0.207 F 
ENDBRANCH  17  19
ENDBRANCH  15  17
ENDBRANCH   9  15
ENDBRANCH   5   8
ENDBRANCH   3   4
ENDBRANCH   2   3
ENDBRANCH   1   2
BRANCH   1  27
ATOM     27  C   UNL A   1      32.975  27.857  26.272  1.00  0.00     0.002 C 
BRANCH  27  28
ATOM     28  C   UNL A   1      34.456  28.270  26.267  1.00  0.00     0.021 C 
BRANCH  28  29
ATOM     29  C   UNL A   1      34.805  28.980  27.544  1.00  0.00     0.116 C 
BRANCH  29  30
ATOM     30  N   UNL A   1      35.532  30.199  27.260  1.00  0.00    -0.352 N 
ATOM     31  C   UNL A   1      36.668  30.574  27.935  1.00  0.00     0.251 C 
ATOM     32  H   UNL A   1      35.196  30.788  26.546  1.00  0.00     0.163 HD
ATOM     33  O   UNL A   1      36.730  31.719  28.388  1.00  0.00    -0.269 OA
BRANCH  31  34
ATOM     34  C   UNL A   1      37.757  29.583  28.068  1.00  0.00     0.039 A 
ATOM     35  C   UNL A   1      37.758  28.644  29.102  1.00  0.00     0.014 A 
ATOM     36  C   UNL A   1      38.866  29.675  27.229  1.00  0.00     0.014 A 
ATOM     37  C   UNL A   1      38.916  27.910  29.352  1.00  0.00     0.010 A 
ATOM     38  C   UNL A   1      39.900  28.811  27.321  1.00  0.00     0.010 A 
ATOM     39  C   UNL A   1      39.989  28.055  28.474  1.00  0.00    -0.014 A 
BRANCH  39  40
ATOM     40  C   UNL A   1      41.318  27.523  28.645  1.00  0.00     0.031 A 
ATOM     41  C   UNL A   1      41.574  26.182  28.158  1.00  0.00     0.074 A 
ATOM     42  C   UNL A   1      42.275  28.405  29.007  1.00  0.00     0.049 A 
ATOM     43  N   UNL A   1      42.404  25.366  28.695  1.00  0.00    -0.248 NA
ATOM     44  C   UNL A   1      40.838  25.635  27.022  1.00  0.00     0.031 C 
ATOM     45  C   UNL A   1      43.718  28.318  28.905  1.00  0.00     0.029 A 
ATOM     46  N   UNL A   1      42.064  29.631  29.648  1.00  0.00    -0.354 N 
ATOM     47  C   UNL A   1      42.611  24.397  27.741  1.00  0.00     0.074 A 
ATOM     48  C   UNL A   1      41.459  24.465  26.869  1.00  0.00     0.031 C 
ATOM     49  C   UNL A   1      44.257  29.261  29.704  1.00  0.00     0.029 A 
ATOM     50  C   UNL A   1      43.172  29.878  30.459  1.00  0.00     0.049 A 
ATOM     51  H   UNL A   1      41.275  30.213  29.546  1.00  0.00     0.167 HD
ATOM     52  C   UNL A   1      43.862  23.869  27.609  1.00  0.00     0.034 A 
ATOM     53  C   UNL A   1      43.029  29.905  31.820  1.00  0.00     0.034 A 
ATOM     54  C   UNL A   1      44.790  24.499  28.577  1.00  0.00     0.049 A 
ATOM     55  C   UNL A   1      43.620  28.649  32.448  1.00  0.00     0.074 A 
ATOM     56  C   UNL A   1      45.799  25.442  28.452  1.00  0.00     0.029 A 
ATOM     57  N   UNL A   1      44.492  24.465  29.935  1.00  0.00    -0.354 N 
ATOM     58  N   UNL A   1      44.303  27.748  31.795  1.00  0.00    -0.248 NA
ATOM     59  C   UNL A   1      43.384  28.263  33.837  1.00  0.00     0.031 C 
ATOM     60  C   UNL A   1      46.077  25.987  29.745  1.00  0.00     0.029 A 
ATOM     61  C   UNL A   1      45.256  25.367  30.667  1.00  0.00     0.049 A 
ATOM     62  H   UNL A   1      43.817  23.869  30.333  1.00  0.00     0.167 HD
ATOM     63  C   UNL A   1      44.475  26.638  32.577  1.00  0.00     0.074 A 
ATOM     64  C   UNL A   1      43.894  27.020  33.855  1.00  0.00     0.031 C 
ATOM     65  C   UNL A   1      45.027  25.475  32.111  1.00  0.00     0.034 A 
BRANCH  52  66
ATOM     66  C   UNL A   1      44.296  23.062  26.392  1.00  0.00     0.023 A 
ATOM     67  C   UNL A   1      44.149  21.660  26.266  1.00  0.00     0.031 A 
ATOM     68  C   UNL A   1      44.868  23.698  25.273  1.00  0.00     0.131 A 
ATOM     69  C   UNL A   1      44.435  20.979  25.066  1.00  0.00     0.055 A 
ATOM     70  C   UNL A   1      45.201  23.015  24.094  1.00  0.00     0.041 A 
ATOM     71  F   UNL A   1      45.119  25.014  25.261  1.00  0.00    -0.206 F 
ATOM     72  C   UNL A   1      44.963  21.654  23.975  1.00  0.00     0.022 A 
BRANCH  69  73
ATOM     73  S   UNL A   1      44.062  19.207  24.875  1.00  0.00     0.124 S 
ATOM     74  O   UNL A   1      44.962  18.592  25.850  1.00  0.00    -0.237 OA
ATOM     75  O   UNL A   1      42.644  19.148  25.214  1.00  0.00    -0.237 OA
ATOM     76  O   UNL A   1      44.389  18.928  23.480  1.00  0.00    -0.744 OA
ENDBRANCH  69  73
ENDBRANCH  52  66
BRANCH  53  77
ATOM     77  C   UNL A   1      41.730  30.542  32.234  1.00  0.00     0.023 A 
ATOM     78  C   UNL A   1      40.660  29.764  32.701  1.00  0.00     0.031 A 
ATOM     79  C   UNL A   1      41.435  31.820  31.703  1.00  0.00     0.131 A 
ATOM     80  C   UNL A   1      39.342  30.197  32.475  1.00  0.00     0.055 A 
ATOM     81  C   UNL A   1      40.124  32.216  31.429  1.00  0.00     0.041 A 
ATOM     82  F   UNL A   1      42.427  32.629  31.295  1.00  0.00    -0.206 F 
ATOM     83  C   UNL A   1      39.070  31.376  31.773  1.00  0.00     0.022 A 
BRANCH  80  84
ATOM     84  S   UNL A   1      37.967  29.126  32.981  1.00  0.00     0.124 S 
ATOM     85  O   UNL A   1      37.729  29.602  34.347  1.00  0.00    -0.237 OA
ATOM     86  O   UNL A   1      36.918  29.476  32.019  1.00  0.00    -0.237 OA
ATOM     87  O   UNL A   1      38.514  27.798  32.851  1.00  0.00    -0.744 OA
ENDBRANCH  80  84
ENDBRANCH  53  77
BRANCH  65  88
ATOM     88  C   UNL A   1      45.363  24.293  32.994  1.00  0.00     0.023 A 
ATOM     89  C   UNL A   1      46.547  24.306  33.766  1.00  0.00     0.031 A 
ATOM     90  C   UNL A   1      44.496  23.214  33.230  1.00  0.00     0.131 A 
ATOM     91  C   UNL A   1      46.868  23.266  34.643  1.00  0.00     0.055 A 
ATOM     92  C   UNL A   1      44.842  22.141  34.059  1.00  0.00     0.041 A 
ATOM     93  F   UNL A   1      43.250  23.192  32.732  1.00  0.00    -0.206 F 
ATOM     94  C   UNL A   1      46.038  22.158  34.765  1.00  0.00     0.022 A 
BRANCH  91  95
ATOM     95  S   UNL A   1      48.318  23.383  35.723  1.00  0.00     0.124 S 
ATOM     96  O   UNL A   1      48.013  24.582  36.502  1.00  0.00    -0.237 OA
ATOM     97  O   UNL A   1      48.248  22.124  36.459  1.00  0.00    -0.237 OA
ATOM     98  O   UNL A   1      49.439  23.510  34.799  1.00  0.00    -0.744 OA
ENDBRANCH  91  95
ENDBRANCH  65  88
ENDBRANCH  39  40
ENDBRANCH  31  34
ENDBRANCH  29  30
ENDBRANCH  28  29
ENDBRANCH  27  28
ENDBRANCH   1  27
TORSDOF 19
ENDMDL
MODEL 2
REMARK VINA RESULT:     -12.7      1.560      1.948
REMARK SMILES Cc1ccc([C@H](C)Nc2ccc(C(=O)NCCCCCCNC(=O)c3ccc(-c4c5nc(c(-c6cc(S(=O)(=O)[O-])ccc6F)c6ccc([nH]6)c(-c6cc(S(=O)(=O)[O-])ccc6F)c6nc(c(-c7cc(S(=O)(=O)[O-])ccc7F)c7ccc4[nH]7)C=C6)C=C5)cc3)cc2Cl)cc1F
REMARK SMILES IDX 18 1 17 2 16 3 15 4 13 5 14 6 12 8 9 9 10 10 89 11 11 12
REMARK SMILES IDX 88 13 90 14 8 15 6 17 7 18 5 19 1 20 2 21 3 22 92 23 4 24
REMARK SMILES IDX 91 25 93 26 19 27 20 28 21 29 22 30 23 31 24 33 25 34 26 35
REMARK SMILES IDX 87 36 27 37 86 38 28 39 29 40 30 41 80 42 31 43 85 44 79 45
REMARK SMILES IDX 81 46 32 47 84 48 78 49 77 50 33 52 65 53 45 54 64 55 46 56
REMARK SMILES IDX 49 57 63 58 82 59 47 60 48 61 62 63 83 64 50 65 34 66 35 67
REMARK SMILES IDX 43 68 36 69 42 70 44 71 41 72 37 73 38 74 39 75 40 76 66 77
REMARK SMILES IDX 67 78 75 79 68 80 74 81 76 82 73 83 69 84 70 85 71 86 72 87
REMARK SMILES IDX 51 88 52 89 60 90 53 91 59 92 61 93 58 94 54 95 55 96 56 97
REMARK SMILES IDX 57 98
REMARK H PARENT 15 7 8 16 22 32 81 51 49 62
REMARK Flexibility Score: inf
ROOT
ATOM      1  C   UNL A   1      33.088  28.197  25.294  1.00  0.00     0.002 C 
ENDROOT
BRANCH   1   2
ATOM      2  C   UNL A   1      32.747  29.320  24.308  1.00  0.00     0.021 C 
BRANCH   2   3
ATOM      3  C   UNL A   1      31.396  29.962  24.630  1.00  0.00     0.116 C 
BRANCH   3   4
ATOM      4  N   UNL A   1      30.610  30.065  23.422  1.00  0.00    -0.352 N 
ATOM      5  C   UNL A   1      30.130  29.131  22.548  1.00  0.00     0.251 C 
ATOM      6  O   UNL A   1      29.506  29.534  21.567  1.00  0.00    -0.269 OA
ATOM      7  H   UNL A   1      30.373  30.990  23.182  1.00  0.00     0.163 HD
BRANCH   5   8
ATOM      8  C   UNL A   1      30.252  27.666  22.782  1.00  0.00     0.041 A 
ATOM      9  C   UNL A   1      30.569  24.935  23.537  1.00  0.00     0.053 A 
ATOM     10  C   UNL A   1      29.551  25.746  24.077  1.00  0.00     0.028 A 
ATOM     11  C   UNL A   1      31.436  25.552  22.623  1.00  0.00     0.065 A 
ATOM     12  C   UNL A   1      29.422  27.097  23.744  1.00  0.00     0.016 A 
ATOM     13  C   UNL A   1      31.175  26.842  22.152  1.00  0.00     0.036 A 
ATOM     14  Cl  UNL A   1      32.895  24.866  21.992  1.00  0.00    -0.082 Cl
BRANCH   9  15
ATOM     15  N   UNL A   1      30.600  23.631  23.984  1.00  0.00    -0.377 N 
ATOM     16  H   UNL A   1      29.895  23.042  23.628  1.00  0.00     0.161 HD
BRANCH  15  17
ATOM     17  C   UNL A   1      31.533  23.005  24.911  1.00  0.00     0.106 C 
ATOM     18  C   UNL A   1      30.805  22.956  26.269  1.00  0.00     0.036 C 
BRANCH  17  19
ATOM     19  C   UNL A   1      32.028  21.678  24.336  1.00  0.00    -0.023 A 
ATOM     20  C   UNL A   1      32.709  17.613  22.959  1.00  0.00     0.047 C 
ATOM     21  C   UNL A   1      32.540  19.031  23.408  1.00  0.00    -0.015 A 
ATOM     22  C   UNL A   1      32.327  20.079  22.508  1.00  0.00     0.007 A 
ATOM     23  C   UNL A   1      32.543  19.325  24.764  1.00  0.00     0.126 A 
ATOM     24  C   UNL A   1      32.070  21.383  22.966  1.00  0.00     0.006 A 
ATOM     25  C   UNL A   1      32.327  20.621  25.217  1.00  0.00     0.045 A 
ATOM     26  F   UNL A   1      32.732  18.351  25.665  1.00  0.00    -0.207 F 
ENDBRANCH  17  19
ENDBRANCH  15  17
ENDBRANCH   9  15
ENDBRANCH   5   8
ENDBRANCH   3   4
ENDBRANCH   2   3
ENDBRANCH   1   2
BRANCH   1  27
ATOM     27  C   UNL A   1      32.631  28.463  26.744  1.00  0.00     0.002 C 
BRANCH  27  28
ATOM     28  C   UNL A   1      33.635  29.230  27.619  1.00  0.00     0.021 C 
BRANCH  28  29
ATOM     29  C   UNL A   1      35.024  29.095  27.061  1.00  0.00     0.116 C 
BRANCH  29  30
ATOM     30  N   UNL A   1      35.751  30.337  27.217  1.00  0.00    -0.352 N 
ATOM     31  C   UNL A   1      36.686  30.545  28.202  1.00  0.00     0.251 C 
ATOM     32  H   UNL A   1      35.566  31.070  26.585  1.00  0.00     0.163 HD
ATOM     33  O   UNL A   1      36.600  31.565  28.887  1.00  0.00    -0.269 OA
BRANCH  31  34
ATOM     34  C   UNL A   1      37.752  29.534  28.372  1.00  0.00     0.039 A 
ATOM     35  C   UNL A   1      37.752  28.660  29.462  1.00  0.00     0.014 A 
ATOM     36  C   UNL A   1      38.843  29.545  27.506  1.00  0.00     0.014 A 
ATOM     37  C   UNL A   1      38.896  27.911  29.731  1.00  0.00     0.010 A 
ATOM     38  C   UNL A   1      39.857  28.660  27.629  1.00  0.00     0.010 A 
ATOM     39  C   UNL A   1      39.952  27.974  28.824  1.00  0.00    -0.014 A 
BRANCH  39  40
ATOM     40  C   UNL A   1      41.270  27.416  28.999  1.00  0.00     0.031 A 
ATOM     41  C   UNL A   1      41.521  26.096  28.456  1.00  0.00     0.074 A 
ATOM     42  C   UNL A   1      42.229  28.269  29.423  1.00  0.00     0.049 A 
ATOM     43  N   UNL A   1      42.328  25.245  28.973  1.00  0.00    -0.248 NA
ATOM     44  C   UNL A   1      40.805  25.613  27.280  1.00  0.00     0.031 C 
ATOM     45  C   UNL A   1      43.673  28.167  29.350  1.00  0.00     0.029 A 
ATOM     46  N   UNL A   1      42.018  29.465  30.116  1.00  0.00    -0.354 N 
ATOM     47  C   UNL A   1      42.546  24.319  27.979  1.00  0.00     0.074 A 
ATOM     48  C   UNL A   1      41.415  24.443  27.086  1.00  0.00     0.031 C 
ATOM     49  C   UNL A   1      44.204  29.065  30.204  1.00  0.00     0.029 A 
ATOM     50  C   UNL A   1      43.111  29.660  30.963  1.00  0.00     0.049 A 
ATOM     51  H   UNL A   1      41.239  30.062  30.024  1.00  0.00     0.167 HD
ATOM     52  C   UNL A   1      43.793  23.782  27.850  1.00  0.00     0.034 A 
ATOM     53  C   UNL A   1      42.937  29.625  32.320  1.00  0.00     0.034 A 
ATOM     54  C   UNL A   1      44.706  24.353  28.867  1.00  0.00     0.049 A 
ATOM     55  C   UNL A   1      43.498  28.334  32.901  1.00  0.00     0.074 A 
ATOM     56  C   UNL A   1      45.729  25.288  28.810  1.00  0.00     0.029 A 
ATOM     57  N   UNL A   1      44.376  24.260  30.215  1.00  0.00    -0.354 N 
ATOM     58  N   UNL A   1      44.184  27.455  32.222  1.00  0.00    -0.248 NA
ATOM     59  C   UNL A   1      43.225  27.887  34.266  1.00  0.00     0.031 C 
ATOM     60  C   UNL A   1      45.984  25.769  30.132  1.00  0.00     0.029 A 
ATOM     61  C   UNL A   1      45.134  25.117  31.005  1.00  0.00     0.049 A 
ATOM     62  H   UNL A   1      43.685  23.655  30.570  1.00  0.00     0.167 HD
ATOM     63  C   UNL A   1      44.325  26.308  32.955  1.00  0.00     0.074 A 
ATOM     64  C   UNL A   1      43.720  26.638  34.237  1.00  0.00     0.031 C 
ATOM     65  C   UNL A   1      44.874  25.161  32.447  1.00  0.00     0.034 A 
BRANCH  52  66
ATOM     66  C   UNL A   1      44.245  23.026  26.608  1.00  0.00     0.023 A 
ATOM     67  C   UNL A   1      44.105  21.630  26.422  1.00  0.00     0.031 A 
ATOM     68  C   UNL A   1      44.827  23.710  25.522  1.00  0.00     0.131 A 
ATOM     69  C   UNL A   1      44.408  20.999  25.199  1.00  0.00     0.055 A 
ATOM     70  C   UNL A   1      45.177  23.076  24.320  1.00  0.00     0.041 A 
ATOM     71  F   UNL A   1      45.074  25.026  25.567  1.00  0.00    -0.206 F 
ATOM     72  C   UNL A   1      44.946  21.720  24.143  1.00  0.00     0.022 A 
BRANCH  69  73
ATOM     73  S   UNL A   1      44.045  19.236  24.931  1.00  0.00     0.124 S 
ATOM     74  O   UNL A   1      42.602  19.176  25.160  1.00  0.00    -0.237 OA
ATOM     75  O   UNL A   1      44.463  19.038  23.547  1.00  0.00    -0.237 OA
ATOM     76  O   UNL A   1      44.853  18.554  25.938  1.00  0.00    -0.744 OA
ENDBRANCH  69  73
ENDBRANCH  52  66
BRANCH  53  77
ATOM     77  C   UNL A   1      41.637  30.260  32.734  1.00  0.00     0.023 A 
ATOM     78  C   UNL A   1      41.603  31.556  33.271  1.00  0.00     0.031 A 
ATOM     79  C   UNL A   1      40.556  29.395  33.029  1.00  0.00     0.131 A 
ATOM     80  C   UNL A   1      40.607  31.891  34.204  1.00  0.00     0.055 A 
ATOM     81  C   UNL A   1      39.604  29.715  34.000  1.00  0.00     0.041 A 
ATOM     82  F   UNL A   1      40.509  28.164  32.493  1.00  0.00    -0.206 F 
ATOM     83  C   UNL A   1      39.659  30.954  34.628  1.00  0.00     0.022 A 
BRANCH  80  84
ATOM     84  S   UNL A   1      40.645  33.533  34.977  1.00  0.00     0.124 S 
ATOM     85  O   UNL A   1      40.331  33.194  36.368  1.00  0.00    -0.237 OA
ATOM     86  O   UNL A   1      42.027  33.962  34.748  1.00  0.00    -0.237 OA
ATOM     87  O   UNL A   1      39.636  34.266  34.252  1.00  0.00    -0.744 OA
ENDBRANCH  80  84
ENDBRANCH  53  77
BRANCH  65  88
ATOM     88  C   UNL A   1      45.176  23.935  33.282  1.00  0.00     0.023 A 
ATOM     89  C   UNL A   1      46.479  23.731  33.786  1.00  0.00     0.031 A 
ATOM     90  C   UNL A   1      44.201  23.030  33.733  1.00  0.00     0.131 A 
ATOM     91  C   UNL A   1      46.790  22.648  34.614  1.00  0.00     0.055 A 
ATOM     92  C   UNL A   1      44.520  21.909  34.508  1.00  0.00     0.041 A 
ATOM     93  F   UNL A   1      42.894  23.235  33.508  1.00  0.00    -0.206 F 
ATOM     94  C   UNL A   1      45.822  21.708  34.946  1.00  0.00     0.022 A 
BRANCH  91  95
ATOM     95  S   UNL A   1      48.435  22.498  35.360  1.00  0.00     0.124 S 
ATOM     96  O   UNL A   1      48.756  21.096  35.090  1.00  0.00    -0.237 OA
ATOM     97  O   UNL A   1      49.204  23.474  34.593  1.00  0.00    -0.237 OA
ATOM     98  O   UNL A   1      48.219  22.828  36.763  1.00  0.00    -0.744 OA
ENDBRANCH  91  95
ENDBRANCH  65  88
ENDBRANCH  39  40
ENDBRANCH  31  34
ENDBRANCH  29  30
ENDBRANCH  28  29
ENDBRANCH  27  28
ENDBRANCH   1  27
TORSDOF 19
ENDMDL
MODEL 3
REMARK VINA RESULT:     -12.5      4.739     10.628
REMARK SMILES Cc1ccc([C@H](C)Nc2ccc(C(=O)NCCCCCCNC(=O)c3ccc(-c4c5nc(c(-c6cc(S(=O)(=O)[O-])ccc6F)c6ccc([nH]6)c(-c6cc(S(=O)(=O)[O-])ccc6F)c6nc(c(-c7cc(S(=O)(=O)[O-])ccc7F)c7ccc4[nH]7)C=C6)C=C5)cc3)cc2Cl)cc1F
REMARK SMILES IDX 18 1 17 2 16 3 15 4 13 5 14 6 12 8 9 9 10 10 89 11 11 12
REMARK SMILES IDX 88 13 90 14 8 15 6 17 7 18 5 19 1 20 2 21 3 22 92 23 4 24
REMARK SMILES IDX 91 25 93 26 19 27 20 28 21 29 22 30 23 31 24 33 25 34 26 35
REMARK SMILES IDX 87 36 27 37 86 38 28 39 29 40 30 41 80 42 31 43 85 44 79 45
REMARK SMILES IDX 81 46 32 47 84 48 78 49 77 50 33 52 65 53 45 54 64 55 46 56
REMARK SMILES IDX 49 57 63 58 82 59 47 60 48 61 62 63 83 64 50 65 34 66 35 67
REMARK SMILES IDX 43 68 36 69 42 70 44 71 41 72 37 73 38 74 39 75 40 76 66 77
REMARK SMILES IDX 67 78 75 79 68 80 74 81 76 82 73 83 69 84 70 85 71 86 72 87
REMARK SMILES IDX 51 88 52 89 60 90 53 91 59 92 61 93 58 94 54 95 55 96 56 97
REMARK SMILES IDX 57 98
REMARK H PARENT 15 7 8 16 22 32 81 51 49 62
REMARK Flexibility Score: inf
ROOT
ATOM      1  C   UNL A   1      36.336  22.125  24.017  1.00  0.00     0.002 C 
ENDROOT
BRANCH   1   2
ATOM      2  C   UNL A   1      36.302  20.919  24.961  1.00  0.00     0.021 C 
BRANCH   2   3
ATOM      3  C   UNL A   1      34.926  20.747  25.607  1.00  0.00     0.116 C 
BRANCH   3   4
ATOM      4  N   UNL A   1      34.072  19.979  24.730  1.00  0.00    -0.352 N 
ATOM      5  C   UNL A   1      32.907  20.276  24.081  1.00  0.00     0.251 C 
ATOM      6  O   UNL A   1      32.381  19.384  23.415  1.00  0.00    -0.269 OA
ATOM      7  H   UNL A   1      34.393  19.062  24.568  1.00  0.00     0.163 HD
BRANCH   5   8
ATOM      8  C   UNL A   1      32.310  21.639  24.074  1.00  0.00     0.041 A 
ATOM      9  C   UNL A   1      31.470  24.364  24.095  1.00  0.00     0.053 A 
ATOM     10  C   UNL A   1      32.255  23.833  23.054  1.00  0.00     0.028 A 
ATOM     11  C   UNL A   1      31.141  23.484  25.137  1.00  0.00     0.065 A 
ATOM     12  C   UNL A   1      32.708  22.510  23.063  1.00  0.00     0.016 A 
ATOM     13  C   UNL A   1      31.432  22.120  25.036  1.00  0.00     0.036 A 
ATOM     14  Cl  UNL A   1      30.395  23.923  26.635  1.00  0.00    -0.082 Cl
BRANCH   9  15
ATOM     15  N   UNL A   1      31.127  25.694  23.973  1.00  0.00    -0.377 N 
ATOM     16  H   UNL A   1      30.310  25.968  24.448  1.00  0.00     0.161 HD
BRANCH  15  17
ATOM     17  C   UNL A   1      31.810  26.749  23.236  1.00  0.00     0.106 C 
ATOM     18  C   UNL A   1      30.753  27.349  22.287  1.00  0.00     0.036 C 
BRANCH  17  19
ATOM     19  C   UNL A   1      32.497  27.705  24.210  1.00  0.00    -0.023 A 
ATOM     20  C   UNL A   1      33.786  30.298  27.450  1.00  0.00     0.047 C 
ATOM     21  C   UNL A   1      33.403  29.421  26.299  1.00  0.00    -0.015 A 
ATOM     22  C   UNL A   1      34.035  28.200  26.049  1.00  0.00     0.007 A 
ATOM     23  C   UNL A   1      32.354  29.796  25.472  1.00  0.00     0.126 A 
ATOM     24  C   UNL A   1      33.584  27.352  25.022  1.00  0.00     0.006 A 
ATOM     25  C   UNL A   1      31.933  28.976  24.432  1.00  0.00     0.045 A 
ATOM     26  F   UNL A   1      31.712  30.954  25.680  1.00  0.00    -0.207 F 
ENDBRANCH  17  19
ENDBRANCH  15  17
ENDBRANCH   9  15
ENDBRANCH   5   8
ENDBRANCH   3   4
ENDBRANCH   2   3
ENDBRANCH   1   2
BRANCH   1  27
ATOM     27  C   UNL A   1      35.919  23.459  24.674  1.00  0.00     0.002 C 
BRANCH  27  28
ATOM     28  C   UNL A   1      36.438  23.678  26.104  1.00  0.00     0.021 C 
BRANCH  28  29
ATOM     29  C   UNL A   1      37.841  24.212  26.076  1.00  0.00     0.116 C 
BRANCH  29  30
ATOM     30  N   UNL A   1      38.601  23.690  27.191  1.00  0.00    -0.352 N 
ATOM     31  C   UNL A   1      39.674  24.345  27.745  1.00  0.00     0.251 C 
ATOM     32  H   UNL A   1      38.336  22.822  27.572  1.00  0.00     0.163 HD
ATOM     33  O   UNL A   1      40.722  23.718  27.913  1.00  0.00    -0.269 OA
BRANCH  31  34
ATOM     34  C   UNL A   1      39.503  25.766  28.120  1.00  0.00     0.039 A 
ATOM     35  C   UNL A   1      39.736  26.790  27.199  1.00  0.00     0.014 A 
ATOM     36  C   UNL A   1      39.237  26.090  29.449  1.00  0.00     0.014 A 
ATOM     37  C   UNL A   1      39.824  28.104  27.653  1.00  0.00     0.010 A 
ATOM     38  C   UNL A   1      39.093  27.372  29.852  1.00  0.00     0.010 A 
ATOM     39  C   UNL A   1      39.549  28.356  28.996  1.00  0.00    -0.014 A 
BRANCH  39  40
ATOM     40  C   UNL A   1      39.744  29.602  29.694  1.00  0.00     0.031 A 
ATOM     41  C   UNL A   1      38.666  30.570  29.659  1.00  0.00     0.074 A 
ATOM     42  C   UNL A   1      40.801  29.659  30.534  1.00  0.00     0.049 A 
ATOM     43  N   UNL A   1      38.836  31.840  29.678  1.00  0.00    -0.248 NA
ATOM     44  C   UNL A   1      37.274  30.149  29.538  1.00  0.00     0.031 C 
ATOM     45  C   UNL A   1      41.078  30.561  31.633  1.00  0.00     0.029 A 
ATOM     46  N   UNL A   1      41.943  28.853  30.475  1.00  0.00    -0.354 N 
ATOM     47  C   UNL A   1      37.603  32.355  30.003  1.00  0.00     0.074 A 
ATOM     48  C   UNL A   1      36.652  31.324  29.653  1.00  0.00     0.031 C 
ATOM     49  C   UNL A   1      42.387  30.465  31.941  1.00  0.00     0.029 A 
ATOM     50  C   UNL A   1      43.018  29.610  30.942  1.00  0.00     0.049 A 
ATOM     51  H   UNL A   1      41.981  27.920  30.159  1.00  0.00     0.167 HD
ATOM     52  C   UNL A   1      37.547  33.452  30.813  1.00  0.00     0.034 A 
ATOM     53  C   UNL A   1      44.034  29.951  30.091  1.00  0.00     0.034 A 
ATOM     54  C   UNL A   1      38.913  33.874  31.201  1.00  0.00     0.049 A 
ATOM     55  C   UNL A   1      43.952  31.426  29.719  1.00  0.00     0.074 A 
ATOM     56  C   UNL A   1      39.648  33.759  32.372  1.00  0.00     0.029 A 
ATOM     57  N   UNL A   1      39.848  34.164  30.213  1.00  0.00    -0.354 N 
ATOM     58  N   UNL A   1      43.121  32.278  30.256  1.00  0.00    -0.248 NA
ATOM     59  C   UNL A   1      44.724  32.019  28.629  1.00  0.00     0.031 C 
ATOM     60  C   UNL A   1      41.031  33.955  32.064  1.00  0.00     0.029 A 
ATOM     61  C   UNL A   1      41.145  34.212  30.711  1.00  0.00     0.049 A 
ATOM     62  H   UNL A   1      39.617  34.319  29.269  1.00  0.00     0.167 HD
ATOM     63  C   UNL A   1      43.124  33.444  29.540  1.00  0.00     0.074 A 
ATOM     64  C   UNL A   1      44.160  33.236  28.540  1.00  0.00     0.031 C 
ATOM     65  C   UNL A   1      42.248  34.469  29.779  1.00  0.00     0.034 A 
BRANCH  52  66
ATOM     66  C   UNL A   1      36.270  33.900  31.512  1.00  0.00     0.023 A 
ATOM     67  C   UNL A   1      35.310  34.772  30.946  1.00  0.00     0.031 A 
ATOM     68  C   UNL A   1      35.953  33.432  32.803  1.00  0.00     0.131 A 
ATOM     69  C   UNL A   1      34.078  35.045  31.575  1.00  0.00     0.055 A 
ATOM     70  C   UNL A   1      34.750  33.742  33.453  1.00  0.00     0.041 A 
ATOM     71  F   UNL A   1      36.788  32.641  33.490  1.00  0.00    -0.206 F 
ATOM     72  C   UNL A   1      33.794  34.531  32.831  1.00  0.00     0.022 A 
BRANCH  69  73
ATOM     73  S   UNL A   1      32.789  36.021  30.740  1.00  0.00     0.124 S 
ATOM     74  O   UNL A   1      31.637  35.836  31.622  1.00  0.00    -0.237 OA
ATOM     75  O   UNL A   1      33.362  37.363  30.741  1.00  0.00    -0.237 OA
ATOM     76  O   UNL A   1      32.662  35.390  29.430  1.00  0.00    -0.744 OA
ENDBRANCH  69  73
ENDBRANCH  52  66
BRANCH  53  77
ATOM     77  C   UNL A   1      44.355  28.839  29.130  1.00  0.00     0.023 A 
ATOM     78  C   UNL A   1      43.950  28.904  27.788  1.00  0.00     0.031 A 
ATOM     79  C   UNL A   1      44.620  27.561  29.678  1.00  0.00     0.131 A 
ATOM     80  C   UNL A   1      43.660  27.715  27.096  1.00  0.00     0.055 A 
ATOM     81  C   UNL A   1      44.275  26.388  29.004  1.00  0.00     0.041 A 
ATOM     82  F   UNL A   1      45.067  27.446  30.940  1.00  0.00    -0.206 F 
ATOM     83  C   UNL A   1      43.745  26.467  27.721  1.00  0.00     0.022 A 
BRANCH  80  84
ATOM     84  S   UNL A   1      43.026  27.819  25.398  1.00  0.00     0.124 S 
ATOM     85  O   UNL A   1      44.276  27.833  24.633  1.00  0.00    -0.237 OA
ATOM     86  O   UNL A   1      42.245  26.586  25.273  1.00  0.00    -0.237 OA
ATOM     87  O   UNL A   1      42.263  29.043  25.403  1.00  0.00    -0.744 OA
ENDBRANCH  80  84
ENDBRANCH  53  77
BRANCH  65  88
ATOM     88  C   UNL A   1      42.332  35.820  29.103  1.00  0.00     0.023 A 
ATOM     89  C   UNL A   1      43.068  36.864  29.707  1.00  0.00     0.031 A 
ATOM     90  C   UNL A   1      41.848  36.086  27.812  1.00  0.00     0.131 A 
ATOM     91  C   UNL A   1      43.227  38.108  29.090  1.00  0.00     0.055 A 
ATOM     92  C   UNL A   1      41.949  37.349  27.218  1.00  0.00     0.041 A 
ATOM     93  F   UNL A   1      41.326  35.117  27.044  1.00  0.00    -0.206 F 
ATOM     94  C   UNL A   1      42.634  38.372  27.861  1.00  0.00     0.022 A 
BRANCH  91  95
ATOM     95  S   UNL A   1      44.295  39.374  29.825  1.00  0.00     0.124 S 
ATOM     96  O   UNL A   1      43.349  40.113  30.660  1.00  0.00    -0.237 OA
ATOM     97  O   UNL A   1      45.269  38.563  30.550  1.00  0.00    -0.237 OA
ATOM     98  O   UNL A   1      44.817  40.107  28.678  1.00  0.00    -0.744 OA
ENDBRANCH  91  95
ENDBRANCH  65  88
ENDBRANCH  39  40
ENDBRANCH  31  34
ENDBRANCH  29  30
ENDBRANCH  28  29
ENDBRANCH  27  28
ENDBRANCH   1  27
TORSDOF 19
ENDMDL
