MODEL 1
REMARK VINA RESULT:     -11.4      0.000      0.000
REMARK SMILES C[C@H](Nc1ccc2c(c1)OCCO2)[C@H](C)C(=O)NCCCCCCNC(=O)c1ccc(-c2c3nc(c(-c4cc(S(=O)(=O)[O-])ccc4F)c4ccc([nH]4)c(-c4cc(S(=O)(=O)[O-])ccc4F)c4nc(c(-c5cc(S(=O)(=O)[O-])ccc5F)c5ccc2[nH]5)C=C4)C=C3)cc1
REMARK SMILES IDX 21 1 20 2 19 3 18 4 16 5 17 6 14 8 15 9 2 10 1 11 3 12 4 14
REMARK SMILES IDX 5 15 9 16 6 17 8 18 7 19 10 20 13 21 11 22 12 23 22 24 23 25
REMARK SMILES IDX 24 26 25 27 26 28 27 30 28 31 29 32 90 33 30 34 89 35 31 36
REMARK SMILES IDX 32 37 33 38 83 39 34 40 88 41 82 42 84 43 35 44 87 45 81 46
REMARK SMILES IDX 80 47 36 49 68 50 48 51 67 52 49 53 52 54 66 55 85 56 50 57
REMARK SMILES IDX 51 58 65 60 86 61 53 62 37 63 38 64 46 65 39 66 45 67 47 68
REMARK SMILES IDX 44 69 40 70 41 71 42 72 43 73 69 74 70 75 78 76 71 77 77 78
REMARK SMILES IDX 79 79 76 80 72 81 73 82 74 83 75 84 54 85 55 86 63 87 56 88
REMARK SMILES IDX 62 89 64 90 61 91 57 92 58 93 59 94 60 95
REMARK H PARENT 18 7 3 13 25 29 84 48 52 59
REMARK Flexibility Score: inf
ROOT
ATOM      1  C   UNL A   1      35.138  23.381  23.860  1.00  0.00     0.002 C 
ENDROOT
BRANCH   1   2
ATOM      2  C   UNL A   1      34.987  24.461  24.936  1.00  0.00     0.021 C 
BRANCH   2   3
ATOM      3  C   UNL A   1      34.247  25.706  24.470  1.00  0.00     0.116 C 
BRANCH   3   4
ATOM      4  N   UNL A   1      34.034  25.711  23.038  1.00  0.00    -0.356 N 
ATOM      5  C   UNL A   1      33.194  26.473  22.294  1.00  0.00     0.224 C 
ATOM      6  O   UNL A   1      33.236  26.336  21.067  1.00  0.00    -0.275 OA
ATOM      7  H   UNL A   1      34.581  25.069  22.530  1.00  0.00     0.163 HD
BRANCH   5   8
ATOM      8  C   UNL A   1      32.202  27.452  22.920  1.00  0.00     0.097 C 
ATOM      9  C   UNL A   1      32.740  28.886  22.861  1.00  0.00     0.020 C 
BRANCH   8  10
ATOM     10  C   UNL A   1      30.694  27.240  22.565  1.00  0.00     0.088 C 
ATOM     11  C   UNL A   1      29.910  28.545  22.421  1.00  0.00     0.031 C 
BRANCH  10  12
ATOM     12  N   UNL A   1      30.070  26.205  23.403  1.00  0.00    -0.382 N 
ATOM     13  H   UNL A   1      29.088  26.245  23.443  1.00  0.00     0.160 HD
BRANCH  12  14
ATOM     14  C   UNL A   1      30.634  25.188  24.142  1.00  0.00     0.038 A 
ATOM     15  C   UNL A   1      30.776  25.380  25.526  1.00  0.00     0.030 A 
ATOM     16  C   UNL A   1      31.052  23.968  23.610  1.00  0.00     0.076 A 
ATOM     17  C   UNL A   1      31.277  24.378  26.358  1.00  0.00     0.052 A 
ATOM     18  C   UNL A   1      31.566  22.960  24.433  1.00  0.00     0.163 A 
ATOM     19  C   UNL A   1      31.682  23.169  25.808  1.00  0.00     0.161 A 
ATOM     20  O   UNL A   1      31.951  21.795  23.818  1.00  0.00    -0.486 OA
ATOM     21  O   UNL A   1      32.178  22.234  26.675  1.00  0.00    -0.486 OA
ATOM     22  C   UNL A   1      32.167  20.740  24.766  1.00  0.00     0.271 C 
ATOM     23  C   UNL A   1      32.934  21.236  25.982  1.00  0.00     0.271 C 
ENDBRANCH  12  14
ENDBRANCH  10  12
ENDBRANCH   8  10
ENDBRANCH   5   8
ENDBRANCH   3   4
ENDBRANCH   2   3
ENDBRANCH   1   2
BRANCH   1  24
ATOM     24  C   UNL A   1      36.583  23.013  23.505  1.00  0.00     0.002 C 
BRANCH  24  25
ATOM     25  C   UNL A   1      37.031  21.617  23.948  1.00  0.00     0.021 C 
BRANCH  25  26
ATOM     26  C   UNL A   1      37.317  21.479  25.441  1.00  0.00     0.116 C 
BRANCH  26  27
ATOM     27  N   UNL A   1      38.317  20.461  25.718  1.00  0.00    -0.352 N 
ATOM     28  C   UNL A   1      39.593  20.607  26.206  1.00  0.00     0.251 C 
ATOM     29  H   UNL A   1      38.042  19.536  25.529  1.00  0.00     0.163 HD
ATOM     30  O   UNL A   1      40.366  19.653  26.195  1.00  0.00    -0.269 OA
BRANCH  28  31
ATOM     31  C   UNL A   1      40.032  21.923  26.713  1.00  0.00     0.039 A 
ATOM     32  C   UNL A   1      40.993  21.972  27.725  1.00  0.00     0.014 A 
ATOM     33  C   UNL A   1      39.516  23.104  26.171  1.00  0.00     0.014 A 
ATOM     34  C   UNL A   1      41.496  23.207  28.139  1.00  0.00     0.010 A 
ATOM     35  C   UNL A   1      40.067  24.329  26.537  1.00  0.00     0.010 A 
ATOM     36  C   UNL A   1      41.072  24.391  27.515  1.00  0.00    -0.014 A 
BRANCH  36  37
ATOM     37  C   UNL A   1      41.693  25.701  27.839  1.00  0.00     0.031 A 
ATOM     38  C   UNL A   1      40.906  26.754  28.568  1.00  0.00     0.074 A 
ATOM     39  C   UNL A   1      42.943  25.965  27.406  1.00  0.00     0.049 A 
ATOM     40  N   UNL A   1      41.237  27.987  28.848  1.00  0.00    -0.248 NA
ATOM     41  C   UNL A   1      39.558  26.374  29.016  1.00  0.00     0.031 C 
ATOM     42  C   UNL A   1      43.792  25.030  26.662  1.00  0.00     0.029 A 
ATOM     43  N   UNL A   1      43.712  27.096  27.511  1.00  0.00    -0.354 N 
ATOM     44  C   UNL A   1      40.138  28.538  29.498  1.00  0.00     0.074 A 
ATOM     45  C   UNL A   1      39.111  27.516  29.517  1.00  0.00     0.031 C 
ATOM     46  C   UNL A   1      44.968  25.619  26.396  1.00  0.00     0.029 A 
ATOM     47  C   UNL A   1      44.939  26.991  26.894  1.00  0.00     0.049 A 
ATOM     48  H   UNL A   1      43.415  27.908  27.982  1.00  0.00     0.167 HD
ATOM     49  C   UNL A   1      40.006  29.772  30.042  1.00  0.00     0.034 A 
ATOM     50  C   UNL A   1      45.919  27.901  26.728  1.00  0.00     0.034 A 
ATOM     51  C   UNL A   1      41.043  30.775  30.011  1.00  0.00     0.049 A 
ATOM     52  C   UNL A   1      45.725  29.288  27.291  1.00  0.00     0.074 A 
ATOM     53  C   UNL A   1      41.038  32.036  30.582  1.00  0.00     0.029 A 
ATOM     54  N   UNL A   1      42.264  30.641  29.362  1.00  0.00    -0.354 N 
ATOM     55  N   UNL A   1      44.700  29.775  27.952  1.00  0.00    -0.248 NA
ATOM     56  C   UNL A   1      46.820  30.246  27.089  1.00  0.00     0.031 C 
ATOM     57  C   UNL A   1      42.217  32.691  30.211  1.00  0.00     0.029 A 
ATOM     58  C   UNL A   1      42.999  31.811  29.479  1.00  0.00     0.049 A 
ATOM     59  H   UNL A   1      42.564  29.832  28.887  1.00  0.00     0.167 HD
ATOM     60  C   UNL A   1      45.039  31.089  28.264  1.00  0.00     0.074 A 
ATOM     61  C   UNL A   1      46.369  31.310  27.736  1.00  0.00     0.031 C 
ATOM     62  C   UNL A   1      44.317  32.025  28.931  1.00  0.00     0.034 A 
BRANCH  49  63
ATOM     63  C   UNL A   1      38.684  30.114  30.686  1.00  0.00     0.023 A 
ATOM     64  C   UNL A   1      37.678  30.808  29.987  1.00  0.00     0.031 A 
ATOM     65  C   UNL A   1      38.426  29.755  32.020  1.00  0.00     0.131 A 
ATOM     66  C   UNL A   1      36.498  31.183  30.647  1.00  0.00     0.055 A 
ATOM     67  C   UNL A   1      37.215  30.058  32.646  1.00  0.00     0.041 A 
ATOM     68  F   UNL A   1      39.354  29.110  32.746  1.00  0.00    -0.206 F 
ATOM     69  C   UNL A   1      36.248  30.790  31.963  1.00  0.00     0.022 A 
BRANCH  66  70
ATOM     70  S   UNL A   1      35.359  32.314  29.804  1.00  0.00     0.124 S 
ATOM     71  O   UNL A   1      34.881  31.485  28.701  1.00  0.00    -0.237 OA
ATOM     72  O   UNL A   1      34.384  32.615  30.846  1.00  0.00    -0.237 OA
ATOM     73  O   UNL A   1      36.215  33.431  29.409  1.00  0.00    -0.744 OA
ENDBRANCH  66  70
ENDBRANCH  49  63
BRANCH  50  74
ATOM     74  C   UNL A   1      47.158  27.550  25.976  1.00  0.00     0.023 A 
ATOM     75  C   UNL A   1      47.276  27.834  24.606  1.00  0.00     0.031 A 
ATOM     76  C   UNL A   1      48.229  26.888  26.605  1.00  0.00     0.131 A 
ATOM     77  C   UNL A   1      48.414  27.415  23.900  1.00  0.00     0.055 A 
ATOM     78  C   UNL A   1      49.383  26.524  25.910  1.00  0.00     0.041 A 
ATOM     79  F   UNL A   1      48.176  26.597  27.914  1.00  0.00    -0.206 F 
ATOM     80  C   UNL A   1      49.475  26.775  24.545  1.00  0.00     0.022 A 
BRANCH  77  81
ATOM     81  S   UNL A   1      48.449  27.638  22.100  1.00  0.00     0.124 S 
ATOM     82  O   UNL A   1      48.647  26.270  21.637  1.00  0.00    -0.237 OA
ATOM     83  O   UNL A   1      47.137  28.222  21.843  1.00  0.00    -0.237 OA
ATOM     84  O   UNL A   1      49.581  28.540  21.893  1.00  0.00    -0.744 OA
ENDBRANCH  77  81
ENDBRANCH  50  74
BRANCH  62  85
ATOM     85  C   UNL A   1      44.971  33.368  29.151  1.00  0.00     0.023 A 
ATOM     86  C   UNL A   1      44.770  34.441  28.265  1.00  0.00     0.031 A 
ATOM     87  C   UNL A   1      45.799  33.578  30.269  1.00  0.00     0.131 A 
ATOM     88  C   UNL A   1      45.427  35.661  28.488  1.00  0.00     0.055 A 
ATOM     89  C   UNL A   1      46.400  34.812  30.517  1.00  0.00     0.041 A 
ATOM     90  F   UNL A   1      46.028  32.587  31.144  1.00  0.00    -0.206 F 
ATOM     91  C   UNL A   1      46.223  35.860  29.617  1.00  0.00     0.022 A 
BRANCH  88  92
ATOM     92  S   UNL A   1      45.287  36.967  27.236  1.00  0.00     0.124 S 
ATOM     93  O   UNL A   1      43.865  36.921  26.907  1.00  0.00    -0.237 OA
ATOM     94  O   UNL A   1      45.734  38.150  27.966  1.00  0.00    -0.237 OA
ATOM     95  O   UNL A   1      46.185  36.521  26.173  1.00  0.00    -0.744 OA
ENDBRANCH  88  92
ENDBRANCH  62  85
ENDBRANCH  36  37
ENDBRANCH  28  31
ENDBRANCH  26  27
ENDBRANCH  25  26
ENDBRANCH  24  25
ENDBRANCH   1  24
TORSDOF 19
ENDMDL
MODEL 2
REMARK VINA RESULT:     -11.3      5.613     10.797
REMARK SMILES C[C@H](Nc1ccc2c(c1)OCCO2)[C@H](C)C(=O)NCCCCCCNC(=O)c1ccc(-c2c3nc(c(-c4cc(S(=O)(=O)[O-])ccc4F)c4ccc([nH]4)c(-c4cc(S(=O)(=O)[O-])ccc4F)c4nc(c(-c5cc(S(=O)(=O)[O-])ccc5F)c5ccc2[nH]5)C=C4)C=C3)cc1
REMARK SMILES IDX 21 1 20 2 19 3 18 4 16 5 17 6 14 8 15 9 2 10 1 11 3 12 4 14
REMARK SMILES IDX 5 15 9 16 6 17 8 18 7 19 10 20 13 21 11 22 12 23 22 24 23 25
REMARK SMILES IDX 24 26 25 27 26 28 27 30 28 31 29 32 90 33 30 34 89 35 31 36
REMARK SMILES IDX 32 37 33 38 83 39 34 40 88 41 82 42 84 43 35 44 87 45 81 46
REMARK SMILES IDX 80 47 36 49 68 50 48 51 67 52 49 53 52 54 66 55 85 56 50 57
REMARK SMILES IDX 51 58 65 60 86 61 53 62 37 63 38 64 46 65 39 66 45 67 47 68
REMARK SMILES IDX 44 69 40 70 41 71 42 72 43 73 69 74 70 75 78 76 71 77 77 78
REMARK SMILES IDX 79 79 76 80 72 81 73 82 74 83 75 84 54 85 55 86 63 87 56 88
REMARK SMILES IDX 62 89 64 90 61 91 57 92 58 93 59 94 60 95
REMARK H PARENT 18 7 3 13 25 29 84 48 52 59
REMARK Flexibility Score: inf
ROOT
ATOM      1  C   UNL A   1      31.652  29.131  26.717  1.00  0.00     0.002 C 
ENDROOT
BRANCH   1   2
ATOM      2  C   UNL A   1      33.002  28.407  26.677  1.00  0.00     0.021 C 
BRANCH   2   3
ATOM      3  C   UNL A   1      32.947  27.019  26.057  1.00  0.00     0.116 C 
BRANCH   3   4
ATOM      4  N   UNL A   1      31.985  26.164  26.718  1.00  0.00    -0.356 N 
ATOM      5  C   UNL A   1      31.712  24.851  26.511  1.00  0.00     0.224 C 
ATOM      6  O   UNL A   1      30.880  24.318  27.252  1.00  0.00    -0.275 OA
ATOM      7  H   UNL A   1      31.451  26.598  27.422  1.00  0.00     0.163 HD
BRANCH   5   8
ATOM      8  C   UNL A   1      32.371  24.043  25.395  1.00  0.00     0.097 C 
ATOM      9  C   UNL A   1      33.353  23.017  25.971  1.00  0.00     0.020 C 
BRANCH   8  10
ATOM     10  C   UNL A   1      31.438  23.563  24.236  1.00  0.00     0.088 C 
ATOM     11  C   UNL A   1      32.189  23.214  22.949  1.00  0.00     0.031 C 
BRANCH  10  12
ATOM     12  N   UNL A   1      30.262  24.432  24.079  1.00  0.00    -0.382 N 
ATOM     13  H   UNL A   1      29.413  24.031  24.372  1.00  0.00     0.160 HD
BRANCH  12  14
ATOM     14  C   UNL A   1      30.152  25.714  23.588  1.00  0.00     0.038 A 
ATOM     15  C   UNL A   1      31.249  26.250  22.893  1.00  0.00     0.030 A 
ATOM     16  C   UNL A   1      29.014  26.510  23.714  1.00  0.00     0.076 A 
ATOM     17  C   UNL A   1      31.199  27.516  22.308  1.00  0.00     0.052 A 
ATOM     18  C   UNL A   1      28.956  27.784  23.140  1.00  0.00     0.163 A 
ATOM     19  C   UNL A   1      30.053  28.288  22.440  1.00  0.00     0.161 A 
ATOM     20  O   UNL A   1      27.793  28.492  23.318  1.00  0.00    -0.486 OA
ATOM     21  O   UNL A   1      30.074  29.525  21.857  1.00  0.00    -0.486 OA
ATOM     22  C   UNL A   1      27.725  29.630  22.448  1.00  0.00     0.271 C 
ATOM     23  C   UNL A   1      29.053  30.369  22.398  1.00  0.00     0.271 C 
ENDBRANCH  12  14
ENDBRANCH  10  12
ENDBRANCH   8  10
ENDBRANCH   5   8
ENDBRANCH   3   4
ENDBRANCH   2   3
ENDBRANCH   1   2
BRANCH   1  24
ATOM     24  C   UNL A   1      31.565  30.396  25.856  1.00  0.00     0.002 C 
BRANCH  24  25
ATOM     25  C   UNL A   1      31.461  31.711  26.633  1.00  0.00     0.021 C 
BRANCH  25  26
ATOM     26  C   UNL A   1      32.797  32.372  26.958  1.00  0.00     0.116 C 
BRANCH  26  27
ATOM     27  N   UNL A   1      32.630  33.677  27.577  1.00  0.00    -0.352 N 
ATOM     28  C   UNL A   1      33.326  34.239  28.620  1.00  0.00     0.251 C 
ATOM     29  H   UNL A   1      31.917  34.237  27.196  1.00  0.00     0.163 HD
ATOM     30  O   UNL A   1      32.921  35.276  29.138  1.00  0.00    -0.269 OA
BRANCH  28  31
ATOM     31  C   UNL A   1      34.542  33.572  29.127  1.00  0.00     0.039 A 
ATOM     32  C   UNL A   1      35.785  34.166  28.899  1.00  0.00     0.014 A 
ATOM     33  C   UNL A   1      34.452  32.378  29.849  1.00  0.00     0.014 A 
ATOM     34  C   UNL A   1      36.932  33.604  29.465  1.00  0.00     0.010 A 
ATOM     35  C   UNL A   1      35.585  31.858  30.466  1.00  0.00     0.010 A 
ATOM     36  C   UNL A   1      36.834  32.474  30.292  1.00  0.00    -0.014 A 
BRANCH  36  37
ATOM     37  C   UNL A   1      38.017  31.942  31.016  1.00  0.00     0.031 A 
ATOM     38  C   UNL A   1      38.848  30.846  30.409  1.00  0.00     0.074 A 
ATOM     39  C   UNL A   1      38.292  32.397  32.256  1.00  0.00     0.049 A 
ATOM     40  N   UNL A   1      39.849  30.185  30.928  1.00  0.00    -0.248 NA
ATOM     41  C   UNL A   1      38.485  30.423  29.049  1.00  0.00     0.031 C 
ATOM     42  C   UNL A   1      37.537  33.438  32.959  1.00  0.00     0.029 A 
ATOM     43  N   UNL A   1      39.267  32.036  33.151  1.00  0.00    -0.354 N 
ATOM     44  C   UNL A   1      40.234  29.259  29.964  1.00  0.00     0.074 A 
ATOM     45  C   UNL A   1      39.317  29.411  28.852  1.00  0.00     0.031 C 
ATOM     46  C   UNL A   1      38.088  33.643  34.165  1.00  0.00     0.029 A 
ATOM     47  C   UNL A   1      39.196  32.711  34.349  1.00  0.00     0.049 A 
ATOM     48  H   UNL A   1      39.953  31.358  32.956  1.00  0.00     0.167 HD
ATOM     49  C   UNL A   1      41.264  28.380  29.998  1.00  0.00     0.034 A 
ATOM     50  C   UNL A   1      39.924  32.579  35.476  1.00  0.00     0.034 A 
ATOM     51  C   UNL A   1      42.166  28.246  31.116  1.00  0.00     0.049 A 
ATOM     52  C   UNL A   1      41.028  31.552  35.510  1.00  0.00     0.074 A 
ATOM     53  C   UNL A   1      43.278  27.430  31.233  1.00  0.00     0.029 A 
ATOM     54  N   UNL A   1      42.052  28.931  32.320  1.00  0.00    -0.354 N 
ATOM     55  N   UNL A   1      41.414  30.722  34.568  1.00  0.00    -0.248 NA
ATOM     56  C   UNL A   1      41.797  31.445  36.757  1.00  0.00     0.031 C 
ATOM     57  C   UNL A   1      43.787  27.562  32.529  1.00  0.00     0.029 A 
ATOM     58  C   UNL A   1      43.045  28.523  33.198  1.00  0.00     0.049 A 
ATOM     59  H   UNL A   1      41.366  29.608  32.520  1.00  0.00     0.167 HD
ATOM     60  C   UNL A   1      42.486  30.013  35.103  1.00  0.00     0.074 A 
ATOM     61  C   UNL A   1      42.696  30.525  36.441  1.00  0.00     0.031 C 
ATOM     62  C   UNL A   1      43.231  29.029  34.537  1.00  0.00     0.034 A 
BRANCH  49  63
ATOM     63  C   UNL A   1      41.450  27.474  28.803  1.00  0.00     0.023 A 
ATOM     64  C   UNL A   1      42.467  27.697  27.857  1.00  0.00     0.031 A 
ATOM     65  C   UNL A   1      40.590  26.381  28.598  1.00  0.00     0.131 A 
ATOM     66  C   UNL A   1      42.552  26.884  26.716  1.00  0.00     0.055 A 
ATOM     67  C   UNL A   1      40.732  25.526  27.503  1.00  0.00     0.041 A 
ATOM     68  F   UNL A   1      39.587  26.129  29.454  1.00  0.00    -0.206 F 
ATOM     69  C   UNL A   1      41.709  25.785  26.545  1.00  0.00     0.022 A 
BRANCH  66  70
ATOM     70  S   UNL A   1      43.687  27.375  25.390  1.00  0.00     0.124 S 
ATOM     71  O   UNL A   1      42.761  27.639  24.291  1.00  0.00    -0.237 OA
ATOM     72  O   UNL A   1      44.352  28.540  25.959  1.00  0.00    -0.237 OA
ATOM     73  O   UNL A   1      44.534  26.198  25.210  1.00  0.00    -0.744 OA
ENDBRANCH  66  70
ENDBRANCH  49  63
BRANCH  50  74
ATOM     74  C   UNL A   1      39.621  33.414  36.674  1.00  0.00     0.023 A 
ATOM     75  C   UNL A   1      38.926  32.879  37.770  1.00  0.00     0.031 A 
ATOM     76  C   UNL A   1      39.986  34.772  36.727  1.00  0.00     0.131 A 
ATOM     77  C   UNL A   1      38.575  33.707  38.848  1.00  0.00     0.055 A 
ATOM     78  C   UNL A   1      39.684  35.577  37.826  1.00  0.00     0.041 A 
ATOM     79  F   UNL A   1      40.658  35.337  35.711  1.00  0.00    -0.206 F 
ATOM     80  C   UNL A   1      38.962  35.048  38.890  1.00  0.00     0.022 A 
BRANCH  77  81
ATOM     81  S   UNL A   1      37.522  33.025  40.158  1.00  0.00     0.124 S 
ATOM     82  O   UNL A   1      38.284  31.851  40.568  1.00  0.00    -0.237 OA
ATOM     83  O   UNL A   1      37.475  34.127  41.113  1.00  0.00    -0.237 OA
ATOM     84  O   UNL A   1      36.264  32.746  39.469  1.00  0.00    -0.744 OA
ENDBRANCH  77  81
ENDBRANCH  50  74
BRANCH  62  85
ATOM     85  C   UNL A   1      44.365  28.467  35.359  1.00  0.00     0.023 A 
ATOM     86  C   UNL A   1      44.153  27.465  36.323  1.00  0.00     0.031 A 
ATOM     87  C   UNL A   1      45.678  28.935  35.169  1.00  0.00     0.131 A 
ATOM     88  C   UNL A   1      45.230  26.996  37.091  1.00  0.00     0.055 A 
ATOM     89  C   UNL A   1      46.754  28.421  35.895  1.00  0.00     0.041 A 
ATOM     90  F   UNL A   1      45.937  29.893  34.266  1.00  0.00    -0.206 F 
ATOM     91  C   UNL A   1      46.530  27.453  36.870  1.00  0.00     0.022 A 
BRANCH  88  92
ATOM     92  S   UNL A   1      44.895  25.833  38.443  1.00  0.00     0.124 S 
ATOM     93  O   UNL A   1      46.235  25.576  38.961  1.00  0.00    -0.237 OA
ATOM     94  O   UNL A   1      44.013  26.607  39.311  1.00  0.00    -0.237 OA
ATOM     95  O   UNL A   1      44.261  24.700  37.771  1.00  0.00    -0.744 OA
ENDBRANCH  88  92
ENDBRANCH  62  85
ENDBRANCH  36  37
ENDBRANCH  28  31
ENDBRANCH  26  27
ENDBRANCH  25  26
ENDBRANCH  24  25
ENDBRANCH   1  24
TORSDOF 19
ENDMDL
MODEL 3
REMARK VINA RESULT:     -11.2      5.639     10.517
REMARK SMILES C[C@H](Nc1ccc2c(c1)OCCO2)[C@H](C)C(=O)NCCCCCCNC(=O)c1ccc(-c2c3nc(c(-c4cc(S(=O)(=O)[O-])ccc4F)c4ccc([nH]4)c(-c4cc(S(=O)(=O)[O-])ccc4F)c4nc(c(-c5cc(S(=O)(=O)[O-])ccc5F)c5ccc2[nH]5)C=C4)C=C3)cc1
REMARK SMILES IDX 21 1 20 2 19 3 18 4 16 5 17 6 14 8 15 9 2 10 1 11 3 12 4 14
REMARK SMILES IDX 5 15 9 16 6 17 8 18 7 19 10 20 13 21 11 22 12 23 22 24 23 25
REMARK SMILES IDX 24 26 25 27 26 28 27 30 28 31 29 32 90 33 30 34 89 35 31 36
REMARK SMILES IDX 32 37 33 38 83 39 34 40 88 41 82 42 84 43 35 44 87 45 81 46
REMARK SMILES IDX 80 47 36 49 68 50 48 51 67 52 49 53 52 54 66 55 85 56 50 57
REMARK SMILES IDX 51 58 65 60 86 61 53 62 37 63 38 64 46 65 39 66 45 67 47 68
REMARK SMILES IDX 44 69 40 70 41 71 42 72 43 73 69 74 70 75 78 76 71 77 77 78
REMARK SMILES IDX 79 79 76 80 72 81 73 82 74 83 75 84 54 85 55 86 63 87 56 88
REMARK SMILES IDX 62 89 64 90 61 91 57 92 58 93 59 94 60 95
REMARK H PARENT 18 7 3 13 25 29 84 48 52 59
REMARK Flexibility Score: inf
ROOT
ATOM      1  C   UNL A   1      33.130  28.831  27.360  1.00  0.00     0.002 C 
ENDROOT
BRANCH   1   2
ATOM      2  C   UNL A   1      33.485  27.778  26.306  1.00  0.00     0.021 C 
BRANCH   2   3
ATOM      3  C   UNL A   1      33.790  28.351  24.930  1.00  0.00     0.116 C 
BRANCH   3   4
ATOM      4  N   UNL A   1      34.017  27.315  23.946  1.00  0.00    -0.356 N 
ATOM      5  C   UNL A   1      33.120  26.530  23.299  1.00  0.00     0.224 C 
ATOM      6  O   UNL A   1      33.556  25.750  22.446  1.00  0.00    -0.275 OA
ATOM      7  H   UNL A   1      34.960  27.158  23.711  1.00  0.00     0.163 HD
BRANCH   5   8
ATOM      8  C   UNL A   1      31.624  26.565  23.608  1.00  0.00     0.097 C 
ATOM      9  C   UNL A   1      30.817  26.928  22.357  1.00  0.00     0.020 C 
BRANCH   8  10
ATOM     10  C   UNL A   1      31.069  25.412  24.505  1.00  0.00     0.088 C 
ATOM     11  C   UNL A   1      30.276  25.904  25.717  1.00  0.00     0.031 C 
BRANCH  10  12
ATOM     12  N   UNL A   1      32.087  24.386  24.776  1.00  0.00    -0.382 N 
ATOM     13  H   UNL A   1      32.850  24.696  25.315  1.00  0.00     0.160 HD
BRANCH  12  14
ATOM     14  C   UNL A   1      32.151  23.063  24.400  1.00  0.00     0.038 A 
ATOM     15  C   UNL A   1      31.929  22.750  23.048  1.00  0.00     0.030 A 
ATOM     16  C   UNL A   1      32.444  22.011  25.269  1.00  0.00     0.076 A 
ATOM     17  C   UNL A   1      32.038  21.443  22.570  1.00  0.00     0.052 A 
ATOM     18  C   UNL A   1      32.546  20.696  24.802  1.00  0.00     0.163 A 
ATOM     19  C   UNL A   1      32.338  20.414  23.451  1.00  0.00     0.161 A 
ATOM     20  O   UNL A   1      32.838  19.730  25.732  1.00  0.00    -0.486 OA
ATOM     21  O   UNL A   1      32.414  19.154  22.923  1.00  0.00    -0.486 OA
ATOM     22  C   UNL A   1      33.217  18.493  25.113  1.00  0.00     0.271 C 
ATOM     23  C   UNL A   1      32.305  18.157  23.943  1.00  0.00     0.271 C 
ENDBRANCH  12  14
ENDBRANCH  10  12
ENDBRANCH   8  10
ENDBRANCH   5   8
ENDBRANCH   3   4
ENDBRANCH   2   3
ENDBRANCH   1   2
BRANCH   1  24
ATOM     24  C   UNL A   1      31.794  29.550  27.139  1.00  0.00     0.002 C 
BRANCH  24  25
ATOM     25  C   UNL A   1      31.902  31.000  26.658  1.00  0.00     0.021 C 
BRANCH  25  26
ATOM     26  C   UNL A   1      33.061  31.791  27.259  1.00  0.00     0.116 C 
BRANCH  26  27
ATOM     27  N   UNL A   1      32.728  33.193  27.453  1.00  0.00    -0.352 N 
ATOM     28  C   UNL A   1      33.222  34.084  28.373  1.00  0.00     0.251 C 
ATOM     29  H   UNL A   1      32.053  33.556  26.835  1.00  0.00     0.163 HD
ATOM     30  O   UNL A   1      32.686  35.179  28.516  1.00  0.00    -0.269 OA
BRANCH  28  31
ATOM     31  C   UNL A   1      34.380  33.702  29.208  1.00  0.00     0.039 A 
ATOM     32  C   UNL A   1      34.198  32.776  30.236  1.00  0.00     0.014 A 
ATOM     33  C   UNL A   1      35.647  34.239  28.957  1.00  0.00     0.014 A 
ATOM     34  C   UNL A   1      35.302  32.325  30.962  1.00  0.00     0.010 A 
ATOM     35  C   UNL A   1      36.754  33.740  29.636  1.00  0.00     0.010 A 
ATOM     36  C   UNL A   1      36.594  32.767  30.636  1.00  0.00    -0.014 A 
BRANCH  36  37
ATOM     37  C   UNL A   1      37.796  32.198  31.299  1.00  0.00     0.031 A 
ATOM     38  C   UNL A   1      38.550  31.067  30.659  1.00  0.00     0.074 A 
ATOM     39  C   UNL A   1      38.156  32.653  32.516  1.00  0.00     0.049 A 
ATOM     40  N   UNL A   1      39.553  30.373  31.129  1.00  0.00    -0.248 NA
ATOM     41  C   UNL A   1      38.096  30.645  29.326  1.00  0.00     0.031 C 
ATOM     42  C   UNL A   1      37.480  33.728  33.249  1.00  0.00     0.029 A 
ATOM     43  N   UNL A   1      39.165  32.264  33.360  1.00  0.00    -0.354 N 
ATOM     44  C   UNL A   1      39.850  29.425  30.155  1.00  0.00     0.074 A 
ATOM     45  C   UNL A   1      38.879  29.601  29.094  1.00  0.00     0.031 C 
ATOM     46  C   UNL A   1      38.105  33.923  34.420  1.00  0.00     0.029 A 
ATOM     47  C   UNL A   1      39.186  32.952  34.553  1.00  0.00     0.049 A 
ATOM     48  H   UNL A   1      39.814  31.559  33.135  1.00  0.00     0.167 HD
ATOM     49  C   UNL A   1      40.847  28.508  30.141  1.00  0.00     0.034 A 
ATOM     50  C   UNL A   1      39.971  32.803  35.639  1.00  0.00     0.034 A 
ATOM     51  C   UNL A   1      41.804  28.350  31.210  1.00  0.00     0.049 A 
ATOM     52  C   UNL A   1      41.037  31.736  35.623  1.00  0.00     0.074 A 
ATOM     53  C   UNL A   1      42.891  27.494  31.273  1.00  0.00     0.029 A 
ATOM     54  N   UNL A   1      41.783  29.050  32.410  1.00  0.00    -0.354 N 
ATOM     55  N   UNL A   1      41.338  30.884  34.670  1.00  0.00    -0.248 NA
ATOM     56  C   UNL A   1      41.870  31.611  36.827  1.00  0.00     0.031 C 
ATOM     57  C   UNL A   1      43.475  27.619  32.538  1.00  0.00     0.029 A 
ATOM     58  C   UNL A   1      42.808  28.613  33.236  1.00  0.00     0.049 A 
ATOM     59  H   UNL A   1      41.135  29.754  32.640  1.00  0.00     0.167 HD
ATOM     60  C   UNL A   1      42.412  30.139  35.153  1.00  0.00     0.074 A 
ATOM     61  C   UNL A   1      42.715  30.655  36.471  1.00  0.00     0.031 C 
ATOM     62  C   UNL A   1      43.087  29.124  34.557  1.00  0.00     0.034 A 
BRANCH  49  63
ATOM     63  C   UNL A   1      40.932  27.586  28.948  1.00  0.00     0.023 A 
ATOM     64  C   UNL A   1      41.890  27.773  27.935  1.00  0.00     0.031 A 
ATOM     65  C   UNL A   1      40.035  26.511  28.813  1.00  0.00     0.131 A 
ATOM     66  C   UNL A   1      41.880  26.947  26.801  1.00  0.00     0.055 A 
ATOM     67  C   UNL A   1      40.085  25.642  27.721  1.00  0.00     0.041 A 
ATOM     68  F   UNL A   1      39.085  26.293  29.736  1.00  0.00    -0.206 F 
ATOM     69  C   UNL A   1      41.002  25.866  26.699  1.00  0.00     0.022 A 
BRANCH  66  70
ATOM     70  S   UNL A   1      42.936  27.395  25.397  1.00  0.00     0.124 S 
ATOM     71  O   UNL A   1      43.049  26.121  24.693  1.00  0.00    -0.237 OA
ATOM     72  O   UNL A   1      42.152  28.427  24.729  1.00  0.00    -0.237 OA
ATOM     73  O   UNL A   1      44.169  27.860  26.030  1.00  0.00    -0.744 OA
ENDBRANCH  66  70
ENDBRANCH  49  63
BRANCH  50  74
ATOM     74  C   UNL A   1      39.766  33.660  36.843  1.00  0.00     0.023 A 
ATOM     75  C   UNL A   1      39.158  33.146  37.999  1.00  0.00     0.031 A 
ATOM     76  C   UNL A   1      40.139  35.017  36.843  1.00  0.00     0.131 A 
ATOM     77  C   UNL A   1      38.896  33.994  39.087  1.00  0.00     0.055 A 
ATOM     78  C   UNL A   1      39.927  35.841  37.949  1.00  0.00     0.041 A 
ATOM     79  F   UNL A   1      40.731  35.561  35.768  1.00  0.00    -0.206 F 
ATOM     80  C   UNL A   1      39.290  35.333  39.075  1.00  0.00     0.022 A 
BRANCH  77  81
ATOM     81  S   UNL A   1      37.948  33.338  40.488  1.00  0.00     0.124 S 
ATOM     82  O   UNL A   1      38.758  32.193  40.883  1.00  0.00    -0.237 OA
ATOM     83  O   UNL A   1      37.944  34.472  41.407  1.00  0.00    -0.237 OA
ATOM     84  O   UNL A   1      36.651  33.014  39.896  1.00  0.00    -0.744 OA
ENDBRANCH  77  81
ENDBRANCH  50  74
BRANCH  62  85
ATOM     85  C   UNL A   1      44.244  28.527  35.321  1.00  0.00     0.023 A 
ATOM     86  C   UNL A   1      44.057  27.489  36.252  1.00  0.00     0.031 A 
ATOM     87  C   UNL A   1      45.552  28.997  35.108  1.00  0.00     0.131 A 
ATOM     88  C   UNL A   1      45.156  26.988  36.968  1.00  0.00     0.055 A 
ATOM     89  C   UNL A   1      46.648  28.452  35.778  1.00  0.00     0.041 A 
ATOM     90  F   UNL A   1      45.787  29.988  34.234  1.00  0.00    -0.206 F 
ATOM     91  C   UNL A   1      46.451  27.449  36.723  1.00  0.00     0.022 A 
BRANCH  88  92
ATOM     92  S   UNL A   1      44.858  25.775  38.284  1.00  0.00     0.124 S 
ATOM     93  O   UNL A   1      46.190  25.214  38.486  1.00  0.00    -0.237 OA
ATOM     94  O   UNL A   1      44.347  26.609  39.368  1.00  0.00    -0.237 OA
ATOM     95  O   UNL A   1      43.882  24.862  37.695  1.00  0.00    -0.744 OA
ENDBRANCH  88  92
ENDBRANCH  62  85
ENDBRANCH  36  37
ENDBRANCH  28  31
ENDBRANCH  26  27
ENDBRANCH  25  26
ENDBRANCH  24  25
ENDBRANCH   1  24
TORSDOF 19
ENDMDL
