MODEL 1
REMARK VINA RESULT:     -11.3      0.000      0.000
REMARK SMILES COCCNC(=O)c1cccc(NC(=O)[C@@H]2CCCC[C@H]2C(=O)NCCCCCCNC(=O)c2ccc(-c3c4nc(c(-c5cc(S(=O)(=O)[O-])ccc5F)c5ccc([nH]5)c(-c5cc(S(=O)(=O)[O-])ccc5F)c5nc(c(-c6cc(S(=O)(=O)[O-])ccc6F)c6ccc3[nH]6)C=C5)C=C4)cc2)c1
REMARK SMILES IDX 26 1 25 2 24 3 22 4 23 5 21 7 16 8 17 9 18 10 20 11 19 12
REMARK SMILES IDX 14 13 13 14 15 16 12 17 8 18 9 19 97 20 10 21 11 22 6 23
REMARK SMILES IDX 5 24 7 26 4 27 3 28 2 29 1 30 27 31 28 32 29 33 30 34 31 35
REMARK SMILES IDX 32 36 33 38 34 39 35 40 96 41 36 42 95 43 37 44 38 45 39 46
REMARK SMILES IDX 89 47 40 48 94 49 88 50 90 51 41 52 93 53 87 54 86 55 42 57
REMARK SMILES IDX 74 58 54 59 73 60 55 61 58 62 72 63 91 64 56 65 57 66 71 68
REMARK SMILES IDX 92 69 59 70 43 71 44 72 52 73 45 74 51 75 53 76 50 77 46 78
REMARK SMILES IDX 47 79 48 80 49 81 75 82 76 83 84 84 77 85 83 86 85 87 82 88
REMARK SMILES IDX 78 89 79 90 80 91 81 92 60 93 61 94 69 95 62 96 68 97 70 98
REMARK SMILES IDX 67 99 63 100 64 101 65 102 66 103
REMARK H PARENT 24 6 13 15 5 25 31 37 90 56 58 67
REMARK Flexibility Score: inf
ROOT
ATOM      1  C   UNL A   1      33.868  28.895  27.081  1.00  0.00     0.021 C 
ENDROOT
BRANCH   1   2
ATOM      2  C   UNL A   1      33.043  27.613  26.876  1.00  0.00     0.116 C 
BRANCH   2   3
ATOM      3  N   UNL A   1      33.681  26.484  26.218  1.00  0.00    -0.356 N 
ATOM      4  C   UNL A   1      33.632  26.001  24.944  1.00  0.00     0.223 C 
ATOM      5  O   UNL A   1      34.537  25.225  24.608  1.00  0.00    -0.275 OA
ATOM      6  H   UNL A   1      34.267  25.961  26.812  1.00  0.00     0.163 HD
BRANCH   4   7
ATOM      7  C   UNL A   1      32.551  26.365  23.923  1.00  0.00     0.091 C 
ATOM      8  C   UNL A   1      31.098  25.971  24.313  1.00  0.00     0.091 C 
ATOM      9  C   UNL A   1      30.081  26.995  23.730  1.00  0.00     0.014 C 
ATOM     10  C   UNL A   1      30.481  28.449  23.920  1.00  0.00     0.001 C 
ATOM     11  C   UNL A   1      32.880  27.848  23.615  1.00  0.00     0.014 C 
ATOM     12  C   UNL A   1      31.747  28.727  23.136  1.00  0.00     0.001 C 
BRANCH   8  13
ATOM     13  C   UNL A   1      30.565  24.559  23.862  1.00  0.00     0.228 C 
ATOM     14  N   UNL A   1      30.660  23.417  24.633  1.00  0.00    -0.326 N 
ATOM     15  H   UNL A   1      29.842  22.868  24.626  1.00  0.00     0.169 HD
ATOM     16  O   UNL A   1      29.847  24.462  22.858  1.00  0.00    -0.274 OA
BRANCH  14  17
ATOM     17  C   UNL A   1      31.691  22.879  25.429  1.00  0.00     0.041 A 
ATOM     18  C   UNL A   1      33.697  21.545  25.731  1.00  0.00     0.041 A 
ATOM     19  C   UNL A   1      33.759  21.867  27.087  1.00  0.00     0.014 A 
ATOM     20  C   UNL A   1      32.662  22.023  24.898  1.00  0.00     0.040 A 
ATOM     21  C   UNL A   1      32.854  22.786  27.581  1.00  0.00     0.003 A 
ATOM     22  C   UNL A   1      31.887  23.318  26.723  1.00  0.00     0.026 A 
BRANCH  18  23
ATOM     23  C   UNL A   1      34.802  20.740  25.193  1.00  0.00     0.251 C 
ATOM     24  N   UNL A   1      34.542  19.447  24.823  1.00  0.00    -0.350 N 
ATOM     25  H   UNL A   1      35.324  18.915  24.551  1.00  0.00     0.163 HD
ATOM     26  O   UNL A   1      35.909  21.244  25.032  1.00  0.00    -0.269 OA
BRANCH  24  27
ATOM     27  C   UNL A   1      33.259  18.754  24.779  1.00  0.00     0.144 C 
BRANCH  27  28
ATOM     28  C   UNL A   1      32.792  18.419  23.354  1.00  0.00     0.181 C 
BRANCH  28  29
ATOM     29  O   UNL A   1      33.249  17.141  22.901  1.00  0.00    -0.383 OA
ATOM     30  C   UNL A   1      33.734  16.305  23.943  1.00  0.00     0.194 C 
ENDBRANCH  28  29
ENDBRANCH  27  28
ENDBRANCH  24  27
ENDBRANCH  18  23
ENDBRANCH  14  17
ENDBRANCH   8  13
ENDBRANCH   4   7
ENDBRANCH   2   3
ENDBRANCH   1   2
BRANCH   1  31
ATOM     31  C   UNL A   1      33.292  30.245  26.662  1.00  0.00     0.002 C 
BRANCH  31  32
ATOM     32  C   UNL A   1      31.780  30.403  26.724  1.00  0.00     0.002 C 
BRANCH  32  33
ATOM     33  C   UNL A   1      31.327  31.844  26.925  1.00  0.00     0.021 C 
BRANCH  33  34
ATOM     34  C   UNL A   1      32.385  32.886  26.574  1.00  0.00     0.116 C 
BRANCH  34  35
ATOM     35  N   UNL A   1      32.298  34.087  27.395  1.00  0.00    -0.352 N 
ATOM     36  C   UNL A   1      33.104  34.431  28.457  1.00  0.00     0.251 C 
ATOM     37  H   UNL A   1      31.584  34.725  27.162  1.00  0.00     0.163 HD
ATOM     38  O   UNL A   1      32.847  35.396  29.167  1.00  0.00    -0.269 OA
BRANCH  36  39
ATOM     39  C   UNL A   1      34.266  33.565  28.738  1.00  0.00     0.039 A 
ATOM     40  C   UNL A   1      35.551  34.065  28.531  1.00  0.00     0.014 A 
ATOM     41  C   UNL A   1      34.064  32.327  29.356  1.00  0.00     0.014 A 
ATOM     42  C   UNL A   1      36.644  33.353  29.025  1.00  0.00     0.010 A 
ATOM     43  C   UNL A   1      35.148  31.661  29.915  1.00  0.00     0.010 A 
ATOM     44  C   UNL A   1      36.447  32.176  29.769  1.00  0.00    -0.014 A 
BRANCH  44  45
ATOM     45  C   UNL A   1      37.585  31.490  30.433  1.00  0.00     0.031 A 
ATOM     46  C   UNL A   1      37.951  31.842  31.847  1.00  0.00     0.074 A 
ATOM     47  C   UNL A   1      38.322  30.600  29.738  1.00  0.00     0.049 A 
ATOM     48  N   UNL A   1      38.944  31.404  32.577  1.00  0.00    -0.248 NA
ATOM     49  C   UNL A   1      37.106  32.841  32.517  1.00  0.00     0.031 C 
ATOM     50  C   UNL A   1      38.085  30.211  28.345  1.00  0.00     0.029 A 
ATOM     51  N   UNL A   1      39.421  29.863  30.102  1.00  0.00    -0.354 N 
ATOM     52  C   UNL A   1      38.845  32.074  33.791  1.00  0.00     0.074 A 
ATOM     53  C   UNL A   1      37.737  32.998  33.672  1.00  0.00     0.031 C 
ATOM     54  C   UNL A   1      38.988  29.286  27.986  1.00  0.00     0.029 A 
ATOM     55  C   UNL A   1      39.905  29.055  29.097  1.00  0.00     0.049 A 
ATOM     56  H   UNL A   1      39.827  29.910  30.997  1.00  0.00     0.167 HD
ATOM     57  C   UNL A   1      39.595  31.914  34.909  1.00  0.00     0.034 A 
ATOM     58  C   UNL A   1      40.974  28.234  29.070  1.00  0.00     0.034 A 
ATOM     59  C   UNL A   1      40.695  30.987  35.007  1.00  0.00     0.049 A 
ATOM     60  C   UNL A   1      41.824  28.113  30.310  1.00  0.00     0.074 A 
ATOM     61  C   UNL A   1      41.488  30.704  36.105  1.00  0.00     0.029 A 
ATOM     62  N   UNL A   1      41.171  30.202  33.963  1.00  0.00    -0.354 N 
ATOM     63  N   UNL A   1      41.679  28.708  31.472  1.00  0.00    -0.248 NA
ATOM     64  C   UNL A   1      42.977  27.208  30.237  1.00  0.00     0.031 C 
ATOM     65  C   UNL A   1      42.492  29.817  35.705  1.00  0.00     0.029 A 
ATOM     66  C   UNL A   1      42.275  29.473  34.380  1.00  0.00     0.049 A 
ATOM     67  H   UNL A   1      40.783  30.169  33.060  1.00  0.00     0.167 HD
ATOM     68  C   UNL A   1      42.710  28.228  32.275  1.00  0.00     0.074 A 
ATOM     69  C   UNL A   1      43.450  27.277  31.473  1.00  0.00     0.031 C 
ATOM     70  C   UNL A   1      43.017  28.544  33.560  1.00  0.00     0.034 A 
BRANCH  57  71
ATOM     71  C   UNL A   1      39.263  32.782  36.100  1.00  0.00     0.023 A 
ATOM     72  C   UNL A   1      39.776  34.084  36.233  1.00  0.00     0.031 A 
ATOM     73  C   UNL A   1      38.435  32.295  37.128  1.00  0.00     0.131 A 
ATOM     74  C   UNL A   1      39.521  34.823  37.397  1.00  0.00     0.055 A 
ATOM     75  C   UNL A   1      38.114  33.069  38.244  1.00  0.00     0.041 A 
ATOM     76  F   UNL A   1      37.935  31.051  37.070  1.00  0.00    -0.206 F 
ATOM     77  C   UNL A   1      38.671  34.336  38.392  1.00  0.00     0.022 A 
BRANCH  74  78
ATOM     78  S   UNL A   1      40.437  36.367  37.660  1.00  0.00     0.124 S 
ATOM     79  O   UNL A   1      41.627  35.889  38.360  1.00  0.00    -0.237 OA
ATOM     80  O   UNL A   1      40.646  36.846  36.297  1.00  0.00    -0.237 OA
ATOM     81  O   UNL A   1      39.527  37.171  38.472  1.00  0.00    -0.744 OA
ENDBRANCH  74  78
ENDBRANCH  57  71
BRANCH  58  82
ATOM     82  C   UNL A   1      41.321  27.480  27.830  1.00  0.00     0.023 A 
ATOM     83  C   UNL A   1      41.125  26.092  27.746  1.00  0.00     0.031 A 
ATOM     84  C   UNL A   1      41.905  28.127  26.725  1.00  0.00     0.131 A 
ATOM     85  C   UNL A   1      41.553  25.391  26.607  1.00  0.00     0.055 A 
ATOM     86  C   UNL A   1      42.272  27.435  25.570  1.00  0.00     0.041 A 
ATOM     87  F   UNL A   1      42.118  29.453  26.750  1.00  0.00    -0.206 F 
ATOM     88  C   UNL A   1      42.110  26.054  25.512  1.00  0.00     0.022 A 
BRANCH  85  89
ATOM     89  S   UNL A   1      41.465  23.578  26.618  1.00  0.00     0.124 S 
ATOM     90  O   UNL A   1      40.049  23.350  26.355  1.00  0.00    -0.237 OA
ATOM     91  O   UNL A   1      42.384  23.226  25.540  1.00  0.00    -0.237 OA
ATOM     92  O   UNL A   1      41.918  23.223  27.960  1.00  0.00    -0.744 OA
ENDBRANCH  85  89
ENDBRANCH  58  82
BRANCH  70  93
ATOM     93  C   UNL A   1      44.194  27.828  34.178  1.00  0.00     0.023 A 
ATOM     94  C   UNL A   1      44.078  26.526  34.693  1.00  0.00     0.031 A 
ATOM     95  C   UNL A   1      45.447  28.462  34.264  1.00  0.00     0.131 A 
ATOM     96  C   UNL A   1      45.175  25.921  35.325  1.00  0.00     0.055 A 
ATOM     97  C   UNL A   1      46.555  27.828  34.829  1.00  0.00     0.041 A 
ATOM     98  F   UNL A   1      45.616  29.708  33.793  1.00  0.00    -0.206 F 
ATOM     99  C   UNL A   1      46.419  26.557  35.377  1.00  0.00     0.022 A 
BRANCH  96 100
ATOM    100  S   UNL A   1      44.928  24.337  36.171  1.00  0.00     0.124 S 
ATOM    101  O   UNL A   1      43.493  24.128  36.007  1.00  0.00    -0.237 OA
ATOM    102  O   UNL A   1      45.793  23.439  35.412  1.00  0.00    -0.237 OA
ATOM    103  O   UNL A   1      45.363  24.608  37.540  1.00  0.00    -0.744 OA
ENDBRANCH  96 100
ENDBRANCH  70  93
ENDBRANCH  44  45
ENDBRANCH  36  39
ENDBRANCH  34  35
ENDBRANCH  33  34
ENDBRANCH  32  33
ENDBRANCH  31  32
ENDBRANCH   1  31
TORSDOF 22
ENDMDL
MODEL 2
REMARK VINA RESULT:     -11.2      1.018      7.504
REMARK SMILES COCCNC(=O)c1cccc(NC(=O)[C@@H]2CCCC[C@H]2C(=O)NCCCCCCNC(=O)c2ccc(-c3c4nc(c(-c5cc(S(=O)(=O)[O-])ccc5F)c5ccc([nH]5)c(-c5cc(S(=O)(=O)[O-])ccc5F)c5nc(c(-c6cc(S(=O)(=O)[O-])ccc6F)c6ccc3[nH]6)C=C5)C=C4)cc2)c1
REMARK SMILES IDX 26 1 25 2 24 3 22 4 23 5 21 7 16 8 17 9 18 10 20 11 19 12
REMARK SMILES IDX 14 13 13 14 15 16 12 17 8 18 9 19 97 20 10 21 11 22 6 23
REMARK SMILES IDX 5 24 7 26 4 27 3 28 2 29 1 30 27 31 28 32 29 33 30 34 31 35
REMARK SMILES IDX 32 36 33 38 34 39 35 40 96 41 36 42 95 43 37 44 38 45 39 46
REMARK SMILES IDX 89 47 40 48 94 49 88 50 90 51 41 52 93 53 87 54 86 55 42 57
REMARK SMILES IDX 74 58 54 59 73 60 55 61 58 62 72 63 91 64 56 65 57 66 71 68
REMARK SMILES IDX 92 69 59 70 43 71 44 72 52 73 45 74 51 75 53 76 50 77 46 78
REMARK SMILES IDX 47 79 48 80 49 81 75 82 76 83 84 84 77 85 83 86 85 87 82 88
REMARK SMILES IDX 78 89 79 90 80 91 81 92 60 93 61 94 69 95 62 96 68 97 70 98
REMARK SMILES IDX 67 99 63 100 64 101 65 102 66 103
REMARK H PARENT 24 6 13 15 5 25 31 37 90 56 58 67
REMARK Flexibility Score: inf
ROOT
ATOM      1  C   UNL A   1      33.571  28.713  27.267  1.00  0.00     0.021 C 
ENDROOT
BRANCH   1   2
ATOM      2  C   UNL A   1      32.742  27.615  26.577  1.00  0.00     0.116 C 
BRANCH   2   3
ATOM      3  N   UNL A   1      33.413  26.378  26.207  1.00  0.00    -0.356 N 
ATOM      4  C   UNL A   1      34.033  25.962  25.067  1.00  0.00     0.223 C 
ATOM      5  O   UNL A   1      34.792  24.988  25.169  1.00  0.00    -0.275 OA
ATOM      6  H   UNL A   1      33.422  25.705  26.925  1.00  0.00     0.163 HD
BRANCH   4   7
ATOM      7  C   UNL A   1      33.858  26.624  23.697  1.00  0.00     0.091 C 
ATOM      8  C   UNL A   1      32.602  26.181  22.893  1.00  0.00     0.091 C 
ATOM      9  C   UNL A   1      32.074  27.356  22.018  1.00  0.00     0.014 C 
ATOM     10  C   UNL A   1      32.001  28.690  22.743  1.00  0.00     0.001 C 
ATOM     11  C   UNL A   1      34.057  28.124  24.032  1.00  0.00     0.014 C 
ATOM     12  C   UNL A   1      33.399  29.133  23.119  1.00  0.00     0.001 C 
BRANCH   8  13
ATOM     13  C   UNL A   1      32.744  24.963  21.905  1.00  0.00     0.228 C 
ATOM     14  N   UNL A   1      32.287  23.689  22.182  1.00  0.00    -0.326 N 
ATOM     15  H   UNL A   1      31.837  23.258  21.419  1.00  0.00     0.169 HD
ATOM     16  O   UNL A   1      33.101  25.155  20.735  1.00  0.00    -0.274 OA
BRANCH  14  17
ATOM     17  C   UNL A   1      32.337  22.881  23.335  1.00  0.00     0.041 A 
ATOM     18  C   UNL A   1      33.392  21.206  24.741  1.00  0.00     0.041 A 
ATOM     19  C   UNL A   1      32.388  21.318  25.702  1.00  0.00     0.014 A 
ATOM     20  C   UNL A   1      33.369  21.961  23.547  1.00  0.00     0.040 A 
ATOM     21  C   UNL A   1      31.427  22.294  25.530  1.00  0.00     0.003 A 
ATOM     22  C   UNL A   1      31.466  23.095  24.385  1.00  0.00     0.026 A 
BRANCH  18  23
ATOM     23  C   UNL A   1      34.515  20.314  25.059  1.00  0.00     0.251 C 
ATOM     24  N   UNL A   1      34.368  18.974  24.816  1.00  0.00    -0.350 N 
ATOM     25  H   UNL A   1      35.106  18.401  25.124  1.00  0.00     0.163 HD
ATOM     26  O   UNL A   1      35.570  20.779  25.479  1.00  0.00    -0.269 OA
BRANCH  24  27
ATOM     27  C   UNL A   1      33.262  18.284  24.161  1.00  0.00     0.144 C 
BRANCH  27  28
ATOM     28  C   UNL A   1      32.550  17.269  25.068  1.00  0.00     0.181 C 
BRANCH  28  29
ATOM     29  O   UNL A   1      33.391  16.177  25.453  1.00  0.00    -0.383 OA
ATOM     30  C   UNL A   1      32.714  14.928  25.516  1.00  0.00     0.194 C 
ENDBRANCH  28  29
ENDBRANCH  27  28
ENDBRANCH  24  27
ENDBRANCH  18  23
ENDBRANCH  14  17
ENDBRANCH   8  13
ENDBRANCH   4   7
ENDBRANCH   2   3
ENDBRANCH   1   2
BRANCH   1  31
ATOM     31  C   UNL A   1      33.171  30.177  27.109  1.00  0.00     0.002 C 
BRANCH  31  32
ATOM     32  C   UNL A   1      31.734  30.464  26.700  1.00  0.00     0.002 C 
BRANCH  32  33
ATOM     33  C   UNL A   1      31.359  31.938  26.791  1.00  0.00     0.021 C 
BRANCH  33  34
ATOM     34  C   UNL A   1      32.546  32.892  26.708  1.00  0.00     0.116 C 
BRANCH  34  35
ATOM     35  N   UNL A   1      32.376  34.089  27.520  1.00  0.00    -0.352 N 
ATOM     36  C   UNL A   1      33.131  34.474  28.606  1.00  0.00     0.251 C 
ATOM     37  H   UNL A   1      31.639  34.691  27.263  1.00  0.00     0.163 HD
ATOM     38  O   UNL A   1      32.805  35.428  29.304  1.00  0.00    -0.269 OA
BRANCH  36  39
ATOM     39  C   UNL A   1      34.323  33.667  28.927  1.00  0.00     0.039 A 
ATOM     40  C   UNL A   1      35.589  34.201  28.691  1.00  0.00     0.014 A 
ATOM     41  C   UNL A   1      34.167  32.455  29.606  1.00  0.00     0.014 A 
ATOM     42  C   UNL A   1      36.708  33.555  29.218  1.00  0.00     0.010 A 
ATOM     43  C   UNL A   1      35.275  31.857  30.196  1.00  0.00     0.010 A 
ATOM     44  C   UNL A   1      36.554  32.411  30.021  1.00  0.00    -0.014 A 
BRANCH  44  45
ATOM     45  C   UNL A   1      37.717  31.801  30.715  1.00  0.00     0.031 A 
ATOM     46  C   UNL A   1      38.557  30.773  30.011  1.00  0.00     0.074 A 
ATOM     47  C   UNL A   1      37.974  32.131  31.997  1.00  0.00     0.049 A 
ATOM     48  N   UNL A   1      39.569  30.082  30.465  1.00  0.00    -0.248 NA
ATOM     49  C   UNL A   1      38.187  30.459  28.623  1.00  0.00     0.031 C 
ATOM     50  C   UNL A   1      37.201  33.087  32.795  1.00  0.00     0.029 A 
ATOM     51  N   UNL A   1      38.951  31.699  32.859  1.00  0.00    -0.354 N 
ATOM     52  C   UNL A   1      39.958  29.250  29.422  1.00  0.00     0.074 A 
ATOM     53  C   UNL A   1      39.027  29.475  28.337  1.00  0.00     0.031 C 
ATOM     54  C   UNL A   1      37.753  33.192  34.014  1.00  0.00     0.029 A 
ATOM     55  C   UNL A   1      38.881  32.273  34.109  1.00  0.00     0.049 A 
ATOM     56  H   UNL A   1      39.636  31.040  32.608  1.00  0.00     0.167 HD
ATOM     57  C   UNL A   1      41.011  28.397  29.366  1.00  0.00     0.034 A 
ATOM     58  C   UNL A   1      39.632  32.070  35.211  1.00  0.00     0.034 A 
ATOM     59  C   UNL A   1      41.928  28.189  30.460  1.00  0.00     0.049 A 
ATOM     60  C   UNL A   1      40.764  31.076  35.140  1.00  0.00     0.074 A 
ATOM     61  C   UNL A   1      43.057  27.391  30.496  1.00  0.00     0.029 A 
ATOM     62  N   UNL A   1      41.813  28.768  31.718  1.00  0.00    -0.354 N 
ATOM     63  N   UNL A   1      41.157  30.343  34.123  1.00  0.00    -0.248 NA
ATOM     64  C   UNL A   1      41.556  30.886  36.361  1.00  0.00     0.031 C 
ATOM     65  C   UNL A   1      43.575  27.420  31.794  1.00  0.00     0.029 A 
ATOM     66  C   UNL A   1      42.823  28.308  32.549  1.00  0.00     0.049 A 
ATOM     67  H   UNL A   1      41.117  29.412  31.982  1.00  0.00     0.167 HD
ATOM     68  C   UNL A   1      42.259  29.623  34.579  1.00  0.00     0.074 A 
ATOM     69  C   UNL A   1      42.481  30.031  35.950  1.00  0.00     0.031 C 
ATOM     70  C   UNL A   1      43.019  28.708  33.923  1.00  0.00     0.034 A 
BRANCH  57  71
ATOM     71  C   UNL A   1      41.202  27.610  28.092  1.00  0.00     0.023 A 
ATOM     72  C   UNL A   1      40.863  26.249  28.005  1.00  0.00     0.031 A 
ATOM     73  C   UNL A   1      41.750  28.224  26.951  1.00  0.00     0.131 A 
ATOM     74  C   UNL A   1      41.143  25.529  26.834  1.00  0.00     0.055 A 
ATOM     75  C   UNL A   1      41.946  27.523  25.760  1.00  0.00     0.041 A 
ATOM     76  F   UNL A   1      42.117  29.515  26.979  1.00  0.00    -0.206 F 
ATOM     77  C   UNL A   1      41.656  26.163  25.701  1.00  0.00     0.022 A 
BRANCH  74  78
ATOM     78  S   UNL A   1      40.966  23.724  26.864  1.00  0.00     0.124 S 
ATOM     79  O   UNL A   1      39.540  23.563  26.590  1.00  0.00    -0.237 OA
ATOM     80  O   UNL A   1      41.873  23.300  25.802  1.00  0.00    -0.237 OA
ATOM     81  O   UNL A   1      41.378  23.362  28.218  1.00  0.00    -0.744 OA
ENDBRANCH  74  78
ENDBRANCH  57  71
BRANCH  58  82
ATOM     82  C   UNL A   1      39.331  32.796  36.480  1.00  0.00     0.023 A 
ATOM     83  C   UNL A   1      39.992  33.992  36.805  1.00  0.00     0.031 A 
ATOM     84  C   UNL A   1      38.415  32.278  37.414  1.00  0.00     0.131 A 
ATOM     85  C   UNL A   1      39.765  34.601  38.049  1.00  0.00     0.055 A 
ATOM     86  C   UNL A   1      38.147  32.921  38.623  1.00  0.00     0.041 A 
ATOM     87  F   UNL A   1      37.756  31.136  37.157  1.00  0.00    -0.206 F 
ATOM     88  C   UNL A   1      38.836  34.084  38.953  1.00  0.00     0.022 A 
BRANCH  85  89
ATOM     89  S   UNL A   1      40.781  36.031  38.514  1.00  0.00     0.124 S 
ATOM     90  O   UNL A   1      40.924  35.837  39.952  1.00  0.00    -0.237 OA
ATOM     91  O   UNL A   1      41.983  35.820  37.714  1.00  0.00    -0.237 OA
ATOM     92  O   UNL A   1      39.963  37.174  38.116  1.00  0.00    -0.744 OA
ENDBRANCH  85  89
ENDBRANCH  58  82
BRANCH  70  93
ATOM     93  C   UNL A   1      44.177  28.109  34.684  1.00  0.00     0.023 A 
ATOM     94  C   UNL A   1      44.045  26.909  35.405  1.00  0.00     0.031 A 
ATOM     95  C   UNL A   1      45.429  28.751  34.697  1.00  0.00     0.131 A 
ATOM     96  C   UNL A   1      45.124  26.422  36.157  1.00  0.00     0.055 A 
ATOM     97  C   UNL A   1      46.519  28.224  35.389  1.00  0.00     0.041 A 
ATOM     98  F   UNL A   1      45.612  29.903  34.031  1.00  0.00    -0.206 F 
ATOM     99  C   UNL A   1      46.367  27.061  36.137  1.00  0.00     0.022 A 
BRANCH  96 100
ATOM    100  S   UNL A   1      44.851  24.999  37.247  1.00  0.00     0.124 S 
ATOM    101  O   UNL A   1      45.649  25.356  38.416  1.00  0.00    -0.237 OA
ATOM    102  O   UNL A   1      43.404  25.021  37.433  1.00  0.00    -0.237 OA
ATOM    103  O   UNL A   1      45.360  23.870  36.471  1.00  0.00    -0.744 OA
ENDBRANCH  96 100
ENDBRANCH  70  93
ENDBRANCH  44  45
ENDBRANCH  36  39
ENDBRANCH  34  35
ENDBRANCH  33  34
ENDBRANCH  32  33
ENDBRANCH  31  32
ENDBRANCH   1  31
TORSDOF 22
ENDMDL
MODEL 3
REMARK VINA RESULT:     -11.2      1.937      7.608
REMARK SMILES COCCNC(=O)c1cccc(NC(=O)[C@@H]2CCCC[C@H]2C(=O)NCCCCCCNC(=O)c2ccc(-c3c4nc(c(-c5cc(S(=O)(=O)[O-])ccc5F)c5ccc([nH]5)c(-c5cc(S(=O)(=O)[O-])ccc5F)c5nc(c(-c6cc(S(=O)(=O)[O-])ccc6F)c6ccc3[nH]6)C=C5)C=C4)cc2)c1
REMARK SMILES IDX 26 1 25 2 24 3 22 4 23 5 21 7 16 8 17 9 18 10 20 11 19 12
REMARK SMILES IDX 14 13 13 14 15 16 12 17 8 18 9 19 97 20 10 21 11 22 6 23
REMARK SMILES IDX 5 24 7 26 4 27 3 28 2 29 1 30 27 31 28 32 29 33 30 34 31 35
REMARK SMILES IDX 32 36 33 38 34 39 35 40 96 41 36 42 95 43 37 44 38 45 39 46
REMARK SMILES IDX 89 47 40 48 94 49 88 50 90 51 41 52 93 53 87 54 86 55 42 57
REMARK SMILES IDX 74 58 54 59 73 60 55 61 58 62 72 63 91 64 56 65 57 66 71 68
REMARK SMILES IDX 92 69 59 70 43 71 44 72 52 73 45 74 51 75 53 76 50 77 46 78
REMARK SMILES IDX 47 79 48 80 49 81 75 82 76 83 84 84 77 85 83 86 85 87 82 88
REMARK SMILES IDX 78 89 79 90 80 91 81 92 60 93 61 94 69 95 62 96 68 97 70 98
REMARK SMILES IDX 67 99 63 100 64 101 65 102 66 103
REMARK H PARENT 24 6 13 15 5 25 31 37 90 56 58 67
REMARK Flexibility Score: inf
ROOT
ATOM      1  C   UNL A   1      33.568  28.370  27.115  1.00  0.00     0.021 C 
ENDROOT
BRANCH   1   2
ATOM      2  C   UNL A   1      33.197  27.595  25.838  1.00  0.00     0.116 C 
BRANCH   2   3
ATOM      3  N   UNL A   1      33.805  28.008  24.583  1.00  0.00    -0.356 N 
ATOM      4  C   UNL A   1      33.366  28.011  23.293  1.00  0.00     0.223 C 
ATOM      5  O   UNL A   1      33.987  28.725  22.494  1.00  0.00    -0.275 OA
ATOM      6  H   UNL A   1      34.721  28.356  24.685  1.00  0.00     0.163 HD
BRANCH   4   7
ATOM      7  C   UNL A   1      32.165  27.206  22.788  1.00  0.00     0.091 C 
ATOM      8  C   UNL A   1      32.265  25.665  22.968  1.00  0.00     0.091 C 
ATOM      9  C   UNL A   1      30.854  25.052  23.206  1.00  0.00     0.014 C 
ATOM     10  C   UNL A   1      30.002  25.815  24.207  1.00  0.00     0.001 C 
ATOM     11  C   UNL A   1      30.973  27.970  23.418  1.00  0.00     0.014 C 
ATOM     12  C   UNL A   1      29.698  27.193  23.659  1.00  0.00     0.001 C 
BRANCH   8  13
ATOM     13  C   UNL A   1      32.890  24.819  21.797  1.00  0.00     0.228 C 
ATOM     14  N   UNL A   1      32.881  23.438  21.753  1.00  0.00    -0.326 N 
ATOM     15  H   UNL A   1      32.664  23.073  20.864  1.00  0.00     0.169 HD
ATOM     16  O   UNL A   1      33.244  25.379  20.751  1.00  0.00    -0.274 OA
BRANCH  14  17
ATOM     17  C   UNL A   1      33.121  22.446  22.725  1.00  0.00     0.041 A 
ATOM     18  C   UNL A   1      34.293  21.579  24.666  1.00  0.00     0.041 A 
ATOM     19  C   UNL A   1      33.517  20.421  24.671  1.00  0.00     0.014 A 
ATOM     20  C   UNL A   1      34.123  22.586  23.691  1.00  0.00     0.040 A 
ATOM     21  C   UNL A   1      32.471  20.332  23.775  1.00  0.00     0.003 A 
ATOM     22  C   UNL A   1      32.259  21.377  22.871  1.00  0.00     0.026 A 
BRANCH  18  23
ATOM     23  C   UNL A   1      35.252  21.737  25.768  1.00  0.00     0.251 C 
ATOM     24  N   UNL A   1      34.768  22.060  27.009  1.00  0.00    -0.350 N 
ATOM     25  H   UNL A   1      35.447  22.243  27.697  1.00  0.00     0.163 HD
ATOM     26  O   UNL A   1      36.446  21.527  25.579  1.00  0.00    -0.269 OA
BRANCH  24  27
ATOM     27  C   UNL A   1      33.380  22.168  27.443  1.00  0.00     0.144 C 
BRANCH  27  28
ATOM     28  C   UNL A   1      32.707  23.483  27.020  1.00  0.00     0.181 C 
BRANCH  28  29
ATOM     29  O   UNL A   1      31.375  23.617  27.524  1.00  0.00    -0.383 OA
ATOM     30  C   UNL A   1      30.383  23.057  26.675  1.00  0.00     0.194 C 
ENDBRANCH  28  29
ENDBRANCH  27  28
ENDBRANCH  24  27
ENDBRANCH  18  23
ENDBRANCH  14  17
ENDBRANCH   8  13
ENDBRANCH   4   7
ENDBRANCH   2   3
ENDBRANCH   1   2
BRANCH   1  31
ATOM     31  C   UNL A   1      34.965  28.969  27.259  1.00  0.00     0.002 C 
BRANCH  31  32
ATOM     32  C   UNL A   1      35.069  30.331  27.930  1.00  0.00     0.002 C 
BRANCH  32  33
ATOM     33  C   UNL A   1      34.325  31.433  27.185  1.00  0.00     0.021 C 
BRANCH  33  34
ATOM     34  C   UNL A   1      32.988  31.819  27.812  1.00  0.00     0.116 C 
BRANCH  34  35
ATOM     35  N   UNL A   1      32.701  33.244  27.713  1.00  0.00    -0.352 N 
ATOM     36  C   UNL A   1      33.300  34.266  28.414  1.00  0.00     0.251 C 
ATOM     37  H   UNL A   1      32.000  33.505  27.070  1.00  0.00     0.163 HD
ATOM     38  O   UNL A   1      32.876  35.415  28.356  1.00  0.00    -0.269 OA
BRANCH  36  39
ATOM     39  C   UNL A   1      34.445  33.920  29.277  1.00  0.00     0.039 A 
ATOM     40  C   UNL A   1      34.234  33.117  30.396  1.00  0.00     0.014 A 
ATOM     41  C   UNL A   1      35.738  34.267  28.871  1.00  0.00     0.014 A 
ATOM     42  C   UNL A   1      35.335  32.584  31.067  1.00  0.00     0.010 A 
ATOM     43  C   UNL A   1      36.829  33.671  29.493  1.00  0.00     0.010 A 
ATOM     44  C   UNL A   1      36.637  32.811  30.587  1.00  0.00    -0.014 A 
BRANCH  44  45
ATOM     45  C   UNL A   1      37.808  32.128  31.195  1.00  0.00     0.031 A 
ATOM     46  C   UNL A   1      38.556  31.084  30.415  1.00  0.00     0.074 A 
ATOM     47  C   UNL A   1      38.153  32.406  32.469  1.00  0.00     0.049 A 
ATOM     48  N   UNL A   1      39.558  30.334  30.790  1.00  0.00    -0.248 NA
ATOM     49  C   UNL A   1      38.093  30.830  29.043  1.00  0.00     0.031 C 
ATOM     50  C   UNL A   1      37.472  33.371  33.337  1.00  0.00     0.029 A 
ATOM     51  N   UNL A   1      39.155  31.903  33.260  1.00  0.00    -0.354 N 
ATOM     52  C   UNL A   1      39.847  29.517  29.702  1.00  0.00     0.074 A 
ATOM     53  C   UNL A   1      38.867  29.817  28.680  1.00  0.00     0.031 C 
ATOM     54  C   UNL A   1      38.097  33.414  34.524  1.00  0.00     0.029 A 
ATOM     55  C   UNL A   1      39.185  32.441  34.527  1.00  0.00     0.049 A 
ATOM     56  H   UNL A   1      39.793  31.221  32.951  1.00  0.00     0.167 HD
ATOM     57  C   UNL A   1      40.853  28.619  29.562  1.00  0.00     0.034 A 
ATOM     58  C   UNL A   1      39.986  32.170  35.577  1.00  0.00     0.034 A 
ATOM     59  C   UNL A   1      41.819  28.335  30.593  1.00  0.00     0.049 A 
ATOM     60  C   UNL A   1      41.064  31.127  35.412  1.00  0.00     0.074 A 
ATOM     61  C   UNL A   1      42.910  27.485  30.541  1.00  0.00     0.029 A 
ATOM     62  N   UNL A   1      41.805  28.880  31.872  1.00  0.00    -0.354 N 
ATOM     63  N   UNL A   1      41.362  30.408  34.355  1.00  0.00    -0.248 NA
ATOM     64  C   UNL A   1      41.914  30.863  36.580  1.00  0.00     0.031 C 
ATOM     65  C   UNL A   1      43.501  27.450  31.808  1.00  0.00     0.029 A 
ATOM     66  C   UNL A   1      42.837  28.348  32.629  1.00  0.00     0.049 A 
ATOM     67  H   UNL A   1      41.156  29.546  32.194  1.00  0.00     0.167 HD
ATOM     68  C   UNL A   1      42.453  29.625  34.725  1.00  0.00     0.074 A 
ATOM     69  C   UNL A   1      42.772  29.980  36.092  1.00  0.00     0.031 C 
ATOM     70  C   UNL A   1      43.130  28.696  34.001  1.00  0.00     0.034 A 
BRANCH  57  71
ATOM     71  C   UNL A   1      40.933  27.863  28.257  1.00  0.00     0.023 A 
ATOM     72  C   UNL A   1      40.350  26.594  28.099  1.00  0.00     0.031 A 
ATOM     73  C   UNL A   1      41.621  28.410  27.158  1.00  0.00     0.131 A 
ATOM     74  C   UNL A   1      40.527  25.884  26.902  1.00  0.00     0.055 A 
ATOM     75  C   UNL A   1      41.719  27.735  25.940  1.00  0.00     0.041 A 
ATOM     76  F   UNL A   1      42.220  29.607  27.254  1.00  0.00    -0.206 F 
ATOM     77  C   UNL A   1      41.184  26.456  25.812  1.00  0.00     0.022 A 
BRANCH  74  78
ATOM     78  S   UNL A   1      40.016  24.144  26.845  1.00  0.00     0.124 S 
ATOM     79  O   UNL A   1      38.835  24.211  25.987  1.00  0.00    -0.237 OA
ATOM     80  O   UNL A   1      41.188  23.491  26.270  1.00  0.00    -0.237 OA
ATOM     81  O   UNL A   1      39.744  23.820  28.243  1.00  0.00    -0.744 OA
ENDBRANCH  74  78
ENDBRANCH  57  71
BRANCH  58  82
ATOM     82  C   UNL A   1      39.793  32.869  36.881  1.00  0.00     0.023 A 
ATOM     83  C   UNL A   1      38.860  32.406  37.822  1.00  0.00     0.031 A 
ATOM     84  C   UNL A   1      40.503  34.046  37.186  1.00  0.00     0.131 A 
ATOM     85  C   UNL A   1      38.625  33.138  38.997  1.00  0.00     0.055 A 
ATOM     86  C   UNL A   1      40.311  34.737  38.384  1.00  0.00     0.041 A 
ATOM     87  F   UNL A   1      41.407  34.537  36.322  1.00  0.00    -0.206 F 
ATOM     88  C   UNL A   1      39.356  34.291  39.292  1.00  0.00     0.022 A 
BRANCH  85  89
ATOM     89  S   UNL A   1      37.275  32.617  40.092  1.00  0.00     0.124 S 
ATOM     90  O   UNL A   1      36.169  32.480  39.152  1.00  0.00    -0.237 OA
ATOM     91  O   UNL A   1      37.802  31.376  40.650  1.00  0.00    -0.237 OA
ATOM     92  O   UNL A   1      37.159  33.724  41.038  1.00  0.00    -0.744 OA
ENDBRANCH  85  89
ENDBRANCH  58  82
BRANCH  70  93
ATOM     93  C   UNL A   1      44.300  28.022  34.675  1.00  0.00     0.023 A 
ATOM     94  C   UNL A   1      44.168  26.771  35.304  1.00  0.00     0.031 A 
ATOM     95  C   UNL A   1      45.562  28.641  34.699  1.00  0.00     0.131 A 
ATOM     96  C   UNL A   1      45.260  26.209  35.982  1.00  0.00     0.055 A 
ATOM     97  C   UNL A   1      46.664  28.045  35.313  1.00  0.00     0.041 A 
ATOM     98  F   UNL A   1      45.746  29.839  34.119  1.00  0.00    -0.206 F 
ATOM     99  C   UNL A   1      46.513  26.829  35.972  1.00  0.00     0.022 A 
BRANCH  96 100
ATOM    100  S   UNL A   1      44.995  24.710  36.966  1.00  0.00     0.124 S 
ATOM    101  O   UNL A   1      44.556  25.261  38.244  1.00  0.00    -0.237 OA
ATOM    102  O   UNL A   1      43.978  24.005  36.193  1.00  0.00    -0.237 OA
ATOM    103  O   UNL A   1      46.311  24.075  36.984  1.00  0.00    -0.744 OA
ENDBRANCH  96 100
ENDBRANCH  70  93
ENDBRANCH  44  45
ENDBRANCH  36  39
ENDBRANCH  34  35
ENDBRANCH  33  34
ENDBRANCH  32  33
ENDBRANCH  31  32
ENDBRANCH   1  31
TORSDOF 22
ENDMDL
