MODEL 1
REMARK VINA RESULT:     -13.5      0.000      0.000
REMARK SMILES Cc1ccc(-c2nc(NC(=O)[C@H]3[C@@H](C(=O)NCCCCCCNC(=O)c4ccc(-c5c6nc(c(-c7cc(S(=O)(=O)[O-])ccc7F)c7ccc([nH]7)c(-c7cc(S(=O)(=O)[O-])ccc7F)c7nc(c(-c8cc(S(=O)(=O)[O-])ccc8F)c8ccc5[nH]8)C=C7)C=C6)cc4)[C@@H]4CC[C@H]3O4)sc2C)cc1
REMARK SMILES IDX 19 1 18 2 17 3 16 4 14 5 15 6 13 8 12 9 92 10 89 11 91 12
REMARK SMILES IDX 93 13 90 14 10 15 9 16 11 18 8 19 6 20 7 21 95 22 94 23
REMARK SMILES IDX 96 24 5 25 1 26 2 27 3 28 98 29 4 30 97 31 20 32 21 33 22 34
REMARK SMILES IDX 23 35 24 36 25 38 26 39 27 40 88 41 28 42 87 43 29 44 30 45
REMARK SMILES IDX 31 46 81 47 32 48 86 49 80 50 82 51 33 52 85 53 79 54 78 55
REMARK SMILES IDX 34 57 66 58 46 59 65 60 47 61 50 62 64 63 83 64 48 65 49 66
REMARK SMILES IDX 63 68 84 69 51 70 35 71 36 72 44 73 37 74 43 75 45 76 42 77
REMARK SMILES IDX 38 78 39 79 40 80 41 81 67 82 68 83 76 84 69 85 75 86 77 87
REMARK SMILES IDX 74 88 70 89 71 90 72 91 73 92 52 93 53 94 61 95 54 96 60 97
REMARK SMILES IDX 62 98 59 99 55 100 56 101 57 102 58 103
REMARK H PARENT 16 7 9 17 23 37 82 56 50 67
REMARK Flexibility Score: inf
ROOT
ATOM      1  C   UNL A   1      36.040  21.953  26.012  1.00  0.00     0.002 C 
ENDROOT
BRANCH   1   2
ATOM      2  C   UNL A   1      35.565  23.391  26.213  1.00  0.00     0.021 C 
BRANCH   2   3
ATOM      3  C   UNL A   1      35.611  24.347  25.031  1.00  0.00     0.116 C 
BRANCH   3   4
ATOM      4  N   UNL A   1      34.634  24.133  23.984  1.00  0.00    -0.356 N 
ATOM      5  C   UNL A   1      33.993  25.092  23.259  1.00  0.00     0.226 C 
ATOM      6  O   UNL A   1      33.871  24.913  22.043  1.00  0.00    -0.275 OA
ATOM      7  H   UNL A   1      34.409  23.198  23.774  1.00  0.00     0.163 HD
BRANCH   5   8
ATOM      8  C   UNL A   1      33.611  26.393  23.920  1.00  0.00     0.122 C 
ATOM      9  C   UNL A   1      32.846  26.531  25.241  1.00  0.00     0.123 C 
ATOM     10  C   UNL A   1      32.209  27.916  25.015  1.00  0.00     0.132 C 
ATOM     11  C   UNL A   1      32.853  27.400  23.009  1.00  0.00     0.132 C 
ATOM     12  C   UNL A   1      33.258  29.005  24.670  1.00  0.00     0.035 C 
ATOM     13  O   UNL A   1      31.615  27.665  23.723  1.00  0.00    -0.373 OA
ATOM     14  C   UNL A   1      33.483  28.779  23.168  1.00  0.00     0.035 C 
BRANCH   9  15
ATOM     15  C   UNL A   1      31.797  25.679  26.003  1.00  0.00     0.232 C 
ATOM     16  N   UNL A   1      31.378  24.398  25.955  1.00  0.00    -0.302 N 
ATOM     17  H   UNL A   1      30.714  24.217  26.659  1.00  0.00     0.172 HD
ATOM     18  O   UNL A   1      31.146  26.345  26.842  1.00  0.00    -0.274 OA
BRANCH  16  19
ATOM     19  C   UNL A   1      31.614  23.280  25.207  1.00  0.00     0.190 A 
ATOM     20  C   UNL A   1      32.350  21.243  24.646  1.00  0.00     0.086 A 
ATOM     21  N   UNL A   1      32.118  22.155  25.689  1.00  0.00    -0.220 NA
ATOM     22  C   UNL A   1      31.912  21.699  23.410  1.00  0.00     0.031 A 
ATOM     23  S   UNL A   1      31.150  23.209  23.604  1.00  0.00    -0.101 S 
ATOM     24  C   UNL A   1      31.950  21.129  22.038  1.00  0.00     0.059 C 
BRANCH  20  25
ATOM     25  C   UNL A   1      32.964  19.918  24.840  1.00  0.00     0.001 A 
ATOM     26  C   UNL A   1      34.730  15.942  24.885  1.00  0.00     0.044 C 
ATOM     27  C   UNL A   1      34.121  17.315  24.894  1.00  0.00    -0.051 A 
ATOM     28  C   UNL A   1      32.801  17.526  25.318  1.00  0.00     0.004 A 
ATOM     29  C   UNL A   1      34.875  18.420  24.502  1.00  0.00     0.004 A 
ATOM     30  C   UNL A   1      32.227  18.815  25.290  1.00  0.00     0.010 A 
ATOM     31  C   UNL A   1      34.309  19.700  24.498  1.00  0.00     0.010 A 
ENDBRANCH  20  25
ENDBRANCH  16  19
ENDBRANCH   9  15
ENDBRANCH   5   8
ENDBRANCH   3   4
ENDBRANCH   2   3
ENDBRANCH   1   2
BRANCH   1  32
ATOM     32  C   UNL A   1      37.213  21.677  25.068  1.00  0.00     0.002 C 
BRANCH  32  33
ATOM     33  C   UNL A   1      38.617  21.571  25.658  1.00  0.00     0.021 C 
BRANCH  33  34
ATOM     34  C   UNL A   1      39.080  22.783  26.460  1.00  0.00     0.116 C 
BRANCH  34  35
ATOM     35  N   UNL A   1      40.507  23.047  26.330  1.00  0.00    -0.352 N 
ATOM     36  C   UNL A   1      41.208  24.231  26.483  1.00  0.00     0.251 C 
ATOM     37  H   UNL A   1      41.055  22.264  26.097  1.00  0.00     0.163 HD
ATOM     38  O   UNL A   1      42.410  24.277  26.312  1.00  0.00    -0.269 OA
BRANCH  36  39
ATOM     39  C   UNL A   1      40.497  25.424  27.015  1.00  0.00     0.039 A 
ATOM     40  C   UNL A   1      40.787  26.653  26.411  1.00  0.00     0.014 A 
ATOM     41  C   UNL A   1      39.743  25.380  28.183  1.00  0.00     0.014 A 
ATOM     42  C   UNL A   1      40.534  27.834  27.102  1.00  0.00     0.010 A 
ATOM     43  C   UNL A   1      39.568  26.540  28.913  1.00  0.00     0.010 A 
ATOM     44  C   UNL A   1      40.022  27.755  28.398  1.00  0.00    -0.014 A 
BRANCH  44  45
ATOM     45  C   UNL A   1      40.030  28.892  29.307  1.00  0.00     0.031 A 
ATOM     46  C   UNL A   1      38.960  29.899  29.242  1.00  0.00     0.074 A 
ATOM     47  C   UNL A   1      41.042  29.034  30.188  1.00  0.00     0.049 A 
ATOM     48  N   UNL A   1      39.119  31.153  29.498  1.00  0.00    -0.248 NA
ATOM     49  C   UNL A   1      37.610  29.554  28.824  1.00  0.00     0.031 C 
ATOM     50  C   UNL A   1      41.174  30.026  31.250  1.00  0.00     0.029 A 
ATOM     51  N   UNL A   1      42.301  28.445  30.098  1.00  0.00    -0.354 N 
ATOM     52  C   UNL A   1      37.868  31.722  29.559  1.00  0.00     0.074 A 
ATOM     53  C   UNL A   1      36.970  30.703  29.059  1.00  0.00     0.031 C 
ATOM     54  C   UNL A   1      42.479  30.179  31.531  1.00  0.00     0.029 A 
ATOM     55  C   UNL A   1      43.228  29.386  30.569  1.00  0.00     0.049 A 
ATOM     56  H   UNL A   1      42.501  27.540  29.766  1.00  0.00     0.167 HD
ATOM     57  C   UNL A   1      37.705  32.933  30.166  1.00  0.00     0.034 A 
ATOM     58  C   UNL A   1      44.202  29.863  29.743  1.00  0.00     0.034 A 
ATOM     59  C   UNL A   1      38.986  33.488  30.610  1.00  0.00     0.049 A 
ATOM     60  C   UNL A   1      44.118  31.358  29.520  1.00  0.00     0.074 A 
ATOM     61  C   UNL A   1      39.610  33.527  31.847  1.00  0.00     0.029 A 
ATOM     62  N   UNL A   1      39.956  33.835  29.673  1.00  0.00    -0.354 N 
ATOM     63  N   UNL A   1      43.060  32.088  29.751  1.00  0.00    -0.248 NA
ATOM     64  C   UNL A   1      45.236  32.138  29.006  1.00  0.00     0.031 C 
ATOM     65  C   UNL A   1      40.981  33.833  31.638  1.00  0.00     0.029 A 
ATOM     66  C   UNL A   1      41.185  34.016  30.281  1.00  0.00     0.049 A 
ATOM     67  H   UNL A   1      39.789  33.940  28.708  1.00  0.00     0.167 HD
ATOM     68  C   UNL A   1      43.320  33.395  29.411  1.00  0.00     0.074 A 
ATOM     69  C   UNL A   1      44.709  33.373  28.983  1.00  0.00     0.031 C 
ATOM     70  C   UNL A   1      42.368  34.379  29.504  1.00  0.00     0.034 A 
BRANCH  57  71
ATOM     71  C   UNL A   1      36.357  33.421  30.658  1.00  0.00     0.023 A 
ATOM     72  C   UNL A   1      35.493  34.099  29.772  1.00  0.00     0.031 A 
ATOM     73  C   UNL A   1      35.894  33.313  31.983  1.00  0.00     0.131 A 
ATOM     74  C   UNL A   1      34.324  34.736  30.231  1.00  0.00     0.055 A 
ATOM     75  C   UNL A   1      34.773  34.007  32.457  1.00  0.00     0.041 A 
ATOM     76  F   UNL A   1      36.482  32.492  32.865  1.00  0.00    -0.206 F 
ATOM     77  C   UNL A   1      33.989  34.743  31.582  1.00  0.00     0.022 A 
BRANCH  74  78
ATOM     78  S   UNL A   1      33.235  35.557  29.034  1.00  0.00     0.124 S 
ATOM     79  O   UNL A   1      32.604  34.428  28.359  1.00  0.00    -0.237 OA
ATOM     80  O   UNL A   1      32.375  36.356  29.900  1.00  0.00    -0.237 OA
ATOM     81  O   UNL A   1      34.162  36.329  28.206  1.00  0.00    -0.744 OA
ENDBRANCH  74  78
ENDBRANCH  57  71
BRANCH  58  82
ATOM     82  C   UNL A   1      44.670  28.865  28.733  1.00  0.00     0.023 A 
ATOM     83  C   UNL A   1      45.156  27.625  29.207  1.00  0.00     0.031 A 
ATOM     84  C   UNL A   1      44.317  28.951  27.380  1.00  0.00     0.131 A 
ATOM     85  C   UNL A   1      45.131  26.488  28.384  1.00  0.00     0.055 A 
ATOM     86  C   UNL A   1      44.355  27.828  26.544  1.00  0.00     0.041 A 
ATOM     87  F   UNL A   1      43.815  30.087  26.874  1.00  0.00    -0.206 F 
ATOM     88  C   UNL A   1      44.720  26.581  27.054  1.00  0.00     0.022 A 
BRANCH  85  89
ATOM     89  S   UNL A   1      45.391  24.846  29.125  1.00  0.00     0.124 S 
ATOM     90  O   UNL A   1      46.091  25.177  30.361  1.00  0.00    -0.237 OA
ATOM     91  O   UNL A   1      44.030  24.336  29.281  1.00  0.00    -0.237 OA
ATOM     92  O   UNL A   1      46.182  24.137  28.120  1.00  0.00    -0.744 OA
ENDBRANCH  85  89
ENDBRANCH  58  82
BRANCH  70  93
ATOM     93  C   UNL A   1      42.494  35.800  28.974  1.00  0.00     0.023 A 
ATOM     94  C   UNL A   1      43.313  36.781  29.555  1.00  0.00     0.031 A 
ATOM     95  C   UNL A   1      41.810  36.211  27.801  1.00  0.00     0.131 A 
ATOM     96  C   UNL A   1      43.351  38.099  29.061  1.00  0.00     0.055 A 
ATOM     97  C   UNL A   1      41.914  37.499  27.261  1.00  0.00     0.041 A 
ATOM     98  F   UNL A   1      41.016  35.377  27.114  1.00  0.00    -0.206 F 
ATOM     99  C   UNL A   1      42.672  38.461  27.904  1.00  0.00     0.022 A 
BRANCH  96 100
ATOM    100  S   UNL A   1      44.260  39.344  30.015  1.00  0.00     0.124 S 
ATOM    101  O   UNL A   1      45.444  38.597  30.431  1.00  0.00    -0.237 OA
ATOM    102  O   UNL A   1      44.489  40.393  29.027  1.00  0.00    -0.237 OA
ATOM    103  O   UNL A   1      43.336  39.695  31.093  1.00  0.00    -0.744 OA
ENDBRANCH  96 100
ENDBRANCH  70  93
ENDBRANCH  44  45
ENDBRANCH  36  39
ENDBRANCH  34  35
ENDBRANCH  33  34
ENDBRANCH  32  33
ENDBRANCH   1  32
TORSDOF 19
ENDMDL
MODEL 2
REMARK VINA RESULT:     -13.0      3.880     10.016
REMARK SMILES Cc1ccc(-c2nc(NC(=O)[C@H]3[C@@H](C(=O)NCCCCCCNC(=O)c4ccc(-c5c6nc(c(-c7cc(S(=O)(=O)[O-])ccc7F)c7ccc([nH]7)c(-c7cc(S(=O)(=O)[O-])ccc7F)c7nc(c(-c8cc(S(=O)(=O)[O-])ccc8F)c8ccc5[nH]8)C=C7)C=C6)cc4)[C@@H]4CC[C@H]3O4)sc2C)cc1
REMARK SMILES IDX 19 1 18 2 17 3 16 4 14 5 15 6 13 8 12 9 92 10 89 11 91 12
REMARK SMILES IDX 93 13 90 14 10 15 9 16 11 18 8 19 6 20 7 21 95 22 94 23
REMARK SMILES IDX 96 24 5 25 1 26 2 27 3 28 98 29 4 30 97 31 20 32 21 33 22 34
REMARK SMILES IDX 23 35 24 36 25 38 26 39 27 40 88 41 28 42 87 43 29 44 30 45
REMARK SMILES IDX 31 46 81 47 32 48 86 49 80 50 82 51 33 52 85 53 79 54 78 55
REMARK SMILES IDX 34 57 66 58 46 59 65 60 47 61 50 62 64 63 83 64 48 65 49 66
REMARK SMILES IDX 63 68 84 69 51 70 35 71 36 72 44 73 37 74 43 75 45 76 42 77
REMARK SMILES IDX 38 78 39 79 40 80 41 81 67 82 68 83 76 84 69 85 75 86 77 87
REMARK SMILES IDX 74 88 70 89 71 90 72 91 73 92 52 93 53 94 61 95 54 96 60 97
REMARK SMILES IDX 62 98 59 99 55 100 56 101 57 102 58 103
REMARK H PARENT 16 7 9 17 23 37 82 56 50 67
REMARK Flexibility Score: inf
ROOT
ATOM      1  C   UNL A   1      32.961  30.672  26.900  1.00  0.00     0.002 C 
ENDROOT
BRANCH   1   2
ATOM      2  C   UNL A   1      33.388  29.322  27.473  1.00  0.00     0.021 C 
BRANCH   2   3
ATOM      3  C   UNL A   1      32.513  28.106  27.208  1.00  0.00     0.116 C 
BRANCH   3   4
ATOM      4  N   UNL A   1      33.097  27.046  26.413  1.00  0.00    -0.356 N 
ATOM      5  C   UNL A   1      33.077  26.941  25.054  1.00  0.00     0.226 C 
ATOM      6  O   UNL A   1      34.116  26.590  24.487  1.00  0.00    -0.275 OA
ATOM      7  H   UNL A   1      33.557  26.327  26.904  1.00  0.00     0.163 HD
BRANCH   5   8
ATOM      8  C   UNL A   1      31.864  27.409  24.291  1.00  0.00     0.122 C 
ATOM      9  C   UNL A   1      31.210  26.673  23.117  1.00  0.00     0.123 C 
ATOM     10  C   UNL A   1      30.563  27.874  22.400  1.00  0.00     0.132 C 
ATOM     11  C   UNL A   1      31.949  28.863  23.745  1.00  0.00     0.132 C 
ATOM     12  C   UNL A   1      29.645  28.703  23.335  1.00  0.00     0.035 C 
ATOM     13  O   UNL A   1      31.730  28.720  22.315  1.00  0.00    -0.373 OA
ATOM     14  C   UNL A   1      30.652  29.591  24.080  1.00  0.00     0.035 C 
BRANCH   9  15
ATOM     15  C   UNL A   1      31.703  25.707  22.007  1.00  0.00     0.232 C 
ATOM     16  N   UNL A   1      32.320  24.509  21.978  1.00  0.00    -0.302 N 
ATOM     17  H   UNL A   1      32.416  24.183  21.053  1.00  0.00     0.172 HD
ATOM     18  O   UNL A   1      31.524  26.161  20.852  1.00  0.00    -0.274 OA
BRANCH  16  19
ATOM     19  C   UNL A   1      32.849  23.617  22.866  1.00  0.00     0.190 A 
ATOM     20  C   UNL A   1      34.355  22.546  24.126  1.00  0.00     0.086 A 
ATOM     21  N   UNL A   1      34.087  23.671  23.330  1.00  0.00    -0.220 NA
ATOM     22  C   UNL A   1      33.251  21.724  24.308  1.00  0.00     0.031 A 
ATOM     23  S   UNL A   1      31.897  22.427  23.551  1.00  0.00    -0.101 S 
ATOM     24  C   UNL A   1      33.037  20.443  25.029  1.00  0.00     0.059 C 
BRANCH  20  25
ATOM     25  C   UNL A   1      35.666  22.275  24.743  1.00  0.00     0.001 A 
ATOM     26  C   UNL A   1      39.746  21.741  26.156  1.00  0.00     0.044 C 
ATOM     27  C   UNL A   1      38.329  21.911  25.686  1.00  0.00    -0.051 A 
ATOM     28  C   UNL A   1      37.635  20.863  25.064  1.00  0.00     0.004 A 
ATOM     29  C   UNL A   1      37.663  23.118  25.887  1.00  0.00     0.004 A 
ATOM     30  C   UNL A   1      36.317  21.043  24.595  1.00  0.00     0.010 A 
ATOM     31  C   UNL A   1      36.347  23.285  25.442  1.00  0.00     0.010 A 
ENDBRANCH  20  25
ENDBRANCH  16  19
ENDBRANCH   9  15
ENDBRANCH   5   8
ENDBRANCH   3   4
ENDBRANCH   2   3
ENDBRANCH   1   2
BRANCH   1  32
ATOM     32  C   UNL A   1      33.073  31.925  27.771  1.00  0.00     0.002 C 
BRANCH  32  33
ATOM     33  C   UNL A   1      34.363  32.738  27.720  1.00  0.00     0.021 C 
BRANCH  33  34
ATOM     34  C   UNL A   1      35.601  32.032  28.263  1.00  0.00     0.116 C 
BRANCH  34  35
ATOM     35  N   UNL A   1      35.602  31.912  29.715  1.00  0.00    -0.352 N 
ATOM     36  C   UNL A   1      36.197  30.961  30.527  1.00  0.00     0.251 C 
ATOM     37  H   UNL A   1      35.105  32.615  30.192  1.00  0.00     0.163 HD
ATOM     38  O   UNL A   1      36.075  31.000  31.736  1.00  0.00    -0.269 OA
BRANCH  36  39
ATOM     39  C   UNL A   1      37.122  29.970  29.915  1.00  0.00     0.039 A 
ATOM     40  C   UNL A   1      37.377  28.807  30.650  1.00  0.00     0.014 A 
ATOM     41  C   UNL A   1      37.867  30.255  28.775  1.00  0.00     0.014 A 
ATOM     42  C   UNL A   1      38.527  28.068  30.386  1.00  0.00     0.010 A 
ATOM     43  C   UNL A   1      39.054  29.579  28.564  1.00  0.00     0.010 A 
ATOM     44  C   UNL A   1      39.410  28.528  29.410  1.00  0.00    -0.014 A 
BRANCH  44  45
ATOM     45  C   UNL A   1      40.769  28.020  29.289  1.00  0.00     0.031 A 
ATOM     46  C   UNL A   1      41.007  26.658  28.787  1.00  0.00     0.074 A 
ATOM     47  C   UNL A   1      41.806  28.793  29.671  1.00  0.00     0.049 A 
ATOM     48  N   UNL A   1      41.978  25.899  29.164  1.00  0.00    -0.248 NA
ATOM     49  C   UNL A   1      40.110  26.028  27.830  1.00  0.00     0.031 C 
ATOM     50  C   UNL A   1      43.231  28.518  29.523  1.00  0.00     0.029 A 
ATOM     51  N   UNL A   1      41.746  29.885  30.534  1.00  0.00    -0.354 N 
ATOM     52  C   UNL A   1      42.007  24.815  28.317  1.00  0.00     0.074 A 
ATOM     53  C   UNL A   1      40.781  24.906  27.554  1.00  0.00     0.031 C 
ATOM     54  C   UNL A   1      43.900  29.217  30.457  1.00  0.00     0.029 A 
ATOM     55  C   UNL A   1      42.912  29.857  31.312  1.00  0.00     0.049 A 
ATOM     56  H   UNL A   1      41.021  30.549  30.588  1.00  0.00     0.167 HD
ATOM     57  C   UNL A   1      43.131  24.045  28.243  1.00  0.00     0.034 A 
ATOM     58  C   UNL A   1      42.832  29.716  32.665  1.00  0.00     0.034 A 
ATOM     59  C   UNL A   1      44.151  24.489  29.195  1.00  0.00     0.049 A 
ATOM     60  C   UNL A   1      43.510  28.464  33.177  1.00  0.00     0.074 A 
ATOM     61  C   UNL A   1      45.292  25.263  29.051  1.00  0.00     0.029 A 
ATOM     62  N   UNL A   1      43.910  24.402  30.564  1.00  0.00    -0.354 N 
ATOM     63  N   UNL A   1      43.817  27.427  32.443  1.00  0.00    -0.248 NA
ATOM     64  C   UNL A   1      43.885  28.291  34.575  1.00  0.00     0.031 C 
ATOM     65  C   UNL A   1      45.694  25.698  30.342  1.00  0.00     0.029 A 
ATOM     66  C   UNL A   1      44.822  25.162  31.274  1.00  0.00     0.049 A 
ATOM     67  H   UNL A   1      43.188  23.871  30.972  1.00  0.00     0.167 HD
ATOM     68  C   UNL A   1      44.392  26.459  33.231  1.00  0.00     0.074 A 
ATOM     69  C   UNL A   1      44.441  27.067  34.551  1.00  0.00     0.031 C 
ATOM     70  C   UNL A   1      44.771  25.239  32.732  1.00  0.00     0.034 A 
BRANCH  57  71
ATOM     71  C   UNL A   1      43.415  23.133  27.066  1.00  0.00     0.023 A 
ATOM     72  C   UNL A   1      42.999  21.785  27.111  1.00  0.00     0.031 A 
ATOM     73  C   UNL A   1      44.136  23.500  25.915  1.00  0.00     0.131 A 
ATOM     74  C   UNL A   1      43.408  20.857  26.134  1.00  0.00     0.055 A 
ATOM     75  C   UNL A   1      44.607  22.567  24.981  1.00  0.00     0.041 A 
ATOM     76  F   UNL A   1      44.376  24.786  25.621  1.00  0.00    -0.206 F 
ATOM     77  C   UNL A   1      44.260  21.230  25.098  1.00  0.00     0.022 A 
BRANCH  74  78
ATOM     78  S   UNL A   1      42.807  19.148  26.227  1.00  0.00     0.124 S 
ATOM     79  O   UNL A   1      42.319  19.062  27.600  1.00  0.00    -0.237 OA
ATOM     80  O   UNL A   1      41.793  19.123  25.178  1.00  0.00    -0.237 OA
ATOM     81  O   UNL A   1      44.001  18.352  25.948  1.00  0.00    -0.744 OA
ENDBRANCH  74  78
ENDBRANCH  57  71
BRANCH  58  82
ATOM     82  C   UNL A   1      41.610  30.340  33.259  1.00  0.00     0.023 A 
ATOM     83  C   UNL A   1      41.588  31.748  33.394  1.00  0.00     0.031 A 
ATOM     84  C   UNL A   1      40.389  29.659  33.340  1.00  0.00     0.131 A 
ATOM     85  C   UNL A   1      40.367  32.439  33.447  1.00  0.00     0.055 A 
ATOM     86  C   UNL A   1      39.176  30.350  33.459  1.00  0.00     0.041 A 
ATOM     87  F   UNL A   1      40.336  28.329  33.185  1.00  0.00    -0.206 F 
ATOM     88  C   UNL A   1      39.157  31.745  33.468  1.00  0.00     0.022 A 
BRANCH  85  89
ATOM     89  S   UNL A   1      40.357  34.246  33.229  1.00  0.00     0.124 S 
ATOM     90  O   UNL A   1      39.225  34.437  32.330  1.00  0.00    -0.237 OA
ATOM     91  O   UNL A   1      40.178  34.740  34.593  1.00  0.00    -0.237 OA
ATOM     92  O   UNL A   1      41.673  34.531  32.659  1.00  0.00    -0.744 OA
ENDBRANCH  85  89
ENDBRANCH  58  82
BRANCH  70  93
ATOM     93  C   UNL A   1      45.231  24.040  33.550  1.00  0.00     0.023 A 
ATOM     94  C   UNL A   1      46.527  23.898  34.067  1.00  0.00     0.031 A 
ATOM     95  C   UNL A   1      44.335  22.992  33.886  1.00  0.00     0.131 A 
ATOM     96  C   UNL A   1      46.921  22.742  34.769  1.00  0.00     0.055 A 
ATOM     97  C   UNL A   1      44.703  21.883  34.657  1.00  0.00     0.041 A 
ATOM     98  F   UNL A   1      43.053  23.002  33.494  1.00  0.00    -0.206 F 
ATOM     99  C   UNL A   1      46.011  21.740  35.086  1.00  0.00     0.022 A 
BRANCH  96 100
ATOM    100  S   UNL A   1      48.672  22.555  35.195  1.00  0.00     0.124 S 
ATOM    101  O   UNL A   1      48.597  21.824  36.458  1.00  0.00    -0.237 OA
ATOM    102  O   UNL A   1      49.193  21.801  34.059  1.00  0.00    -0.237 OA
ATOM    103  O   UNL A   1      49.152  23.931  35.301  1.00  0.00    -0.744 OA
ENDBRANCH  96 100
ENDBRANCH  70  93
ENDBRANCH  44  45
ENDBRANCH  36  39
ENDBRANCH  34  35
ENDBRANCH  33  34
ENDBRANCH  32  33
ENDBRANCH   1  32
TORSDOF 19
ENDMDL
MODEL 3
REMARK VINA RESULT:     -12.9      3.914      9.931
REMARK SMILES Cc1ccc(-c2nc(NC(=O)[C@H]3[C@@H](C(=O)NCCCCCCNC(=O)c4ccc(-c5c6nc(c(-c7cc(S(=O)(=O)[O-])ccc7F)c7ccc([nH]7)c(-c7cc(S(=O)(=O)[O-])ccc7F)c7nc(c(-c8cc(S(=O)(=O)[O-])ccc8F)c8ccc5[nH]8)C=C7)C=C6)cc4)[C@@H]4CC[C@H]3O4)sc2C)cc1
REMARK SMILES IDX 19 1 18 2 17 3 16 4 14 5 15 6 13 8 12 9 92 10 89 11 91 12
REMARK SMILES IDX 93 13 90 14 10 15 9 16 11 18 8 19 6 20 7 21 95 22 94 23
REMARK SMILES IDX 96 24 5 25 1 26 2 27 3 28 98 29 4 30 97 31 20 32 21 33 22 34
REMARK SMILES IDX 23 35 24 36 25 38 26 39 27 40 88 41 28 42 87 43 29 44 30 45
REMARK SMILES IDX 31 46 81 47 32 48 86 49 80 50 82 51 33 52 85 53 79 54 78 55
REMARK SMILES IDX 34 57 66 58 46 59 65 60 47 61 50 62 64 63 83 64 48 65 49 66
REMARK SMILES IDX 63 68 84 69 51 70 35 71 36 72 44 73 37 74 43 75 45 76 42 77
REMARK SMILES IDX 38 78 39 79 40 80 41 81 67 82 68 83 76 84 69 85 75 86 77 87
REMARK SMILES IDX 74 88 70 89 71 90 72 91 73 92 52 93 53 94 61 95 54 96 60 97
REMARK SMILES IDX 62 98 59 99 55 100 56 101 57 102 58 103
REMARK H PARENT 16 7 9 17 23 37 82 56 50 67
REMARK Flexibility Score: inf
ROOT
ATOM      1  C   UNL A   1      33.559  30.696  27.015  1.00  0.00     0.002 C 
ENDROOT
BRANCH   1   2
ATOM      2  C   UNL A   1      34.362  29.398  27.078  1.00  0.00     0.021 C 
BRANCH   2   3
ATOM      3  C   UNL A   1      34.019  28.279  26.106  1.00  0.00     0.116 C 
BRANCH   3   4
ATOM      4  N   UNL A   1      34.393  28.482  24.722  1.00  0.00    -0.356 N 
ATOM      5  C   UNL A   1      33.554  28.537  23.650  1.00  0.00     0.226 C 
ATOM      6  O   UNL A   1      33.758  29.409  22.801  1.00  0.00    -0.275 OA
ATOM      7  H   UNL A   1      35.354  28.591  24.536  1.00  0.00     0.163 HD
BRANCH   5   8
ATOM      8  C   UNL A   1      32.327  27.661  23.622  1.00  0.00     0.122 C 
ATOM      9  C   UNL A   1      32.310  26.159  23.314  1.00  0.00     0.123 C 
ATOM     10  C   UNL A   1      30.869  26.032  22.782  1.00  0.00     0.132 C 
ATOM     11  C   UNL A   1      31.165  28.181  22.728  1.00  0.00     0.132 C 
ATOM     12  C   UNL A   1      29.814  26.577  23.780  1.00  0.00     0.035 C 
ATOM     13  O   UNL A   1      30.914  27.090  21.800  1.00  0.00    -0.373 OA
ATOM     14  C   UNL A   1      29.861  28.088  23.512  1.00  0.00     0.035 C 
BRANCH   9  15
ATOM     15  C   UNL A   1      33.182  25.197  22.465  1.00  0.00     0.232 C 
ATOM     16  N   UNL A   1      33.765  23.998  22.665  1.00  0.00    -0.302 N 
ATOM     17  H   UNL A   1      34.201  23.676  21.842  1.00  0.00     0.172 HD
ATOM     18  O   UNL A   1      33.449  25.655  21.330  1.00  0.00    -0.274 OA
BRANCH  16  19
ATOM     19  C   UNL A   1      33.923  23.102  23.683  1.00  0.00     0.190 A 
ATOM     20  C   UNL A   1      33.926  21.159  24.792  1.00  0.00     0.086 A 
ATOM     21  N   UNL A   1      33.837  21.789  23.541  1.00  0.00    -0.220 NA
ATOM     22  C   UNL A   1      34.176  22.041  25.835  1.00  0.00     0.031 A 
ATOM     23  S   UNL A   1      34.375  23.612  25.208  1.00  0.00    -0.101 S 
ATOM     24  C   UNL A   1      34.329  21.872  27.303  1.00  0.00     0.059 C 
BRANCH  20  25
ATOM     25  C   UNL A   1      33.804  19.703  24.986  1.00  0.00     0.001 A 
ATOM     26  C   UNL A   1      33.338  15.378  25.039  1.00  0.00     0.044 C 
ATOM     27  C   UNL A   1      33.501  16.872  25.045  1.00  0.00    -0.051 A 
ATOM     28  C   UNL A   1      32.496  17.714  25.540  1.00  0.00     0.004 A 
ATOM     29  C   UNL A   1      34.681  17.451  24.578  1.00  0.00     0.004 A 
ATOM     30  C   UNL A   1      32.644  19.117  25.509  1.00  0.00     0.010 A 
ATOM     31  C   UNL A   1      34.833  18.842  24.572  1.00  0.00     0.010 A 
ENDBRANCH  20  25
ENDBRANCH  16  19
ENDBRANCH   9  15
ENDBRANCH   5   8
ENDBRANCH   3   4
ENDBRANCH   2   3
ENDBRANCH   1   2
BRANCH   1  32
ATOM     32  C   UNL A   1      33.800  31.778  28.071  1.00  0.00     0.002 C 
BRANCH  32  33
ATOM     33  C   UNL A   1      34.921  32.788  27.840  1.00  0.00     0.021 C 
BRANCH  33  34
ATOM     34  C   UNL A   1      36.192  32.545  28.647  1.00  0.00     0.116 C 
BRANCH  34  35
ATOM     35  N   UNL A   1      35.932  32.173  30.031  1.00  0.00    -0.352 N 
ATOM     36  C   UNL A   1      36.271  31.020  30.720  1.00  0.00     0.251 C 
ATOM     37  H   UNL A   1      35.440  32.843  30.557  1.00  0.00     0.163 HD
ATOM     38  O   UNL A   1      35.949  30.863  31.881  1.00  0.00    -0.269 OA
BRANCH  36  39
ATOM     39  C   UNL A   1      37.172  30.033  30.068  1.00  0.00     0.039 A 
ATOM     40  C   UNL A   1      37.411  28.841  30.763  1.00  0.00     0.014 A 
ATOM     41  C   UNL A   1      37.916  30.342  28.933  1.00  0.00     0.014 A 
ATOM     42  C   UNL A   1      38.545  28.090  30.466  1.00  0.00     0.010 A 
ATOM     43  C   UNL A   1      39.088  29.651  28.691  1.00  0.00     0.010 A 
ATOM     44  C   UNL A   1      39.430  28.567  29.500  1.00  0.00    -0.014 A 
BRANCH  44  45
ATOM     45  C   UNL A   1      40.779  28.037  29.352  1.00  0.00     0.031 A 
ATOM     46  C   UNL A   1      40.986  26.675  28.840  1.00  0.00     0.074 A 
ATOM     47  C   UNL A   1      41.834  28.792  29.720  1.00  0.00     0.049 A 
ATOM     48  N   UNL A   1      41.952  25.898  29.196  1.00  0.00    -0.248 NA
ATOM     49  C   UNL A   1      40.063  26.063  27.896  1.00  0.00     0.031 C 
ATOM     50  C   UNL A   1      43.252  28.496  29.545  1.00  0.00     0.029 A 
ATOM     51  N   UNL A   1      41.806  29.880  30.588  1.00  0.00    -0.354 N 
ATOM     52  C   UNL A   1      41.948  24.818  28.344  1.00  0.00     0.074 A 
ATOM     53  C   UNL A   1      40.711  24.932  27.603  1.00  0.00     0.031 C 
ATOM     54  C   UNL A   1      43.948  29.179  30.470  1.00  0.00     0.029 A 
ATOM     55  C   UNL A   1      42.986  29.831  31.345  1.00  0.00     0.049 A 
ATOM     56  H   UNL A   1      41.093  30.556  30.658  1.00  0.00     0.167 HD
ATOM     57  C   UNL A   1      43.059  24.031  28.246  1.00  0.00     0.034 A 
ATOM     58  C   UNL A   1      42.928  29.684  32.699  1.00  0.00     0.034 A 
ATOM     59  C   UNL A   1      44.102  24.455  29.182  1.00  0.00     0.049 A 
ATOM     60  C   UNL A   1      43.595  28.419  33.193  1.00  0.00     0.074 A 
ATOM     61  C   UNL A   1      45.252  25.211  29.021  1.00  0.00     0.029 A 
ATOM     62  N   UNL A   1      43.883  24.365  30.555  1.00  0.00    -0.354 N 
ATOM     63  N   UNL A   1      43.872  27.382  32.449  1.00  0.00    -0.248 NA
ATOM     64  C   UNL A   1      43.992  28.233  34.583  1.00  0.00     0.031 C 
ATOM     65  C   UNL A   1      45.684  25.633  30.306  1.00  0.00     0.029 A 
ATOM     66  C   UNL A   1      44.820  25.106  31.252  1.00  0.00     0.049 A 
ATOM     67  H   UNL A   1      43.161  23.843  30.973  1.00  0.00     0.167 HD
ATOM     68  C   UNL A   1      44.446  26.401  33.222  1.00  0.00     0.074 A 
ATOM     69  C   UNL A   1      44.527  27.002  34.543  1.00  0.00     0.031 C 
ATOM     70  C   UNL A   1      44.797  25.177  32.711  1.00  0.00     0.034 A 
BRANCH  57  71
ATOM     71  C   UNL A   1      43.306  23.120  27.060  1.00  0.00     0.023 A 
ATOM     72  C   UNL A   1      42.844  21.787  27.094  1.00  0.00     0.031 A 
ATOM     73  C   UNL A   1      44.037  23.472  25.910  1.00  0.00     0.131 A 
ATOM     74  C   UNL A   1      43.218  20.855  26.107  1.00  0.00     0.055 A 
ATOM     75  C   UNL A   1      44.473  22.532  24.966  1.00  0.00     0.041 A 
ATOM     76  F   UNL A   1      44.322  24.752  25.627  1.00  0.00    -0.206 F 
ATOM     77  C   UNL A   1      44.079  21.207  25.073  1.00  0.00     0.022 A 
BRANCH  74  78
ATOM     78  S   UNL A   1      42.557  19.167  26.188  1.00  0.00     0.124 S 
ATOM     79  O   UNL A   1      43.659  18.373  25.655  1.00  0.00    -0.237 OA
ATOM     80  O   UNL A   1      42.279  19.015  27.612  1.00  0.00    -0.237 OA
ATOM     81  O   UNL A   1      41.372  19.225  25.333  1.00  0.00    -0.744 OA
ENDBRANCH  74  78
ENDBRANCH  57  71
BRANCH  58  82
ATOM     82  C   UNL A   1      41.727  30.325  33.317  1.00  0.00     0.023 A 
ATOM     83  C   UNL A   1      41.728  31.733  33.456  1.00  0.00     0.031 A 
ATOM     84  C   UNL A   1      40.497  29.662  33.420  1.00  0.00     0.131 A 
ATOM     85  C   UNL A   1      40.518  32.441  33.533  1.00  0.00     0.055 A 
ATOM     86  C   UNL A   1      39.297  30.370  33.563  1.00  0.00     0.041 A 
ATOM     87  F   UNL A   1      40.422  28.333  33.262  1.00  0.00    -0.206 F 
ATOM     88  C   UNL A   1      39.299  31.765  33.576  1.00  0.00     0.022 A 
BRANCH  85  89
ATOM     89  S   UNL A   1      40.531  34.249  33.321  1.00  0.00     0.124 S 
ATOM     90  O   UNL A   1      39.941  34.403  31.996  1.00  0.00    -0.237 OA
ATOM     91  O   UNL A   1      39.715  34.717  34.440  1.00  0.00    -0.237 OA
ATOM     92  O   UNL A   1      41.947  34.597  33.428  1.00  0.00    -0.744 OA
ENDBRANCH  85  89
ENDBRANCH  58  82
BRANCH  70  93
ATOM     93  C   UNL A   1      45.252  23.967  33.515  1.00  0.00     0.023 A 
ATOM     94  C   UNL A   1      46.526  23.845  34.089  1.00  0.00     0.031 A 
ATOM     95  C   UNL A   1      44.371  22.885  33.778  1.00  0.00     0.131 A 
ATOM     96  C   UNL A   1      46.919  22.679  34.776  1.00  0.00     0.055 A 
ATOM     97  C   UNL A   1      44.735  21.764  34.533  1.00  0.00     0.041 A 
ATOM     98  F   UNL A   1      43.109  22.872  33.325  1.00  0.00    -0.206 F 
ATOM     99  C   UNL A   1      46.025  21.644  35.020  1.00  0.00     0.022 A 
BRANCH  96 100
ATOM    100  S   UNL A   1      48.653  22.528  35.280  1.00  0.00     0.124 S 
ATOM    101  O   UNL A   1      48.895  23.821  35.914  1.00  0.00    -0.237 OA
ATOM    102  O   UNL A   1      48.619  21.379  36.179  1.00  0.00    -0.237 OA
ATOM    103  O   UNL A   1      49.362  22.311  34.020  1.00  0.00    -0.744 OA
ENDBRANCH  96 100
ENDBRANCH  70  93
ENDBRANCH  44  45
ENDBRANCH  36  39
ENDBRANCH  34  35
ENDBRANCH  33  34
ENDBRANCH  32  33
ENDBRANCH   1  32
TORSDOF 19
ENDMDL
