MODEL 1
REMARK VINA RESULT:     -10.8      0.000      0.000
REMARK SMILES Cc1ccc(Nc2nc3c(c(OCC(=O)NCCCCCCNC(=O)c4ccc(-c5c6nc(c(-c7cc(S(=O)(=O)[O-])ccc7F)c7ccc([nH]7)c(-c7cc(S(=O)(=O)[O-])ccc7F)c7nc(c(-c8cc(S(=O)(=O)[O-])ccc8F)c8ccc5[nH]8)C=C7)C=C6)cc4)n2)C[N@H+](Cc2ccccc2)CC3)cc1F
REMARK SMILES IDX 19 1 18 2 17 3 16 4 14 5 15 6 13 8 12 9 11 10 7 11 8 12
REMARK SMILES IDX 89 13 9 14 10 15 100 16 90 17 99 18 91 19 6 21 5 23 1 24
REMARK SMILES IDX 2 25 3 26 102 27 4 28 101 29 103 30 92 31 93 32 94 33 98 34
REMARK SMILES IDX 95 35 97 36 96 37 20 38 21 39 22 40 23 41 24 42 25 44 26 45
REMARK SMILES IDX 27 46 88 47 28 48 87 49 29 50 30 51 31 52 81 53 32 54 86 55
REMARK SMILES IDX 80 56 82 57 33 58 85 59 79 60 78 61 34 63 66 64 46 65 65 66
REMARK SMILES IDX 47 67 50 68 64 69 83 70 48 71 49 72 63 74 84 75 51 76 35 77
REMARK SMILES IDX 36 78 44 79 37 80 43 81 45 82 42 83 38 84 39 85 40 86 41 87
REMARK SMILES IDX 67 88 68 89 76 90 69 91 75 92 77 93 74 94 70 95 71 96 72 97
REMARK SMILES IDX 73 98 52 99 53 100 61 101 54 102 60 103 62 104 59 105 55 106
REMARK SMILES IDX 56 107 57 108 58 109
REMARK H PARENT 16 7 91 20 6 22 23 43 82 62 50 73
REMARK Flexibility Score: inf
ROOT
ATOM      1  C   UNL A   1      46.758  35.746  27.239  1.00  0.00     0.002 C 
ENDROOT
BRANCH   1   2
ATOM      2  C   UNL A   1      46.433  36.859  26.235  1.00  0.00     0.021 C 
BRANCH   2   3
ATOM      3  C   UNL A   1      47.540  37.903  26.108  1.00  0.00     0.116 C 
BRANCH   3   4
ATOM      4  N   UNL A   1      47.423  38.625  24.860  1.00  0.00    -0.353 N 
ATOM      5  C   UNL A   1      46.914  39.869  24.640  1.00  0.00     0.258 C 
ATOM      6  O   UNL A   1      46.882  40.299  23.486  1.00  0.00    -0.271 OA
ATOM      7  H   UNL A   1      47.757  38.155  24.062  1.00  0.00     0.163 HD
BRANCH   5   8
ATOM      8  C   UNL A   1      46.515  40.722  25.846  1.00  0.00     0.331 C 
BRANCH   8   9
ATOM      9  O   UNL A   1      45.741  41.886  25.606  1.00  0.00    -0.467 OA
BRANCH   9  10
ATOM     10  C   UNL A   1      44.380  41.679  25.569  1.00  0.00     0.228 A 
ATOM     11  C   UNL A   1      42.493  40.787  26.457  1.00  0.00     0.230 A 
ATOM     12  N   UNL A   1      41.742  41.214  25.426  1.00  0.00    -0.217 NA
ATOM     13  N   UNL A   1      43.798  41.035  26.586  1.00  0.00    -0.177 NA
ATOM     14  C   UNL A   1      42.352  41.921  24.455  1.00  0.00     0.064 A 
ATOM     15  C   UNL A   1      43.709  42.151  24.464  1.00  0.00     0.090 A 
ATOM     16  C   UNL A   1      41.513  42.393  23.300  1.00  0.00     0.118 C 
ATOM     17  C   UNL A   1      44.377  42.982  23.418  1.00  0.00     0.307 C 
ATOM     18  C   UNL A   1      42.201  43.511  22.506  1.00  0.00     0.269 C 
ATOM     19  N   UNL A   1      43.591  43.138  22.186  1.00  0.00    -0.327 N 
ATOM     20  H   UNL A   1      43.557  42.239  21.706  1.00  0.00     0.348 HD
BRANCH  11  21
ATOM     21  N   UNL A   1      41.946  39.930  27.406  1.00  0.00    -0.324 N 
ATOM     22  H   UNL A   1      41.221  40.289  27.966  1.00  0.00     0.170 HD
BRANCH  21  23
ATOM     23  C   UNL A   1      42.333  38.601  27.641  1.00  0.00     0.044 A 
ATOM     24  C   UNL A   1      43.600  34.540  28.381  1.00  0.00     0.047 C 
ATOM     25  C   UNL A   1      43.155  35.949  28.155  1.00  0.00    -0.015 A 
ATOM     26  C   UNL A   1      43.209  36.915  29.164  1.00  0.00     0.008 A 
ATOM     27  C   UNL A   1      42.671  36.320  26.903  1.00  0.00     0.128 A 
ATOM     28  C   UNL A   1      42.799  38.229  28.907  1.00  0.00     0.026 A 
ATOM     29  C   UNL A   1      42.253  37.617  26.647  1.00  0.00     0.065 A 
ATOM     30  F   UNL A   1      42.615  35.415  25.913  1.00  0.00    -0.207 F 
ENDBRANCH  21  23
ENDBRANCH  11  21
BRANCH  19  31
ATOM     31  C   UNL A   1      44.241  44.075  21.236  1.00  0.00     0.299 C 
BRANCH  31  32
ATOM     32  C   UNL A   1      45.730  43.873  21.058  1.00  0.00     0.006 A 
ATOM     33  C   UNL A   1      46.609  44.904  21.422  1.00  0.00     0.009 A 
ATOM     34  C   UNL A   1      46.253  42.630  20.667  1.00  0.00     0.009 A 
ATOM     35  C   UNL A   1      47.968  44.651  21.532  1.00  0.00     0.001 A 
ATOM     36  C   UNL A   1      47.609  42.366  20.817  1.00  0.00     0.001 A 
ATOM     37  C   UNL A   1      48.447  43.374  21.283  1.00  0.00     0.000 A 
ENDBRANCH  31  32
ENDBRANCH  19  31
ENDBRANCH   9  10
ENDBRANCH   8   9
ENDBRANCH   5   8
ENDBRANCH   3   4
ENDBRANCH   2   3
ENDBRANCH   1   2
BRANCH   1  38
ATOM     38  C   UNL A   1      46.958  36.218  28.691  1.00  0.00     0.002 C 
BRANCH  38  39
ATOM     39  C   UNL A   1      47.916  35.368  29.527  1.00  0.00     0.021 C 
BRANCH  39  40
ATOM     40  C   UNL A   1      47.164  34.516  30.505  1.00  0.00     0.116 C 
BRANCH  40  41
ATOM     41  N   UNL A   1      47.371  35.027  31.848  1.00  0.00    -0.352 N 
ATOM     42  C   UNL A   1      46.385  35.133  32.795  1.00  0.00     0.251 C 
ATOM     43  H   UNL A   1      48.279  35.316  32.094  1.00  0.00     0.163 HD
ATOM     44  O   UNL A   1      46.405  36.090  33.576  1.00  0.00    -0.269 OA
BRANCH  42  45
ATOM     45  C   UNL A   1      45.397  34.044  32.864  1.00  0.00     0.039 A 
ATOM     46  C   UNL A   1      45.699  32.736  33.247  1.00  0.00     0.014 A 
ATOM     47  C   UNL A   1      44.130  34.345  32.384  1.00  0.00     0.014 A 
ATOM     48  C   UNL A   1      44.763  31.727  33.002  1.00  0.00     0.010 A 
ATOM     49  C   UNL A   1      43.154  33.421  32.407  1.00  0.00     0.010 A 
ATOM     50  C   UNL A   1      43.521  32.095  32.502  1.00  0.00    -0.014 A 
BRANCH  50  51
ATOM     51  C   UNL A   1      42.478  31.257  31.946  1.00  0.00     0.031 A 
ATOM     52  C   UNL A   1      42.523  30.944  30.528  1.00  0.00     0.074 A 
ATOM     53  C   UNL A   1      41.751  30.543  32.847  1.00  0.00     0.049 A 
ATOM     54  N   UNL A   1      41.500  30.612  29.831  1.00  0.00    -0.248 NA
ATOM     55  C   UNL A   1      43.772  30.984  29.773  1.00  0.00     0.031 C 
ATOM     56  C   UNL A   1      40.997  29.314  32.671  1.00  0.00     0.029 A 
ATOM     57  N   UNL A   1      41.575  30.819  34.212  1.00  0.00    -0.354 N 
ATOM     58  C   UNL A   1      42.001  30.034  28.688  1.00  0.00     0.074 A 
ATOM     59  C   UNL A   1      43.375  30.478  28.603  1.00  0.00     0.031 C 
ATOM     60  C   UNL A   1      40.214  29.131  33.754  1.00  0.00     0.029 A 
ATOM     61  C   UNL A   1      40.321  30.328  34.574  1.00  0.00     0.049 A 
ATOM     62  H   UNL A   1      42.217  31.274  34.804  1.00  0.00     0.167 HD
ATOM     63  C   UNL A   1      41.283  29.036  28.094  1.00  0.00     0.034 A 
ATOM     64  C   UNL A   1      39.301  31.186  34.887  1.00  0.00     0.034 A 
ATOM     65  C   UNL A   1      40.048  28.771  28.868  1.00  0.00     0.049 A 
ATOM     66  C   UNL A   1      38.225  31.178  33.813  1.00  0.00     0.074 A 
ATOM     67  C   UNL A   1      39.695  27.766  29.756  1.00  0.00     0.029 A 
ATOM     68  N   UNL A   1      39.132  29.803  29.093  1.00  0.00    -0.354 N 
ATOM     69  N   UNL A   1      38.305  30.532  32.682  1.00  0.00    -0.248 NA
ATOM     70  C   UNL A   1      36.989  31.935  33.926  1.00  0.00     0.031 C 
ATOM     71  C   UNL A   1      38.601  28.226  30.549  1.00  0.00     0.029 A 
ATOM     72  C   UNL A   1      38.257  29.503  30.135  1.00  0.00     0.049 A 
ATOM     73  H   UNL A   1      39.109  30.640  28.578  1.00  0.00     0.167 HD
ATOM     74  C   UNL A   1      37.250  30.859  31.866  1.00  0.00     0.074 A 
ATOM     75  C   UNL A   1      36.414  31.666  32.741  1.00  0.00     0.031 C 
ATOM     76  C   UNL A   1      37.211  30.468  30.548  1.00  0.00     0.034 A 
BRANCH  63  77
ATOM     77  C   UNL A   1      41.878  28.100  27.045  1.00  0.00     0.023 A 
ATOM     78  C   UNL A   1      43.239  28.102  26.650  1.00  0.00     0.031 A 
ATOM     79  C   UNL A   1      41.084  27.130  26.402  1.00  0.00     0.131 A 
ATOM     80  C   UNL A   1      43.773  27.136  25.773  1.00  0.00     0.055 A 
ATOM     81  C   UNL A   1      41.601  26.202  25.484  1.00  0.00     0.041 A 
ATOM     82  F   UNL A   1      39.771  27.019  26.649  1.00  0.00    -0.206 F 
ATOM     83  C   UNL A   1      42.955  26.185  25.181  1.00  0.00     0.022 A 
BRANCH  80  84
ATOM     84  S   UNL A   1      45.561  27.048  25.436  1.00  0.00     0.124 S 
ATOM     85  O   UNL A   1      46.132  27.008  26.782  1.00  0.00    -0.237 OA
ATOM     86  O   UNL A   1      45.677  25.807  24.676  1.00  0.00    -0.237 OA
ATOM     87  O   UNL A   1      45.838  28.272  24.690  1.00  0.00    -0.744 OA
ENDBRANCH  80  84
ENDBRANCH  63  77
BRANCH  64  88
ATOM     88  C   UNL A   1      39.783  32.422  35.592  1.00  0.00     0.023 A 
ATOM     89  C   UNL A   1      39.756  32.484  36.993  1.00  0.00     0.031 A 
ATOM     90  C   UNL A   1      39.749  33.637  34.873  1.00  0.00     0.131 A 
ATOM     91  C   UNL A   1      39.487  33.711  37.622  1.00  0.00     0.055 A 
ATOM     92  C   UNL A   1      39.435  34.846  35.500  1.00  0.00     0.041 A 
ATOM     93  F   UNL A   1      39.852  33.634  33.532  1.00  0.00    -0.206 F 
ATOM     94  C   UNL A   1      39.246  34.873  36.879  1.00  0.00     0.022 A 
BRANCH  91  95
ATOM     95  S   UNL A   1      39.310  33.748  39.430  1.00  0.00     0.124 S 
ATOM     96  O   UNL A   1      37.859  33.719  39.575  1.00  0.00    -0.237 OA
ATOM     97  O   UNL A   1      40.000  32.538  39.861  1.00  0.00    -0.237 OA
ATOM     98  O   UNL A   1      39.966  34.998  39.793  1.00  0.00    -0.744 OA
ENDBRANCH  91  95
ENDBRANCH  64  88
BRANCH  76  99
ATOM     99  C   UNL A   1      36.193  30.897  29.484  1.00  0.00     0.023 A 
ATOM    100  C   UNL A   1      35.643  32.205  29.573  1.00  0.00     0.031 A 
ATOM    101  C   UNL A   1      35.673  30.123  28.433  1.00  0.00     0.131 A 
ATOM    102  C   UNL A   1      34.634  32.662  28.713  1.00  0.00     0.055 A 
ATOM    103  C   UNL A   1      34.724  30.609  27.519  1.00  0.00     0.041 A 
ATOM    104  F   UNL A   1      36.008  28.848  28.234  1.00  0.00    -0.206 F 
ATOM    105  C   UNL A   1      34.185  31.874  27.666  1.00  0.00     0.022 A 
BRANCH 102 106
ATOM    106  S   UNL A   1      33.817  34.255  28.998  1.00  0.00     0.124 S 
ATOM    107  O   UNL A   1      34.797  35.189  28.450  1.00  0.00    -0.237 OA
ATOM    108  O   UNL A   1      32.588  34.111  28.220  1.00  0.00    -0.237 OA
ATOM    109  O   UNL A   1      33.636  34.303  30.443  1.00  0.00    -0.744 OA
ENDBRANCH 102 106
ENDBRANCH  76  99
ENDBRANCH  50  51
ENDBRANCH  42  45
ENDBRANCH  40  41
ENDBRANCH  39  40
ENDBRANCH  38  39
ENDBRANCH   1  38
TORSDOF 22
ENDMDL
MODEL 2
REMARK VINA RESULT:     -10.8      4.997     14.089
REMARK SMILES Cc1ccc(Nc2nc3c(c(OCC(=O)NCCCCCCNC(=O)c4ccc(-c5c6nc(c(-c7cc(S(=O)(=O)[O-])ccc7F)c7ccc([nH]7)c(-c7cc(S(=O)(=O)[O-])ccc7F)c7nc(c(-c8cc(S(=O)(=O)[O-])ccc8F)c8ccc5[nH]8)C=C7)C=C6)cc4)n2)C[N@H+](Cc2ccccc2)CC3)cc1F
REMARK SMILES IDX 19 1 18 2 17 3 16 4 14 5 15 6 13 8 12 9 11 10 7 11 8 12
REMARK SMILES IDX 89 13 9 14 10 15 100 16 90 17 99 18 91 19 6 21 5 23 1 24
REMARK SMILES IDX 2 25 3 26 102 27 4 28 101 29 103 30 92 31 93 32 94 33 98 34
REMARK SMILES IDX 95 35 97 36 96 37 20 38 21 39 22 40 23 41 24 42 25 44 26 45
REMARK SMILES IDX 27 46 88 47 28 48 87 49 29 50 30 51 31 52 81 53 32 54 86 55
REMARK SMILES IDX 80 56 82 57 33 58 85 59 79 60 78 61 34 63 66 64 46 65 65 66
REMARK SMILES IDX 47 67 50 68 64 69 83 70 48 71 49 72 63 74 84 75 51 76 35 77
REMARK SMILES IDX 36 78 44 79 37 80 43 81 45 82 42 83 38 84 39 85 40 86 41 87
REMARK SMILES IDX 67 88 68 89 76 90 69 91 75 92 77 93 74 94 70 95 71 96 72 97
REMARK SMILES IDX 73 98 52 99 53 100 61 101 54 102 60 103 62 104 59 105 55 106
REMARK SMILES IDX 56 107 57 108 58 109
REMARK H PARENT 16 7 91 20 6 22 23 43 82 62 50 73
REMARK Flexibility Score: inf
ROOT
ATOM      1  C   UNL A   1      38.844  28.486  29.397  1.00  0.00     0.002 C 
ENDROOT
BRANCH   1   2
ATOM      2  C   UNL A   1      40.235  29.062  29.106  1.00  0.00     0.021 C 
BRANCH   2   3
ATOM      3  C   UNL A   1      40.520  29.238  27.616  1.00  0.00     0.116 C 
BRANCH   3   4
ATOM      4  N   UNL A   1      41.737  28.554  27.242  1.00  0.00    -0.353 N 
ATOM      5  C   UNL A   1      41.888  27.293  26.751  1.00  0.00     0.258 C 
ATOM      6  O   UNL A   1      43.025  26.882  26.515  1.00  0.00    -0.271 OA
ATOM      7  H   UNL A   1      42.569  29.068  27.356  1.00  0.00     0.163 HD
BRANCH   5   8
ATOM      8  C   UNL A   1      40.635  26.485  26.405  1.00  0.00     0.331 C 
BRANCH   8   9
ATOM      9  O   UNL A   1      40.092  25.642  27.408  1.00  0.00    -0.467 OA
BRANCH   9  10
ATOM     10  C   UNL A   1      39.633  24.425  26.955  1.00  0.00     0.228 A 
ATOM     11  C   UNL A   1      37.933  23.077  26.296  1.00  0.00     0.230 A 
ATOM     12  N   UNL A   1      38.752  22.019  26.162  1.00  0.00    -0.217 NA
ATOM     13  N   UNL A   1      38.338  24.299  26.646  1.00  0.00    -0.177 NA
ATOM     14  C   UNL A   1      40.062  22.203  26.415  1.00  0.00     0.064 A 
ATOM     15  C   UNL A   1      40.556  23.407  26.862  1.00  0.00     0.090 A 
ATOM     16  C   UNL A   1      40.977  21.018  26.270  1.00  0.00     0.118 C 
ATOM     17  C   UNL A   1      42.015  23.629  27.089  1.00  0.00     0.307 C 
ATOM     18  C   UNL A   1      42.450  21.436  26.169  1.00  0.00     0.269 C 
ATOM     19  N   UNL A   1      42.792  22.391  27.239  1.00  0.00    -0.327 N 
ATOM     20  H   UNL A   1      42.538  21.953  28.123  1.00  0.00     0.348 HD
BRANCH  11  21
ATOM     21  N   UNL A   1      36.556  22.906  26.193  1.00  0.00    -0.324 N 
ATOM     22  H   UNL A   1      36.127  22.325  26.863  1.00  0.00     0.170 HD
BRANCH  21  23
ATOM     23  C   UNL A   1      35.721  23.482  25.223  1.00  0.00     0.044 A 
ATOM     24  C   UNL A   1      33.220  25.264  22.188  1.00  0.00     0.047 C 
ATOM     25  C   UNL A   1      34.082  24.620  23.226  1.00  0.00    -0.015 A 
ATOM     26  C   UNL A   1      34.779  23.433  22.978  1.00  0.00     0.008 A 
ATOM     27  C   UNL A   1      34.199  25.213  24.480  1.00  0.00     0.128 A 
ATOM     28  C   UNL A   1      35.590  22.870  23.971  1.00  0.00     0.026 A 
ATOM     29  C   UNL A   1      34.992  24.652  25.470  1.00  0.00     0.065 A 
ATOM     30  F   UNL A   1      33.548  26.356  24.742  1.00  0.00    -0.207 F 
ENDBRANCH  21  23
ENDBRANCH  11  21
BRANCH  19  31
ATOM     31  C   UNL A   1      44.248  22.664  27.330  1.00  0.00     0.299 C 
BRANCH  31  32
ATOM     32  C   UNL A   1      44.681  23.398  28.581  1.00  0.00     0.006 A 
ATOM     33  C   UNL A   1      45.483  24.543  28.460  1.00  0.00     0.009 A 
ATOM     34  C   UNL A   1      44.186  23.037  29.844  1.00  0.00     0.009 A 
ATOM     35  C   UNL A   1      45.663  25.384  29.547  1.00  0.00     0.001 A 
ATOM     36  C   UNL A   1      44.331  23.901  30.923  1.00  0.00     0.001 A 
ATOM     37  C   UNL A   1      45.042  25.085  30.751  1.00  0.00     0.000 A 
ENDBRANCH  31  32
ENDBRANCH  19  31
ENDBRANCH   9  10
ENDBRANCH   8   9
ENDBRANCH   5   8
ENDBRANCH   3   4
ENDBRANCH   2   3
ENDBRANCH   1   2
BRANCH   1  38
ATOM     38  C   UNL A   1      37.869  28.506  28.205  1.00  0.00     0.002 C 
BRANCH  38  39
ATOM     39  C   UNL A   1      36.682  29.460  28.349  1.00  0.00     0.021 C 
BRANCH  39  40
ATOM     40  C   UNL A   1      36.957  30.767  27.669  1.00  0.00     0.116 C 
BRANCH  40  41
ATOM     41  N   UNL A   1      36.027  31.770  28.157  1.00  0.00    -0.352 N 
ATOM     42  C   UNL A   1      36.004  32.240  29.445  1.00  0.00     0.251 C 
ATOM     43  H   UNL A   1      35.369  32.134  27.522  1.00  0.00     0.163 HD
ATOM     44  O   UNL A   1      34.917  32.518  29.962  1.00  0.00    -0.269 OA
BRANCH  42  45
ATOM     45  C   UNL A   1      37.302  32.455  30.106  1.00  0.00     0.039 A 
ATOM     46  C   UNL A   1      38.000  31.466  30.801  1.00  0.00     0.014 A 
ATOM     47  C   UNL A   1      37.761  33.765  30.128  1.00  0.00     0.014 A 
ATOM     48  C   UNL A   1      39.064  31.842  31.625  1.00  0.00     0.010 A 
ATOM     49  C   UNL A   1      38.938  34.066  30.703  1.00  0.00     0.010 A 
ATOM     50  C   UNL A   1      39.459  33.174  31.616  1.00  0.00    -0.014 A 
BRANCH  50  51
ATOM     51  C   UNL A   1      40.350  33.866  32.525  1.00  0.00     0.031 A 
ATOM     52  C   UNL A   1      39.783  34.486  33.711  1.00  0.00     0.074 A 
ATOM     53  C   UNL A   1      41.672  33.579  32.390  1.00  0.00     0.049 A 
ATOM     54  N   UNL A   1      40.327  35.460  34.343  1.00  0.00    -0.248 NA
ATOM     55  C   UNL A   1      38.522  34.031  34.286  1.00  0.00     0.031 C 
ATOM     56  C   UNL A   1      42.752  33.687  33.355  1.00  0.00     0.029 A 
ATOM     57  N   UNL A   1      42.322  33.066  31.256  1.00  0.00    -0.354 N 
ATOM     58  C   UNL A   1      39.717  35.489  35.576  1.00  0.00     0.074 A 
ATOM     59  C   UNL A   1      38.486  34.747  35.413  1.00  0.00     0.031 C 
ATOM     60  C   UNL A   1      43.926  33.567  32.701  1.00  0.00     0.029 A 
ATOM     61  C   UNL A   1      43.630  33.549  31.277  1.00  0.00     0.049 A 
ATOM     62  H   UNL A   1      41.929  32.475  30.574  1.00  0.00     0.167 HD
ATOM     63  C   UNL A   1      40.446  35.902  36.654  1.00  0.00     0.034 A 
ATOM     64  C   UNL A   1      44.048  34.470  30.354  1.00  0.00     0.034 A 
ATOM     65  C   UNL A   1      41.825  36.240  36.233  1.00  0.00     0.049 A 
ATOM     66  C   UNL A   1      44.272  35.829  30.996  1.00  0.00     0.074 A 
ATOM     67  C   UNL A   1      43.033  35.568  36.350  1.00  0.00     0.029 A 
ATOM     68  N   UNL A   1      42.036  37.211  35.249  1.00  0.00    -0.354 N 
ATOM     69  N   UNL A   1      43.997  36.123  32.238  1.00  0.00    -0.248 NA
ATOM     70  C   UNL A   1      44.794  36.973  30.266  1.00  0.00     0.031 C 
ATOM     71  C   UNL A   1      43.945  36.106  35.393  1.00  0.00     0.029 A 
ATOM     72  C   UNL A   1      43.315  37.129  34.702  1.00  0.00     0.049 A 
ATOM     73  H   UNL A   1      41.361  37.872  34.976  1.00  0.00     0.167 HD
ATOM     74  C   UNL A   1      44.160  37.468  32.461  1.00  0.00     0.074 A 
ATOM     75  C   UNL A   1      44.752  37.925  31.214  1.00  0.00     0.031 C 
ATOM     76  C   UNL A   1      43.743  38.059  33.632  1.00  0.00     0.034 A 
BRANCH  63  77
ATOM     77  C   UNL A   1      40.004  35.659  38.094  1.00  0.00     0.023 A 
ATOM     78  C   UNL A   1      39.484  34.431  38.575  1.00  0.00     0.031 A 
ATOM     79  C   UNL A   1      40.113  36.670  39.069  1.00  0.00     0.131 A 
ATOM     80  C   UNL A   1      39.209  34.209  39.941  1.00  0.00     0.055 A 
ATOM     81  C   UNL A   1      39.786  36.470  40.420  1.00  0.00     0.041 A 
ATOM     82  F   UNL A   1      40.562  37.895  38.765  1.00  0.00    -0.206 F 
ATOM     83  C   UNL A   1      39.354  35.231  40.869  1.00  0.00     0.022 A 
BRANCH  80  84
ATOM     84  S   UNL A   1      38.727  32.564  40.555  1.00  0.00     0.124 S 
ATOM     85  O   UNL A   1      38.060  31.979  39.392  1.00  0.00    -0.237 OA
ATOM     86  O   UNL A   1      40.014  31.967  40.898  1.00  0.00    -0.237 OA
ATOM     87  O   UNL A   1      37.846  32.855  41.683  1.00  0.00    -0.744 OA
ENDBRANCH  80  84
ENDBRANCH  63  77
BRANCH  64  88
ATOM     88  C   UNL A   1      43.413  34.266  29.009  1.00  0.00     0.023 A 
ATOM     89  C   UNL A   1      44.129  33.621  27.989  1.00  0.00     0.031 A 
ATOM     90  C   UNL A   1      42.376  35.150  28.635  1.00  0.00     0.131 A 
ATOM     91  C   UNL A   1      43.941  34.025  26.656  1.00  0.00     0.055 A 
ATOM     92  C   UNL A   1      42.228  35.581  27.314  1.00  0.00     0.041 A 
ATOM     93  F   UNL A   1      41.611  35.731  29.575  1.00  0.00    -0.206 F 
ATOM     94  C   UNL A   1      43.055  35.057  26.325  1.00  0.00     0.022 A 
BRANCH  91  95
ATOM     95  S   UNL A   1      44.980  33.283  25.363  1.00  0.00     0.124 S 
ATOM     96  O   UNL A   1      46.139  34.167  25.386  1.00  0.00    -0.237 OA
ATOM     97  O   UNL A   1      45.221  31.933  25.857  1.00  0.00    -0.237 OA
ATOM     98  O   UNL A   1      44.132  33.368  24.180  1.00  0.00    -0.744 OA
ENDBRANCH  91  95
ENDBRANCH  64  88
BRANCH  76  99
ATOM     99  C   UNL A   1      43.704  39.559  33.949  1.00  0.00     0.023 A 
ATOM    100  C   UNL A   1      43.179  40.439  32.963  1.00  0.00     0.031 A 
ATOM    101  C   UNL A   1      44.187  40.205  35.100  1.00  0.00     0.131 A 
ATOM    102  C   UNL A   1      43.189  41.833  33.110  1.00  0.00     0.055 A 
ATOM    103  C   UNL A   1      44.121  41.595  35.284  1.00  0.00     0.041 A 
ATOM    104  F   UNL A   1      44.785  39.558  36.100  1.00  0.00    -0.206 F 
ATOM    105  C   UNL A   1      43.639  42.419  34.283  1.00  0.00     0.022 A 
BRANCH 102 106
ATOM    106  S   UNL A   1      42.706  42.919  31.741  1.00  0.00     0.124 S 
ATOM    107  O   UNL A   1      42.120  44.049  32.456  1.00  0.00    -0.237 OA
ATOM    108  O   UNL A   1      43.990  43.186  31.096  1.00  0.00    -0.237 OA
ATOM    109  O   UNL A   1      41.777  42.110  30.963  1.00  0.00    -0.744 OA
ENDBRANCH 102 106
ENDBRANCH  76  99
ENDBRANCH  50  51
ENDBRANCH  42  45
ENDBRANCH  40  41
ENDBRANCH  39  40
ENDBRANCH  38  39
ENDBRANCH   1  38
TORSDOF 22
ENDMDL
MODEL 3
REMARK VINA RESULT:     -10.4      4.860     13.433
REMARK SMILES Cc1ccc(Nc2nc3c(c(OCC(=O)NCCCCCCNC(=O)c4ccc(-c5c6nc(c(-c7cc(S(=O)(=O)[O-])ccc7F)c7ccc([nH]7)c(-c7cc(S(=O)(=O)[O-])ccc7F)c7nc(c(-c8cc(S(=O)(=O)[O-])ccc8F)c8ccc5[nH]8)C=C7)C=C6)cc4)n2)C[N@H+](Cc2ccccc2)CC3)cc1F
REMARK SMILES IDX 19 1 18 2 17 3 16 4 14 5 15 6 13 8 12 9 11 10 7 11 8 12
REMARK SMILES IDX 89 13 9 14 10 15 100 16 90 17 99 18 91 19 6 21 5 23 1 24
REMARK SMILES IDX 2 25 3 26 102 27 4 28 101 29 103 30 92 31 93 32 94 33 98 34
REMARK SMILES IDX 95 35 97 36 96 37 20 38 21 39 22 40 23 41 24 42 25 44 26 45
REMARK SMILES IDX 27 46 88 47 28 48 87 49 29 50 30 51 31 52 81 53 32 54 86 55
REMARK SMILES IDX 80 56 82 57 33 58 85 59 79 60 78 61 34 63 66 64 46 65 65 66
REMARK SMILES IDX 47 67 50 68 64 69 83 70 48 71 49 72 63 74 84 75 51 76 35 77
REMARK SMILES IDX 36 78 44 79 37 80 43 81 45 82 42 83 38 84 39 85 40 86 41 87
REMARK SMILES IDX 67 88 68 89 76 90 69 91 75 92 77 93 74 94 70 95 71 96 72 97
REMARK SMILES IDX 73 98 52 99 53 100 61 101 54 102 60 103 62 104 59 105 55 106
REMARK SMILES IDX 56 107 57 108 58 109
REMARK H PARENT 16 7 91 20 6 22 23 43 82 62 50 73
REMARK Flexibility Score: inf
ROOT
ATOM      1  C   UNL A   1      36.593  31.476  32.542  1.00  0.00     0.002 C 
ENDROOT
BRANCH   1   2
ATOM      2  C   UNL A   1      36.152  30.235  31.755  1.00  0.00     0.021 C 
BRANCH   2   3
ATOM      3  C   UNL A   1      37.268  29.210  31.563  1.00  0.00     0.116 C 
BRANCH   3   4
ATOM      4  N   UNL A   1      37.439  28.895  30.162  1.00  0.00    -0.353 N 
ATOM      5  C   UNL A   1      38.581  28.568  29.497  1.00  0.00     0.258 C 
ATOM      6  O   UNL A   1      38.520  28.356  28.285  1.00  0.00    -0.271 OA
ATOM      7  H   UNL A   1      36.620  28.920  29.615  1.00  0.00     0.163 HD
BRANCH   5   8
ATOM      8  C   UNL A   1      39.866  28.361  30.302  1.00  0.00     0.331 C 
BRANCH   8   9
ATOM      9  O   UNL A   1      41.084  28.811  29.731  1.00  0.00    -0.467 OA
BRANCH   9  10
ATOM     10  C   UNL A   1      42.057  27.845  29.608  1.00  0.00     0.228 A 
ATOM     11  C   UNL A   1      43.086  26.219  28.407  1.00  0.00     0.230 A 
ATOM     12  N   UNL A   1      43.904  25.907  29.428  1.00  0.00    -0.217 NA
ATOM     13  N   UNL A   1      42.186  27.203  28.442  1.00  0.00    -0.177 NA
ATOM     14  C   UNL A   1      43.791  26.622  30.564  1.00  0.00     0.064 A 
ATOM     15  C   UNL A   1      42.834  27.599  30.718  1.00  0.00     0.090 A 
ATOM     16  C   UNL A   1      44.702  26.269  31.707  1.00  0.00     0.118 C 
ATOM     17  C   UNL A   1      42.746  28.431  31.955  1.00  0.00     0.307 C 
ATOM     18  C   UNL A   1      44.777  27.389  32.753  1.00  0.00     0.269 C 
ATOM     19  N   UNL A   1      43.423  27.845  33.120  1.00  0.00    -0.327 N 
ATOM     20  H   UNL A   1      42.901  27.023  33.420  1.00  0.00     0.348 HD
BRANCH  11  21
ATOM     21  N   UNL A   1      43.057  25.417  27.270  1.00  0.00    -0.324 N 
ATOM     22  H   UNL A   1      43.431  25.802  26.444  1.00  0.00     0.170 HD
BRANCH  21  23
ATOM     23  C   UNL A   1      42.544  24.113  27.191  1.00  0.00     0.044 A 
ATOM     24  C   UNL A   1      41.005  20.092  26.872  1.00  0.00     0.047 C 
ATOM     25  C   UNL A   1      41.564  21.473  26.995  1.00  0.00    -0.015 A 
ATOM     26  C   UNL A   1      42.941  21.716  27.021  1.00  0.00     0.008 A 
ATOM     27  C   UNL A   1      40.693  22.556  27.087  1.00  0.00     0.128 A 
ATOM     28  C   UNL A   1      43.424  23.027  27.121  1.00  0.00     0.026 A 
ATOM     29  C   UNL A   1      41.168  23.854  27.196  1.00  0.00     0.065 A 
ATOM     30  F   UNL A   1      39.367  22.352  27.056  1.00  0.00    -0.207 F 
ENDBRANCH  21  23
ENDBRANCH  11  21
BRANCH  19  31
ATOM     31  C   UNL A   1      43.417  28.769  34.281  1.00  0.00     0.299 C 
BRANCH  31  32
ATOM     32  C   UNL A   1      42.085  29.433  34.561  1.00  0.00     0.006 A 
ATOM     33  C   UNL A   1      42.045  30.571  35.380  1.00  0.00     0.009 A 
ATOM     34  C   UNL A   1      40.914  29.015  33.909  1.00  0.00     0.009 A 
ATOM     35  C   UNL A   1      40.902  31.352  35.429  1.00  0.00     0.001 A 
ATOM     36  C   UNL A   1      39.782  29.820  33.924  1.00  0.00     0.001 A 
ATOM     37  C   UNL A   1      39.801  31.001  34.660  1.00  0.00     0.000 A 
ENDBRANCH  31  32
ENDBRANCH  19  31
ENDBRANCH   9  10
ENDBRANCH   8   9
ENDBRANCH   5   8
ENDBRANCH   3   4
ENDBRANCH   2   3
ENDBRANCH   1   2
BRANCH   1  38
ATOM     38  C   UNL A   1      35.545  32.600  32.623  1.00  0.00     0.002 C 
BRANCH  38  39
ATOM     39  C   UNL A   1      34.442  32.542  31.565  1.00  0.00     0.021 C 
BRANCH  39  40
ATOM     40  C   UNL A   1      34.600  33.647  30.563  1.00  0.00     0.116 C 
BRANCH  40  41
ATOM     41  N   UNL A   1      34.783  33.075  29.241  1.00  0.00    -0.352 N 
ATOM     42  C   UNL A   1      35.887  33.285  28.454  1.00  0.00     0.251 C 
ATOM     43  H   UNL A   1      34.068  32.499  28.887  1.00  0.00     0.163 HD
ATOM     44  O   UNL A   1      35.742  33.371  27.230  1.00  0.00    -0.269 OA
BRANCH  42  45
ATOM     45  C   UNL A   1      37.196  33.321  29.127  1.00  0.00     0.039 A 
ATOM     46  C   UNL A   1      37.978  32.193  29.377  1.00  0.00     0.014 A 
ATOM     47  C   UNL A   1      37.578  34.552  29.643  1.00  0.00     0.014 A 
ATOM     48  C   UNL A   1      39.052  32.299  30.266  1.00  0.00     0.010 A 
ATOM     49  C   UNL A   1      38.758  34.692  30.271  1.00  0.00     0.010 A 
ATOM     50  C   UNL A   1      39.368  33.557  30.763  1.00  0.00    -0.014 A 
BRANCH  50  51
ATOM     51  C   UNL A   1      40.253  33.909  31.854  1.00  0.00     0.031 A 
ATOM     52  C   UNL A   1      39.667  34.398  33.091  1.00  0.00     0.074 A 
ATOM     53  C   UNL A   1      41.520  33.424  31.767  1.00  0.00     0.049 A 
ATOM     54  N   UNL A   1      40.286  35.133  33.938  1.00  0.00    -0.248 NA
ATOM     55  C   UNL A   1      38.295  34.077  33.468  1.00  0.00     0.031 C 
ATOM     56  C   UNL A   1      42.494  33.168  32.814  1.00  0.00     0.029 A 
ATOM     57  N   UNL A   1      42.200  33.015  30.609  1.00  0.00    -0.354 N 
ATOM     58  C   UNL A   1      39.559  35.049  35.104  1.00  0.00     0.074 A 
ATOM     59  C   UNL A   1      38.251  34.575  34.707  1.00  0.00     0.031 C 
ATOM     60  C   UNL A   1      43.697  32.962  32.241  1.00  0.00     0.029 A 
ATOM     61  C   UNL A   1      43.558  33.250  30.822  1.00  0.00     0.049 A 
ATOM     62  H   UNL A   1      41.794  32.633  29.797  1.00  0.00     0.167 HD
ATOM     63  C   UNL A   1      40.223  35.129  36.293  1.00  0.00     0.034 A 
ATOM     64  C   UNL A   1      44.212  34.233  30.130  1.00  0.00     0.034 A 
ATOM     65  C   UNL A   1      41.676  35.290  36.053  1.00  0.00     0.049 A 
ATOM     66  C   UNL A   1      44.578  35.395  31.038  1.00  0.00     0.074 A 
ATOM     67  C   UNL A   1      42.743  34.407  36.129  1.00  0.00     0.029 A 
ATOM     68  N   UNL A   1      42.142  36.368  35.294  1.00  0.00    -0.354 N 
ATOM     69  N   UNL A   1      44.221  35.507  32.289  1.00  0.00    -0.248 NA
ATOM     70  C   UNL A   1      45.349  36.541  30.584  1.00  0.00     0.031 C 
ATOM     71  C   UNL A   1      43.826  34.939  35.367  1.00  0.00     0.029 A 
ATOM     72  C   UNL A   1      43.443  36.162  34.841  1.00  0.00     0.049 A 
ATOM     73  H   UNL A   1      41.614  37.176  35.103  1.00  0.00     0.167 HD
ATOM     74  C   UNL A   1      44.568  36.741  32.779  1.00  0.00     0.074 A 
ATOM     75  C   UNL A   1      45.356  37.302  31.693  1.00  0.00     0.031 C 
ATOM     76  C   UNL A   1      44.126  37.178  34.007  1.00  0.00     0.034 A 
BRANCH  63  77
ATOM     77  C   UNL A   1      39.596  34.715  37.622  1.00  0.00     0.023 A 
ATOM     78  C   UNL A   1      38.646  33.674  37.767  1.00  0.00     0.031 A 
ATOM     79  C   UNL A   1      39.955  35.352  38.826  1.00  0.00     0.131 A 
ATOM     80  C   UNL A   1      38.189  33.238  39.028  1.00  0.00     0.055 A 
ATOM     81  C   UNL A   1      39.458  34.958  40.079  1.00  0.00     0.041 A 
ATOM     82  F   UNL A   1      40.822  36.373  38.850  1.00  0.00    -0.206 F 
ATOM     83  C   UNL A   1      38.590  33.883  40.190  1.00  0.00     0.022 A 
BRANCH  80  84
ATOM     84  S   UNL A   1      37.119  31.773  39.194  1.00  0.00     0.124 S 
ATOM     85  O   UNL A   1      37.599  31.174  40.439  1.00  0.00    -0.237 OA
ATOM     86  O   UNL A   1      35.786  32.364  39.264  1.00  0.00    -0.237 OA
ATOM     87  O   UNL A   1      37.402  30.994  37.992  1.00  0.00    -0.744 OA
ENDBRANCH  80  84
ENDBRANCH  63  77
BRANCH  64  88
ATOM     88  C   UNL A   1      43.702  34.385  28.725  1.00  0.00     0.023 A 
ATOM     89  C   UNL A   1      44.404  33.803  27.659  1.00  0.00     0.031 A 
ATOM     90  C   UNL A   1      42.878  35.499  28.448  1.00  0.00     0.131 A 
ATOM     91  C   UNL A   1      44.434  34.458  26.416  1.00  0.00     0.055 A 
ATOM     92  C   UNL A   1      42.950  36.171  27.225  1.00  0.00     0.041 A 
ATOM     93  F   UNL A   1      42.126  36.043  29.420  1.00  0.00    -0.206 F 
ATOM     94  C   UNL A   1      43.778  35.679  26.220  1.00  0.00     0.022 A 
BRANCH  91  95
ATOM     95  S   UNL A   1      45.465  33.768  25.089  1.00  0.00     0.124 S 
ATOM     96  O   UNL A   1      45.471  32.352  25.439  1.00  0.00    -0.237 OA
ATOM     97  O   UNL A   1      44.725  34.103  23.878  1.00  0.00    -0.237 OA
ATOM     98  O   UNL A   1      46.727  34.476  25.260  1.00  0.00    -0.744 OA
ENDBRANCH  91  95
ENDBRANCH  64  88
BRANCH  76  99
ATOM     99  C   UNL A   1      44.291  38.581  34.604  1.00  0.00     0.023 A 
ATOM    100  C   UNL A   1      43.500  39.634  34.069  1.00  0.00     0.031 A 
ATOM    101  C   UNL A   1      45.190  38.987  35.605  1.00  0.00     0.131 A 
ATOM    102  C   UNL A   1      43.643  40.969  34.473  1.00  0.00     0.055 A 
ATOM    103  C   UNL A   1      45.275  40.309  36.070  1.00  0.00     0.041 A 
ATOM    104  F   UNL A   1      46.067  38.159  36.173  1.00  0.00    -0.206 F 
ATOM    105  C   UNL A   1      44.516  41.311  35.493  1.00  0.00     0.022 A 
BRANCH 102 106
ATOM    106  S   UNL A   1      42.766  42.303  33.614  1.00  0.00     0.124 S 
ATOM    107  O   UNL A   1      41.997  41.556  32.621  1.00  0.00    -0.237 OA
ATOM    108  O   UNL A   1      41.981  42.897  34.694  1.00  0.00    -0.237 OA
ATOM    109  O   UNL A   1      43.834  43.143  33.088  1.00  0.00    -0.744 OA
ENDBRANCH 102 106
ENDBRANCH  76  99
ENDBRANCH  50  51
ENDBRANCH  42  45
ENDBRANCH  40  41
ENDBRANCH  39  40
ENDBRANCH  38  39
ENDBRANCH   1  38
TORSDOF 22
ENDMDL
