MODEL 1
REMARK VINA RESULT:     -12.6      0.000      0.000
REMARK SMILES Cc1ccc(-c2nc(C)c(C(=O)N3CCC(C(=O)NCCCCCCNC(=O)c4ccc(-c5c6nc(c(-c7cc(S(=O)(=O)[O-])ccc7F)c7ccc([nH]7)c(-c7cc(S(=O)(=O)[O-])ccc7F)c7nc(c(-c8cc(S(=O)(=O)[O-])ccc8F)c8ccc5[nH]8)C=C7)C=C6)cc4)CC3)s2)o1
REMARK SMILES IDX 23 1 22 2 21 3 20 4 19 5 17 6 18 7 16 9 11 10 12 11 13 12
REMARK SMILES IDX 14 13 93 14 15 15 92 16 10 17 6 18 7 19 94 20 8 21 9 22 5 23
REMARK SMILES IDX 1 24 2 25 3 26 95 27 4 28 24 29 25 30 26 31 27 32 28 34
REMARK SMILES IDX 29 35 30 36 91 37 31 38 90 39 32 40 33 41 34 42 84 43 35 44
REMARK SMILES IDX 89 45 83 46 85 47 36 48 88 49 82 50 81 51 37 53 69 54 49 55
REMARK SMILES IDX 68 56 50 57 53 58 67 59 86 60 51 61 52 62 66 64 87 65 54 66
REMARK SMILES IDX 38 67 39 68 47 69 40 70 46 71 48 72 45 73 41 74 42 75 43 76
REMARK SMILES IDX 44 77 70 78 71 79 79 80 72 81 78 82 80 83 77 84 73 85 74 86
REMARK SMILES IDX 75 87 76 88 55 89 56 90 64 91 57 92 63 93 65 94 62 95 58 96
REMARK SMILES IDX 59 97 60 98 61 99
REMARK H PARENT 19 8 26 33 85 52 53 63
REMARK Flexibility Score: inf
ROOT
ATOM      1  C   UNL A   1      30.304  31.443  24.853  1.00  0.00     0.002 C 
ENDROOT
BRANCH   1   2
ATOM      2  C   UNL A   1      29.149  31.017  23.939  1.00  0.00     0.002 C 
BRANCH   2   3
ATOM      3  C   UNL A   1      29.567  30.623  22.520  1.00  0.00     0.021 C 
BRANCH   3   4
ATOM      4  C   UNL A   1      29.871  29.137  22.358  1.00  0.00     0.116 C 
BRANCH   4   5
ATOM      5  N   UNL A   1      28.846  28.319  22.984  1.00  0.00    -0.356 N 
ATOM      6  C   UNL A   1      28.938  27.138  23.653  1.00  0.00     0.223 C 
ATOM      7  O   UNL A   1      27.898  26.616  24.062  1.00  0.00    -0.275 OA
ATOM      8  H   UNL A   1      27.933  28.679  22.911  1.00  0.00     0.163 HD
BRANCH   6   9
ATOM      9  C   UNL A   1      30.283  26.482  23.918  1.00  0.00     0.082 C 
ATOM     10  C   UNL A   1      31.839  23.384  26.137  1.00  0.00     0.265 C 
ATOM     11  O   UNL A   1      31.257  23.502  27.217  1.00  0.00    -0.268 OA
ATOM     12  N   UNL A   1      31.808  24.442  25.230  1.00  0.00    -0.338 N 
ATOM     13  C   UNL A   1      31.924  25.801  25.731  1.00  0.00     0.120 C 
ATOM     14  C   UNL A   1      31.556  24.287  23.807  1.00  0.00     0.120 C 
ATOM     15  C   UNL A   1      30.729  26.663  25.375  1.00  0.00     0.035 C 
ATOM     16  C   UNL A   1      30.297  25.035  23.396  1.00  0.00     0.035 C 
BRANCH  10  17
ATOM     17  C   UNL A   1      32.677  22.235  25.811  1.00  0.00     0.115 A 
ATOM     18  C   UNL A   1      33.400  19.977  25.253  1.00  0.00     0.159 A 
ATOM     19  N   UNL A   1      34.383  20.633  25.826  1.00  0.00    -0.237 NA
ATOM     20  S   UNL A   1      31.978  20.888  24.981  1.00  0.00    -0.105 S 
ATOM     21  C   UNL A   1      33.982  21.913  26.168  1.00  0.00     0.062 A 
ATOM     22  C   UNL A   1      34.978  22.708  26.930  1.00  0.00     0.068 C 
BRANCH  18  23
ATOM     23  C   UNL A   1      33.520  18.581  24.944  1.00  0.00     0.162 A 
ATOM     24  C   UNL A   1      32.399  15.257  25.695  1.00  0.00     0.087 C 
ATOM     25  C   UNL A   1      33.116  16.409  25.115  1.00  0.00     0.101 A 
ATOM     26  C   UNL A   1      34.077  16.544  24.140  1.00  0.00     0.046 A 
ATOM     27  O   UNL A   1      32.790  17.629  25.618  1.00  0.00    -0.459 OA
ATOM     28  C   UNL A   1      34.324  17.936  24.018  1.00  0.00     0.054 A 
ENDBRANCH  18  23
ENDBRANCH  10  17
ENDBRANCH   6   9
ENDBRANCH   4   5
ENDBRANCH   3   4
ENDBRANCH   2   3
ENDBRANCH   1   2
BRANCH   1  29
ATOM     29  C   UNL A   1      31.177  30.296  25.372  1.00  0.00     0.021 C 
BRANCH  29  30
ATOM     30  C   UNL A   1      32.222  30.709  26.404  1.00  0.00     0.116 C 
BRANCH  30  31
ATOM     31  N   UNL A   1      32.205  32.140  26.649  1.00  0.00    -0.352 N 
ATOM     32  C   UNL A   1      33.021  32.901  27.445  1.00  0.00     0.251 C 
ATOM     33  H   UNL A   1      31.503  32.638  26.172  1.00  0.00     0.163 HD
ATOM     34  O   UNL A   1      32.708  34.064  27.691  1.00  0.00    -0.269 OA
BRANCH  32  35
ATOM     35  C   UNL A   1      34.254  32.321  28.021  1.00  0.00     0.039 A 
ATOM     36  C   UNL A   1      35.397  33.121  28.094  1.00  0.00     0.014 A 
ATOM     37  C   UNL A   1      34.297  30.997  28.467  1.00  0.00     0.014 A 
ATOM     38  C   UNL A   1      36.563  32.610  28.665  1.00  0.00     0.010 A 
ATOM     39  C   UNL A   1      35.439  30.512  29.104  1.00  0.00     0.010 A 
ATOM     40  C   UNL A   1      36.584  31.313  29.208  1.00  0.00    -0.014 A 
BRANCH  40  41
ATOM     41  C   UNL A   1      37.798  30.809  29.901  1.00  0.00     0.031 A 
ATOM     42  C   UNL A   1      38.109  31.225  31.311  1.00  0.00     0.074 A 
ATOM     43  C   UNL A   1      38.637  29.988  29.237  1.00  0.00     0.049 A 
ATOM     44  N   UNL A   1      39.112  30.873  32.075  1.00  0.00    -0.248 NA
ATOM     45  C   UNL A   1      37.188  32.186  31.935  1.00  0.00     0.031 C 
ATOM     46  C   UNL A   1      38.471  29.563  27.845  1.00  0.00     0.029 A 
ATOM     47  N   UNL A   1      39.789  29.363  29.639  1.00  0.00    -0.354 N 
ATOM     48  C   UNL A   1      38.940  31.562  33.272  1.00  0.00     0.074 A 
ATOM     49  C   UNL A   1      37.779  32.410  33.099  1.00  0.00     0.031 C 
ATOM     50  C   UNL A   1      39.465  28.721  27.521  1.00  0.00     0.029 A 
ATOM     51  C   UNL A   1      40.360  28.578  28.664  1.00  0.00     0.049 A 
ATOM     52  H   UNL A   1      40.173  29.467  30.540  1.00  0.00     0.167 HD
ATOM     53  C   UNL A   1      39.665  31.475  34.415  1.00  0.00     0.034 A 
ATOM     54  C   UNL A   1      41.479  27.828  28.685  1.00  0.00     0.034 A 
ATOM     55  C   UNL A   1      40.829  30.631  34.564  1.00  0.00     0.049 A 
ATOM     56  C   UNL A   1      42.279  27.757  29.959  1.00  0.00     0.074 A 
ATOM     57  C   UNL A   1      41.616  30.433  35.686  1.00  0.00     0.029 A 
ATOM     58  N   UNL A   1      41.384  29.853  33.553  1.00  0.00    -0.354 N 
ATOM     59  N   UNL A   1      42.067  28.366  31.104  1.00  0.00    -0.248 NA
ATOM     60  C   UNL A   1      43.457  26.885  29.948  1.00  0.00     0.031 C 
ATOM     61  C   UNL A   1      42.682  29.597  35.336  1.00  0.00     0.029 A 
ATOM     62  C   UNL A   1      42.520  29.203  34.017  1.00  0.00     0.049 A 
ATOM     63  H   UNL A   1      41.024  29.776  32.640  1.00  0.00     0.167 HD
ATOM     64  C   UNL A   1      43.079  27.935  31.955  1.00  0.00     0.074 A 
ATOM     65  C   UNL A   1      43.877  26.989  31.199  1.00  0.00     0.031 C 
ATOM     66  C   UNL A   1      43.330  28.289  33.243  1.00  0.00     0.034 A 
BRANCH  53  67
ATOM     67  C   UNL A   1      39.226  32.334  35.581  1.00  0.00     0.023 A 
ATOM     68  C   UNL A   1      39.610  33.684  35.685  1.00  0.00     0.031 A 
ATOM     69  C   UNL A   1      38.447  31.793  36.619  1.00  0.00     0.131 A 
ATOM     70  C   UNL A   1      39.289  34.419  36.836  1.00  0.00     0.055 A 
ATOM     71  C   UNL A   1      38.057  32.557  37.722  1.00  0.00     0.041 A 
ATOM     72  F   UNL A   1      38.066  30.507  36.589  1.00  0.00    -0.206 F 
ATOM     73  C   UNL A   1      38.492  33.873  37.845  1.00  0.00     0.022 A 
BRANCH  70  74
ATOM     74  S   UNL A   1      40.063  36.044  37.070  1.00  0.00     0.124 S 
ATOM     75  O   UNL A   1      39.269  36.594  38.166  1.00  0.00    -0.237 OA
ATOM     76  O   UNL A   1      41.441  35.693  37.390  1.00  0.00    -0.237 OA
ATOM     77  O   UNL A   1      39.870  36.704  35.779  1.00  0.00    -0.744 OA
ENDBRANCH  70  74
ENDBRANCH  53  67
BRANCH  54  78
ATOM     78  C   UNL A   1      41.913  27.094  27.463  1.00  0.00     0.023 A 
ATOM     79  C   UNL A   1      41.801  25.697  27.371  1.00  0.00     0.031 A 
ATOM     80  C   UNL A   1      42.471  27.783  26.370  1.00  0.00     0.131 A 
ATOM     81  C   UNL A   1      42.277  25.031  26.231  1.00  0.00     0.055 A 
ATOM     82  C   UNL A   1      42.894  27.122  25.217  1.00  0.00     0.041 A 
ATOM     83  F   UNL A   1      42.594  29.120  26.402  1.00  0.00    -0.206 F 
ATOM     84  C   UNL A   1      42.809  25.734  25.148  1.00  0.00     0.022 A 
BRANCH  81  85
ATOM     85  S   UNL A   1      42.261  23.217  26.213  1.00  0.00     0.124 S 
ATOM     86  O   UNL A   1      42.720  22.928  24.859  1.00  0.00    -0.237 OA
ATOM     87  O   UNL A   1      43.192  22.895  27.290  1.00  0.00    -0.237 OA
ATOM     88  O   UNL A   1      40.863  22.887  26.482  1.00  0.00    -0.744 OA
ENDBRANCH  81  85
ENDBRANCH  54  78
BRANCH  66  89
ATOM     89  C   UNL A   1      44.515  27.627  33.908  1.00  0.00     0.023 A 
ATOM     90  C   UNL A   1      44.391  26.397  34.580  1.00  0.00     0.031 A 
ATOM     91  C   UNL A   1      45.773  28.256  33.914  1.00  0.00     0.131 A 
ATOM     92  C   UNL A   1      45.480  25.877  35.296  1.00  0.00     0.055 A 
ATOM     93  C   UNL A   1      46.872  27.696  34.567  1.00  0.00     0.041 A 
ATOM     94  F   UNL A   1      45.952  29.434  33.294  1.00  0.00    -0.206 F 
ATOM     95  C   UNL A   1      46.725  26.510  35.279  1.00  0.00     0.022 A 
BRANCH  92  96
ATOM     96  S   UNL A   1      45.207  24.435  36.363  1.00  0.00     0.124 S 
ATOM     97  O   UNL A   1      46.382  23.618  36.072  1.00  0.00    -0.237 OA
ATOM     98  O   UNL A   1      45.161  25.035  37.693  1.00  0.00    -0.237 OA
ATOM     99  O   UNL A   1      43.938  23.890  35.883  1.00  0.00    -0.744 OA
ENDBRANCH  92  96
ENDBRANCH  66  89
ENDBRANCH  40  41
ENDBRANCH  32  35
ENDBRANCH  30  31
ENDBRANCH  29  30
ENDBRANCH   1  29
TORSDOF 18
ENDMDL
MODEL 2
REMARK VINA RESULT:     -12.6      2.595      3.688
REMARK SMILES Cc1ccc(-c2nc(C)c(C(=O)N3CCC(C(=O)NCCCCCCNC(=O)c4ccc(-c5c6nc(c(-c7cc(S(=O)(=O)[O-])ccc7F)c7ccc([nH]7)c(-c7cc(S(=O)(=O)[O-])ccc7F)c7nc(c(-c8cc(S(=O)(=O)[O-])ccc8F)c8ccc5[nH]8)C=C7)C=C6)cc4)CC3)s2)o1
REMARK SMILES IDX 23 1 22 2 21 3 20 4 19 5 17 6 18 7 16 9 11 10 12 11 13 12
REMARK SMILES IDX 14 13 93 14 15 15 92 16 10 17 6 18 7 19 94 20 8 21 9 22 5 23
REMARK SMILES IDX 1 24 2 25 3 26 95 27 4 28 24 29 25 30 26 31 27 32 28 34
REMARK SMILES IDX 29 35 30 36 91 37 31 38 90 39 32 40 33 41 34 42 84 43 35 44
REMARK SMILES IDX 89 45 83 46 85 47 36 48 88 49 82 50 81 51 37 53 69 54 49 55
REMARK SMILES IDX 68 56 50 57 53 58 67 59 86 60 51 61 52 62 66 64 87 65 54 66
REMARK SMILES IDX 38 67 39 68 47 69 40 70 46 71 48 72 45 73 41 74 42 75 43 76
REMARK SMILES IDX 44 77 70 78 71 79 79 80 72 81 78 82 80 83 77 84 73 85 74 86
REMARK SMILES IDX 75 87 76 88 55 89 56 90 64 91 57 92 63 93 65 94 62 95 58 96
REMARK SMILES IDX 59 97 60 98 61 99
REMARK H PARENT 19 8 26 33 85 52 53 63
REMARK Flexibility Score: inf
ROOT
ATOM      1  C   UNL A   1      34.750  33.179  28.019  1.00  0.00     0.002 C 
ENDROOT
BRANCH   1   2
ATOM      2  C   UNL A   1      34.885  31.832  28.738  1.00  0.00     0.002 C 
BRANCH   2   3
ATOM      3  C   UNL A   1      34.937  30.614  27.812  1.00  0.00     0.021 C 
BRANCH   3   4
ATOM      4  C   UNL A   1      33.567  30.152  27.324  1.00  0.00     0.116 C 
BRANCH   4   5
ATOM      5  N   UNL A   1      33.494  30.165  25.872  1.00  0.00    -0.356 N 
ATOM      6  C   UNL A   1      33.037  29.230  24.998  1.00  0.00     0.223 C 
ATOM      7  O   UNL A   1      33.122  29.468  23.791  1.00  0.00    -0.275 OA
ATOM      8  H   UNL A   1      33.833  30.988  25.452  1.00  0.00     0.163 HD
BRANCH   6   9
ATOM      9  C   UNL A   1      32.414  27.931  25.484  1.00  0.00     0.082 C 
ATOM     10  C   UNL A   1      31.463  24.206  24.011  1.00  0.00     0.265 C 
ATOM     11  O   UNL A   1      30.986  24.465  22.904  1.00  0.00    -0.268 OA
ATOM     12  N   UNL A   1      31.613  25.234  24.940  1.00  0.00    -0.338 N 
ATOM     13  C   UNL A   1      30.570  26.240  25.051  1.00  0.00     0.120 C 
ATOM     14  C   UNL A   1      32.807  25.435  25.746  1.00  0.00     0.120 C 
ATOM     15  C   UNL A   1      31.077  27.644  24.786  1.00  0.00     0.035 C 
ATOM     16  C   UNL A   1      33.440  26.786  25.445  1.00  0.00     0.035 C 
BRANCH  10  17
ATOM     17  C   UNL A   1      31.758  22.846  24.448  1.00  0.00     0.115 A 
ATOM     18  C   UNL A   1      32.363  20.487  24.435  1.00  0.00     0.159 A 
ATOM     19  N   UNL A   1      31.643  20.759  25.500  1.00  0.00    -0.237 NA
ATOM     20  S   UNL A   1      32.741  21.833  23.449  1.00  0.00    -0.105 S 
ATOM     21  C   UNL A   1      31.274  22.093  25.512  1.00  0.00     0.062 A 
ATOM     22  C   UNL A   1      30.358  22.489  26.611  1.00  0.00     0.068 C 
BRANCH  18  23
ATOM     23  C   UNL A   1      32.738  19.139  24.117  1.00  0.00     0.162 A 
ATOM     24  C   UNL A   1      34.142  16.072  25.337  1.00  0.00     0.087 C 
ATOM     25  C   UNL A   1      33.558  17.111  24.467  1.00  0.00     0.101 A 
ATOM     26  C   UNL A   1      33.187  17.151  23.143  1.00  0.00     0.046 A 
ATOM     27  O   UNL A   1      33.309  18.310  25.055  1.00  0.00    -0.459 OA
ATOM     28  C   UNL A   1      32.646  18.444  22.922  1.00  0.00     0.054 A 
ENDBRANCH  18  23
ENDBRANCH  10  17
ENDBRANCH   6   9
ENDBRANCH   4   5
ENDBRANCH   3   4
ENDBRANCH   2   3
ENDBRANCH   1   2
BRANCH   1  29
ATOM     29  C   UNL A   1      33.451  33.939  28.302  1.00  0.00     0.021 C 
BRANCH  29  30
ATOM     30  C   UNL A   1      33.643  35.379  28.768  1.00  0.00     0.116 C 
BRANCH  30  31
ATOM     31  N   UNL A   1      32.918  35.652  29.996  1.00  0.00    -0.352 N 
ATOM     32  C   UNL A   1      33.116  35.153  31.258  1.00  0.00     0.251 C 
ATOM     33  H   UNL A   1      32.175  36.291  29.909  1.00  0.00     0.163 HD
ATOM     34  O   UNL A   1      32.260  35.339  32.119  1.00  0.00    -0.269 OA
BRANCH  32  35
ATOM     35  C   UNL A   1      34.337  34.380  31.572  1.00  0.00     0.039 A 
ATOM     36  C   UNL A   1      35.581  34.958  31.305  1.00  0.00     0.014 A 
ATOM     37  C   UNL A   1      34.265  33.090  32.107  1.00  0.00     0.014 A 
ATOM     38  C   UNL A   1      36.749  34.264  31.625  1.00  0.00     0.010 A 
ATOM     39  C   UNL A   1      35.431  32.430  32.494  1.00  0.00     0.010 A 
ATOM     40  C   UNL A   1      36.685  33.010  32.255  1.00  0.00    -0.014 A 
BRANCH  40  41
ATOM     41  C   UNL A   1      37.929  32.319  32.681  1.00  0.00     0.031 A 
ATOM     42  C   UNL A   1      38.576  32.640  34.000  1.00  0.00     0.074 A 
ATOM     43  C   UNL A   1      38.491  31.415  31.854  1.00  0.00     0.049 A 
ATOM     44  N   UNL A   1      39.652  32.127  34.540  1.00  0.00    -0.248 NA
ATOM     45  C   UNL A   1      37.945  33.696  34.805  1.00  0.00     0.031 C 
ATOM     46  C   UNL A   1      37.989  31.065  30.523  1.00  0.00     0.029 A 
ATOM     47  N   UNL A   1      39.601  30.623  32.008  1.00  0.00    -0.354 N 
ATOM     48  C   UNL A   1      39.825  32.791  35.750  1.00  0.00     0.074 A 
ATOM     49  C   UNL A   1      38.786  33.796  35.824  1.00  0.00     0.031 C 
ATOM     50  C   UNL A   1      38.766  30.106  29.998  1.00  0.00     0.029 A 
ATOM     51  C   UNL A   1      39.844  29.801  30.932  1.00  0.00     0.049 A 
ATOM     52  H   UNL A   1      40.169  30.642  32.811  1.00  0.00     0.167 HD
ATOM     53  C   UNL A   1      40.747  32.565  36.719  1.00  0.00     0.034 A 
ATOM     54  C   UNL A   1      40.827  28.904  30.719  1.00  0.00     0.034 A 
ATOM     55  C   UNL A   1      41.785  31.564  36.622  1.00  0.00     0.049 A 
ATOM     56  C   UNL A   1      41.849  28.679  31.801  1.00  0.00     0.074 A 
ATOM     57  C   UNL A   1      42.747  31.221  37.557  1.00  0.00     0.029 A 
ATOM     58  N   UNL A   1      42.008  30.753  35.514  1.00  0.00    -0.354 N 
ATOM     59  N   UNL A   1      41.962  29.271  32.969  1.00  0.00    -0.248 NA
ATOM     60  C   UNL A   1      42.865  27.654  31.543  1.00  0.00     0.031 C 
ATOM     61  C   UNL A   1      43.590  30.259  36.990  1.00  0.00     0.029 A 
ATOM     62  C   UNL A   1      43.110  29.937  35.731  1.00  0.00     0.049 A 
ATOM     63  H   UNL A   1      41.463  30.757  34.694  1.00  0.00     0.167 HD
ATOM     64  C   UNL A   1      43.055  28.676  33.591  1.00  0.00     0.074 A 
ATOM     65  C   UNL A   1      43.541  27.656  32.682  1.00  0.00     0.031 C 
ATOM     66  C   UNL A   1      43.608  28.947  34.803  1.00  0.00     0.034 A 
BRANCH  53  67
ATOM     67  C   UNL A   1      40.680  33.436  37.955  1.00  0.00     0.023 A 
ATOM     68  C   UNL A   1      39.823  33.128  39.028  1.00  0.00     0.031 A 
ATOM     69  C   UNL A   1      41.451  34.608  38.050  1.00  0.00     0.131 A 
ATOM     70  C   UNL A   1      39.695  34.019  40.104  1.00  0.00     0.055 A 
ATOM     71  C   UNL A   1      41.383  35.446  39.166  1.00  0.00     0.041 A 
ATOM     72  F   UNL A   1      42.273  34.970  37.052  1.00  0.00    -0.206 F 
ATOM     73  C   UNL A   1      40.488  35.164  40.194  1.00  0.00     0.022 A 
BRANCH  70  74
ATOM     74  S   UNL A   1      38.361  33.742  41.302  1.00  0.00     0.124 S 
ATOM     75  O   UNL A   1      37.983  35.111  41.646  1.00  0.00    -0.237 OA
ATOM     76  O   UNL A   1      37.388  32.986  40.522  1.00  0.00    -0.237 OA
ATOM     77  O   UNL A   1      39.015  32.996  42.377  1.00  0.00    -0.744 OA
ENDBRANCH  70  74
ENDBRANCH  53  67
BRANCH  54  78
ATOM     78  C   UNL A   1      40.896  28.159  29.429  1.00  0.00     0.023 A 
ATOM     79  C   UNL A   1      41.829  28.501  28.438  1.00  0.00     0.031 A 
ATOM     80  C   UNL A   1      40.007  27.102  29.161  1.00  0.00     0.131 A 
ATOM     81  C   UNL A   1      41.825  27.821  27.210  1.00  0.00     0.055 A 
ATOM     82  C   UNL A   1      40.042  26.393  27.960  1.00  0.00     0.041 A 
ATOM     83  F   UNL A   1      39.099  26.728  30.079  1.00  0.00    -0.206 F 
ATOM     84  C   UNL A   1      40.948  26.760  26.970  1.00  0.00     0.022 A 
BRANCH  81  85
ATOM     85  S   UNL A   1      42.937  28.391  25.895  1.00  0.00     0.124 S 
ATOM     86  O   UNL A   1      44.159  27.654  26.196  1.00  0.00    -0.237 OA
ATOM     87  O   UNL A   1      42.219  27.980  24.692  1.00  0.00    -0.237 OA
ATOM     88  O   UNL A   1      43.007  29.835  26.113  1.00  0.00    -0.744 OA
ENDBRANCH  81  85
ENDBRANCH  54  78
BRANCH  66  89
ATOM     89  C   UNL A   1      44.798  28.106  35.206  1.00  0.00     0.023 A 
ATOM     90  C   UNL A   1      44.638  26.874  35.868  1.00  0.00     0.031 A 
ATOM     91  C   UNL A   1      46.107  28.562  34.972  1.00  0.00     0.131 A 
ATOM     92  C   UNL A   1      45.763  26.184  36.344  1.00  0.00     0.055 A 
ATOM     93  C   UNL A   1      47.224  27.833  35.382  1.00  0.00     0.041 A 
ATOM     94  F   UNL A   1      46.323  29.732  34.348  1.00  0.00    -0.206 F 
ATOM     95  C   UNL A   1      47.056  26.647  36.089  1.00  0.00     0.022 A 
BRANCH  92  96
ATOM     96  S   UNL A   1      45.507  24.746  37.420  1.00  0.00     0.124 S 
ATOM     97  O   UNL A   1      44.620  25.289  38.445  1.00  0.00    -0.237 OA
ATOM     98  O   UNL A   1      44.910  23.776  36.507  1.00  0.00    -0.237 OA
ATOM     99  O   UNL A   1      46.856  24.417  37.878  1.00  0.00    -0.744 OA
ENDBRANCH  92  96
ENDBRANCH  66  89
ENDBRANCH  40  41
ENDBRANCH  32  35
ENDBRANCH  30  31
ENDBRANCH  29  30
ENDBRANCH   1  29
TORSDOF 18
ENDMDL
MODEL 3
REMARK VINA RESULT:     -12.5      5.628     11.473
REMARK SMILES Cc1ccc(-c2nc(C)c(C(=O)N3CCC(C(=O)NCCCCCCNC(=O)c4ccc(-c5c6nc(c(-c7cc(S(=O)(=O)[O-])ccc7F)c7ccc([nH]7)c(-c7cc(S(=O)(=O)[O-])ccc7F)c7nc(c(-c8cc(S(=O)(=O)[O-])ccc8F)c8ccc5[nH]8)C=C7)C=C6)cc4)CC3)s2)o1
REMARK SMILES IDX 23 1 22 2 21 3 20 4 19 5 17 6 18 7 16 9 11 10 12 11 13 12
REMARK SMILES IDX 14 13 93 14 15 15 92 16 10 17 6 18 7 19 94 20 8 21 9 22 5 23
REMARK SMILES IDX 1 24 2 25 3 26 95 27 4 28 24 29 25 30 26 31 27 32 28 34
REMARK SMILES IDX 29 35 30 36 91 37 31 38 90 39 32 40 33 41 34 42 84 43 35 44
REMARK SMILES IDX 89 45 83 46 85 47 36 48 88 49 82 50 81 51 37 53 69 54 49 55
REMARK SMILES IDX 68 56 50 57 53 58 67 59 86 60 51 61 52 62 66 64 87 65 54 66
REMARK SMILES IDX 38 67 39 68 47 69 40 70 46 71 48 72 45 73 41 74 42 75 43 76
REMARK SMILES IDX 44 77 70 78 71 79 79 80 72 81 78 82 80 83 77 84 73 85 74 86
REMARK SMILES IDX 75 87 76 88 55 89 56 90 64 91 57 92 63 93 65 94 62 95 58 96
REMARK SMILES IDX 59 97 60 98 61 99
REMARK H PARENT 19 8 26 33 85 52 53 63
REMARK Flexibility Score: inf
ROOT
ATOM      1  C   UNL A   1      40.462  21.388  27.207  1.00  0.00     0.002 C 
ENDROOT
BRANCH   1   2
ATOM      2  C   UNL A   1      40.288  22.758  26.543  1.00  0.00     0.002 C 
BRANCH   2   3
ATOM      3  C   UNL A   1      38.834  23.185  26.326  1.00  0.00     0.021 C 
BRANCH   3   4
ATOM      4  C   UNL A   1      38.022  22.201  25.489  1.00  0.00     0.116 C 
BRANCH   4   5
ATOM      5  N   UNL A   1      36.883  21.690  26.235  1.00  0.00    -0.356 N 
ATOM      6  C   UNL A   1      35.548  21.878  26.056  1.00  0.00     0.223 C 
ATOM      7  O   UNL A   1      34.772  21.359  26.862  1.00  0.00    -0.275 OA
ATOM      8  H   UNL A   1      37.118  21.113  26.997  1.00  0.00     0.163 HD
BRANCH   6   9
ATOM      9  C   UNL A   1      35.014  22.684  24.883  1.00  0.00     0.082 C 
ATOM     10  C   UNL A   1      31.496  24.456  23.685  1.00  0.00     0.265 C 
ATOM     11  O   UNL A   1      30.650  23.609  23.980  1.00  0.00    -0.268 OA
ATOM     12  N   UNL A   1      32.840  24.087  23.652  1.00  0.00    -0.338 N 
ATOM     13  C   UNL A   1      33.200  22.788  23.109  1.00  0.00     0.120 C 
ATOM     14  C   UNL A   1      33.915  24.878  24.228  1.00  0.00     0.120 C 
ATOM     15  C   UNL A   1      33.933  21.916  24.109  1.00  0.00     0.035 C 
ATOM     16  C   UNL A   1      34.626  24.104  25.328  1.00  0.00     0.035 C 
BRANCH  10  17
ATOM     17  C   UNL A   1      31.149  25.799  23.236  1.00  0.00     0.115 A 
ATOM     18  C   UNL A   1      29.980  27.917  22.947  1.00  0.00     0.159 A 
ATOM     19  N   UNL A   1      30.739  27.677  21.902  1.00  0.00    -0.237 NA
ATOM     20  S   UNL A   1      30.098  26.769  24.210  1.00  0.00    -0.105 S 
ATOM     21  C   UNL A   1      31.395  26.466  22.041  1.00  0.00     0.062 A 
ATOM     22  C   UNL A   1      32.191  26.036  20.865  1.00  0.00     0.068 C 
BRANCH  18  23
ATOM     23  C   UNL A   1      29.084  29.036  22.972  1.00  0.00     0.162 A 
ATOM     24  C   UNL A   1      28.782  32.610  23.015  1.00  0.00     0.087 C 
ATOM     25  C   UNL A   1      28.477  31.167  23.023  1.00  0.00     0.101 A 
ATOM     26  C   UNL A   1      27.312  30.436  23.048  1.00  0.00     0.046 A 
ATOM     27  O   UNL A   1      29.548  30.331  22.997  1.00  0.00    -0.459 OA
ATOM     28  C   UNL A   1      27.699  29.072  22.999  1.00  0.00     0.054 A 
ENDBRANCH  18  23
ENDBRANCH  10  17
ENDBRANCH   6   9
ENDBRANCH   4   5
ENDBRANCH   3   4
ENDBRANCH   2   3
ENDBRANCH   1   2
BRANCH   1  29
ATOM     29  C   UNL A   1      40.848  20.250  26.257  1.00  0.00     0.021 C 
BRANCH  29  30
ATOM     30  C   UNL A   1      42.028  19.404  26.723  1.00  0.00     0.116 C 
BRANCH  30  31
ATOM     31  N   UNL A   1      42.992  19.187  25.658  1.00  0.00    -0.352 N 
ATOM     32  C   UNL A   1      43.768  20.093  24.983  1.00  0.00     0.251 C 
ATOM     33  H   UNL A   1      43.105  18.249  25.382  1.00  0.00     0.163 HD
ATOM     34  O   UNL A   1      44.360  19.738  23.966  1.00  0.00    -0.269 OA
BRANCH  32  35
ATOM     35  C   UNL A   1      43.873  21.488  25.461  1.00  0.00     0.039 A 
ATOM     36  C   UNL A   1      44.301  21.715  26.772  1.00  0.00     0.014 A 
ATOM     37  C   UNL A   1      43.536  22.568  24.639  1.00  0.00     0.014 A 
ATOM     38  C   UNL A   1      44.443  23.024  27.236  1.00  0.00     0.010 A 
ATOM     39  C   UNL A   1      43.749  23.874  25.079  1.00  0.00     0.010 A 
ATOM     40  C   UNL A   1      44.203  24.115  26.383  1.00  0.00    -0.014 A 
BRANCH  40  41
ATOM     41  C   UNL A   1      44.448  25.503  26.853  1.00  0.00     0.031 A 
ATOM     42  C   UNL A   1      45.825  26.103  26.796  1.00  0.00     0.074 A 
ATOM     43  C   UNL A   1      43.420  26.214  27.359  1.00  0.00     0.049 A 
ATOM     44  N   UNL A   1      46.220  27.301  27.146  1.00  0.00    -0.248 NA
ATOM     45  C   UNL A   1      46.905  25.234  26.308  1.00  0.00     0.031 C 
ATOM     46  C   UNL A   1      42.052  25.716  27.520  1.00  0.00     0.029 A 
ATOM     47  N   UNL A   1      43.361  27.502  27.825  1.00  0.00    -0.354 N 
ATOM     48  C   UNL A   1      47.591  27.333  26.915  1.00  0.00     0.074 A 
ATOM     49  C   UNL A   1      47.968  26.009  26.468  1.00  0.00     0.031 C 
ATOM     50  C   UNL A   1      41.283  26.697  28.016  1.00  0.00     0.029 A 
ATOM     51  C   UNL A   1      42.107  27.879  28.246  1.00  0.00     0.049 A 
ATOM     52  H   UNL A   1      44.142  28.100  27.856  1.00  0.00     0.167 HD
ATOM     53  C   UNL A   1      48.450  28.376  27.038  1.00  0.00     0.034 A 
ATOM     54  C   UNL A   1      41.668  29.043  28.762  1.00  0.00     0.034 A 
ATOM     55  C   UNL A   1      48.057  29.689  27.498  1.00  0.00     0.049 A 
ATOM     56  C   UNL A   1      42.641  30.184  28.905  1.00  0.00     0.074 A 
ATOM     57  C   UNL A   1      48.832  30.829  27.623  1.00  0.00     0.029 A 
ATOM     58  N   UNL A   1      46.779  30.034  27.923  1.00  0.00    -0.354 N 
ATOM     59  N   UNL A   1      43.923  30.218  28.622  1.00  0.00    -0.248 NA
ATOM     60  C   UNL A   1      42.102  31.447  29.421  1.00  0.00     0.031 C 
ATOM     61  C   UNL A   1      48.045  31.838  28.189  1.00  0.00     0.029 A 
ATOM     62  C   UNL A   1      46.754  31.358  28.342  1.00  0.00     0.049 A 
ATOM     63  H   UNL A   1      46.004  29.427  27.927  1.00  0.00     0.167 HD
ATOM     64  C   UNL A   1      44.341  31.513  28.910  1.00  0.00     0.074 A 
ATOM     65  C   UNL A   1      43.164  32.235  29.355  1.00  0.00     0.031 C 
ATOM     66  C   UNL A   1      45.583  32.058  28.818  1.00  0.00     0.034 A 
BRANCH  53  67
ATOM     67  C   UNL A   1      49.901  28.123  26.689  1.00  0.00     0.023 A 
ATOM     68  C   UNL A   1      50.359  28.178  25.360  1.00  0.00     0.031 A 
ATOM     69  C   UNL A   1      50.832  27.787  27.688  1.00  0.00     0.131 A 
ATOM     70  C   UNL A   1      51.681  27.820  25.056  1.00  0.00     0.055 A 
ATOM     71  C   UNL A   1      52.169  27.517  27.388  1.00  0.00     0.041 A 
ATOM     72  F   UNL A   1      50.454  27.698  28.973  1.00  0.00    -0.206 F 
ATOM     73  C   UNL A   1      52.598  27.515  26.064  1.00  0.00     0.022 A 
BRANCH  70  74
ATOM     74  S   UNL A   1      52.140  27.602  23.314  1.00  0.00     0.124 S 
ATOM     75  O   UNL A   1      52.730  28.902  22.999  1.00  0.00    -0.237 OA
ATOM     76  O   UNL A   1      53.065  26.476  23.371  1.00  0.00    -0.237 OA
ATOM     77  O   UNL A   1      50.864  27.330  22.655  1.00  0.00    -0.744 OA
ENDBRANCH  70  74
ENDBRANCH  53  67
BRANCH  54  78
ATOM     78  C   UNL A   1      40.247  29.187  29.189  1.00  0.00     0.023 A 
ATOM     79  C   UNL A   1      39.875  29.076  30.538  1.00  0.00     0.031 A 
ATOM     80  C   UNL A   1      39.232  29.417  28.242  1.00  0.00     0.131 A 
ATOM     81  C   UNL A   1      38.520  29.153  30.898  1.00  0.00     0.055 A 
ATOM     82  C   UNL A   1      37.892  29.546  28.611  1.00  0.00     0.041 A 
ATOM     83  F   UNL A   1      39.534  29.539  26.939  1.00  0.00    -0.206 F 
ATOM     84  C   UNL A   1      37.529  29.402  29.946  1.00  0.00     0.022 A 
BRANCH  81  85
ATOM     85  S   UNL A   1      38.060  28.848  32.627  1.00  0.00     0.124 S 
ATOM     86  O   UNL A   1      38.150  27.395  32.707  1.00  0.00    -0.237 OA
ATOM     87  O   UNL A   1      39.083  29.597  33.348  1.00  0.00    -0.237 OA
ATOM     88  O   UNL A   1      36.708  29.396  32.719  1.00  0.00    -0.744 OA
ENDBRANCH  81  85
ENDBRANCH  54  78
BRANCH  66  89
ATOM     89  C   UNL A   1      45.711  33.515  29.199  1.00  0.00     0.023 A 
ATOM     90  C   UNL A   1      45.625  34.538  28.236  1.00  0.00     0.031 A 
ATOM     91  C   UNL A   1      45.973  33.885  30.530  1.00  0.00     0.131 A 
ATOM     92  C   UNL A   1      45.880  35.869  28.603  1.00  0.00     0.055 A 
ATOM     93  C   UNL A   1      46.151  35.219  30.902  1.00  0.00     0.041 A 
ATOM     94  F   UNL A   1      46.070  32.953  31.492  1.00  0.00    -0.206 F 
ATOM     95  C   UNL A   1      46.125  36.217  29.933  1.00  0.00     0.022 A 
BRANCH  92  96
ATOM     96  S   UNL A   1      46.023  37.117  27.294  1.00  0.00     0.124 S 
ATOM     97  O   UNL A   1      44.732  37.794  27.381  1.00  0.00    -0.237 OA
ATOM     98  O   UNL A   1      47.180  37.893  27.728  1.00  0.00    -0.237 OA
ATOM     99  O   UNL A   1      46.226  36.322  26.084  1.00  0.00    -0.744 OA
ENDBRANCH  92  96
ENDBRANCH  66  89
ENDBRANCH  40  41
ENDBRANCH  32  35
ENDBRANCH  30  31
ENDBRANCH  29  30
ENDBRANCH   1  29
TORSDOF 18
ENDMDL
