MODEL 1
REMARK VINA RESULT:     -11.1      0.000      0.000
REMARK SMILES CC1(C)[C@H](C(=O)NCCCCCCNC(=O)c2ccc(-c3c4nc(c(-c5cc(S(=O)(=O)[O-])ccc5F)c5ccc([nH]5)c(-c5cc(S(=O)(=O)[O-])ccc5F)c5nc(c(-c6cc(S(=O)(=O)[O-])ccc6F)c6ccc3[nH]6)C=C5)C=C4)cc2)[C@@H]1C(=O)Nc1ccc(NC(=O)C2CCC2)cc1
REMARK SMILES IDX 10 1 9 2 8 3 7 4 5 5 6 6 4 8 1 9 2 10 3 11 80 12 81 13 82 14
REMARK SMILES IDX 83 15 84 17 85 18 96 19 86 20 95 21 87 22 88 23 89 24 90 26
REMARK SMILES IDX 91 27 92 28 94 29 93 30 11 31 12 32 13 33 14 34 15 35 16 37
REMARK SMILES IDX 17 38 18 39 79 40 19 41 78 42 20 43 21 44 22 45 72 46 23 47
REMARK SMILES IDX 77 48 71 49 73 50 24 51 76 52 70 53 69 54 25 56 57 57 37 58
REMARK SMILES IDX 56 59 38 60 41 61 55 62 74 63 39 64 40 65 54 67 75 68 42 69
REMARK SMILES IDX 26 70 27 71 35 72 28 73 34 74 36 75 33 76 29 77 30 78 31 79
REMARK SMILES IDX 32 80 58 81 59 82 67 83 60 84 66 85 68 86 65 87 61 88 62 89
REMARK SMILES IDX 63 90 64 91 43 92 44 93 52 94 45 95 51 96 53 97 50 98 46 99
REMARK SMILES IDX 47 100 48 101 49 102
REMARK H PARENT 7 7 83 16 88 25 14 36 73 55 41 66
REMARK Flexibility Score: inf
ROOT
ATOM      1  C   UNL A   1      39.524  22.452  26.196  1.00  0.00     0.002 C 
ENDROOT
BRANCH   1   2
ATOM      2  C   UNL A   1      38.090  21.915  26.073  1.00  0.00     0.021 C 
BRANCH   2   3
ATOM      3  C   UNL A   1      37.761  21.355  24.694  1.00  0.00     0.116 C 
BRANCH   3   4
ATOM      4  N   UNL A   1      36.582  20.519  24.755  1.00  0.00    -0.356 N 
ATOM      5  C   UNL A   1      35.258  20.710  25.001  1.00  0.00     0.224 C 
ATOM      6  O   UNL A   1      34.571  19.685  24.984  1.00  0.00    -0.275 OA
ATOM      7  H   UNL A   1      36.790  19.574  24.570  1.00  0.00     0.163 HD
BRANCH   5   8
ATOM      8  C   UNL A   1      34.538  21.976  25.278  1.00  0.00     0.098 C 
ATOM      9  C   UNL A   1      34.931  24.506  25.377  1.00  0.00     0.013 C 
ATOM     10  C   UNL A   1      34.657  23.288  24.522  1.00  0.00    -0.011 C 
ATOM     11  C   UNL A   1      35.380  23.361  23.200  1.00  0.00     0.013 C 
ATOM     12  C   UNL A   1      33.294  22.582  24.710  1.00  0.00     0.098 C 
BRANCH  12  13
ATOM     13  C   UNL A   1      32.446  22.048  23.627  1.00  0.00     0.228 C 
ATOM     14  O   UNL A   1      32.432  20.845  23.390  1.00  0.00    -0.274 OA
ATOM     15  N   UNL A   1      31.721  22.901  22.821  1.00  0.00    -0.326 N 
ATOM     16  H   UNL A   1      31.425  22.549  21.950  1.00  0.00     0.169 HD
BRANCH  15  17
ATOM     17  C   UNL A   1      31.369  24.219  23.125  1.00  0.00     0.041 A 
ATOM     18  C   UNL A   1      31.947  25.188  22.323  1.00  0.00     0.028 A 
ATOM     19  C   UNL A   1      30.406  24.584  24.063  1.00  0.00     0.028 A 
ATOM     20  C   UNL A   1      31.399  26.459  22.296  1.00  0.00     0.028 A 
ATOM     21  C   UNL A   1      30.030  25.935  24.173  1.00  0.00     0.028 A 
ATOM     22  C   UNL A   1      30.536  26.890  23.279  1.00  0.00     0.041 A 
BRANCH  22  23
ATOM     23  N   UNL A   1      30.150  28.228  23.408  1.00  0.00    -0.326 N 
ATOM     24  C   UNL A   1      30.672  29.310  24.090  1.00  0.00     0.227 C 
ATOM     25  H   UNL A   1      29.331  28.444  22.905  1.00  0.00     0.169 HD
ATOM     26  O   UNL A   1      30.031  30.368  23.927  1.00  0.00    -0.274 OA
BRANCH  24  27
ATOM     27  C   UNL A   1      31.932  29.303  25.000  1.00  0.00     0.079 C 
ATOM     28  C   UNL A   1      31.789  28.363  26.254  1.00  0.00     0.013 C 
ATOM     29  C   UNL A   1      33.258  28.512  24.757  1.00  0.00     0.013 C 
ATOM     30  C   UNL A   1      33.314  28.232  26.261  1.00  0.00     0.002 C 
ENDBRANCH  24  27
ENDBRANCH  22  23
ENDBRANCH  15  17
ENDBRANCH  12  13
ENDBRANCH   5   8
ENDBRANCH   3   4
ENDBRANCH   2   3
ENDBRANCH   1   2
BRANCH   1  31
ATOM     31  C   UNL A   1      40.507  21.552  26.956  1.00  0.00     0.002 C 
BRANCH  31  32
ATOM     32  C   UNL A   1      40.636  20.124  26.422  1.00  0.00     0.021 C 
BRANCH  32  33
ATOM     33  C   UNL A   1      41.878  19.373  26.888  1.00  0.00     0.116 C 
BRANCH  33  34
ATOM     34  N   UNL A   1      42.784  19.072  25.794  1.00  0.00    -0.352 N 
ATOM     35  C   UNL A   1      43.576  19.930  25.073  1.00  0.00     0.251 C 
ATOM     36  H   UNL A   1      42.837  18.124  25.535  1.00  0.00     0.163 HD
ATOM     37  O   UNL A   1      44.150  19.525  24.066  1.00  0.00    -0.269 OA
BRANCH  35  38
ATOM     38  C   UNL A   1      43.707  21.341  25.497  1.00  0.00     0.039 A 
ATOM     39  C   UNL A   1      44.185  21.616  26.780  1.00  0.00     0.014 A 
ATOM     40  C   UNL A   1      43.361  22.386  24.636  1.00  0.00     0.014 A 
ATOM     41  C   UNL A   1      44.363  22.941  27.181  1.00  0.00     0.010 A 
ATOM     42  C   UNL A   1      43.608  23.705  25.011  1.00  0.00     0.010 A 
ATOM     43  C   UNL A   1      44.103  23.996  26.291  1.00  0.00    -0.014 A 
BRANCH  43  44
ATOM     44  C   UNL A   1      44.327  25.409  26.693  1.00  0.00     0.031 A 
ATOM     45  C   UNL A   1      45.705  26.009  26.601  1.00  0.00     0.074 A 
ATOM     46  C   UNL A   1      43.301  26.135  27.181  1.00  0.00     0.049 A 
ATOM     47  N   UNL A   1      46.114  27.202  26.949  1.00  0.00    -0.248 NA
ATOM     48  C   UNL A   1      46.768  25.140  26.073  1.00  0.00     0.031 C 
ATOM     49  C   UNL A   1      41.931  25.648  27.356  1.00  0.00     0.029 A 
ATOM     50  N   UNL A   1      43.250  27.433  27.625  1.00  0.00    -0.354 N 
ATOM     51  C   UNL A   1      47.482  27.223  26.695  1.00  0.00     0.074 A 
ATOM     52  C   UNL A   1      47.840  25.902  26.224  1.00  0.00     0.031 C 
ATOM     53  C   UNL A   1      41.170  26.642  27.844  1.00  0.00     0.029 A 
ATOM     54  C   UNL A   1      42.003  27.820  28.059  1.00  0.00     0.049 A 
ATOM     55  H   UNL A   1      44.032  28.031  27.632  1.00  0.00     0.167 HD
ATOM     56  C   UNL A   1      48.352  28.256  26.819  1.00  0.00     0.034 A 
ATOM     57  C   UNL A   1      41.582  28.990  28.581  1.00  0.00     0.034 A 
ATOM     58  C   UNL A   1      47.974  29.570  27.279  1.00  0.00     0.049 A 
ATOM     59  C   UNL A   1      42.571  30.119  28.723  1.00  0.00     0.074 A 
ATOM     60  C   UNL A   1      48.760  30.703  27.396  1.00  0.00     0.029 A 
ATOM     61  N   UNL A   1      46.700  29.929  27.705  1.00  0.00    -0.354 N 
ATOM     62  N   UNL A   1      43.852  30.139  28.429  1.00  0.00    -0.248 NA
ATOM     63  C   UNL A   1      42.055  31.387  29.253  1.00  0.00     0.031 C 
ATOM     64  C   UNL A   1      47.982  31.723  27.955  1.00  0.00     0.029 A 
ATOM     65  C   UNL A   1      46.687  31.255  28.110  1.00  0.00     0.049 A 
ATOM     66  H   UNL A   1      45.919  29.329  27.716  1.00  0.00     0.167 HD
ATOM     67  C   UNL A   1      44.283  31.432  28.706  1.00  0.00     0.074 A 
ATOM     68  C   UNL A   1      43.124  32.165  29.174  1.00  0.00     0.031 C 
ATOM     69  C   UNL A   1      45.525  31.970  28.583  1.00  0.00     0.034 A 
BRANCH  56  70
ATOM     70  C   UNL A   1      49.800  27.991  26.479  1.00  0.00     0.023 A 
ATOM     71  C   UNL A   1      50.281  28.090  25.160  1.00  0.00     0.031 A 
ATOM     72  C   UNL A   1      50.711  27.614  27.481  1.00  0.00     0.131 A 
ATOM     73  C   UNL A   1      51.608  27.741  24.868  1.00  0.00     0.055 A 
ATOM     74  C   UNL A   1      52.053  27.351  27.197  1.00  0.00     0.041 A 
ATOM     75  F   UNL A   1      50.310  27.482  28.755  1.00  0.00    -0.206 F 
ATOM     76  C   UNL A   1      52.505  27.398  25.882  1.00  0.00     0.022 A 
BRANCH  73  77
ATOM     77  S   UNL A   1      52.106  27.603  23.129  1.00  0.00     0.124 S 
ATOM     78  O   UNL A   1      53.220  26.662  23.216  1.00  0.00    -0.237 OA
ATOM     79  O   UNL A   1      50.893  27.102  22.493  1.00  0.00    -0.237 OA
ATOM     80  O   UNL A   1      52.479  28.969  22.770  1.00  0.00    -0.744 OA
ENDBRANCH  73  77
ENDBRANCH  56  70
BRANCH  57  81
ATOM     81  C   UNL A   1      40.164  29.160  29.013  1.00  0.00     0.023 A 
ATOM     82  C   UNL A   1      39.809  29.108  30.371  1.00  0.00     0.031 A 
ATOM     83  C   UNL A   1      39.134  29.328  28.070  1.00  0.00     0.131 A 
ATOM     84  C   UNL A   1      38.457  29.169  30.745  1.00  0.00     0.055 A 
ATOM     85  C   UNL A   1      37.796  29.446  28.450  1.00  0.00     0.041 A 
ATOM     86  F   UNL A   1      39.418  29.390  26.759  1.00  0.00    -0.206 F 
ATOM     87  C   UNL A   1      37.450  29.351  29.794  1.00  0.00     0.022 A 
BRANCH  84  88
ATOM     88  S   UNL A   1      38.025  28.911  32.487  1.00  0.00     0.124 S 
ATOM     89  O   UNL A   1      36.658  29.418  32.532  1.00  0.00    -0.237 OA
ATOM     90  O   UNL A   1      38.178  27.467  32.624  1.00  0.00    -0.237 OA
ATOM     91  O   UNL A   1      39.014  29.711  33.205  1.00  0.00    -0.744 OA
ENDBRANCH  84  88
ENDBRANCH  57  81
BRANCH  69  92
ATOM     92  C   UNL A   1      45.672  33.437  28.912  1.00  0.00     0.023 A 
ATOM     93  C   UNL A   1      45.643  34.426  27.913  1.00  0.00     0.031 A 
ATOM     94  C   UNL A   1      45.863  33.846  30.243  1.00  0.00     0.131 A 
ATOM     95  C   UNL A   1      45.870  35.769  28.254  1.00  0.00     0.055 A 
ATOM     96  C   UNL A   1      46.020  35.190  30.585  1.00  0.00     0.041 A 
ATOM     97  F   UNL A   1      45.900  32.945  31.237  1.00  0.00    -0.206 F 
ATOM     98  C   UNL A   1      46.040  36.159  29.586  1.00  0.00     0.022 A 
BRANCH  95  99
ATOM     99  S   UNL A   1      46.046  36.988  26.922  1.00  0.00     0.124 S 
ATOM    100  O   UNL A   1      44.717  37.587  26.882  1.00  0.00    -0.237 OA
ATOM    101  O   UNL A   1      47.116  37.843  27.424  1.00  0.00    -0.237 OA
ATOM    102  O   UNL A   1      46.397  36.176  25.759  1.00  0.00    -0.744 OA
ENDBRANCH  95  99
ENDBRANCH  69  92
ENDBRANCH  43  44
ENDBRANCH  35  38
ENDBRANCH  33  34
ENDBRANCH  32  33
ENDBRANCH  31  32
ENDBRANCH   1  31
TORSDOF 20
ENDMDL
MODEL 2
REMARK VINA RESULT:     -10.8      1.954      7.651
REMARK SMILES CC1(C)[C@H](C(=O)NCCCCCCNC(=O)c2ccc(-c3c4nc(c(-c5cc(S(=O)(=O)[O-])ccc5F)c5ccc([nH]5)c(-c5cc(S(=O)(=O)[O-])ccc5F)c5nc(c(-c6cc(S(=O)(=O)[O-])ccc6F)c6ccc3[nH]6)C=C5)C=C4)cc2)[C@@H]1C(=O)Nc1ccc(NC(=O)C2CCC2)cc1
REMARK SMILES IDX 10 1 9 2 8 3 7 4 5 5 6 6 4 8 1 9 2 10 3 11 80 12 81 13 82 14
REMARK SMILES IDX 83 15 84 17 85 18 96 19 86 20 95 21 87 22 88 23 89 24 90 26
REMARK SMILES IDX 91 27 92 28 94 29 93 30 11 31 12 32 13 33 14 34 15 35 16 37
REMARK SMILES IDX 17 38 18 39 79 40 19 41 78 42 20 43 21 44 22 45 72 46 23 47
REMARK SMILES IDX 77 48 71 49 73 50 24 51 76 52 70 53 69 54 25 56 57 57 37 58
REMARK SMILES IDX 56 59 38 60 41 61 55 62 74 63 39 64 40 65 54 67 75 68 42 69
REMARK SMILES IDX 26 70 27 71 35 72 28 73 34 74 36 75 33 76 29 77 30 78 31 79
REMARK SMILES IDX 32 80 58 81 59 82 67 83 60 84 66 85 68 86 65 87 61 88 62 89
REMARK SMILES IDX 63 90 64 91 43 92 44 93 52 94 45 95 51 96 53 97 50 98 46 99
REMARK SMILES IDX 47 100 48 101 49 102
REMARK H PARENT 7 7 83 16 88 25 14 36 73 55 41 66
REMARK Flexibility Score: inf
ROOT
ATOM      1  C   UNL A   1      35.972  20.520  24.898  1.00  0.00     0.002 C 
ENDROOT
BRANCH   1   2
ATOM      2  C   UNL A   1      36.539  21.947  24.836  1.00  0.00     0.021 C 
BRANCH   2   3
ATOM      3  C   UNL A   1      36.318  22.751  26.112  1.00  0.00     0.116 C 
BRANCH   3   4
ATOM      4  N   UNL A   1      35.187  22.230  26.849  1.00  0.00    -0.356 N 
ATOM      5  C   UNL A   1      33.969  22.697  27.232  1.00  0.00     0.224 C 
ATOM      6  O   UNL A   1      33.294  21.909  27.901  1.00  0.00    -0.275 OA
ATOM      7  H   UNL A   1      35.338  21.303  27.149  1.00  0.00     0.163 HD
BRANCH   5   8
ATOM      8  C   UNL A   1      33.347  24.013  26.948  1.00  0.00     0.098 C 
ATOM      9  C   UNL A   1      33.885  26.274  25.870  1.00  0.00     0.013 C 
ATOM     10  C   UNL A   1      33.467  24.833  25.675  1.00  0.00    -0.011 C 
ATOM     11  C   UNL A   1      34.068  24.243  24.423  1.00  0.00     0.013 C 
ATOM     12  C   UNL A   1      32.091  24.411  26.240  1.00  0.00     0.098 C 
BRANCH  12  13
ATOM     13  C   UNL A   1      31.119  23.528  25.566  1.00  0.00     0.228 C 
ATOM     14  O   UNL A   1      30.850  22.430  26.040  1.00  0.00    -0.274 OA
ATOM     15  N   UNL A   1      30.561  23.895  24.358  1.00  0.00    -0.326 N 
ATOM     16  H   UNL A   1      30.173  23.176  23.809  1.00  0.00     0.169 HD
BRANCH  15  17
ATOM     17  C   UNL A   1      30.498  25.193  23.842  1.00  0.00     0.041 A 
ATOM     18  C   UNL A   1      31.477  25.512  22.917  1.00  0.00     0.028 A 
ATOM     19  C   UNL A   1      29.469  26.096  24.097  1.00  0.00     0.028 A 
ATOM     20  C   UNL A   1      31.296  26.608  22.091  1.00  0.00     0.028 A 
ATOM     21  C   UNL A   1      29.438  27.317  23.400  1.00  0.00     0.028 A 
ATOM     22  C   UNL A   1      30.366  27.581  22.383  1.00  0.00     0.041 A 
BRANCH  22  23
ATOM     23  N   UNL A   1      30.317  28.803  21.704  1.00  0.00    -0.326 N 
ATOM     24  C   UNL A   1      29.697  30.012  21.960  1.00  0.00     0.227 C 
ATOM     25  H   UNL A   1      30.834  28.801  20.866  1.00  0.00     0.169 HD
ATOM     26  O   UNL A   1      29.924  30.887  21.100  1.00  0.00    -0.274 OA
BRANCH  24  27
ATOM     27  C   UNL A   1      28.785  30.340  23.174  1.00  0.00     0.079 C 
ATOM     28  C   UNL A   1      28.632  31.884  23.438  1.00  0.00     0.013 C 
ATOM     29  C   UNL A   1      27.223  30.343  23.197  1.00  0.00     0.013 C 
ATOM     30  C   UNL A   1      27.282  31.582  24.094  1.00  0.00     0.002 C 
ENDBRANCH  24  27
ENDBRANCH  22  23
ENDBRANCH  15  17
ENDBRANCH  12  13
ENDBRANCH   5   8
ENDBRANCH   3   4
ENDBRANCH   2   3
ENDBRANCH   1   2
BRANCH   1  31
ATOM     31  C   UNL A   1      37.013  19.393  24.899  1.00  0.00     0.002 C 
BRANCH  31  32
ATOM     32  C   UNL A   1      38.472  19.846  24.807  1.00  0.00     0.021 C 
BRANCH  32  33
ATOM     33  C   UNL A   1      39.238  19.815  26.125  1.00  0.00     0.116 C 
BRANCH  33  34
ATOM     34  N   UNL A   1      40.448  19.018  26.041  1.00  0.00    -0.352 N 
ATOM     35  C   UNL A   1      41.755  19.436  26.061  1.00  0.00     0.251 C 
ATOM     36  H   UNL A   1      40.313  18.046  25.959  1.00  0.00     0.163 HD
ATOM     37  O   UNL A   1      42.652  18.637  25.805  1.00  0.00    -0.269 OA
BRANCH  35  38
ATOM     38  C   UNL A   1      42.070  20.850  26.361  1.00  0.00     0.039 A 
ATOM     39  C   UNL A   1      42.311  21.219  27.686  1.00  0.00     0.014 A 
ATOM     40  C   UNL A   1      42.130  21.805  25.342  1.00  0.00     0.014 A 
ATOM     41  C   UNL A   1      42.659  22.538  27.983  1.00  0.00     0.010 A 
ATOM     42  C   UNL A   1      42.548  23.102  25.630  1.00  0.00     0.010 A 
ATOM     43  C   UNL A   1      42.808  23.484  26.956  1.00  0.00    -0.014 A 
BRANCH  43  44
ATOM     44  C   UNL A   1      43.217  24.880  27.255  1.00  0.00     0.031 A 
ATOM     45  C   UNL A   1      42.250  25.822  27.921  1.00  0.00     0.074 A 
ATOM     46  C   UNL A   1      44.440  25.311  26.888  1.00  0.00     0.049 A 
ATOM     47  N   UNL A   1      42.397  27.088  28.219  1.00  0.00    -0.248 NA
ATOM     48  C   UNL A   1      40.930  25.273  28.271  1.00  0.00     0.031 C 
ATOM     49  C   UNL A   1      45.448  24.502  26.200  1.00  0.00     0.029 A 
ATOM     50  N   UNL A   1      45.044  26.535  27.035  1.00  0.00    -0.354 N 
ATOM     51  C   UNL A   1      41.188  27.489  28.780  1.00  0.00     0.074 A 
ATOM     52  C   UNL A   1      40.301  26.348  28.720  1.00  0.00     0.031 C 
ATOM     53  C   UNL A   1      46.552  25.242  26.009  1.00  0.00     0.029 A 
ATOM     54  C   UNL A   1      46.319  26.589  26.519  1.00  0.00     0.049 A 
ATOM     55  H   UNL A   1      44.607  27.302  27.470  1.00  0.00     0.167 HD
ATOM     56  C   UNL A   1      40.860  28.691  29.316  1.00  0.00     0.034 A 
ATOM     57  C   UNL A   1      47.195  27.611  26.455  1.00  0.00     0.034 A 
ATOM     58  C   UNL A   1      41.764  29.814  29.378  1.00  0.00     0.049 A 
ATOM     59  C   UNL A   1      46.802  28.942  27.046  1.00  0.00     0.074 A 
ATOM     60  C   UNL A   1      41.555  31.059  29.944  1.00  0.00     0.029 A 
ATOM     61  N   UNL A   1      43.050  29.831  28.851  1.00  0.00    -0.354 N 
ATOM     62  N   UNL A   1      45.672  29.291  27.620  1.00  0.00    -0.248 NA
ATOM     63  C   UNL A   1      47.806  30.011  26.994  1.00  0.00     0.031 C 
ATOM     64  C   UNL A   1      42.683  31.849  29.698  1.00  0.00     0.029 A 
ATOM     65  C   UNL A   1      43.632  31.073  29.053  1.00  0.00     0.049 A 
ATOM     66  H   UNL A   1      43.485  29.072  28.400  1.00  0.00     0.167 HD
ATOM     67  C   UNL A   1      45.846  30.610  28.028  1.00  0.00     0.074 A 
ATOM     68  C   UNL A   1      47.194  30.986  27.649  1.00  0.00     0.031 C 
ATOM     69  C   UNL A   1      44.975  31.437  28.661  1.00  0.00     0.034 A 
BRANCH  56  70
ATOM     70  C   UNL A   1      39.456  28.854  29.852  1.00  0.00     0.023 A 
ATOM     71  C   UNL A   1      38.415  29.366  29.056  1.00  0.00     0.031 A 
ATOM     72  C   UNL A   1      39.156  28.513  31.182  1.00  0.00     0.131 A 
ATOM     73  C   UNL A   1      37.150  29.595  29.616  1.00  0.00     0.055 A 
ATOM     74  C   UNL A   1      37.872  28.663  31.711  1.00  0.00     0.041 A 
ATOM     75  F   UNL A   1      40.111  28.039  31.998  1.00  0.00    -0.206 F 
ATOM     76  C   UNL A   1      36.864  29.222  30.932  1.00  0.00     0.022 A 
BRANCH  73  77
ATOM     77  S   UNL A   1      35.926  30.518  28.647  1.00  0.00     0.124 S 
ATOM     78  O   UNL A   1      35.288  31.333  29.679  1.00  0.00    -0.237 OA
ATOM     79  O   UNL A   1      36.759  31.236  27.689  1.00  0.00    -0.237 OA
ATOM     80  O   UNL A   1      35.080  29.472  28.078  1.00  0.00    -0.744 OA
ENDBRANCH  73  77
ENDBRANCH  56  70
BRANCH  57  81
ATOM     81  C   UNL A   1      48.526  27.429  25.807  1.00  0.00     0.023 A 
ATOM     82  C   UNL A   1      48.683  27.573  24.419  1.00  0.00     0.031 A 
ATOM     83  C   UNL A   1      49.655  27.060  26.562  1.00  0.00     0.131 A 
ATOM     84  C   UNL A   1      49.923  27.298  23.822  1.00  0.00     0.055 A 
ATOM     85  C   UNL A   1      50.900  26.843  25.970  1.00  0.00     0.041 A 
ATOM     86  F   UNL A   1      49.562  26.914  27.894  1.00  0.00    -0.206 F 
ATOM     87  C   UNL A   1      51.035  26.946  24.590  1.00  0.00     0.022 A 
BRANCH  84  88
ATOM     88  S   UNL A   1      50.038  27.312  22.012  1.00  0.00     0.124 S 
ATOM     89  O   UNL A   1      48.947  26.420  21.638  1.00  0.00    -0.237 OA
ATOM     90  O   UNL A   1      49.843  28.726  21.709  1.00  0.00    -0.237 OA
ATOM     91  O   UNL A   1      51.382  26.802  21.752  1.00  0.00    -0.744 OA
ENDBRANCH  84  88
ENDBRANCH  57  81
BRANCH  69  92
ATOM     92  C   UNL A   1      45.479  32.812  29.029  1.00  0.00     0.023 A 
ATOM     93  C   UNL A   1      45.261  33.928  28.202  1.00  0.00     0.031 A 
ATOM     94  C   UNL A   1      46.207  33.002  30.217  1.00  0.00     0.131 A 
ATOM     95  C   UNL A   1      45.821  35.169  28.541  1.00  0.00     0.055 A 
ATOM     96  C   UNL A   1      46.704  34.254  30.583  1.00  0.00     0.041 A 
ATOM     97  F   UNL A   1      46.447  31.973  31.044  1.00  0.00    -0.206 F 
ATOM     98  C   UNL A   1      46.526  35.343  29.735  1.00  0.00     0.022 A 
BRANCH  95  99
ATOM     99  S   UNL A   1      45.708  36.530  27.348  1.00  0.00     0.124 S 
ATOM    100  O   UNL A   1      46.792  36.214  26.424  1.00  0.00    -0.237 OA
ATOM    101  O   UNL A   1      44.356  36.373  26.823  1.00  0.00    -0.237 OA
ATOM    102  O   UNL A   1      45.920  37.723  28.166  1.00  0.00    -0.744 OA
ENDBRANCH  95  99
ENDBRANCH  69  92
ENDBRANCH  43  44
ENDBRANCH  35  38
ENDBRANCH  33  34
ENDBRANCH  32  33
ENDBRANCH  31  32
ENDBRANCH   1  31
TORSDOF 20
ENDMDL
MODEL 3
REMARK VINA RESULT:     -10.5      0.928      7.561
REMARK SMILES CC1(C)[C@H](C(=O)NCCCCCCNC(=O)c2ccc(-c3c4nc(c(-c5cc(S(=O)(=O)[O-])ccc5F)c5ccc([nH]5)c(-c5cc(S(=O)(=O)[O-])ccc5F)c5nc(c(-c6cc(S(=O)(=O)[O-])ccc6F)c6ccc3[nH]6)C=C5)C=C4)cc2)[C@@H]1C(=O)Nc1ccc(NC(=O)C2CCC2)cc1
REMARK SMILES IDX 10 1 9 2 8 3 7 4 5 5 6 6 4 8 1 9 2 10 3 11 80 12 81 13 82 14
REMARK SMILES IDX 83 15 84 17 85 18 96 19 86 20 95 21 87 22 88 23 89 24 90 26
REMARK SMILES IDX 91 27 92 28 94 29 93 30 11 31 12 32 13 33 14 34 15 35 16 37
REMARK SMILES IDX 17 38 18 39 79 40 19 41 78 42 20 43 21 44 22 45 72 46 23 47
REMARK SMILES IDX 77 48 71 49 73 50 24 51 76 52 70 53 69 54 25 56 57 57 37 58
REMARK SMILES IDX 56 59 38 60 41 61 55 62 74 63 39 64 40 65 54 67 75 68 42 69
REMARK SMILES IDX 26 70 27 71 35 72 28 73 34 74 36 75 33 76 29 77 30 78 31 79
REMARK SMILES IDX 32 80 58 81 59 82 67 83 60 84 66 85 68 86 65 87 61 88 62 89
REMARK SMILES IDX 63 90 64 91 43 92 44 93 52 94 45 95 51 96 53 97 50 98 46 99
REMARK SMILES IDX 47 100 48 101 49 102
REMARK H PARENT 7 7 83 16 88 25 14 36 73 55 41 66
REMARK Flexibility Score: inf
ROOT
ATOM      1  C   UNL A   1      39.264  22.352  26.274  1.00  0.00     0.002 C 
ENDROOT
BRANCH   1   2
ATOM      2  C   UNL A   1      37.787  22.168  25.893  1.00  0.00     0.021 C 
BRANCH   2   3
ATOM      3  C   UNL A   1      37.576  21.319  24.645  1.00  0.00     0.116 C 
BRANCH   3   4
ATOM      4  N   UNL A   1      36.368  20.532  24.766  1.00  0.00    -0.356 N 
ATOM      5  C   UNL A   1      35.059  20.784  25.031  1.00  0.00     0.224 C 
ATOM      6  O   UNL A   1      34.333  19.785  25.072  1.00  0.00    -0.275 OA
ATOM      7  H   UNL A   1      36.537  19.572  24.618  1.00  0.00     0.163 HD
BRANCH   5   8
ATOM      8  C   UNL A   1      34.392  22.087  25.267  1.00  0.00     0.098 C 
ATOM      9  C   UNL A   1      34.885  24.601  25.263  1.00  0.00     0.013 C 
ATOM     10  C   UNL A   1      34.552  23.363  24.459  1.00  0.00    -0.011 C 
ATOM     11  C   UNL A   1      35.259  23.357  23.126  1.00  0.00     0.013 C 
ATOM     12  C   UNL A   1      33.165  22.719  24.692  1.00  0.00     0.098 C 
BRANCH  12  13
ATOM     13  C   UNL A   1      32.282  22.178  23.640  1.00  0.00     0.228 C 
ATOM     14  O   UNL A   1      32.137  20.966  23.519  1.00  0.00    -0.274 OA
ATOM     15  N   UNL A   1      31.670  23.022  22.737  1.00  0.00    -0.326 N 
ATOM     16  H   UNL A   1      31.352  22.622  21.896  1.00  0.00     0.169 HD
BRANCH  15  17
ATOM     17  C   UNL A   1      31.462  24.394  22.905  1.00  0.00     0.041 A 
ATOM     18  C   UNL A   1      30.501  24.737  23.841  1.00  0.00     0.028 A 
ATOM     19  C   UNL A   1      32.229  25.390  22.307  1.00  0.00     0.028 A 
ATOM     20  C   UNL A   1      30.475  26.028  24.342  1.00  0.00     0.028 A 
ATOM     21  C   UNL A   1      32.019  26.733  22.672  1.00  0.00     0.028 A 
ATOM     22  C   UNL A   1      31.127  27.059  23.703  1.00  0.00     0.041 A 
BRANCH  22  23
ATOM     23  N   UNL A   1      30.933  28.400  24.048  1.00  0.00    -0.326 N 
ATOM     24  C   UNL A   1      31.436  29.210  25.050  1.00  0.00     0.227 C 
ATOM     25  H   UNL A   1      30.305  28.866  23.450  1.00  0.00     0.169 HD
ATOM     26  O   UNL A   1      31.025  30.387  25.001  1.00  0.00    -0.274 OA
BRANCH  24  27
ATOM     27  C   UNL A   1      32.420  28.782  26.173  1.00  0.00     0.079 C 
ATOM     28  C   UNL A   1      33.871  28.479  25.646  1.00  0.00     0.013 C 
ATOM     29  C   UNL A   1      33.154  29.721  27.183  1.00  0.00     0.013 C 
ATOM     30  C   UNL A   1      34.392  28.833  27.042  1.00  0.00     0.002 C 
ENDBRANCH  24  27
ENDBRANCH  22  23
ENDBRANCH  15  17
ENDBRANCH  12  13
ENDBRANCH   5   8
ENDBRANCH   3   4
ENDBRANCH   2   3
ENDBRANCH   1   2
BRANCH   1  31
ATOM     31  C   UNL A   1      40.040  21.061  26.564  1.00  0.00     0.002 C 
BRANCH  31  32
ATOM     32  C   UNL A   1      41.503  21.060  26.116  1.00  0.00     0.021 C 
BRANCH  32  33
ATOM     33  C   UNL A   1      42.282  19.798  26.470  1.00  0.00     0.116 C 
BRANCH  33  34
ATOM     34  N   UNL A   1      43.118  19.340  25.375  1.00  0.00    -0.352 N 
ATOM     35  C   UNL A   1      44.041  20.046  24.645  1.00  0.00     0.251 C 
ATOM     36  H   UNL A   1      43.008  18.395  25.122  1.00  0.00     0.163 HD
ATOM     37  O   UNL A   1      44.533  19.542  23.638  1.00  0.00    -0.269 OA
BRANCH  35  38
ATOM     38  C   UNL A   1      44.412  21.417  25.058  1.00  0.00     0.039 A 
ATOM     39  C   UNL A   1      44.065  22.486  24.229  1.00  0.00     0.014 A 
ATOM     40  C   UNL A   1      45.095  21.647  26.255  1.00  0.00     0.014 A 
ATOM     41  C   UNL A   1      44.361  23.791  24.626  1.00  0.00     0.010 A 
ATOM     42  C   UNL A   1      45.325  22.952  26.683  1.00  0.00     0.010 A 
ATOM     43  C   UNL A   1      44.968  24.038  25.868  1.00  0.00    -0.014 A 
BRANCH  43  44
ATOM     44  C   UNL A   1      45.252  25.425  26.318  1.00  0.00     0.031 A 
ATOM     45  C   UNL A   1      44.140  26.284  26.858  1.00  0.00     0.074 A 
ATOM     46  C   UNL A   1      46.499  25.924  26.200  1.00  0.00     0.049 A 
ATOM     47  N   UNL A   1      44.173  27.531  27.253  1.00  0.00    -0.248 NA
ATOM     48  C   UNL A   1      42.807  25.666  26.935  1.00  0.00     0.031 C 
ATOM     49  C   UNL A   1      47.649  25.199  25.654  1.00  0.00     0.029 A 
ATOM     50  N   UNL A   1      47.009  27.156  26.526  1.00  0.00    -0.354 N 
ATOM     51  C   UNL A   1      42.867  27.850  27.614  1.00  0.00     0.074 A 
ATOM     52  C   UNL A   1      42.059  26.684  27.329  1.00  0.00     0.031 C 
ATOM     53  C   UNL A   1      48.733  25.991  25.706  1.00  0.00     0.029 A 
ATOM     54  C   UNL A   1      48.350  27.290  26.247  1.00  0.00     0.049 A 
ATOM     55  H   UNL A   1      46.467  27.875  26.922  1.00  0.00     0.167 HD
ATOM     56  C   UNL A   1      42.394  29.000  28.156  1.00  0.00     0.034 A 
ATOM     57  C   UNL A   1      49.175  28.346  26.402  1.00  0.00     0.034 A 
ATOM     58  C   UNL A   1      43.219  30.148  28.444  1.00  0.00     0.049 A 
ATOM     59  C   UNL A   1      48.622  29.619  26.992  1.00  0.00     0.074 A 
ATOM     60  C   UNL A   1      42.855  31.344  29.038  1.00  0.00     0.029 A 
ATOM     61  N   UNL A   1      44.575  30.247  28.155  1.00  0.00    -0.354 N 
ATOM     62  N   UNL A   1      47.394  29.887  27.377  1.00  0.00    -0.248 NA
ATOM     63  C   UNL A   1      49.568  30.724  27.184  1.00  0.00     0.031 C 
ATOM     64  C   UNL A   1      43.971  32.188  29.044  1.00  0.00     0.029 A 
ATOM     65  C   UNL A   1      45.053  31.493  28.531  1.00  0.00     0.049 A 
ATOM     66  H   UNL A   1      45.117  29.536  27.743  1.00  0.00     0.167 HD
ATOM     67  C   UNL A   1      47.432  31.180  27.888  1.00  0.00     0.074 A 
ATOM     68  C   UNL A   1      48.805  31.630  27.778  1.00  0.00     0.031 C 
ATOM     69  C   UNL A   1      46.425  31.930  28.406  1.00  0.00     0.034 A 
BRANCH  56  70
ATOM     70  C   UNL A   1      40.912  29.075  28.443  1.00  0.00     0.023 A 
ATOM     71  C   UNL A   1      40.405  28.965  29.750  1.00  0.00     0.031 A 
ATOM     72  C   UNL A   1      39.990  29.238  27.394  1.00  0.00     0.131 A 
ATOM     73  C   UNL A   1      39.019  28.941  29.966  1.00  0.00     0.055 A 
ATOM     74  C   UNL A   1      38.614  29.300  27.624  1.00  0.00     0.041 A 
ATOM     75  F   UNL A   1      40.410  29.328  26.122  1.00  0.00    -0.206 F 
ATOM     76  C   UNL A   1      38.120  29.135  28.914  1.00  0.00     0.022 A 
BRANCH  73  77
ATOM     77  S   UNL A   1      38.405  28.510  31.618  1.00  0.00     0.124 S 
ATOM     78  O   UNL A   1      38.546  27.056  31.613  1.00  0.00    -0.237 OA
ATOM     79  O   UNL A   1      39.317  29.238  32.493  1.00  0.00    -0.237 OA
ATOM     80  O   UNL A   1      37.027  28.996  31.609  1.00  0.00    -0.744 OA
ENDBRANCH  73  77
ENDBRANCH  56  70
BRANCH  57  81
ATOM     81  C   UNL A   1      50.605  28.256  25.990  1.00  0.00     0.023 A 
ATOM     82  C   UNL A   1      50.992  28.475  24.658  1.00  0.00     0.031 A 
ATOM     83  C   UNL A   1      51.605  27.901  26.915  1.00  0.00     0.131 A 
ATOM     84  C   UNL A   1      52.330  28.286  24.276  1.00  0.00     0.055 A 
ATOM     85  C   UNL A   1      52.943  27.770  26.542  1.00  0.00     0.041 A 
ATOM     86  F   UNL A   1      51.291  27.686  28.203  1.00  0.00    -0.206 F 
ATOM     87  C   UNL A   1      53.309  27.948  25.212  1.00  0.00     0.022 A 
BRANCH  84  88
ATOM     88  S   UNL A   1      52.755  28.394  22.516  1.00  0.00     0.124 S 
ATOM     89  O   UNL A   1      53.338  29.728  22.433  1.00  0.00    -0.237 OA
ATOM     90  O   UNL A   1      53.681  27.278  22.361  1.00  0.00    -0.237 OA
ATOM     91  O   UNL A   1      51.468  28.230  21.845  1.00  0.00    -0.744 OA
ENDBRANCH  84  88
ENDBRANCH  57  81
BRANCH  69  92
ATOM     92  C   UNL A   1      46.791  33.295  28.940  1.00  0.00     0.023 A 
ATOM     93  C   UNL A   1      46.727  34.447  28.137  1.00  0.00     0.031 A 
ATOM     94  C   UNL A   1      47.231  33.438  30.267  1.00  0.00     0.131 A 
ATOM     95  C   UNL A   1      47.158  35.680  28.649  1.00  0.00     0.055 A 
ATOM     96  C   UNL A   1      47.595  34.680  30.792  1.00  0.00     0.041 A 
ATOM     97  F   UNL A   1      47.314  32.373  31.080  1.00  0.00    -0.206 F 
ATOM     98  C   UNL A   1      47.575  35.807  29.977  1.00  0.00     0.022 A 
BRANCH  95  99
ATOM     99  S   UNL A   1      47.270  37.099  27.524  1.00  0.00     0.124 S 
ATOM    100  O   UNL A   1      46.748  36.542  26.280  1.00  0.00    -0.237 OA
ATOM    101  O   UNL A   1      46.424  38.087  28.184  1.00  0.00    -0.237 OA
ATOM    102  O   UNL A   1      48.697  37.415  27.511  1.00  0.00    -0.744 OA
ENDBRANCH  95  99
ENDBRANCH  69  92
ENDBRANCH  43  44
ENDBRANCH  35  38
ENDBRANCH  33  34
ENDBRANCH  32  33
ENDBRANCH  31  32
ENDBRANCH   1  31
TORSDOF 20
ENDMDL
