MODEL 1
REMARK VINA RESULT:     -12.4      0.000      0.000
REMARK SMILES Cc1ccc(-c2nn(-c3ccccc3)cc2[C@@H]2[NH2+][C@H](C(=O)NCCCCCCNC(=O)c3ccc(-c4c5nc(c(-c6cc(S(=O)(=O)[O-])ccc6F)c6ccc([nH]6)c(-c6cc(S(=O)(=O)[O-])ccc6F)c6nc(c(-c7cc(S(=O)(=O)[O-])ccc7F)c7ccc4[nH]7)C=C6)C=C5)cc3)CS2)cc1
REMARK SMILES IDX 26 1 25 2 24 3 23 4 22 5 20 6 21 7 19 9 17 10 18 11 96 12
REMARK SMILES IDX 95 15 16 16 6 17 7 18 8 19 15 20 5 21 1 22 2 23 3 24 98 25
REMARK SMILES IDX 4 26 97 27 9 28 10 29 14 30 11 31 13 32 12 33 27 34 28 35
REMARK SMILES IDX 29 36 30 37 31 39 32 40 33 41 94 42 34 43 93 44 35 45 36 46
REMARK SMILES IDX 37 47 87 48 38 49 92 50 86 51 88 52 39 53 91 54 85 55 84 56
REMARK SMILES IDX 40 58 72 59 52 60 71 61 53 62 56 63 70 64 89 65 54 66 55 67
REMARK SMILES IDX 69 69 90 70 57 71 41 72 42 73 50 74 43 75 49 76 51 77 48 78
REMARK SMILES IDX 44 79 45 80 46 81 47 82 73 83 74 84 82 85 75 86 81 87 83 88
REMARK SMILES IDX 80 89 76 90 77 91 78 92 79 93 58 94 59 95 67 96 60 97 66 98
REMARK SMILES IDX 68 99 65 100 61 101 62 102 63 103 64 104
REMARK H PARENT 22 8 18 13 18 14 29 38 88 57 56 68
REMARK Flexibility Score: inf
ROOT
ATOM      1  C   UNL A   1      43.201  22.545  28.512  1.00  0.00     0.002 C 
ENDROOT
BRANCH   1   2
ATOM      2  C   UNL A   1      41.673  22.418  28.384  1.00  0.00     0.002 C 
BRANCH   2   3
ATOM      3  C   UNL A   1      40.969  21.293  27.592  1.00  0.00     0.021 C 
BRANCH   3   4
ATOM      4  C   UNL A   1      40.235  21.550  26.277  1.00  0.00     0.116 C 
BRANCH   4   5
ATOM      5  N   UNL A   1      39.061  20.753  25.955  1.00  0.00    -0.351 N 
ATOM      6  C   UNL A   1      37.975  21.033  25.168  1.00  0.00     0.279 C 
ATOM      7  O   UNL A   1      37.303  20.051  24.808  1.00  0.00    -0.268 OA
ATOM      8  H   UNL A   1      39.044  19.862  26.374  1.00  0.00     0.163 HD
BRANCH   6   9
ATOM      9  C   UNL A   1      37.459  22.435  24.721  1.00  0.00     0.283 C 
ATOM     10  C   UNL A   1      35.225  23.075  24.016  1.00  0.00     0.278 C 
ATOM     11  N   UNL A   1      36.498  22.487  23.595  1.00  0.00    -0.320 N 
ATOM     12  S   UNL A   1      35.641  24.297  25.278  1.00  0.00    -0.087 SA
ATOM     13  H   UNL A   1      36.895  23.054  22.845  1.00  0.00     0.348 HD
ATOM     14  H   UNL A   1      36.325  21.535  23.272  1.00  0.00     0.348 HD
ATOM     15  C   UNL A   1      36.996  23.279  25.916  1.00  0.00     0.151 C 
BRANCH  10  16
ATOM     16  C   UNL A   1      34.325  21.981  24.495  1.00  0.00     0.067 A 
ATOM     17  C   UNL A   1      32.910  22.037  24.792  1.00  0.00     0.103 A 
ATOM     18  N   UNL A   1      32.480  20.831  25.239  1.00  0.00    -0.167 NA
ATOM     19  N   UNL A   1      33.501  19.982  24.966  1.00  0.00    -0.240 N 
ATOM     20  C   UNL A   1      34.651  20.653  24.682  1.00  0.00     0.126 A 
BRANCH  17  21
ATOM     21  C   UNL A   1      31.985  23.189  24.624  1.00  0.00     0.003 A 
ATOM     22  C   UNL A   1      29.339  26.597  24.029  1.00  0.00     0.044 C 
ATOM     23  C   UNL A   1      30.245  25.421  24.261  1.00  0.00    -0.051 A 
ATOM     24  C   UNL A   1      30.329  24.426  23.292  1.00  0.00     0.004 A 
ATOM     25  C   UNL A   1      30.995  25.271  25.434  1.00  0.00     0.004 A 
ATOM     26  C   UNL A   1      31.186  23.336  23.475  1.00  0.00     0.011 A 
ATOM     27  C   UNL A   1      31.848  24.165  25.615  1.00  0.00     0.011 A 
ENDBRANCH  17  21
BRANCH  19  28
ATOM     28  C   UNL A   1      33.351  18.584  24.805  1.00  0.00     0.065 A 
ATOM     29  C   UNL A   1      32.750  17.840  25.840  1.00  0.00     0.028 A 
ATOM     30  C   UNL A   1      33.796  17.946  23.651  1.00  0.00     0.028 A 
ATOM     31  C   UNL A   1      32.680  16.451  25.754  1.00  0.00     0.002 A 
ATOM     32  C   UNL A   1      33.635  16.561  23.536  1.00  0.00     0.002 A 
ATOM     33  C   UNL A   1      33.109  15.813  24.595  1.00  0.00     0.000 A 
ENDBRANCH  19  28
ENDBRANCH  10  16
ENDBRANCH   6   9
ENDBRANCH   4   5
ENDBRANCH   3   4
ENDBRANCH   2   3
ENDBRANCH   1   2
BRANCH   1  34
ATOM     34  C   UNL A   1      43.835  23.930  28.619  1.00  0.00     0.021 C 
BRANCH  34  35
ATOM     35  C   UNL A   1      44.570  24.472  27.393  1.00  0.00     0.116 C 
BRANCH  35  36
ATOM     36  N   UNL A   1      44.346  23.739  26.133  1.00  0.00    -0.352 N 
ATOM     37  C   UNL A   1      43.357  23.959  25.171  1.00  0.00     0.251 C 
ATOM     38  H   UNL A   1      44.972  23.002  25.947  1.00  0.00     0.163 HD
ATOM     39  O   UNL A   1      43.227  23.292  24.172  1.00  0.00    -0.269 OA
BRANCH  37  40
ATOM     40  C   UNL A   1      42.505  25.158  25.369  1.00  0.00     0.039 A 
ATOM     41  C   UNL A   1      43.143  26.391  25.198  1.00  0.00     0.014 A 
ATOM     42  C   UNL A   1      41.361  25.029  26.151  1.00  0.00     0.014 A 
ATOM     43  C   UNL A   1      42.833  27.424  26.071  1.00  0.00     0.010 A 
ATOM     44  C   UNL A   1      41.117  26.024  27.077  1.00  0.00     0.010 A 
ATOM     45  C   UNL A   1      41.924  27.172  27.097  1.00  0.00    -0.014 A 
BRANCH  45  46
ATOM     46  C   UNL A   1      41.866  27.986  28.307  1.00  0.00     0.031 A 
ATOM     47  C   UNL A   1      40.728  28.895  28.518  1.00  0.00     0.074 A 
ATOM     48  C   UNL A   1      42.846  27.935  29.237  1.00  0.00     0.049 A 
ATOM     49  N   UNL A   1      40.760  29.937  29.276  1.00  0.00    -0.248 NA
ATOM     50  C   UNL A   1      39.477  28.753  27.787  1.00  0.00     0.031 C 
ATOM     51  C   UNL A   1      42.812  28.495  30.585  1.00  0.00     0.029 A 
ATOM     52  N   UNL A   1      44.179  27.581  29.045  1.00  0.00    -0.354 N 
ATOM     53  C   UNL A   1      39.483  30.435  29.361  1.00  0.00     0.074 A 
ATOM     54  C   UNL A   1      38.760  29.741  28.323  1.00  0.00     0.031 C 
ATOM     55  C   UNL A   1      44.071  28.682  31.012  1.00  0.00     0.029 A 
ATOM     56  C   UNL A   1      44.962  28.370  29.910  1.00  0.00     0.049 A 
ATOM     57  H   UNL A   1      44.515  26.901  28.417  1.00  0.00     0.167 HD
ATOM     58  C   UNL A   1      39.171  31.277  30.388  1.00  0.00     0.034 A 
ATOM     59  C   UNL A   1      45.938  29.190  29.424  1.00  0.00     0.034 A 
ATOM     60  C   UNL A   1      40.372  31.696  31.126  1.00  0.00     0.049 A 
ATOM     61  C   UNL A   1      45.697  30.668  29.679  1.00  0.00     0.074 A 
ATOM     62  C   UNL A   1      40.928  31.385  32.357  1.00  0.00     0.029 A 
ATOM     63  N   UNL A   1      41.341  32.424  30.453  1.00  0.00    -0.354 N 
ATOM     64  N   UNL A   1      44.660  31.154  30.306  1.00  0.00    -0.248 NA
ATOM     65  C   UNL A   1      46.569  31.722  29.158  1.00  0.00     0.031 C 
ATOM     66  C   UNL A   1      42.249  31.929  32.401  1.00  0.00     0.029 A 
ATOM     67  C   UNL A   1      42.486  32.587  31.208  1.00  0.00     0.049 A 
ATOM     68  H   UNL A   1      41.226  32.783  29.544  1.00  0.00     0.167 HD
ATOM     69  C   UNL A   1      44.655  32.522  30.190  1.00  0.00     0.074 A 
ATOM     70  C   UNL A   1      45.884  32.833  29.483  1.00  0.00     0.031 C 
ATOM     71  C   UNL A   1      43.616  33.296  30.624  1.00  0.00     0.034 A 
BRANCH  58  72
ATOM     72  C   UNL A   1      37.764  31.547  30.891  1.00  0.00     0.023 A 
ATOM     73  C   UNL A   1      36.869  32.231  30.042  1.00  0.00     0.031 A 
ATOM     74  C   UNL A   1      37.251  31.257  32.173  1.00  0.00     0.131 A 
ATOM     75  C   UNL A   1      35.609  32.671  30.491  1.00  0.00     0.055 A 
ATOM     76  C   UNL A   1      36.009  31.717  32.632  1.00  0.00     0.041 A 
ATOM     77  F   UNL A   1      37.886  30.480  33.051  1.00  0.00    -0.206 F 
ATOM     78  C   UNL A   1      35.184  32.441  31.795  1.00  0.00     0.022 A 
BRANCH  75  79
ATOM     79  S   UNL A   1      34.538  33.583  29.352  1.00  0.00     0.124 S 
ATOM     80  O   UNL A   1      34.012  32.515  28.507  1.00  0.00    -0.237 OA
ATOM     81  O   UNL A   1      33.593  34.220  30.260  1.00  0.00    -0.237 OA
ATOM     82  O   UNL A   1      35.462  34.500  28.681  1.00  0.00    -0.744 OA
ENDBRANCH  75  79
ENDBRANCH  58  72
BRANCH  59  83
ATOM     83  C   UNL A   1      46.614  28.618  28.225  1.00  0.00     0.023 A 
ATOM     84  C   UNL A   1      47.573  27.602  28.434  1.00  0.00     0.031 A 
ATOM     85  C   UNL A   1      46.064  28.752  26.943  1.00  0.00     0.131 A 
ATOM     86  C   UNL A   1      47.850  26.676  27.419  1.00  0.00     0.055 A 
ATOM     87  C   UNL A   1      46.367  27.843  25.924  1.00  0.00     0.041 A 
ATOM     88  F   UNL A   1      45.126  29.679  26.696  1.00  0.00    -0.206 F 
ATOM     89  C   UNL A   1      47.228  26.775  26.172  1.00  0.00     0.022 A 
BRANCH  86  90
ATOM     90  S   UNL A   1      48.862  25.209  27.773  1.00  0.00     0.124 S 
ATOM     91  O   UNL A   1      48.015  24.128  27.279  1.00  0.00    -0.237 OA
ATOM     92  O   UNL A   1      50.084  25.449  27.009  1.00  0.00    -0.237 OA
ATOM     93  O   UNL A   1      49.025  25.272  29.223  1.00  0.00    -0.744 OA
ENDBRANCH  86  90
ENDBRANCH  59  83
BRANCH  71  94
ATOM     94  C   UNL A   1      43.579  34.801  30.488  1.00  0.00     0.023 A 
ATOM     95  C   UNL A   1      43.311  35.438  29.264  1.00  0.00     0.031 A 
ATOM     96  C   UNL A   1      43.894  35.649  31.574  1.00  0.00     0.131 A 
ATOM     97  C   UNL A   1      43.303  36.843  29.172  1.00  0.00     0.055 A 
ATOM     98  C   UNL A   1      43.970  37.040  31.458  1.00  0.00     0.041 A 
ATOM     99  F   UNL A   1      44.098  35.169  32.809  1.00  0.00    -0.206 F 
ATOM    100  C   UNL A   1      43.662  37.647  30.252  1.00  0.00     0.022 A 
BRANCH  97 101
ATOM    101  S   UNL A   1      42.737  37.612  27.632  1.00  0.00     0.124 S 
ATOM    102  O   UNL A   1      43.971  37.734  26.863  1.00  0.00    -0.237 OA
ATOM    103  O   UNL A   1      41.779  36.624  27.143  1.00  0.00    -0.237 OA
ATOM    104  O   UNL A   1      42.150  38.877  28.072  1.00  0.00    -0.744 OA
ENDBRANCH  97 101
ENDBRANCH  71  94
ENDBRANCH  45  46
ENDBRANCH  37  40
ENDBRANCH  35  36
ENDBRANCH  34  35
ENDBRANCH   1  34
TORSDOF 19
ENDMDL
MODEL 2
REMARK VINA RESULT:     -12.4      3.163      9.712
REMARK SMILES Cc1ccc(-c2nn(-c3ccccc3)cc2[C@@H]2[NH2+][C@H](C(=O)NCCCCCCNC(=O)c3ccc(-c4c5nc(c(-c6cc(S(=O)(=O)[O-])ccc6F)c6ccc([nH]6)c(-c6cc(S(=O)(=O)[O-])ccc6F)c6nc(c(-c7cc(S(=O)(=O)[O-])ccc7F)c7ccc4[nH]7)C=C6)C=C5)cc3)CS2)cc1
REMARK SMILES IDX 26 1 25 2 24 3 23 4 22 5 20 6 21 7 19 9 17 10 18 11 96 12
REMARK SMILES IDX 95 15 16 16 6 17 7 18 8 19 15 20 5 21 1 22 2 23 3 24 98 25
REMARK SMILES IDX 4 26 97 27 9 28 10 29 14 30 11 31 13 32 12 33 27 34 28 35
REMARK SMILES IDX 29 36 30 37 31 39 32 40 33 41 94 42 34 43 93 44 35 45 36 46
REMARK SMILES IDX 37 47 87 48 38 49 92 50 86 51 88 52 39 53 91 54 85 55 84 56
REMARK SMILES IDX 40 58 72 59 52 60 71 61 53 62 56 63 70 64 89 65 54 66 55 67
REMARK SMILES IDX 69 69 90 70 57 71 41 72 42 73 50 74 43 75 49 76 51 77 48 78
REMARK SMILES IDX 44 79 45 80 46 81 47 82 73 83 74 84 82 85 75 86 81 87 83 88
REMARK SMILES IDX 80 89 76 90 77 91 78 92 79 93 58 94 59 95 67 96 60 97 66 98
REMARK SMILES IDX 68 99 65 100 61 101 62 102 63 103 64 104
REMARK H PARENT 22 8 18 13 18 14 29 38 88 57 56 68
REMARK Flexibility Score: inf
ROOT
ATOM      1  C   UNL A   1      31.630  28.413  26.566  1.00  0.00     0.002 C 
ENDROOT
BRANCH   1   2
ATOM      2  C   UNL A   1      31.033  27.057  26.981  1.00  0.00     0.002 C 
BRANCH   2   3
ATOM      3  C   UNL A   1      30.608  25.964  25.975  1.00  0.00     0.021 C 
BRANCH   3   4
ATOM      4  C   UNL A   1      30.125  24.583  26.418  1.00  0.00     0.116 C 
BRANCH   4   5
ATOM      5  N   UNL A   1      31.106  23.541  26.678  1.00  0.00    -0.351 N 
ATOM      6  C   UNL A   1      32.462  23.516  26.483  1.00  0.00     0.279 C 
ATOM      7  O   UNL A   1      33.079  22.633  27.104  1.00  0.00    -0.268 OA
ATOM      8  H   UNL A   1      30.732  22.713  27.057  1.00  0.00     0.163 HD
BRANCH   6   9
ATOM      9  C   UNL A   1      33.306  24.426  25.540  1.00  0.00     0.283 C 
ATOM     10  C   UNL A   1      35.460  23.968  24.518  1.00  0.00     0.278 C 
ATOM     11  N   UNL A   1      34.775  24.435  25.725  1.00  0.00    -0.320 N 
ATOM     12  S   UNL A   1      34.436  24.505  23.132  1.00  0.00    -0.087 SA
ATOM     13  H   UNL A   1      35.078  25.387  25.934  1.00  0.00     0.348 HD
ATOM     14  H   UNL A   1      35.009  23.807  26.494  1.00  0.00     0.348 HD
ATOM     15  C   UNL A   1      32.909  24.243  24.069  1.00  0.00     0.151 C 
BRANCH  10  16
ATOM     16  C   UNL A   1      35.640  22.487  24.610  1.00  0.00     0.067 A 
ATOM     17  C   UNL A   1      36.744  21.743  25.176  1.00  0.00     0.103 A 
ATOM     18  N   UNL A   1      36.536  20.411  25.022  1.00  0.00    -0.167 NA
ATOM     19  N   UNL A   1      35.238  20.311  24.640  1.00  0.00    -0.240 N 
ATOM     20  C   UNL A   1      34.739  21.511  24.234  1.00  0.00     0.126 A 
BRANCH  17  21
ATOM     21  C   UNL A   1      37.944  22.274  25.873  1.00  0.00     0.003 A 
ATOM     22  C   UNL A   1      41.444  23.746  28.009  1.00  0.00     0.044 C 
ATOM     23  C   UNL A   1      40.234  23.262  27.260  1.00  0.00    -0.051 A 
ATOM     24  C   UNL A   1      40.204  21.954  26.790  1.00  0.00     0.004 A 
ATOM     25  C   UNL A   1      39.138  24.090  26.991  1.00  0.00     0.004 A 
ATOM     26  C   UNL A   1      39.077  21.474  26.113  1.00  0.00     0.011 A 
ATOM     27  C   UNL A   1      38.011  23.604  26.300  1.00  0.00     0.011 A 
ENDBRANCH  17  21
BRANCH  19  28
ATOM     28  C   UNL A   1      34.443  19.154  24.819  1.00  0.00     0.065 A 
ATOM     29  C   UNL A   1      34.927  17.916  24.351  1.00  0.00     0.028 A 
ATOM     30  C   UNL A   1      33.200  19.232  25.438  1.00  0.00     0.028 A 
ATOM     31  C   UNL A   1      34.125  16.779  24.423  1.00  0.00     0.002 A 
ATOM     32  C   UNL A   1      32.443  18.064  25.589  1.00  0.00     0.002 A 
ATOM     33  C   UNL A   1      32.889  16.850  25.056  1.00  0.00     0.000 A 
ENDBRANCH  19  28
ENDBRANCH  10  16
ENDBRANCH   6   9
ENDBRANCH   4   5
ENDBRANCH   3   4
ENDBRANCH   2   3
ENDBRANCH   1   2
BRANCH   1  34
ATOM     34  C   UNL A   1      32.838  28.966  27.320  1.00  0.00     0.021 C 
BRANCH  34  35
ATOM     35  C   UNL A   1      33.396  30.318  26.875  1.00  0.00     0.116 C 
BRANCH  35  36
ATOM     36  N   UNL A   1      33.782  31.241  27.958  1.00  0.00    -0.352 N 
ATOM     37  C   UNL A   1      34.901  31.172  28.793  1.00  0.00     0.251 C 
ATOM     38  H   UNL A   1      33.176  32.001  28.112  1.00  0.00     0.163 HD
ATOM     39  O   UNL A   1      35.131  31.961  29.678  1.00  0.00    -0.269 OA
BRANCH  37  40
ATOM     40  C   UNL A   1      35.895  30.118  28.471  1.00  0.00     0.039 A 
ATOM     41  C   UNL A   1      36.303  29.321  29.545  1.00  0.00     0.014 A 
ATOM     42  C   UNL A   1      36.690  30.289  27.342  1.00  0.00     0.014 A 
ATOM     43  C   UNL A   1      37.641  28.964  29.634  1.00  0.00     0.010 A 
ATOM     44  C   UNL A   1      38.037  30.014  27.475  1.00  0.00     0.010 A 
ATOM     45  C   UNL A   1      38.520  29.447  28.664  1.00  0.00    -0.014 A 
BRANCH  45  46
ATOM     46  C   UNL A   1      39.959  29.535  28.888  1.00  0.00     0.031 A 
ATOM     47  C   UNL A   1      40.847  28.510  28.317  1.00  0.00     0.074 A 
ATOM     48  C   UNL A   1      40.497  30.532  29.626  1.00  0.00     0.049 A 
ATOM     49  N   UNL A   1      42.019  28.225  28.773  1.00  0.00    -0.248 NA
ATOM     50  C   UNL A   1      40.425  27.637  27.231  1.00  0.00     0.031 C 
ATOM     51  C   UNL A   1      41.910  30.885  29.735  1.00  0.00     0.029 A 
ATOM     52  N   UNL A   1      39.881  31.269  30.634  1.00  0.00    -0.354 N 
ATOM     53  C   UNL A   1      42.613  27.354  27.894  1.00  0.00     0.074 A 
ATOM     54  C   UNL A   1      41.538  26.929  27.032  1.00  0.00     0.031 C 
ATOM     55  C   UNL A   1      42.105  31.558  30.879  1.00  0.00     0.029 A 
ATOM     56  C   UNL A   1      40.852  31.557  31.611  1.00  0.00     0.049 A 
ATOM     57  H   UNL A   1      38.934  31.539  30.659  1.00  0.00     0.167 HD
ATOM     58  C   UNL A   1      43.968  27.205  27.929  1.00  0.00     0.034 A 
ATOM     59  C   UNL A   1      40.691  31.152  32.904  1.00  0.00     0.034 A 
ATOM     60  C   UNL A   1      44.554  27.867  29.104  1.00  0.00     0.049 A 
ATOM     61  C   UNL A   1      41.737  30.160  33.383  1.00  0.00     0.074 A 
ATOM     62  C   UNL A   1      45.287  29.024  29.317  1.00  0.00     0.029 A 
ATOM     63  N   UNL A   1      44.192  27.418  30.364  1.00  0.00    -0.354 N 
ATOM     64  N   UNL A   1      42.721  29.708  32.654  1.00  0.00    -0.248 NA
ATOM     65  C   UNL A   1      41.694  29.526  34.702  1.00  0.00     0.031 C 
ATOM     66  C   UNL A   1      45.345  29.263  30.724  1.00  0.00     0.029 A 
ATOM     67  C   UNL A   1      44.667  28.243  31.365  1.00  0.00     0.049 A 
ATOM     68  H   UNL A   1      43.660  26.606  30.526  1.00  0.00     0.167 HD
ATOM     69  C   UNL A   1      43.355  28.690  33.322  1.00  0.00     0.074 A 
ATOM     70  C   UNL A   1      42.691  28.629  34.611  1.00  0.00     0.031 C 
ATOM     71  C   UNL A   1      44.335  27.928  32.749  1.00  0.00     0.034 A 
BRANCH  58  72
ATOM     72  C   UNL A   1      44.811  26.669  26.785  1.00  0.00     0.023 A 
ATOM     73  C   UNL A   1      44.634  25.324  26.396  1.00  0.00     0.031 A 
ATOM     74  C   UNL A   1      45.837  27.348  26.095  1.00  0.00     0.131 A 
ATOM     75  C   UNL A   1      45.489  24.701  25.467  1.00  0.00     0.055 A 
ATOM     76  C   UNL A   1      46.707  26.724  25.191  1.00  0.00     0.041 A 
ATOM     77  F   UNL A   1      46.045  28.660  26.211  1.00  0.00    -0.206 F 
ATOM     78  C   UNL A   1      46.545  25.388  24.880  1.00  0.00     0.022 A 
BRANCH  75  79
ATOM     79  S   UNL A   1      45.220  22.958  25.055  1.00  0.00     0.124 S 
ATOM     80  O   UNL A   1      43.936  22.689  25.693  1.00  0.00    -0.237 OA
ATOM     81  O   UNL A   1      45.231  22.982  23.597  1.00  0.00    -0.237 OA
ATOM     82  O   UNL A   1      46.366  22.286  25.669  1.00  0.00    -0.744 OA
ENDBRANCH  75  79
ENDBRANCH  58  72
BRANCH  59  83
ATOM     83  C   UNL A   1      39.264  31.180  33.334  1.00  0.00     0.023 A 
ATOM     84  C   UNL A   1      38.706  32.432  33.676  1.00  0.00     0.031 A 
ATOM     85  C   UNL A   1      38.389  30.129  33.028  1.00  0.00     0.131 A 
ATOM     86  C   UNL A   1      37.324  32.637  33.572  1.00  0.00     0.055 A 
ATOM     87  C   UNL A   1      37.007  30.332  32.956  1.00  0.00     0.041 A 
ATOM     88  F   UNL A   1      38.865  28.928  32.666  1.00  0.00    -0.206 F 
ATOM     89  C   UNL A   1      36.473  31.599  33.185  1.00  0.00     0.022 A 
BRANCH  86  90
ATOM     90  S   UNL A   1      36.636  34.311  33.736  1.00  0.00     0.124 S 
ATOM     91  O   UNL A   1      37.827  35.105  34.014  1.00  0.00    -0.237 OA
ATOM     92  O   UNL A   1      36.012  34.549  32.436  1.00  0.00    -0.237 OA
ATOM     93  O   UNL A   1      35.698  34.168  34.847  1.00  0.00    -0.744 OA
ENDBRANCH  86  90
ENDBRANCH  59  83
BRANCH  71  94
ATOM     94  C   UNL A   1      45.032  26.789  33.456  1.00  0.00     0.023 A 
ATOM     95  C   UNL A   1      44.339  25.660  33.924  1.00  0.00     0.031 A 
ATOM     96  C   UNL A   1      46.413  26.841  33.757  1.00  0.00     0.131 A 
ATOM     97  C   UNL A   1      45.021  24.626  34.595  1.00  0.00     0.055 A 
ATOM     98  C   UNL A   1      47.068  25.854  34.499  1.00  0.00     0.041 A 
ATOM     99  F   UNL A   1      47.198  27.829  33.304  1.00  0.00    -0.206 F 
ATOM    100  C   UNL A   1      46.373  24.730  34.915  1.00  0.00     0.022 A 
BRANCH  97 101
ATOM    101  S   UNL A   1      44.125  23.099  34.980  1.00  0.00     0.124 S 
ATOM    102  O   UNL A   1      45.032  22.418  35.898  1.00  0.00    -0.237 OA
ATOM    103  O   UNL A   1      42.895  23.620  35.573  1.00  0.00    -0.237 OA
ATOM    104  O   UNL A   1      43.958  22.457  33.677  1.00  0.00    -0.744 OA
ENDBRANCH  97 101
ENDBRANCH  71  94
ENDBRANCH  45  46
ENDBRANCH  37  40
ENDBRANCH  35  36
ENDBRANCH  34  35
ENDBRANCH   1  34
TORSDOF 19
ENDMDL
MODEL 3
REMARK VINA RESULT:     -11.5      5.299      9.206
REMARK SMILES Cc1ccc(-c2nn(-c3ccccc3)cc2[C@@H]2[NH2+][C@H](C(=O)NCCCCCCNC(=O)c3ccc(-c4c5nc(c(-c6cc(S(=O)(=O)[O-])ccc6F)c6ccc([nH]6)c(-c6cc(S(=O)(=O)[O-])ccc6F)c6nc(c(-c7cc(S(=O)(=O)[O-])ccc7F)c7ccc4[nH]7)C=C6)C=C5)cc3)CS2)cc1
REMARK SMILES IDX 26 1 25 2 24 3 23 4 22 5 20 6 21 7 19 9 17 10 18 11 96 12
REMARK SMILES IDX 95 15 16 16 6 17 7 18 8 19 15 20 5 21 1 22 2 23 3 24 98 25
REMARK SMILES IDX 4 26 97 27 9 28 10 29 14 30 11 31 13 32 12 33 27 34 28 35
REMARK SMILES IDX 29 36 30 37 31 39 32 40 33 41 94 42 34 43 93 44 35 45 36 46
REMARK SMILES IDX 37 47 87 48 38 49 92 50 86 51 88 52 39 53 91 54 85 55 84 56
REMARK SMILES IDX 40 58 72 59 52 60 71 61 53 62 56 63 70 64 89 65 54 66 55 67
REMARK SMILES IDX 69 69 90 70 57 71 41 72 42 73 50 74 43 75 49 76 51 77 48 78
REMARK SMILES IDX 44 79 45 80 46 81 47 82 73 83 74 84 82 85 75 86 81 87 83 88
REMARK SMILES IDX 80 89 76 90 77 91 78 92 79 93 58 94 59 95 67 96 60 97 66 98
REMARK SMILES IDX 68 99 65 100 61 101 62 102 63 103 64 104
REMARK H PARENT 22 8 18 13 18 14 29 38 88 57 56 68
REMARK Flexibility Score: inf
ROOT
ATOM      1  C   UNL A   1      47.592  33.532  26.210  1.00  0.00     0.002 C 
ENDROOT
BRANCH   1   2
ATOM      2  C   UNL A   1      47.674  33.175  27.704  1.00  0.00     0.002 C 
BRANCH   2   3
ATOM      3  C   UNL A   1      47.725  31.726  28.238  1.00  0.00     0.021 C 
BRANCH   3   4
ATOM      4  C   UNL A   1      46.468  30.886  28.454  1.00  0.00     0.116 C 
BRANCH   4   5
ATOM      5  N   UNL A   1      45.754  30.369  27.297  1.00  0.00    -0.351 N 
ATOM      6  C   UNL A   1      45.226  29.129  27.048  1.00  0.00     0.279 C 
ATOM      7  O   UNL A   1      44.388  29.075  26.132  1.00  0.00    -0.268 OA
ATOM      8  H   UNL A   1      45.630  31.021  26.569  1.00  0.00     0.163 HD
BRANCH   6   9
ATOM      9  C   UNL A   1      45.594  27.781  27.740  1.00  0.00     0.283 C 
ATOM     10  C   UNL A   1      44.118  26.161  28.784  1.00  0.00     0.278 C 
ATOM     11  N   UNL A   1      44.853  27.414  28.968  1.00  0.00    -0.320 N 
ATOM     12  S   UNL A   1      45.118  25.164  27.660  1.00  0.00    -0.087 SA
ATOM     13  H   UNL A   1      45.515  27.302  29.736  1.00  0.00     0.348 HD
ATOM     14  H   UNL A   1      44.183  28.155  29.176  1.00  0.00     0.348 HD
ATOM     15  C   UNL A   1      45.657  26.624  26.734  1.00  0.00     0.151 C 
BRANCH  10  16
ATOM     16  C   UNL A   1      42.749  26.476  28.271  1.00  0.00     0.067 A 
ATOM     17  C   UNL A   1      41.859  25.642  27.494  1.00  0.00     0.103 A 
ATOM     18  N   UNL A   1      40.723  26.321  27.198  1.00  0.00    -0.167 NA
ATOM     19  N   UNL A   1      40.769  27.422  27.988  1.00  0.00    -0.240 N 
ATOM     20  C   UNL A   1      42.014  27.621  28.504  1.00  0.00     0.126 A 
BRANCH  17  21
ATOM     21  C   UNL A   1      42.062  24.230  27.074  1.00  0.00     0.003 A 
ATOM     22  C   UNL A   1      42.749  20.084  25.929  1.00  0.00     0.044 C 
ATOM     23  C   UNL A   1      42.500  21.519  26.300  1.00  0.00    -0.051 A 
ATOM     24  C   UNL A   1      42.100  21.827  27.596  1.00  0.00     0.004 A 
ATOM     25  C   UNL A   1      42.632  22.565  25.379  1.00  0.00     0.004 A 
ATOM     26  C   UNL A   1      41.889  23.158  27.970  1.00  0.00     0.011 A 
ATOM     27  C   UNL A   1      42.408  23.903  25.760  1.00  0.00     0.011 A 
ENDBRANCH  17  21
BRANCH  19  28
ATOM     28  C   UNL A   1      39.631  28.164  28.386  1.00  0.00     0.065 A 
ATOM     29  C   UNL A   1      39.237  29.274  27.613  1.00  0.00     0.028 A 
ATOM     30  C   UNL A   1      38.914  27.813  29.525  1.00  0.00     0.028 A 
ATOM     31  C   UNL A   1      38.183  30.082  28.034  1.00  0.00     0.002 A 
ATOM     32  C   UNL A   1      37.798  28.578  29.887  1.00  0.00     0.002 A 
ATOM     33  C   UNL A   1      37.453  29.725  29.164  1.00  0.00     0.000 A 
ENDBRANCH  19  28
ENDBRANCH  10  16
ENDBRANCH   6   9
ENDBRANCH   4   5
ENDBRANCH   3   4
ENDBRANCH   2   3
ENDBRANCH   1   2
BRANCH   1  34
ATOM     34  C   UNL A   1      47.432  34.993  25.792  1.00  0.00     0.021 C 
BRANCH  34  35
ATOM     35  C   UNL A   1      47.019  35.998  26.867  1.00  0.00     0.116 C 
BRANCH  35  36
ATOM     36  N   UNL A   1      45.693  36.618  26.693  1.00  0.00    -0.352 N 
ATOM     37  C   UNL A   1      44.456  36.151  27.146  1.00  0.00     0.251 C 
ATOM     38  H   UNL A   1      45.676  37.466  26.193  1.00  0.00     0.163 HD
ATOM     39  O   UNL A   1      43.406  36.711  26.937  1.00  0.00    -0.269 OA
BRANCH  37  40
ATOM     40  C   UNL A   1      44.489  34.955  28.025  1.00  0.00     0.039 A 
ATOM     41  C   UNL A   1      44.122  33.749  27.420  1.00  0.00     0.014 A 
ATOM     42  C   UNL A   1      44.386  35.147  29.399  1.00  0.00     0.014 A 
ATOM     43  C   UNL A   1      43.344  32.855  28.143  1.00  0.00     0.010 A 
ATOM     44  C   UNL A   1      43.536  34.304  30.089  1.00  0.00     0.010 A 
ATOM     45  C   UNL A   1      42.938  33.220  29.426  1.00  0.00    -0.014 A 
BRANCH  45  46
ATOM     46  C   UNL A   1      41.786  32.613  30.084  1.00  0.00     0.031 A 
ATOM     47  C   UNL A   1      40.553  33.397  30.261  1.00  0.00     0.074 A 
ATOM     48  C   UNL A   1      41.830  31.345  30.552  1.00  0.00     0.049 A 
ATOM     49  N   UNL A   1      39.662  33.159  31.161  1.00  0.00    -0.248 NA
ATOM     50  C   UNL A   1      40.283  34.599  29.486  1.00  0.00     0.031 C 
ATOM     51  C   UNL A   1      40.704  30.533  31.005  1.00  0.00     0.029 A 
ATOM     52  N   UNL A   1      42.954  30.626  30.950  1.00  0.00    -0.354 N 
ATOM     53  C   UNL A   1      38.587  33.976  30.915  1.00  0.00     0.074 A 
ATOM     54  C   UNL A   1      39.076  34.929  29.949  1.00  0.00     0.031 C 
ATOM     55  C   UNL A   1      41.161  29.572  31.823  1.00  0.00     0.029 A 
ATOM     56  C   UNL A   1      42.578  29.804  32.029  1.00  0.00     0.049 A 
ATOM     57  H   UNL A   1      43.852  30.684  30.549  1.00  0.00     0.167 HD
ATOM     58  C   UNL A   1      37.379  33.658  31.464  1.00  0.00     0.034 A 
ATOM     59  C   UNL A   1      43.196  29.906  33.241  1.00  0.00     0.034 A 
ATOM     60  C   UNL A   1      37.502  32.572  32.448  1.00  0.00     0.049 A 
ATOM     61  C   UNL A   1      42.283  30.350  34.372  1.00  0.00     0.074 A 
ATOM     62  C   UNL A   1      37.181  31.225  32.470  1.00  0.00     0.029 A 
ATOM     63  N   UNL A   1      38.274  32.790  33.578  1.00  0.00    -0.354 N 
ATOM     64  N   UNL A   1      41.013  30.619  34.239  1.00  0.00    -0.248 NA
ATOM     65  C   UNL A   1      42.764  30.617  35.729  1.00  0.00     0.031 C 
ATOM     66  C   UNL A   1      37.784  30.640  33.626  1.00  0.00     0.029 A 
ATOM     67  C   UNL A   1      38.453  31.635  34.315  1.00  0.00     0.049 A 
ATOM     68  H   UNL A   1      38.650  33.664  33.827  1.00  0.00     0.167 HD
ATOM     69  C   UNL A   1      40.539  31.175  35.402  1.00  0.00     0.074 A 
ATOM     70  C   UNL A   1      41.668  31.130  36.314  1.00  0.00     0.031 C 
ATOM     71  C   UNL A   1      39.278  31.689  35.514  1.00  0.00     0.034 A 
BRANCH  58  72
ATOM     72  C   UNL A   1      36.037  34.153  30.953  1.00  0.00     0.023 A 
ATOM     73  C   UNL A   1      35.315  35.068  31.748  1.00  0.00     0.031 A 
ATOM     74  C   UNL A   1      35.368  33.737  29.784  1.00  0.00     0.131 A 
ATOM     75  C   UNL A   1      33.994  35.443  31.434  1.00  0.00     0.055 A 
ATOM     76  C   UNL A   1      34.045  34.086  29.483  1.00  0.00     0.041 A 
ATOM     77  F   UNL A   1      35.952  33.006  28.834  1.00  0.00    -0.206 F 
ATOM     78  C   UNL A   1      33.343  34.934  30.317  1.00  0.00     0.022 A 
BRANCH  75  79
ATOM     79  S   UNL A   1      33.120  36.589  32.531  1.00  0.00     0.124 S 
ATOM     80  O   UNL A   1      31.913  35.837  32.858  1.00  0.00    -0.237 OA
ATOM     81  O   UNL A   1      34.083  36.777  33.609  1.00  0.00    -0.237 OA
ATOM     82  O   UNL A   1      32.904  37.765  31.686  1.00  0.00    -0.744 OA
ENDBRANCH  75  79
ENDBRANCH  58  72
BRANCH  59  83
ATOM     83  C   UNL A   1      44.643  30.243  33.113  1.00  0.00     0.023 A 
ATOM     84  C   UNL A   1      45.547  29.180  32.898  1.00  0.00     0.031 A 
ATOM     85  C   UNL A   1      45.065  31.543  32.802  1.00  0.00     0.131 A 
ATOM     86  C   UNL A   1      46.773  29.418  32.260  1.00  0.00     0.055 A 
ATOM     87  C   UNL A   1      46.303  31.778  32.194  1.00  0.00     0.041 A 
ATOM     88  F   UNL A   1      44.236  32.586  32.958  1.00  0.00    -0.206 F 
ATOM     89  C   UNL A   1      47.142  30.711  31.881  1.00  0.00     0.022 A 
BRANCH  86  90
ATOM     90  S   UNL A   1      47.810  28.024  31.727  1.00  0.00     0.124 S 
ATOM     91  O   UNL A   1      49.078  28.318  32.387  1.00  0.00    -0.237 OA
ATOM     92  O   UNL A   1      47.094  26.856  32.234  1.00  0.00    -0.237 OA
ATOM     93  O   UNL A   1      47.808  28.158  30.273  1.00  0.00    -0.744 OA
ENDBRANCH  86  90
ENDBRANCH  59  83
BRANCH  71  94
ATOM     94  C   UNL A   1      38.742  32.324  36.776  1.00  0.00     0.023 A 
ATOM     95  C   UNL A   1      37.678  31.766  37.504  1.00  0.00     0.031 A 
ATOM     96  C   UNL A   1      39.234  33.564  37.246  1.00  0.00     0.131 A 
ATOM     97  C   UNL A   1      37.193  32.397  38.666  1.00  0.00     0.055 A 
ATOM     98  C   UNL A   1      38.692  34.230  38.349  1.00  0.00     0.041 A 
ATOM     99  F   UNL A   1      40.293  34.163  36.682  1.00  0.00    -0.206 F 
ATOM    100  C   UNL A   1      37.670  33.640  39.075  1.00  0.00     0.022 A 
BRANCH  97 101
ATOM    101  S   UNL A   1      35.974  31.526  39.686  1.00  0.00     0.124 S 
ATOM    102  O   UNL A   1      36.552  31.614  41.022  1.00  0.00    -0.237 OA
ATOM    103  O   UNL A   1      34.774  32.328  39.459  1.00  0.00    -0.237 OA
ATOM    104  O   UNL A   1      35.937  30.183  39.110  1.00  0.00    -0.744 OA
ENDBRANCH  97 101
ENDBRANCH  71  94
ENDBRANCH  45  46
ENDBRANCH  37  40
ENDBRANCH  35  36
ENDBRANCH  34  35
ENDBRANCH   1  34
TORSDOF 19
ENDMDL
