MODEL 1
REMARK VINA RESULT:     -12.2      0.000      0.000
REMARK SMILES Cc1c(Br)c(C)c2c(c1Br)O[C@H](C(F)(F)F)C(C(=O)NCCCCCCNC(=O)c1ccc(-c3c4nc(c(-c5cc(S(=O)(=O)[O-])ccc5F)c5ccc([nH]5)c(-c5cc(S(=O)(=O)[O-])ccc5F)c5nc(c(-c6cc(S(=O)(=O)[O-])ccc6F)c6ccc3[nH]6)C=C5)C=C4)cc1)=C2
REMARK SMILES IDX 24 1 23 2 22 3 21 4 20 5 18 6 19 7 17 9 1 10 2 11 3 12 9 13
REMARK SMILES IDX 4 14 5 15 8 16 10 17 6 18 7 19 11 20 93 21 12 22 13 23 14 24
REMARK SMILES IDX 15 25 16 26 25 27 26 28 27 29 28 30 29 32 30 33 31 34 92 35
REMARK SMILES IDX 32 36 91 37 33 38 34 39 35 40 85 41 36 42 90 43 84 44 86 45
REMARK SMILES IDX 37 46 89 47 83 48 82 49 38 51 70 52 50 53 69 54 51 55 54 56
REMARK SMILES IDX 68 57 87 58 52 59 53 60 67 62 88 63 55 64 39 65 40 66 48 67
REMARK SMILES IDX 41 68 47 69 49 70 46 71 42 72 43 73 44 74 45 75 71 76 72 77
REMARK SMILES IDX 80 78 73 79 79 80 81 81 78 82 74 83 75 84 76 85 77 86 56 87
REMARK SMILES IDX 57 88 65 89 58 90 64 91 66 92 63 93 59 94 60 95 61 96 62 97
REMARK H PARENT 20 8 27 31 86 50 54 61
REMARK Flexibility Score: inf
ROOT
ATOM      1  C   UNL A   1      31.908  30.470  26.102  1.00  0.00     0.002 C 
ENDROOT
BRANCH   1   2
ATOM      2  C   UNL A   1      32.787  29.483  26.882  1.00  0.00     0.002 C 
BRANCH   2   3
ATOM      3  C   UNL A   1      33.925  28.837  26.084  1.00  0.00     0.021 C 
BRANCH   3   4
ATOM      4  C   UNL A   1      33.592  27.459  25.523  1.00  0.00     0.116 C 
BRANCH   4   5
ATOM      5  N   UNL A   1      32.316  26.970  26.018  1.00  0.00    -0.352 N 
ATOM      6  C   UNL A   1      31.698  25.776  26.160  1.00  0.00     0.251 C 
ATOM      7  O   UNL A   1      30.566  25.831  26.658  1.00  0.00    -0.270 OA
ATOM      8  H   UNL A   1      31.748  27.709  26.335  1.00  0.00     0.163 HD
BRANCH   6   9
ATOM      9  C   UNL A   1      32.266  24.448  25.777  1.00  0.00     0.067 C 
ATOM     10  C   UNL A   1      36.034  19.193  24.631  1.00  0.00     0.047 C 
ATOM     11  C   UNL A   1      35.437  20.532  24.996  1.00  0.00    -0.019 A 
ATOM     12  C   UNL A   1      36.241  21.638  25.368  1.00  0.00     0.025 A 
ATOM     13  C   UNL A   1      34.045  20.726  24.911  1.00  0.00     0.064 A 
ATOM     14  Br  UNL A   1      38.151  21.438  25.376  1.00  0.00    -0.050 Br
ATOM     15  C   UNL A   1      35.667  22.891  25.716  1.00  0.00    -0.026 A 
ATOM     16  C   UNL A   1      33.467  21.961  25.244  1.00  0.00     0.142 A 
ATOM     17  Br  UNL A   1      32.886  19.328  24.296  1.00  0.00    -0.046 Br
ATOM     18  C   UNL A   1      36.501  24.079  26.146  1.00  0.00     0.046 C 
ATOM     19  C   UNL A   1      34.258  23.035  25.662  1.00  0.00     0.022 A 
ATOM     20  O   UNL A   1      32.102  22.047  25.197  1.00  0.00    -0.474 OA
ATOM     21  C   UNL A   1      33.573  24.275  26.051  1.00  0.00     0.026 C 
ATOM     22  C   UNL A   1      31.504  23.360  25.086  1.00  0.00     0.314 C 
BRANCH  22  23
ATOM     23  C   UNL A   1      31.214  23.675  23.609  1.00  0.00     0.429 C 
ATOM     24  F   UNL A   1      32.339  24.082  22.974  1.00  0.00    -0.167 F 
ATOM     25  F   UNL A   1      30.759  22.594  22.932  1.00  0.00    -0.167 F 
ATOM     26  F   UNL A   1      30.288  24.649  23.465  1.00  0.00    -0.167 F 
ENDBRANCH  22  23
ENDBRANCH   6   9
ENDBRANCH   4   5
ENDBRANCH   3   4
ENDBRANCH   2   3
ENDBRANCH   1   2
BRANCH   1  27
ATOM     27  C   UNL A   1      31.614  31.799  26.804  1.00  0.00     0.021 C 
BRANCH  27  28
ATOM     28  C   UNL A   1      32.846  32.565  27.275  1.00  0.00     0.116 C 
BRANCH  28  29
ATOM     29  N   UNL A   1      32.530  33.924  27.678  1.00  0.00    -0.352 N 
ATOM     30  C   UNL A   1      33.102  34.683  28.669  1.00  0.00     0.251 C 
ATOM     31  H   UNL A   1      31.806  34.360  27.173  1.00  0.00     0.163 HD
ATOM     32  O   UNL A   1      32.599  35.756  28.990  1.00  0.00    -0.269 OA
BRANCH  30  33
ATOM     33  C   UNL A   1      34.307  34.182  29.362  1.00  0.00     0.039 A 
ATOM     34  C   UNL A   1      34.148  33.344  30.468  1.00  0.00     0.014 A 
ATOM     35  C   UNL A   1      35.586  34.514  28.903  1.00  0.00     0.014 A 
ATOM     36  C   UNL A   1      35.275  32.784  31.072  1.00  0.00     0.010 A 
ATOM     37  C   UNL A   1      36.704  33.906  29.468  1.00  0.00     0.010 A 
ATOM     38  C   UNL A   1      36.559  33.032  30.556  1.00  0.00    -0.014 A 
BRANCH  38  39
ATOM     39  C   UNL A   1      37.750  32.371  31.147  1.00  0.00     0.031 A 
ATOM     40  C   UNL A   1      38.296  32.834  32.468  1.00  0.00     0.074 A 
ATOM     41  C   UNL A   1      38.347  31.363  30.480  1.00  0.00     0.049 A 
ATOM     42  N   UNL A   1      39.314  32.372  33.146  1.00  0.00    -0.248 NA
ATOM     43  C   UNL A   1      37.624  33.980  33.101  1.00  0.00     0.031 C 
ATOM     44  C   UNL A   1      37.929  30.854  29.171  1.00  0.00     0.029 A 
ATOM     45  N   UNL A   1      39.418  30.574  30.815  1.00  0.00    -0.354 N 
ATOM     46  C   UNL A   1      39.402  33.162  34.285  1.00  0.00     0.074 A 
ATOM     47  C   UNL A   1      38.375  34.175  34.175  1.00  0.00     0.031 C 
ATOM     48  C   UNL A   1      38.703  29.808  28.839  1.00  0.00     0.029 A 
ATOM     49  C   UNL A   1      39.690  29.590  29.892  1.00  0.00     0.049 A 
ATOM     50  H   UNL A   1      39.944  30.701  31.637  1.00  0.00     0.167 HD
ATOM     51  C   UNL A   1      40.242  33.036  35.340  1.00  0.00     0.034 A 
ATOM     52  C   UNL A   1      40.619  28.615  29.900  1.00  0.00     0.034 A 
ATOM     53  C   UNL A   1      41.248  32.012  35.448  1.00  0.00     0.049 A 
ATOM     54  C   UNL A   1      41.555  28.506  31.074  1.00  0.00     0.074 A 
ATOM     55  C   UNL A   1      42.125  31.774  36.492  1.00  0.00     0.029 A 
ATOM     56  N   UNL A   1      41.510  31.054  34.480  1.00  0.00    -0.354 N 
ATOM     57  N   UNL A   1      41.611  29.253  32.151  1.00  0.00    -0.248 NA
ATOM     58  C   UNL A   1      42.550  27.425  31.037  1.00  0.00     0.031 C 
ATOM     59  C   UNL A   1      42.948  30.702  36.136  1.00  0.00     0.029 A 
ATOM     60  C   UNL A   1      42.547  30.236  34.893  1.00  0.00     0.049 A 
ATOM     61  H   UNL A   1      41.030  30.969  33.624  1.00  0.00     0.167 HD
ATOM     62  C   UNL A   1      42.628  28.716  32.932  1.00  0.00     0.074 A 
ATOM     63  C   UNL A   1      43.165  27.587  32.202  1.00  0.00     0.031 C 
ATOM     64  C   UNL A   1      43.071  29.118  34.149  1.00  0.00     0.034 A 
BRANCH  51  65
ATOM     65  C   UNL A   1      40.104  34.032  36.460  1.00  0.00     0.023 A 
ATOM     66  C   UNL A   1      39.556  33.662  37.700  1.00  0.00     0.031 A 
ATOM     67  C   UNL A   1      40.533  35.360  36.294  1.00  0.00     0.131 A 
ATOM     68  C   UNL A   1      39.400  34.622  38.709  1.00  0.00     0.055 A 
ATOM     69  C   UNL A   1      40.436  36.296  37.326  1.00  0.00     0.041 A 
ATOM     70  F   UNL A   1      41.048  35.770  35.125  1.00  0.00    -0.206 F 
ATOM     71  C   UNL A   1      39.859  35.932  38.539  1.00  0.00     0.022 A 
BRANCH  68  72
ATOM     72  S   UNL A   1      38.511  34.159  40.219  1.00  0.00     0.124 S 
ATOM     73  O   UNL A   1      37.351  33.460  39.672  1.00  0.00    -0.237 OA
ATOM     74  O   UNL A   1      39.485  33.329  40.920  1.00  0.00    -0.237 OA
ATOM     75  O   UNL A   1      38.218  35.444  40.851  1.00  0.00    -0.744 OA
ENDBRANCH  68  72
ENDBRANCH  51  65
BRANCH  52  76
ATOM     76  C   UNL A   1      40.694  27.650  28.770  1.00  0.00     0.023 A 
ATOM     77  C   UNL A   1      41.649  27.808  27.753  1.00  0.00     0.031 A 
ATOM     78  C   UNL A   1      39.822  26.551  28.696  1.00  0.00     0.131 A 
ATOM     79  C   UNL A   1      41.696  26.891  26.692  1.00  0.00     0.055 A 
ATOM     80  C   UNL A   1      39.893  25.623  27.656  1.00  0.00     0.041 A 
ATOM     81  F   UNL A   1      38.901  26.351  29.653  1.00  0.00    -0.206 F 
ATOM     82  C   UNL A   1      40.832  25.793  26.642  1.00  0.00     0.022 A 
BRANCH  79  83
ATOM     83  S   UNL A   1      42.893  27.163  25.356  1.00  0.00     0.124 S 
ATOM     84  O   UNL A   1      42.277  28.266  24.627  1.00  0.00    -0.237 OA
ATOM     85  O   UNL A   1      44.109  27.482  26.098  1.00  0.00    -0.237 OA
ATOM     86  O   UNL A   1      42.914  25.883  24.652  1.00  0.00    -0.744 OA
ENDBRANCH  79  83
ENDBRANCH  52  76
BRANCH  64  87
ATOM     87  C   UNL A   1      44.168  28.317  34.790  1.00  0.00     0.023 A 
ATOM     88  C   UNL A   1      43.886  27.196  35.586  1.00  0.00     0.031 A 
ATOM     89  C   UNL A   1      45.512  28.636  34.531  1.00  0.00     0.131 A 
ATOM     90  C   UNL A   1      44.941  26.434  36.109  1.00  0.00     0.055 A 
ATOM     91  C   UNL A   1      46.557  27.855  35.023  1.00  0.00     0.041 A 
ATOM     92  F   UNL A   1      45.826  29.695  33.768  1.00  0.00    -0.206 F 
ATOM     93  C   UNL A   1      46.273  26.746  35.818  1.00  0.00     0.022 A 
BRANCH  90  94
ATOM     94  S   UNL A   1      44.556  25.014  37.168  1.00  0.00     0.124 S 
ATOM     95  O   UNL A   1      45.671  25.029  38.108  1.00  0.00    -0.237 OA
ATOM     96  O   UNL A   1      43.253  25.370  37.721  1.00  0.00    -0.237 OA
ATOM     97  O   UNL A   1      44.543  23.887  36.238  1.00  0.00    -0.744 OA
ENDBRANCH  90  94
ENDBRANCH  64  87
ENDBRANCH  38  39
ENDBRANCH  30  33
ENDBRANCH  28  29
ENDBRANCH  27  28
ENDBRANCH   1  27
TORSDOF 17
ENDMDL
MODEL 2
REMARK VINA RESULT:     -12.2      0.728      7.614
REMARK SMILES Cc1c(Br)c(C)c2c(c1Br)O[C@H](C(F)(F)F)C(C(=O)NCCCCCCNC(=O)c1ccc(-c3c4nc(c(-c5cc(S(=O)(=O)[O-])ccc5F)c5ccc([nH]5)c(-c5cc(S(=O)(=O)[O-])ccc5F)c5nc(c(-c6cc(S(=O)(=O)[O-])ccc6F)c6ccc3[nH]6)C=C5)C=C4)cc1)=C2
REMARK SMILES IDX 24 1 23 2 22 3 21 4 20 5 18 6 19 7 17 9 1 10 2 11 3 12 9 13
REMARK SMILES IDX 4 14 5 15 8 16 10 17 6 18 7 19 11 20 93 21 12 22 13 23 14 24
REMARK SMILES IDX 15 25 16 26 25 27 26 28 27 29 28 30 29 32 30 33 31 34 92 35
REMARK SMILES IDX 32 36 91 37 33 38 34 39 35 40 85 41 36 42 90 43 84 44 86 45
REMARK SMILES IDX 37 46 89 47 83 48 82 49 38 51 70 52 50 53 69 54 51 55 54 56
REMARK SMILES IDX 68 57 87 58 52 59 53 60 67 62 88 63 55 64 39 65 40 66 48 67
REMARK SMILES IDX 41 68 47 69 49 70 46 71 42 72 43 73 44 74 45 75 71 76 72 77
REMARK SMILES IDX 80 78 73 79 79 80 81 81 78 82 74 83 75 84 76 85 77 86 56 87
REMARK SMILES IDX 57 88 65 89 58 90 64 91 66 92 63 93 59 94 60 95 61 96 62 97
REMARK H PARENT 20 8 27 31 86 50 54 61
REMARK Flexibility Score: inf
ROOT
ATOM      1  C   UNL A   1      31.808  30.432  25.754  1.00  0.00     0.002 C 
ENDROOT
BRANCH   1   2
ATOM      2  C   UNL A   1      33.045  29.530  25.856  1.00  0.00     0.002 C 
BRANCH   2   3
ATOM      3  C   UNL A   1      33.479  28.852  24.552  1.00  0.00     0.021 C 
BRANCH   3   4
ATOM      4  C   UNL A   1      33.332  27.333  24.557  1.00  0.00     0.116 C 
BRANCH   4   5
ATOM      5  N   UNL A   1      32.360  26.890  25.542  1.00  0.00    -0.352 N 
ATOM      6  C   UNL A   1      31.954  25.717  26.079  1.00  0.00     0.251 C 
ATOM      7  O   UNL A   1      31.061  25.814  26.930  1.00  0.00    -0.270 OA
ATOM      8  H   UNL A   1      31.861  27.650  25.920  1.00  0.00     0.163 HD
BRANCH   6   9
ATOM      9  C   UNL A   1      32.492  24.367  25.732  1.00  0.00     0.067 C 
ATOM     10  C   UNL A   1      36.145  19.005  24.713  1.00  0.00     0.047 C 
ATOM     11  C   UNL A   1      35.578  20.366  25.041  1.00  0.00    -0.019 A 
ATOM     12  C   UNL A   1      36.407  21.468  25.368  1.00  0.00     0.025 A 
ATOM     13  C   UNL A   1      34.189  20.584  24.966  1.00  0.00     0.064 A 
ATOM     14  Br  UNL A   1      38.313  21.231  25.359  1.00  0.00    -0.050 Br
ATOM     15  C   UNL A   1      35.861  22.743  25.682  1.00  0.00    -0.026 A 
ATOM     16  C   UNL A   1      33.638  21.840  25.266  1.00  0.00     0.142 A 
ATOM     17  Br  UNL A   1      32.995  19.190  24.411  1.00  0.00    -0.046 Br
ATOM     18  C   UNL A   1      36.724  23.927  26.062  1.00  0.00     0.046 C 
ATOM     19  C   UNL A   1      34.455  22.912  25.640  1.00  0.00     0.022 A 
ATOM     20  O   UNL A   1      32.275  21.951  25.233  1.00  0.00    -0.474 OA
ATOM     21  C   UNL A   1      33.799  24.178  25.996  1.00  0.00     0.026 C 
ATOM     22  C   UNL A   1      31.701  23.272  25.087  1.00  0.00     0.314 C 
BRANCH  22  23
ATOM     23  C   UNL A   1      31.398  23.545  23.604  1.00  0.00     0.429 C 
ATOM     24  F   UNL A   1      30.166  24.088  23.457  1.00  0.00    -0.167 F 
ATOM     25  F   UNL A   1      32.273  24.419  23.052  1.00  0.00    -0.167 F 
ATOM     26  F   UNL A   1      31.441  22.419  22.856  1.00  0.00    -0.167 F 
ENDBRANCH  22  23
ENDBRANCH   6   9
ENDBRANCH   4   5
ENDBRANCH   3   4
ENDBRANCH   2   3
ENDBRANCH   1   2
BRANCH   1  27
ATOM     27  C   UNL A   1      31.649  31.472  26.868  1.00  0.00     0.021 C 
BRANCH  27  28
ATOM     28  C   UNL A   1      32.923  32.230  27.227  1.00  0.00     0.116 C 
BRANCH  28  29
ATOM     29  N   UNL A   1      32.675  33.641  27.468  1.00  0.00    -0.352 N 
ATOM     30  C   UNL A   1      33.226  34.462  28.421  1.00  0.00     0.251 C 
ATOM     31  H   UNL A   1      32.022  34.067  26.867  1.00  0.00     0.163 HD
ATOM     32  O   UNL A   1      32.778  35.592  28.594  1.00  0.00    -0.269 OA
BRANCH  30  33
ATOM     33  C   UNL A   1      34.338  33.960  29.254  1.00  0.00     0.039 A 
ATOM     34  C   UNL A   1      34.048  33.130  30.338  1.00  0.00     0.014 A 
ATOM     35  C   UNL A   1      35.664  34.286  28.947  1.00  0.00     0.014 A 
ATOM     36  C   UNL A   1      35.093  32.569  31.074  1.00  0.00     0.010 A 
ATOM     37  C   UNL A   1      36.706  33.677  29.643  1.00  0.00     0.010 A 
ATOM     38  C   UNL A   1      36.430  32.810  30.711  1.00  0.00    -0.014 A 
BRANCH  38  39
ATOM     39  C   UNL A   1      37.540  32.148  31.441  1.00  0.00     0.031 A 
ATOM     40  C   UNL A   1      38.330  31.050  30.787  1.00  0.00     0.074 A 
ATOM     41  C   UNL A   1      37.823  32.530  32.703  1.00  0.00     0.049 A 
ATOM     42  N   UNL A   1      39.340  30.367  31.260  1.00  0.00    -0.248 NA
ATOM     43  C   UNL A   1      37.917  30.651  29.431  1.00  0.00     0.031 C 
ATOM     44  C   UNL A   1      37.099  33.558  33.455  1.00  0.00     0.029 A 
ATOM     45  N   UNL A   1      38.802  32.114  33.569  1.00  0.00    -0.354 N 
ATOM     46  C   UNL A   1      39.689  29.465  30.263  1.00  0.00     0.074 A 
ATOM     47  C   UNL A   1      38.741  29.642  29.184  1.00  0.00     0.031 C 
ATOM     48  C   UNL A   1      37.690  33.727  34.649  1.00  0.00     0.029 A 
ATOM     49  C   UNL A   1      38.813  32.801  34.762  1.00  0.00     0.049 A 
ATOM     50  H   UNL A   1      39.436  31.392  33.359  1.00  0.00     0.167 HD
ATOM     51  C   UNL A   1      40.723  28.591  30.236  1.00  0.00     0.034 A 
ATOM     52  C   UNL A   1      39.641  32.705  35.821  1.00  0.00     0.034 A 
ATOM     53  C   UNL A   1      41.672  28.437  31.307  1.00  0.00     0.049 A 
ATOM     54  C   UNL A   1      40.772  31.713  35.777  1.00  0.00     0.074 A 
ATOM     55  C   UNL A   1      42.778  27.606  31.364  1.00  0.00     0.029 A 
ATOM     56  N   UNL A   1      41.630  29.129  32.508  1.00  0.00    -0.354 N 
ATOM     57  N   UNL A   1      41.096  30.880  34.816  1.00  0.00    -0.248 NA
ATOM     58  C   UNL A   1      41.649  31.646  36.954  1.00  0.00     0.031 C 
ATOM     59  C   UNL A   1      43.378  27.762  32.617  1.00  0.00     0.029 A 
ATOM     60  C   UNL A   1      42.679  28.731  33.320  1.00  0.00     0.049 A 
ATOM     61  H   UNL A   1      40.954  29.804  32.748  1.00  0.00     0.167 HD
ATOM     62  C   UNL A   1      42.229  30.210  35.262  1.00  0.00     0.074 A 
ATOM     63  C   UNL A   1      42.531  30.729  36.580  1.00  0.00     0.031 C 
ATOM     64  C   UNL A   1      42.959  29.257  34.632  1.00  0.00     0.034 A 
BRANCH  51  65
ATOM     65  C   UNL A   1      40.878  27.736  29.007  1.00  0.00     0.023 A 
ATOM     66  C   UNL A   1      41.884  27.998  28.060  1.00  0.00     0.031 A 
ATOM     67  C   UNL A   1      40.022  26.644  28.781  1.00  0.00     0.131 A 
ATOM     68  C   UNL A   1      41.975  27.211  26.904  1.00  0.00     0.055 A 
ATOM     69  C   UNL A   1      40.160  25.824  27.660  1.00  0.00     0.041 A 
ATOM     70  F   UNL A   1      39.035  26.361  29.645  1.00  0.00    -0.206 F 
ATOM     71  C   UNL A   1      41.136  26.110  26.709  1.00  0.00     0.022 A 
BRANCH  68  72
ATOM     72  S   UNL A   1      43.152  27.697  25.614  1.00  0.00     0.124 S 
ATOM     73  O   UNL A   1      42.254  28.160  24.559  1.00  0.00    -0.237 OA
ATOM     74  O   UNL A   1      43.943  28.728  26.277  1.00  0.00    -0.237 OA
ATOM     75  O   UNL A   1      43.866  26.457  25.318  1.00  0.00    -0.744 OA
ENDBRANCH  68  72
ENDBRANCH  51  65
BRANCH  52  76
ATOM     76  C   UNL A   1      39.445  33.590  37.000  1.00  0.00     0.023 A 
ATOM     77  C   UNL A   1      38.869  33.096  38.181  1.00  0.00     0.031 A 
ATOM     78  C   UNL A   1      39.840  34.939  36.968  1.00  0.00     0.131 A 
ATOM     79  C   UNL A   1      38.686  33.951  39.279  1.00  0.00     0.055 A 
ATOM     80  C   UNL A   1      39.686  35.777  38.073  1.00  0.00     0.041 A 
ATOM     81  F   UNL A   1      40.408  35.453  35.865  1.00  0.00    -0.206 F 
ATOM     82  C   UNL A   1      39.101  35.285  39.237  1.00  0.00     0.022 A 
BRANCH  79  83
ATOM     83  S   UNL A   1      37.875  33.301  40.765  1.00  0.00     0.124 S 
ATOM     84  O   UNL A   1      38.627  32.073  41.000  1.00  0.00    -0.237 OA
ATOM     85  O   UNL A   1      38.089  34.379  41.725  1.00  0.00    -0.237 OA
ATOM     86  O   UNL A   1      36.489  33.114  40.342  1.00  0.00    -0.744 OA
ENDBRANCH  79  83
ENDBRANCH  52  76
BRANCH  64  87
ATOM     87  C   UNL A   1      44.178  28.733  35.338  1.00  0.00     0.023 A 
ATOM     88  C   UNL A   1      44.085  27.708  36.293  1.00  0.00     0.031 A 
ATOM     89  C   UNL A   1      45.452  29.212  34.988  1.00  0.00     0.131 A 
ATOM     90  C   UNL A   1      45.253  27.199  36.878  1.00  0.00     0.055 A 
ATOM     91  C   UNL A   1      46.612  28.678  35.546  1.00  0.00     0.041 A 
ATOM     92  F   UNL A   1      45.585  30.185  34.073  1.00  0.00    -0.206 F 
ATOM     93  C   UNL A   1      46.516  27.665  36.498  1.00  0.00     0.022 A 
BRANCH  90  94
ATOM     94  S   UNL A   1      45.110  25.904  38.139  1.00  0.00     0.124 S 
ATOM     95  O   UNL A   1      44.287  24.911  37.458  1.00  0.00    -0.237 OA
ATOM     96  O   UNL A   1      46.501  25.526  38.370  1.00  0.00    -0.237 OA
ATOM     97  O   UNL A   1      44.463  26.586  39.258  1.00  0.00    -0.744 OA
ENDBRANCH  90  94
ENDBRANCH  64  87
ENDBRANCH  38  39
ENDBRANCH  30  33
ENDBRANCH  28  29
ENDBRANCH  27  28
ENDBRANCH   1  27
TORSDOF 17
ENDMDL
MODEL 3
REMARK VINA RESULT:     -12.2      3.102      4.226
REMARK SMILES Cc1c(Br)c(C)c2c(c1Br)O[C@H](C(F)(F)F)C(C(=O)NCCCCCCNC(=O)c1ccc(-c3c4nc(c(-c5cc(S(=O)(=O)[O-])ccc5F)c5ccc([nH]5)c(-c5cc(S(=O)(=O)[O-])ccc5F)c5nc(c(-c6cc(S(=O)(=O)[O-])ccc6F)c6ccc3[nH]6)C=C5)C=C4)cc1)=C2
REMARK SMILES IDX 24 1 23 2 22 3 21 4 20 5 18 6 19 7 17 9 1 10 2 11 3 12 9 13
REMARK SMILES IDX 4 14 5 15 8 16 10 17 6 18 7 19 11 20 93 21 12 22 13 23 14 24
REMARK SMILES IDX 15 25 16 26 25 27 26 28 27 29 28 30 29 32 30 33 31 34 92 35
REMARK SMILES IDX 32 36 91 37 33 38 34 39 35 40 85 41 36 42 90 43 84 44 86 45
REMARK SMILES IDX 37 46 89 47 83 48 82 49 38 51 70 52 50 53 69 54 51 55 54 56
REMARK SMILES IDX 68 57 87 58 52 59 53 60 67 62 88 63 55 64 39 65 40 66 48 67
REMARK SMILES IDX 41 68 47 69 49 70 46 71 42 72 43 73 44 74 45 75 71 76 72 77
REMARK SMILES IDX 80 78 73 79 79 80 81 81 78 82 74 83 75 84 76 85 77 86 56 87
REMARK SMILES IDX 57 88 65 89 58 90 64 91 66 92 63 93 59 94 60 95 61 96 62 97
REMARK H PARENT 20 8 27 31 86 50 54 61
REMARK Flexibility Score: inf
ROOT
ATOM      1  C   UNL A   1      33.866  28.682  24.948  1.00  0.00     0.002 C 
ENDROOT
BRANCH   1   2
ATOM      2  C   UNL A   1      33.635  27.812  23.705  1.00  0.00     0.002 C 
BRANCH   2   3
ATOM      3  C   UNL A   1      32.283  28.000  23.008  1.00  0.00     0.021 C 
BRANCH   3   4
ATOM      4  C   UNL A   1      31.300  26.856  23.230  1.00  0.00     0.116 C 
BRANCH   4   5
ATOM      5  N   UNL A   1      31.004  26.667  24.640  1.00  0.00    -0.352 N 
ATOM      6  C   UNL A   1      31.230  25.726  25.584  1.00  0.00     0.251 C 
ATOM      7  O   UNL A   1      30.785  25.997  26.707  1.00  0.00    -0.270 OA
ATOM      8  H   UNL A   1      30.502  27.431  25.007  1.00  0.00     0.163 HD
BRANCH   6   9
ATOM      9  C   UNL A   1      31.956  24.437  25.376  1.00  0.00     0.067 C 
ATOM     10  C   UNL A   1      36.321  19.547  24.969  1.00  0.00     0.047 C 
ATOM     11  C   UNL A   1      35.566  20.842  25.157  1.00  0.00    -0.019 A 
ATOM     12  C   UNL A   1      36.226  22.066  25.428  1.00  0.00     0.025 A 
ATOM     13  C   UNL A   1      34.166  20.867  25.003  1.00  0.00     0.064 A 
ATOM     14  Br  UNL A   1      38.145  22.085  25.524  1.00  0.00    -0.050 Br
ATOM     15  C   UNL A   1      35.504  23.277  25.611  1.00  0.00    -0.026 A 
ATOM     16  C   UNL A   1      33.443  22.057  25.173  1.00  0.00     0.142 A 
ATOM     17  Br  UNL A   1      33.196  19.288  24.513  1.00  0.00    -0.046 Br
ATOM     18  C   UNL A   1      36.185  24.591  25.930  1.00  0.00     0.046 C 
ATOM     19  C   UNL A   1      34.093  23.254  25.492  1.00  0.00     0.022 A 
ATOM     20  O   UNL A   1      32.080  21.983  25.069  1.00  0.00    -0.474 OA
ATOM     21  C   UNL A   1      33.260  24.444  25.712  1.00  0.00     0.026 C 
ATOM     22  C   UNL A   1      31.350  23.201  24.789  1.00  0.00     0.314 C 
BRANCH  22  23
ATOM     23  C   UNL A   1      31.097  23.316  23.276  1.00  0.00     0.429 C 
ATOM     24  F   UNL A   1      29.922  23.946  23.032  1.00  0.00    -0.167 F 
ATOM     25  F   UNL A   1      32.057  24.034  22.647  1.00  0.00    -0.167 F 
ATOM     26  F   UNL A   1      31.047  22.109  22.670  1.00  0.00    -0.167 F 
ENDBRANCH  22  23
ENDBRANCH   6   9
ENDBRANCH   4   5
ENDBRANCH   3   4
ENDBRANCH   2   3
ENDBRANCH   1   2
BRANCH   1  27
ATOM     27  C   UNL A   1      34.107  27.922  26.256  1.00  0.00     0.021 C 
BRANCH  27  28
ATOM     28  C   UNL A   1      33.369  28.480  27.469  1.00  0.00     0.116 C 
BRANCH  28  29
ATOM     29  N   UNL A   1      33.408  29.931  27.519  1.00  0.00    -0.352 N 
ATOM     30  C   UNL A   1      34.413  30.750  27.973  1.00  0.00     0.251 C 
ATOM     31  H   UNL A   1      32.606  30.390  27.182  1.00  0.00     0.163 HD
ATOM     32  O   UNL A   1      34.214  31.955  28.101  1.00  0.00    -0.269 OA
BRANCH  30  33
ATOM     33  C   UNL A   1      35.720  30.163  28.335  1.00  0.00     0.039 A 
ATOM     34  C   UNL A   1      36.763  30.215  27.409  1.00  0.00     0.014 A 
ATOM     35  C   UNL A   1      35.920  29.590  29.596  1.00  0.00     0.014 A 
ATOM     36  C   UNL A   1      38.029  29.753  27.772  1.00  0.00     0.010 A 
ATOM     37  C   UNL A   1      37.198  29.187  29.978  1.00  0.00     0.010 A 
ATOM     38  C   UNL A   1      38.266  29.268  29.071  1.00  0.00    -0.014 A 
BRANCH  38  39
ATOM     39  C   UNL A   1      39.630  28.855  29.484  1.00  0.00     0.031 A 
ATOM     40  C   UNL A   1      40.349  29.596  30.575  1.00  0.00     0.074 A 
ATOM     41  C   UNL A   1      40.225  27.818  28.860  1.00  0.00     0.049 A 
ATOM     42  N   UNL A   1      41.535  29.373  31.080  1.00  0.00    -0.248 NA
ATOM     43  C   UNL A   1      39.655  30.753  31.162  1.00  0.00     0.031 C 
ATOM     44  C   UNL A   1      39.640  27.048  27.759  1.00  0.00     0.029 A 
ATOM     45  N   UNL A   1      41.443  27.222  29.070  1.00  0.00    -0.354 N 
ATOM     46  C   UNL A   1      41.727  30.353  32.045  1.00  0.00     0.074 A 
ATOM     47  C   UNL A   1      40.563  31.213  32.011  1.00  0.00     0.031 C 
ATOM     48  C   UNL A   1      40.476  26.052  27.427  1.00  0.00     0.029 A 
ATOM     49  C   UNL A   1      41.669  26.129  28.264  1.00  0.00     0.049 A 
ATOM     50  H   UNL A   1      42.094  27.546  29.733  1.00  0.00     0.167 HD
ATOM     51  C   UNL A   1      42.764  30.505  32.903  1.00  0.00     0.034 A 
ATOM     52  C   UNL A   1      42.712  25.278  28.216  1.00  0.00     0.034 A 
ATOM     53  C   UNL A   1      43.908  29.632  32.942  1.00  0.00     0.049 A 
ATOM     54  C   UNL A   1      43.863  25.477  29.166  1.00  0.00     0.074 A 
ATOM     55  C   UNL A   1      44.995  29.675  33.798  1.00  0.00     0.029 A 
ATOM     56  N   UNL A   1      44.113  28.555  32.091  1.00  0.00    -0.354 N 
ATOM     57  N   UNL A   1      44.018  26.401  30.085  1.00  0.00    -0.248 NA
ATOM     58  C   UNL A   1      44.977  24.523  29.076  1.00  0.00     0.031 C 
ATOM     59  C   UNL A   1      45.879  28.655  33.434  1.00  0.00     0.029 A 
ATOM     60  C   UNL A   1      45.316  27.940  32.388  1.00  0.00     0.049 A 
ATOM     61  H   UNL A   1      43.493  28.271  31.380  1.00  0.00     0.167 HD
ATOM     62  C   UNL A   1      45.234  26.123  30.699  1.00  0.00     0.074 A 
ATOM     63  C   UNL A   1      45.776  24.950  30.045  1.00  0.00     0.031 C 
ATOM     64  C   UNL A   1      45.841  26.775  31.721  1.00  0.00     0.034 A 
BRANCH  51  65
ATOM     65  C   UNL A   1      42.704  31.658  33.868  1.00  0.00     0.023 A 
ATOM     66  C   UNL A   1      42.149  31.505  35.151  1.00  0.00     0.031 A 
ATOM     67  C   UNL A   1      43.214  32.918  33.512  1.00  0.00     0.131 A 
ATOM     68  C   UNL A   1      42.067  32.609  36.011  1.00  0.00     0.055 A 
ATOM     69  C   UNL A   1      43.190  33.996  34.397  1.00  0.00     0.041 A 
ATOM     70  F   UNL A   1      43.740  33.121  32.294  1.00  0.00    -0.206 F 
ATOM     71  C   UNL A   1      42.606  33.848  35.653  1.00  0.00     0.022 A 
BRANCH  68  72
ATOM     72  S   UNL A   1      41.170  32.426  37.575  1.00  0.00     0.124 S 
ATOM     73  O   UNL A   1      41.032  33.818  37.997  1.00  0.00    -0.237 OA
ATOM     74  O   UNL A   1      39.939  31.761  37.160  1.00  0.00    -0.237 OA
ATOM     75  O   UNL A   1      42.070  31.618  38.393  1.00  0.00    -0.744 OA
ENDBRANCH  68  72
ENDBRANCH  51  65
BRANCH  52  76
ATOM     76  C   UNL A   1      42.705  24.147  27.249  1.00  0.00     0.023 A 
ATOM     77  C   UNL A   1      42.110  22.920  27.584  1.00  0.00     0.031 A 
ATOM     78  C   UNL A   1      43.281  24.280  25.974  1.00  0.00     0.131 A 
ATOM     79  C   UNL A   1      42.122  21.864  26.660  1.00  0.00     0.055 A 
ATOM     80  C   UNL A   1      43.262  23.237  25.046  1.00  0.00     0.041 A 
ATOM     81  F   UNL A   1      43.849  25.438  25.604  1.00  0.00    -0.206 F 
ATOM     82  C   UNL A   1      42.685  22.018  25.390  1.00  0.00     0.022 A 
BRANCH  79  83
ATOM     83  S   UNL A   1      41.410  20.269  27.149  1.00  0.00     0.124 S 
ATOM     84  O   UNL A   1      40.690  20.627  28.367  1.00  0.00    -0.237 OA
ATOM     85  O   UNL A   1      40.587  19.936  25.991  1.00  0.00    -0.237 OA
ATOM     86  O   UNL A   1      42.581  19.418  27.343  1.00  0.00    -0.744 OA
ENDBRANCH  79  83
ENDBRANCH  52  76
BRANCH  64  87
ATOM     87  C   UNL A   1      47.145  26.222  32.223  1.00  0.00     0.023 A 
ATOM     88  C   UNL A   1      47.186  25.241  33.226  1.00  0.00     0.031 A 
ATOM     89  C   UNL A   1      48.353  26.627  31.629  1.00  0.00     0.131 A 
ATOM     90  C   UNL A   1      48.419  24.702  33.617  1.00  0.00     0.055 A 
ATOM     91  C   UNL A   1      49.572  26.062  31.996  1.00  0.00     0.041 A 
ATOM     92  F   UNL A   1      48.357  27.556  30.660  1.00  0.00    -0.206 F 
ATOM     93  C   UNL A   1      49.610  25.093  32.997  1.00  0.00     0.022 A 
BRANCH  90  94
ATOM     94  S   UNL A   1      48.455  23.465  34.943  1.00  0.00     0.124 S 
ATOM     95  O   UNL A   1      47.191  22.767  34.737  1.00  0.00    -0.237 OA
ATOM     96  O   UNL A   1      49.660  22.702  34.637  1.00  0.00    -0.237 OA
ATOM     97  O   UNL A   1      48.528  24.271  36.161  1.00  0.00    -0.744 OA
ENDBRANCH  90  94
ENDBRANCH  64  87
ENDBRANCH  38  39
ENDBRANCH  30  33
ENDBRANCH  28  29
ENDBRANCH  27  28
ENDBRANCH   1  27
TORSDOF 17
ENDMDL
