MODEL 1
REMARK VINA RESULT:      -9.9      0.000      0.000
REMARK SMILES CCN(CC(C)C)C(=O)N[C@](C)(CC)C(=O)NCCCCCCNC(=O)c1ccc(-c2c3nc(c(-c4cc(S(=O)(=O)[O-])ccc4F)c4ccc([nH]4)c(-c4cc(S(=O)(=O)[O-])ccc4F)c4nc(c(-c5cc(S(=O)(=O)[O-])ccc5F)c5ccc2[nH]5)C=C4)C=C3)cc1
REMARK SMILES IDX 20 1 19 2 18 3 17 4 15 5 16 6 11 8 12 9 10 10 8 11 9 12 3 14
REMARK SMILES IDX 2 15 1 16 4 17 5 18 6 19 7 20 13 21 14 22 21 23 22 24 23 25
REMARK SMILES IDX 24 26 25 27 26 29 27 30 28 31 89 32 29 33 88 34 30 35 31 36
REMARK SMILES IDX 32 37 82 38 33 39 87 40 81 41 83 42 34 43 86 44 80 45 79 46
REMARK SMILES IDX 35 48 67 49 47 50 66 51 48 52 51 53 65 54 84 55 49 56 50 57
REMARK SMILES IDX 64 59 85 60 52 61 36 62 37 63 45 64 38 65 44 66 46 67 43 68
REMARK SMILES IDX 39 69 40 70 41 71 42 72 68 73 69 74 77 75 70 76 76 77 78 78
REMARK SMILES IDX 75 79 71 80 72 81 73 82 74 83 53 84 54 85 62 86 55 87 61 88
REMARK SMILES IDX 63 89 60 90 56 91 57 92 58 93 59 94
REMARK H PARENT 17 7 10 13 24 28 83 47 51 58
REMARK Flexibility Score: inf
ROOT
ATOM      1  C   UNL A   1      32.471  29.108  27.236  1.00  0.00     0.002 C 
ENDROOT
BRANCH   1   2
ATOM      2  C   UNL A   1      33.776  28.365  26.912  1.00  0.00     0.021 C 
BRANCH   2   3
ATOM      3  C   UNL A   1      33.599  27.186  25.950  1.00  0.00     0.116 C 
BRANCH   3   4
ATOM      4  N   UNL A   1      32.544  26.305  26.431  1.00  0.00    -0.354 N 
ATOM      5  C   UNL A   1      31.506  25.677  25.813  1.00  0.00     0.245 C 
ATOM      6  O   UNL A   1      30.686  25.148  26.573  1.00  0.00    -0.272 OA
ATOM      7  H   UNL A   1      32.592  26.129  27.399  1.00  0.00     0.163 HD
BRANCH   5   8
ATOM      8  C   UNL A   1      31.239  25.777  24.277  1.00  0.00     0.117 C 
ATOM      9  C   UNL A   1      30.194  24.749  23.765  1.00  0.00     0.045 C 
BRANCH   8  10
ATOM     10  N   UNL A   1      32.496  25.688  23.481  1.00  0.00    -0.324 N 
ATOM     11  C   UNL A   1      33.458  24.819  23.134  1.00  0.00     0.318 C 
ATOM     12  O   UNL A   1      34.256  25.283  22.308  1.00  0.00    -0.249 OA
ATOM     13  H   UNL A   1      32.684  26.563  23.072  1.00  0.00     0.166 HD
BRANCH  11  14
ATOM     14  N   UNL A   1      33.611  23.547  23.612  1.00  0.00    -0.325 N 
BRANCH  14  15
ATOM     15  C   UNL A   1      32.930  22.479  22.859  1.00  0.00     0.118 C 
ATOM     16  C   UNL A   1      32.373  21.373  23.746  1.00  0.00     0.027 C 
ENDBRANCH  14  15
BRANCH  14  17
ATOM     17  C   UNL A   1      34.419  23.078  24.735  1.00  0.00     0.124 C 
BRANCH  17  18
ATOM     18  C   UNL A   1      35.910  22.807  24.421  1.00  0.00     0.002 C 
ATOM     19  C   UNL A   1      36.872  23.750  25.148  1.00  0.00     0.009 C 
ATOM     20  C   UNL A   1      36.242  21.328  24.673  1.00  0.00     0.009 C 
ENDBRANCH  17  18
ENDBRANCH  14  17
ENDBRANCH  11  14
ENDBRANCH   8  10
BRANCH   8  21
ATOM     21  C   UNL A   1      30.609  27.195  24.032  1.00  0.00     0.035 C 
ATOM     22  C   UNL A   1      31.437  28.125  23.148  1.00  0.00     0.007 C 
ENDBRANCH   8  21
ENDBRANCH   5   8
ENDBRANCH   3   4
ENDBRANCH   2   3
ENDBRANCH   1   2
BRANCH   1  23
ATOM     23  C   UNL A   1      31.992  30.083  26.154  1.00  0.00     0.002 C 
BRANCH  23  24
ATOM     24  C   UNL A   1      31.759  31.523  26.621  1.00  0.00     0.021 C 
BRANCH  24  25
ATOM     25  C   UNL A   1      32.979  32.215  27.223  1.00  0.00     0.116 C 
BRANCH  25  26
ATOM     26  N   UNL A   1      32.720  33.601  27.576  1.00  0.00    -0.352 N 
ATOM     27  C   UNL A   1      33.314  34.359  28.554  1.00  0.00     0.251 C 
ATOM     28  H   UNL A   1      32.026  34.055  27.045  1.00  0.00     0.163 HD
ATOM     29  O   UNL A   1      32.863  35.473  28.825  1.00  0.00    -0.269 OA
BRANCH  27  30
ATOM     30  C   UNL A   1      34.475  33.823  29.297  1.00  0.00     0.039 A 
ATOM     31  C   UNL A   1      34.255  32.918  30.337  1.00  0.00     0.014 A 
ATOM     32  C   UNL A   1      35.777  34.213  28.968  1.00  0.00     0.014 A 
ATOM     33  C   UNL A   1      35.344  32.366  31.018  1.00  0.00     0.010 A 
ATOM     34  C   UNL A   1      36.862  33.614  29.606  1.00  0.00     0.010 A 
ATOM     35  C   UNL A   1      36.658  32.691  30.643  1.00  0.00    -0.014 A 
BRANCH  35  36
ATOM     36  C   UNL A   1      37.828  32.109  31.351  1.00  0.00     0.031 A 
ATOM     37  C   UNL A   1      38.604  30.988  30.711  1.00  0.00     0.074 A 
ATOM     38  C   UNL A   1      38.163  32.552  32.579  1.00  0.00     0.049 A 
ATOM     39  N   UNL A   1      39.599  30.287  31.193  1.00  0.00    -0.248 NA
ATOM     40  C   UNL A   1      38.183  30.584  29.360  1.00  0.00     0.031 C 
ATOM     41  C   UNL A   1      37.468  33.611  33.314  1.00  0.00     0.029 A 
ATOM     42  N   UNL A   1      39.165  32.162  33.433  1.00  0.00    -0.354 N 
ATOM     43  C   UNL A   1      39.915  29.353  30.210  1.00  0.00     0.074 A 
ATOM     44  C   UNL A   1      38.964  29.538  29.135  1.00  0.00     0.031 C 
ATOM     45  C   UNL A   1      38.077  33.798  34.498  1.00  0.00     0.029 A 
ATOM     46  C   UNL A   1      39.176  32.848  34.626  1.00  0.00     0.049 A 
ATOM     47  H   UNL A   1      39.816  31.456  33.211  1.00  0.00     0.167 HD
ATOM     48  C   UNL A   1      40.920  28.444  30.195  1.00  0.00     0.034 A 
ATOM     49  C   UNL A   1      39.976  32.715  35.705  1.00  0.00     0.034 A 
ATOM     50  C   UNL A   1      41.871  28.283  31.267  1.00  0.00     0.049 A 
ATOM     51  C   UNL A   1      41.078  31.684  35.669  1.00  0.00     0.074 A 
ATOM     52  C   UNL A   1      42.948  27.416  31.345  1.00  0.00     0.029 A 
ATOM     53  N   UNL A   1      41.863  29.010  32.452  1.00  0.00    -0.354 N 
ATOM     54  N   UNL A   1      41.384  30.833  34.717  1.00  0.00    -0.248 NA
ATOM     55  C   UNL A   1      41.954  31.609  36.845  1.00  0.00     0.031 C 
ATOM     56  C   UNL A   1      43.555  27.578  32.595  1.00  0.00     0.029 A 
ATOM     57  C   UNL A   1      42.903  28.597  33.271  1.00  0.00     0.049 A 
ATOM     58  H   UNL A   1      41.212  29.714  32.678  1.00  0.00     0.167 HD
ATOM     59  C   UNL A   1      42.512  30.150  35.167  1.00  0.00     0.074 A 
ATOM     60  C   UNL A   1      42.838  30.699  36.466  1.00  0.00     0.031 C 
ATOM     61  C   UNL A   1      43.217  29.161  34.562  1.00  0.00     0.034 A 
BRANCH  48  62
ATOM     62  C   UNL A   1      41.027  27.545  28.987  1.00  0.00     0.023 A 
ATOM     63  C   UNL A   1      42.017  27.742  28.008  1.00  0.00     0.031 A 
ATOM     64  C   UNL A   1      40.119  26.488  28.801  1.00  0.00     0.131 A 
ATOM     65  C   UNL A   1      42.032  26.942  26.855  1.00  0.00     0.055 A 
ATOM     66  C   UNL A   1      40.190  25.643  27.691  1.00  0.00     0.041 A 
ATOM     67  F   UNL A   1      39.140  26.262  29.691  1.00  0.00    -0.206 F 
ATOM     68  C   UNL A   1      41.143  25.877  26.703  1.00  0.00     0.022 A 
BRANCH  65  69
ATOM     69  S   UNL A   1      43.149  27.396  25.501  1.00  0.00     0.124 S 
ATOM     70  O   UNL A   1      44.211  28.097  26.219  1.00  0.00    -0.237 OA
ATOM     71  O   UNL A   1      43.506  26.100  24.937  1.00  0.00    -0.237 OA
ATOM     72  O   UNL A   1      42.321  28.242  24.644  1.00  0.00    -0.744 OA
ENDBRANCH  65  69
ENDBRANCH  48  62
BRANCH  49  73
ATOM     73  C   UNL A   1      39.771  33.563  36.916  1.00  0.00     0.023 A 
ATOM     74  C   UNL A   1      39.186  33.034  38.077  1.00  0.00     0.031 A 
ATOM     75  C   UNL A   1      40.093  34.932  36.907  1.00  0.00     0.131 A 
ATOM     76  C   UNL A   1      38.880  33.879  39.156  1.00  0.00     0.055 A 
ATOM     77  C   UNL A   1      39.843  35.757  38.005  1.00  0.00     0.041 A 
ATOM     78  F   UNL A   1      40.659  35.490  35.824  1.00  0.00    -0.206 F 
ATOM     79  C   UNL A   1      39.215  35.235  39.132  1.00  0.00     0.022 A 
BRANCH  76  80
ATOM     80  S   UNL A   1      37.931  33.203  40.547  1.00  0.00     0.124 S 
ATOM     81  O   UNL A   1      36.611  33.031  39.949  1.00  0.00    -0.237 OA
ATOM     82  O   UNL A   1      38.666  31.978  40.846  1.00  0.00    -0.237 OA
ATOM     83  O   UNL A   1      38.025  34.249  41.562  1.00  0.00    -0.744 OA
ENDBRANCH  76  80
ENDBRANCH  49  73
BRANCH  61  84
ATOM     84  C   UNL A   1      44.447  28.659  35.276  1.00  0.00     0.023 A 
ATOM     85  C   UNL A   1      45.715  29.228  35.063  1.00  0.00     0.031 A 
ATOM     86  C   UNL A   1      44.348  27.583  36.176  1.00  0.00     0.131 A 
ATOM     87  C   UNL A   1      46.841  28.682  35.697  1.00  0.00     0.055 A 
ATOM     88  C   UNL A   1      45.462  27.083  36.850  1.00  0.00     0.041 A 
ATOM     89  F   UNL A   1      43.162  27.002  36.417  1.00  0.00    -0.206 F 
ATOM     90  C   UNL A   1      46.720  27.624  36.601  1.00  0.00     0.022 A 
BRANCH  87  91
ATOM     91  S   UNL A   1      48.482  29.315  35.253  1.00  0.00     0.124 S 
ATOM     92  O   UNL A   1      48.187  30.698  34.892  1.00  0.00    -0.237 OA
ATOM     93  O   UNL A   1      49.234  29.126  36.489  1.00  0.00    -0.237 OA
ATOM     94  O   UNL A   1      48.892  28.458  34.143  1.00  0.00    -0.744 OA
ENDBRANCH  87  91
ENDBRANCH  61  84
ENDBRANCH  35  36
ENDBRANCH  27  30
ENDBRANCH  25  26
ENDBRANCH  24  25
ENDBRANCH  23  24
ENDBRANCH   1  23
TORSDOF 22
ENDMDL
MODEL 2
REMARK VINA RESULT:      -9.7      2.083      7.805
REMARK SMILES CCN(CC(C)C)C(=O)N[C@](C)(CC)C(=O)NCCCCCCNC(=O)c1ccc(-c2c3nc(c(-c4cc(S(=O)(=O)[O-])ccc4F)c4ccc([nH]4)c(-c4cc(S(=O)(=O)[O-])ccc4F)c4nc(c(-c5cc(S(=O)(=O)[O-])ccc5F)c5ccc2[nH]5)C=C4)C=C3)cc1
REMARK SMILES IDX 20 1 19 2 18 3 17 4 15 5 16 6 11 8 12 9 10 10 8 11 9 12 3 14
REMARK SMILES IDX 2 15 1 16 4 17 5 18 6 19 7 20 13 21 14 22 21 23 22 24 23 25
REMARK SMILES IDX 24 26 25 27 26 29 27 30 28 31 89 32 29 33 88 34 30 35 31 36
REMARK SMILES IDX 32 37 82 38 33 39 87 40 81 41 83 42 34 43 86 44 80 45 79 46
REMARK SMILES IDX 35 48 67 49 47 50 66 51 48 52 51 53 65 54 84 55 49 56 50 57
REMARK SMILES IDX 64 59 85 60 52 61 36 62 37 63 45 64 38 65 44 66 46 67 43 68
REMARK SMILES IDX 39 69 40 70 41 71 42 72 68 73 69 74 77 75 70 76 76 77 78 78
REMARK SMILES IDX 75 79 71 80 72 81 73 82 74 83 53 84 54 85 62 86 55 87 61 88
REMARK SMILES IDX 63 89 60 90 56 91 57 92 58 93 59 94
REMARK H PARENT 17 7 10 13 24 28 83 47 51 58
REMARK Flexibility Score: inf
ROOT
ATOM      1  C   UNL A   1      32.566  29.586  27.128  1.00  0.00     0.002 C 
ENDROOT
BRANCH   1   2
ATOM      2  C   UNL A   1      33.818  29.074  26.400  1.00  0.00     0.021 C 
BRANCH   2   3
ATOM      3  C   UNL A   1      33.586  27.797  25.585  1.00  0.00     0.116 C 
BRANCH   3   4
ATOM      4  N   UNL A   1      32.519  27.011  26.186  1.00  0.00    -0.354 N 
ATOM      5  C   UNL A   1      31.360  26.491  25.694  1.00  0.00     0.245 C 
ATOM      6  O   UNL A   1      30.590  26.028  26.545  1.00  0.00    -0.272 OA
ATOM      7  H   UNL A   1      32.665  26.815  27.140  1.00  0.00     0.163 HD
BRANCH   5   8
ATOM      8  C   UNL A   1      30.921  26.639  24.202  1.00  0.00     0.117 C 
ATOM      9  C   UNL A   1      29.548  25.984  23.895  1.00  0.00     0.045 C 
BRANCH   8  10
ATOM     10  N   UNL A   1      31.962  26.143  23.258  1.00  0.00    -0.324 N 
ATOM     11  C   UNL A   1      32.763  25.088  23.040  1.00  0.00     0.318 C 
ATOM     12  O   UNL A   1      33.388  25.165  21.974  1.00  0.00    -0.249 OA
ATOM     13  H   UNL A   1      32.114  26.817  22.558  1.00  0.00     0.166 HD
BRANCH  11  14
ATOM     14  N   UNL A   1      32.931  24.014  23.870  1.00  0.00    -0.325 N 
BRANCH  14  15
ATOM     15  C   UNL A   1      31.781  23.102  24.002  1.00  0.00     0.118 C 
ATOM     16  C   UNL A   1      31.595  22.561  25.413  1.00  0.00     0.027 C 
ENDBRANCH  14  15
BRANCH  14  17
ATOM     17  C   UNL A   1      34.124  23.596  24.603  1.00  0.00     0.124 C 
BRANCH  17  18
ATOM     18  C   UNL A   1      35.028  22.568  23.880  1.00  0.00     0.002 C 
ATOM     19  C   UNL A   1      36.413  23.112  23.522  1.00  0.00     0.009 C 
ATOM     20  C   UNL A   1      35.105  21.268  24.696  1.00  0.00     0.009 C 
ENDBRANCH  17  18
ENDBRANCH  14  17
ENDBRANCH  11  14
ENDBRANCH   8  10
BRANCH   8  21
ATOM     21  C   UNL A   1      30.733  28.179  23.950  1.00  0.00     0.035 C 
ATOM     22  C   UNL A   1      31.266  28.684  22.611  1.00  0.00     0.007 C 
ENDBRANCH   8  21
ENDBRANCH   5   8
ENDBRANCH   3   4
ENDBRANCH   2   3
ENDBRANCH   1   2
BRANCH   1  23
ATOM     23  C   UNL A   1      31.631  30.457  26.280  1.00  0.00     0.002 C 
BRANCH  23  24
ATOM     24  C   UNL A   1      31.678  31.959  26.579  1.00  0.00     0.021 C 
BRANCH  24  25
ATOM     25  C   UNL A   1      32.822  32.404  27.487  1.00  0.00     0.116 C 
BRANCH  25  26
ATOM     26  N   UNL A   1      32.773  33.824  27.792  1.00  0.00    -0.352 N 
ATOM     27  C   UNL A   1      33.533  34.531  28.690  1.00  0.00     0.251 C 
ATOM     28  H   UNL A   1      32.106  34.348  27.291  1.00  0.00     0.163 HD
ATOM     29  O   UNL A   1      33.254  35.704  28.941  1.00  0.00    -0.269 OA
BRANCH  27  30
ATOM     30  C   UNL A   1      34.667  33.872  29.374  1.00  0.00     0.039 A 
ATOM     31  C   UNL A   1      34.404  32.884  30.325  1.00  0.00     0.014 A 
ATOM     32  C   UNL A   1      35.987  34.228  29.078  1.00  0.00     0.014 A 
ATOM     33  C   UNL A   1      35.465  32.218  30.945  1.00  0.00     0.010 A 
ATOM     34  C   UNL A   1      37.041  33.520  29.650  1.00  0.00     0.010 A 
ATOM     35  C   UNL A   1      36.793  32.514  30.596  1.00  0.00    -0.014 A 
BRANCH  35  36
ATOM     36  C   UNL A   1      37.934  31.812  31.241  1.00  0.00     0.031 A 
ATOM     37  C   UNL A   1      38.399  32.244  32.607  1.00  0.00     0.074 A 
ATOM     38  C   UNL A   1      38.578  30.826  30.586  1.00  0.00     0.049 A 
ATOM     39  N   UNL A   1      39.421  31.824  33.307  1.00  0.00    -0.248 NA
ATOM     40  C   UNL A   1      37.623  33.312  33.258  1.00  0.00     0.031 C 
ATOM     41  C   UNL A   1      38.240  30.341  29.246  1.00  0.00     0.029 A 
ATOM     42  N   UNL A   1      39.657  30.060  30.950  1.00  0.00    -0.354 N 
ATOM     43  C   UNL A   1      39.420  32.583  34.474  1.00  0.00     0.074 A 
ATOM     44  C   UNL A   1      38.332  33.530  34.356  1.00  0.00     0.031 C 
ATOM     45  C   UNL A   1      39.082  29.348  28.911  1.00  0.00     0.029 A 
ATOM     46  C   UNL A   1      40.045  29.154  29.990  1.00  0.00     0.049 A 
ATOM     47  H   UNL A   1      40.112  30.151  31.820  1.00  0.00     0.167 HD
ATOM     48  C   UNL A   1      40.233  32.482  35.553  1.00  0.00     0.034 A 
ATOM     49  C   UNL A   1      41.068  28.274  29.978  1.00  0.00     0.034 A 
ATOM     50  C   UNL A   1      41.303  31.521  35.664  1.00  0.00     0.049 A 
ATOM     51  C   UNL A   1      41.969  28.192  31.187  1.00  0.00     0.074 A 
ATOM     52  C   UNL A   1      42.168  31.309  36.723  1.00  0.00     0.029 A 
ATOM     53  N   UNL A   1      41.652  30.605  34.679  1.00  0.00    -0.354 N 
ATOM     54  N   UNL A   1      41.931  28.894  32.296  1.00  0.00    -0.248 NA
ATOM     55  C   UNL A   1      43.039  27.186  31.150  1.00  0.00     0.031 C 
ATOM     56  C   UNL A   1      43.074  30.307  36.359  1.00  0.00     0.029 A 
ATOM     57  C   UNL A   1      42.730  29.841  35.100  1.00  0.00     0.049 A 
ATOM     58  H   UNL A   1      41.201  30.513  33.808  1.00  0.00     0.167 HD
ATOM     59  C   UNL A   1      42.947  28.385  33.101  1.00  0.00     0.074 A 
ATOM     60  C   UNL A   1      43.568  27.311  32.357  1.00  0.00     0.031 C 
ATOM     61  C   UNL A   1      43.333  28.769  34.345  1.00  0.00     0.034 A 
BRANCH  48  62
ATOM     62  C   UNL A   1      40.004  33.449  36.690  1.00  0.00     0.023 A 
ATOM     63  C   UNL A   1      40.846  34.557  36.895  1.00  0.00     0.031 A 
ATOM     64  C   UNL A   1      38.943  33.253  37.591  1.00  0.00     0.131 A 
ATOM     65  C   UNL A   1      40.655  35.384  38.012  1.00  0.00     0.055 A 
ATOM     66  C   UNL A   1      38.710  34.127  38.655  1.00  0.00     0.041 A 
ATOM     67  F   UNL A   1      38.118  32.202  37.459  1.00  0.00    -0.206 F 
ATOM     68  C   UNL A   1      39.577  35.193  38.879  1.00  0.00     0.022 A 
BRANCH  65  69
ATOM     69  S   UNL A   1      41.913  36.635  38.388  1.00  0.00     0.124 S 
ATOM     70  O   UNL A   1      42.852  35.871  39.205  1.00  0.00    -0.237 OA
ATOM     71  O   UNL A   1      42.385  37.017  37.062  1.00  0.00    -0.237 OA
ATOM     72  O   UNL A   1      41.166  37.666  39.105  1.00  0.00    -0.744 OA
ENDBRANCH  65  69
ENDBRANCH  48  62
BRANCH  49  73
ATOM     73  C   UNL A   1      41.313  27.404  28.791  1.00  0.00     0.023 A 
ATOM     74  C   UNL A   1      42.302  27.729  27.848  1.00  0.00     0.031 A 
ATOM     75  C   UNL A   1      40.516  26.272  28.543  1.00  0.00     0.131 A 
ATOM     76  C   UNL A   1      42.426  26.973  26.672  1.00  0.00     0.055 A 
ATOM     77  C   UNL A   1      40.683  25.487  27.400  1.00  0.00     0.041 A 
ATOM     78  F   UNL A   1      39.558  25.911  29.412  1.00  0.00    -0.206 F 
ATOM     79  C   UNL A   1      41.631  25.847  26.447  1.00  0.00     0.022 A 
BRANCH  76  80
ATOM     80  S   UNL A   1      43.565  27.552  25.384  1.00  0.00     0.124 S 
ATOM     81  O   UNL A   1      42.641  27.952  24.329  1.00  0.00    -0.237 OA
ATOM     82  O   UNL A   1      44.268  28.633  26.067  1.00  0.00    -0.237 OA
ATOM     83  O   UNL A   1      44.374  26.371  25.091  1.00  0.00    -0.744 OA
ENDBRANCH  76  80
ENDBRANCH  49  73
BRANCH  61  84
ATOM     84  C   UNL A   1      44.437  27.974  34.997  1.00  0.00     0.023 A 
ATOM     85  C   UNL A   1      44.190  26.751  35.644  1.00  0.00     0.031 A 
ATOM     86  C   UNL A   1      45.757  28.459  34.979  1.00  0.00     0.131 A 
ATOM     87  C   UNL A   1      45.236  26.083  36.298  1.00  0.00     0.055 A 
ATOM     88  C   UNL A   1      46.805  27.760  35.578  1.00  0.00     0.041 A 
ATOM     89  F   UNL A   1      46.049  29.622  34.374  1.00  0.00    -0.206 F 
ATOM     90  C   UNL A   1      46.545  26.571  36.254  1.00  0.00     0.022 A 
BRANCH  87  91
ATOM     91  S   UNL A   1      44.848  24.611  37.284  1.00  0.00     0.124 S 
ATOM     92  O   UNL A   1      46.123  24.340  37.940  1.00  0.00    -0.237 OA
ATOM     93  O   UNL A   1      43.775  25.090  38.149  1.00  0.00    -0.237 OA
ATOM     94  O   UNL A   1      44.442  23.625  36.285  1.00  0.00    -0.744 OA
ENDBRANCH  87  91
ENDBRANCH  61  84
ENDBRANCH  35  36
ENDBRANCH  27  30
ENDBRANCH  25  26
ENDBRANCH  24  25
ENDBRANCH  23  24
ENDBRANCH   1  23
TORSDOF 22
ENDMDL
MODEL 3
REMARK VINA RESULT:      -9.4      5.120      8.994
REMARK SMILES CCN(CC(C)C)C(=O)N[C@](C)(CC)C(=O)NCCCCCCNC(=O)c1ccc(-c2c3nc(c(-c4cc(S(=O)(=O)[O-])ccc4F)c4ccc([nH]4)c(-c4cc(S(=O)(=O)[O-])ccc4F)c4nc(c(-c5cc(S(=O)(=O)[O-])ccc5F)c5ccc2[nH]5)C=C4)C=C3)cc1
REMARK SMILES IDX 20 1 19 2 18 3 17 4 15 5 16 6 11 8 12 9 10 10 8 11 9 12 3 14
REMARK SMILES IDX 2 15 1 16 4 17 5 18 6 19 7 20 13 21 14 22 21 23 22 24 23 25
REMARK SMILES IDX 24 26 25 27 26 29 27 30 28 31 89 32 29 33 88 34 30 35 31 36
REMARK SMILES IDX 32 37 82 38 33 39 87 40 81 41 83 42 34 43 86 44 80 45 79 46
REMARK SMILES IDX 35 48 67 49 47 50 66 51 48 52 51 53 65 54 84 55 49 56 50 57
REMARK SMILES IDX 64 59 85 60 52 61 36 62 37 63 45 64 38 65 44 66 46 67 43 68
REMARK SMILES IDX 39 69 40 70 41 71 42 72 68 73 69 74 77 75 70 76 76 77 78 78
REMARK SMILES IDX 75 79 71 80 72 81 73 82 74 83 53 84 54 85 62 86 55 87 61 88
REMARK SMILES IDX 63 89 60 90 56 91 57 92 58 93 59 94
REMARK H PARENT 17 7 10 13 24 28 83 47 51 58
REMARK Flexibility Score: inf
ROOT
ATOM      1  C   UNL A   1      36.042  21.458  24.431  1.00  0.00     0.002 C 
ENDROOT
BRANCH   1   2
ATOM      2  C   UNL A   1      36.884  22.738  24.550  1.00  0.00     0.021 C 
BRANCH   2   3
ATOM      3  C   UNL A   1      36.584  23.566  25.804  1.00  0.00     0.116 C 
BRANCH   3   4
ATOM      4  N   UNL A   1      35.460  22.988  26.525  1.00  0.00    -0.354 N 
ATOM      5  C   UNL A   1      34.124  23.252  26.525  1.00  0.00     0.245 C 
ATOM      6  O   UNL A   1      33.477  22.682  27.412  1.00  0.00    -0.272 OA
ATOM      7  H   UNL A   1      35.718  22.260  27.135  1.00  0.00     0.163 HD
BRANCH   5   8
ATOM      8  C   UNL A   1      33.467  24.342  25.618  1.00  0.00     0.117 C 
ATOM      9  C   UNL A   1      34.384  25.568  25.365  1.00  0.00     0.045 C 
BRANCH   8  10
ATOM     10  N   UNL A   1      32.139  24.777  26.137  1.00  0.00    -0.324 N 
ATOM     11  C   UNL A   1      31.350  25.860  26.222  1.00  0.00     0.318 C 
ATOM     12  O   UNL A   1      30.230  25.609  26.688  1.00  0.00    -0.249 OA
ATOM     13  H   UNL A   1      31.689  24.012  26.561  1.00  0.00     0.166 HD
BRANCH  11  14
ATOM     14  N   UNL A   1      31.686  27.136  25.865  1.00  0.00    -0.325 N 
BRANCH  14  15
ATOM     15  C   UNL A   1      32.328  27.959  26.905  1.00  0.00     0.118 C 
ATOM     16  C   UNL A   1      31.662  29.315  27.102  1.00  0.00     0.027 C 
ENDBRANCH  14  15
BRANCH  14  17
ATOM     17  C   UNL A   1      31.562  27.790  24.564  1.00  0.00     0.124 C 
BRANCH  17  18
ATOM     18  C   UNL A   1      30.596  27.112  23.563  1.00  0.00     0.002 C 
ATOM     19  C   UNL A   1      29.371  27.962  23.218  1.00  0.00     0.009 C 
ATOM     20  C   UNL A   1      31.365  26.663  22.311  1.00  0.00     0.009 C 
ENDBRANCH  17  18
ENDBRANCH  14  17
ENDBRANCH  11  14
ENDBRANCH   8  10
BRANCH   8  21
ATOM     21  C   UNL A   1      33.243  23.670  24.216  1.00  0.00     0.035 C 
ATOM     22  C   UNL A   1      31.992  22.801  24.109  1.00  0.00     0.007 C 
ENDBRANCH   8  21
ENDBRANCH   5   8
ENDBRANCH   3   4
ENDBRANCH   2   3
ENDBRANCH   1   2
BRANCH   1  23
ATOM     23  C   UNL A   1      36.693  20.195  25.006  1.00  0.00     0.002 C 
BRANCH  23  24
ATOM     24  C   UNL A   1      38.197  20.055  24.752  1.00  0.00     0.021 C 
BRANCH  24  25
ATOM     25  C   UNL A   1      39.093  20.468  25.917  1.00  0.00     0.116 C 
BRANCH  25  26
ATOM     26  N   UNL A   1      40.226  19.575  26.095  1.00  0.00    -0.352 N 
ATOM     27  C   UNL A   1      41.525  19.894  26.401  1.00  0.00     0.251 C 
ATOM     28  H   UNL A   1      40.037  18.615  25.980  1.00  0.00     0.163 HD
ATOM     29  O   UNL A   1      42.396  19.025  26.359  1.00  0.00    -0.269 OA
BRANCH  27  30
ATOM     30  C   UNL A   1      41.877  21.288  26.751  1.00  0.00     0.039 A 
ATOM     31  C   UNL A   1      41.986  22.237  25.732  1.00  0.00     0.014 A 
ATOM     32  C   UNL A   1      42.100  21.657  28.081  1.00  0.00     0.014 A 
ATOM     33  C   UNL A   1      42.271  23.568  26.051  1.00  0.00     0.010 A 
ATOM     34  C   UNL A   1      42.321  22.995  28.402  1.00  0.00     0.010 A 
ATOM     35  C   UNL A   1      42.419  23.963  27.391  1.00  0.00    -0.014 A 
BRANCH  35  36
ATOM     36  C   UNL A   1      42.716  25.375  27.749  1.00  0.00     0.031 A 
ATOM     37  C   UNL A   1      44.123  25.897  27.614  1.00  0.00     0.074 A 
ATOM     38  C   UNL A   1      41.742  26.167  28.236  1.00  0.00     0.049 A 
ATOM     39  N   UNL A   1      44.610  27.064  27.950  1.00  0.00    -0.248 NA
ATOM     40  C   UNL A   1      45.118  24.969  27.053  1.00  0.00     0.031 C 
ATOM     41  C   UNL A   1      40.348  25.765  28.441  1.00  0.00     0.029 A 
ATOM     42  N   UNL A   1      41.772  27.474  28.658  1.00  0.00    -0.354 N 
ATOM     43  C   UNL A   1      45.968  27.007  27.653  1.00  0.00     0.074 A 
ATOM     44  C   UNL A   1      46.236  25.669  27.168  1.00  0.00     0.031 C 
ATOM     45  C   UNL A   1      39.656  26.808  28.930  1.00  0.00     0.029 A 
ATOM     46  C   UNL A   1      40.560  27.939  29.114  1.00  0.00     0.049 A 
ATOM     47  H   UNL A   1      42.588  28.027  28.636  1.00  0.00     0.167 HD
ATOM     48  C   UNL A   1      46.900  27.986  27.749  1.00  0.00     0.034 A 
ATOM     49  C   UNL A   1      40.221  29.138  29.633  1.00  0.00     0.034 A 
ATOM     50  C   UNL A   1      46.615  29.321  28.217  1.00  0.00     0.049 A 
ATOM     51  C   UNL A   1      41.281  30.207  29.744  1.00  0.00     0.074 A 
ATOM     52  C   UNL A   1      47.475  30.400  28.326  1.00  0.00     0.029 A 
ATOM     53  N   UNL A   1      45.371  29.761  28.652  1.00  0.00    -0.354 N 
ATOM     54  N   UNL A   1      42.554  30.146  29.424  1.00  0.00    -0.248 NA
ATOM     55  C   UNL A   1      40.855  31.511  30.268  1.00  0.00     0.031 C 
ATOM     56  C   UNL A   1      46.766  31.473  28.878  1.00  0.00     0.029 A 
ATOM     57  C   UNL A   1      45.446  31.088  29.046  1.00  0.00     0.049 A 
ATOM     58  H   UNL A   1      44.554  29.210  28.677  1.00  0.00     0.167 HD
ATOM     59  C   UNL A   1      43.067  31.417  29.673  1.00  0.00     0.074 A 
ATOM     60  C   UNL A   1      41.966  32.223  30.154  1.00  0.00     0.031 C 
ATOM     61  C   UNL A   1      44.334  31.878  29.517  1.00  0.00     0.034 A 
BRANCH  48  62
ATOM     62  C   UNL A   1      48.317  27.641  27.356  1.00  0.00     0.023 A 
ATOM     63  C   UNL A   1      48.838  27.995  26.099  1.00  0.00     0.031 A 
ATOM     64  C   UNL A   1      49.151  26.935  28.239  1.00  0.00     0.131 A 
ATOM     65  C   UNL A   1      50.129  27.581  25.734  1.00  0.00     0.055 A 
ATOM     66  C   UNL A   1      50.463  26.597  27.901  1.00  0.00     0.041 A 
ATOM     67  F   UNL A   1      48.703  26.552  29.446  1.00  0.00    -0.206 F 
ATOM     68  C   UNL A   1      50.955  26.908  26.636  1.00  0.00     0.022 A 
BRANCH  65  69
ATOM     69  S   UNL A   1      50.663  27.824  24.018  1.00  0.00     0.124 S 
ATOM     70  O   UNL A   1      49.385  27.819  23.310  1.00  0.00    -0.237 OA
ATOM     71  O   UNL A   1      51.354  29.106  24.080  1.00  0.00    -0.237 OA
ATOM     72  O   UNL A   1      51.517  26.667  23.759  1.00  0.00    -0.744 OA
ENDBRANCH  65  69
ENDBRANCH  48  62
BRANCH  49  73
ATOM     73  C   UNL A   1      38.827  29.402  30.097  1.00  0.00     0.023 A 
ATOM     74  C   UNL A   1      37.905  30.067  29.274  1.00  0.00     0.031 A 
ATOM     75  C   UNL A   1      38.418  29.057  31.397  1.00  0.00     0.131 A 
ATOM     76  C   UNL A   1      36.645  30.423  29.778  1.00  0.00     0.055 A 
ATOM     77  C   UNL A   1      37.141  29.359  31.874  1.00  0.00     0.041 A 
ATOM     78  F   UNL A   1      39.257  28.415  32.227  1.00  0.00    -0.206 F 
ATOM     79  C   UNL A   1      36.252  30.064  31.069  1.00  0.00     0.022 A 
BRANCH  76  80
ATOM     80  S   UNL A   1      35.566  31.467  28.758  1.00  0.00     0.124 S 
ATOM     81  O   UNL A   1      36.537  32.290  28.046  1.00  0.00    -0.237 OA
ATOM     82  O   UNL A   1      34.854  30.476  27.959  1.00  0.00    -0.237 OA
ATOM     83  O   UNL A   1      34.750  32.175  29.743  1.00  0.00    -0.744 OA
ENDBRANCH  76  80
ENDBRANCH  49  73
BRANCH  61  84
ATOM     84  C   UNL A   1      44.574  33.339  29.810  1.00  0.00     0.023 A 
ATOM     85  C   UNL A   1      44.989  33.784  31.077  1.00  0.00     0.031 A 
ATOM     86  C   UNL A   1      44.369  34.300  28.804  1.00  0.00     0.131 A 
ATOM     87  C   UNL A   1      45.130  35.158  31.322  1.00  0.00     0.055 A 
ATOM     88  C   UNL A   1      44.570  35.661  29.037  1.00  0.00     0.041 A 
ATOM     89  F   UNL A   1      43.972  33.930  27.576  1.00  0.00    -0.206 F 
ATOM     90  C   UNL A   1      44.939  36.098  30.306  1.00  0.00     0.022 A 
BRANCH  87  91
ATOM     91  S   UNL A   1      45.479  35.709  33.014  1.00  0.00     0.124 S 
ATOM     92  O   UNL A   1      44.342  35.167  33.751  1.00  0.00    -0.237 OA
ATOM     93  O   UNL A   1      46.770  35.085  33.286  1.00  0.00    -0.237 OA
ATOM     94  O   UNL A   1      45.509  37.165  32.903  1.00  0.00    -0.744 OA
ENDBRANCH  87  91
ENDBRANCH  61  84
ENDBRANCH  35  36
ENDBRANCH  27  30
ENDBRANCH  25  26
ENDBRANCH  24  25
ENDBRANCH  23  24
ENDBRANCH   1  23
TORSDOF 22
ENDMDL
