MODEL 1
REMARK VINA RESULT:     -12.3      0.000      0.000
REMARK SMILES O=C(NCCCCCCNC(=O)[C@@H]1[C@H](C(=O)Nc2ccccc2OC(F)F)[C@@H]2C=C[C@H]1C2)c1ccc(-c2c3nc(c(-c4cc(S(=O)(=O)[O-])ccc4F)c4ccc([nH]4)c(-c4cc(S(=O)(=O)[O-])ccc4F)c4nc(c(-c5cc(S(=O)(=O)[O-])ccc5F)c5ccc2[nH]5)C=C4)C=C3)cc1
REMARK SMILES IDX 7 1 6 2 5 3 4 4 3 5 1 6 2 7 33 9 34 10 95 11 35 12 94 13
REMARK SMILES IDX 36 14 37 15 38 16 88 17 39 18 93 19 87 20 89 21 40 22 92 23
REMARK SMILES IDX 86 24 85 25 41 27 73 28 53 29 72 30 54 31 57 32 71 33 90 34
REMARK SMILES IDX 55 35 56 36 70 38 91 39 58 40 42 41 43 42 51 43 44 44 50 45
REMARK SMILES IDX 52 46 49 47 45 48 46 49 47 50 48 51 74 52 75 53 83 54 76 55
REMARK SMILES IDX 82 56 84 57 81 58 77 59 78 60 79 61 80 62 59 63 60 64 68 65
REMARK SMILES IDX 61 66 67 67 69 68 66 69 62 70 63 71 64 72 65 73 8 74 9 75
REMARK SMILES IDX 10 76 11 77 12 79 13 80 14 81 31 82 28 83 30 84 32 85 29 86
REMARK SMILES IDX 15 87 16 88 17 89 18 91 19 92 23 93 20 94 22 95 21 96 24 97
REMARK SMILES IDX 25 98 26 99 27 100
REMARK H PARENT 3 8 89 26 57 37 10 78 17 90
REMARK Flexibility Score: inf
ROOT
ATOM      1  C   UNL A   1      32.770  29.554  26.238  1.00  0.00     0.002 C 
ENDROOT
BRANCH   1   2
ATOM      2  C   UNL A   1      31.633  30.482  25.819  1.00  0.00     0.002 C 
BRANCH   2   3
ATOM      3  C   UNL A   1      31.513  31.834  26.536  1.00  0.00     0.021 C 
BRANCH   3   4
ATOM      4  C   UNL A   1      32.756  32.357  27.262  1.00  0.00     0.116 C 
BRANCH   4   5
ATOM      5  N   UNL A   1      32.629  33.749  27.672  1.00  0.00    -0.352 N 
ATOM      6  O   UNL A   1      32.837  35.542  29.020  1.00  0.00    -0.269 OA
ATOM      7  C   UNL A   1      33.245  34.436  28.695  1.00  0.00     0.251 C 
ATOM      8  H   UNL A   1      32.005  34.285  27.130  1.00  0.00     0.163 HD
BRANCH   7   9
ATOM      9  C   UNL A   1      34.407  33.841  29.393  1.00  0.00     0.039 A 
ATOM     10  C   UNL A   1      34.214  32.840  30.347  1.00  0.00     0.014 A 
ATOM     11  C   UNL A   1      35.701  34.242  29.048  1.00  0.00     0.014 A 
ATOM     12  C   UNL A   1      35.304  32.326  31.041  1.00  0.00     0.010 A 
ATOM     13  C   UNL A   1      36.802  33.665  29.691  1.00  0.00     0.010 A 
ATOM     14  C   UNL A   1      36.612  32.711  30.702  1.00  0.00    -0.014 A 
BRANCH  14  15
ATOM     15  C   UNL A   1      37.761  32.033  31.359  1.00  0.00     0.031 A 
ATOM     16  C   UNL A   1      38.213  32.426  32.736  1.00  0.00     0.074 A 
ATOM     17  C   UNL A   1      38.378  31.034  30.697  1.00  0.00     0.049 A 
ATOM     18  N   UNL A   1      39.202  31.945  33.447  1.00  0.00    -0.248 NA
ATOM     19  C   UNL A   1      37.465  33.503  33.399  1.00  0.00     0.031 C 
ATOM     20  C   UNL A   1      38.015  30.569  29.355  1.00  0.00     0.029 A 
ATOM     21  N   UNL A   1      39.420  30.220  31.057  1.00  0.00    -0.354 N 
ATOM     22  C   UNL A   1      39.203  32.664  34.638  1.00  0.00     0.074 A 
ATOM     23  C   UNL A   1      38.138  33.641  34.533  1.00  0.00     0.031 C 
ATOM     24  C   UNL A   1      38.785  29.522  29.028  1.00  0.00     0.029 A 
ATOM     25  C   UNL A   1      39.753  29.294  30.094  1.00  0.00     0.049 A 
ATOM     26  H   UNL A   1      39.886  30.290  31.921  1.00  0.00     0.167 HD
ATOM     27  C   UNL A   1      40.015  32.513  35.716  1.00  0.00     0.034 A 
ATOM     28  C   UNL A   1      40.743  28.384  30.056  1.00  0.00     0.034 A 
ATOM     29  C   UNL A   1      41.077  31.535  35.788  1.00  0.00     0.049 A 
ATOM     30  C   UNL A   1      41.675  28.289  31.234  1.00  0.00     0.074 A 
ATOM     31  C   UNL A   1      41.947  31.284  36.835  1.00  0.00     0.029 A 
ATOM     32  N   UNL A   1      41.424  30.654  34.768  1.00  0.00    -0.354 N 
ATOM     33  N   UNL A   1      41.659  28.972  32.356  1.00  0.00    -0.248 NA
ATOM     34  C   UNL A   1      42.757  27.302  31.142  1.00  0.00     0.031 C 
ATOM     35  C   UNL A   1      42.867  30.314  36.420  1.00  0.00     0.029 A 
ATOM     36  C   UNL A   1      42.517  29.888  35.150  1.00  0.00     0.049 A 
ATOM     37  H   UNL A   1      40.962  30.584  33.902  1.00  0.00     0.167 HD
ATOM     38  C   UNL A   1      42.712  28.474  33.116  1.00  0.00     0.074 A 
ATOM     39  C   UNL A   1      43.328  27.422  32.331  1.00  0.00     0.031 C 
ATOM     40  C   UNL A   1      43.131  28.851  34.351  1.00  0.00     0.034 A 
BRANCH  27  41
ATOM     41  C   UNL A   1      39.818  33.457  36.879  1.00  0.00     0.023 A 
ATOM     42  C   UNL A   1      40.639  34.584  37.070  1.00  0.00     0.031 A 
ATOM     43  C   UNL A   1      38.799  33.223  37.820  1.00  0.00     0.131 A 
ATOM     44  C   UNL A   1      40.469  35.391  38.207  1.00  0.00     0.055 A 
ATOM     45  C   UNL A   1      38.583  34.077  38.904  1.00  0.00     0.041 A 
ATOM     46  F   UNL A   1      37.996  32.153  37.707  1.00  0.00    -0.206 F 
ATOM     47  C   UNL A   1      39.430  35.162  39.111  1.00  0.00     0.022 A 
BRANCH  44  48
ATOM     48  S   UNL A   1      41.716  36.660  38.563  1.00  0.00     0.124 S 
ATOM     49  O   UNL A   1      42.268  36.914  37.235  1.00  0.00    -0.237 OA
ATOM     50  O   UNL A   1      40.917  37.734  39.140  1.00  0.00    -0.237 OA
ATOM     51  O   UNL A   1      42.627  35.994  39.492  1.00  0.00    -0.744 OA
ENDBRANCH  44  48
ENDBRANCH  27  41
BRANCH  28  52
ATOM     52  C   UNL A   1      40.931  27.521  28.854  1.00  0.00     0.023 A 
ATOM     53  C   UNL A   1      41.915  27.815  27.898  1.00  0.00     0.031 A 
ATOM     54  C   UNL A   1      40.102  26.407  28.626  1.00  0.00     0.131 A 
ATOM     55  C   UNL A   1      42.016  27.033  26.737  1.00  0.00     0.055 A 
ATOM     56  C   UNL A   1      40.249  25.594  27.502  1.00  0.00     0.041 A 
ATOM     57  F   UNL A   1      39.144  26.080  29.507  1.00  0.00    -0.206 F 
ATOM     58  C   UNL A   1      41.202  25.915  26.542  1.00  0.00     0.022 A 
BRANCH  55  59
ATOM     59  S   UNL A   1      43.164  27.560  25.436  1.00  0.00     0.124 S 
ATOM     60  O   UNL A   1      43.706  26.283  24.984  1.00  0.00    -0.237 OA
ATOM     61  O   UNL A   1      42.274  28.246  24.507  1.00  0.00    -0.237 OA
ATOM     62  O   UNL A   1      44.107  28.422  26.146  1.00  0.00    -0.744 OA
ENDBRANCH  55  59
ENDBRANCH  28  52
BRANCH  40  63
ATOM     63  C   UNL A   1      44.285  28.078  34.944  1.00  0.00     0.023 A 
ATOM     64  C   UNL A   1      44.112  26.801  35.505  1.00  0.00     0.031 A 
ATOM     65  C   UNL A   1      45.574  28.641  34.966  1.00  0.00     0.131 A 
ATOM     66  C   UNL A   1      45.195  26.157  36.123  1.00  0.00     0.055 A 
ATOM     67  C   UNL A   1      46.662  27.964  35.518  1.00  0.00     0.041 A 
ATOM     68  F   UNL A   1      45.796  29.860  34.451  1.00  0.00    -0.206 F 
ATOM     69  C   UNL A   1      46.473  26.721  36.114  1.00  0.00     0.022 A 
BRANCH  66  70
ATOM     70  S   UNL A   1      44.889  24.619  37.036  1.00  0.00     0.124 S 
ATOM     71  O   UNL A   1      43.840  23.995  36.236  1.00  0.00    -0.237 OA
ATOM     72  O   UNL A   1      46.194  23.967  36.996  1.00  0.00    -0.237 OA
ATOM     73  O   UNL A   1      44.469  25.083  38.357  1.00  0.00    -0.744 OA
ENDBRANCH  66  70
ENDBRANCH  40  63
ENDBRANCH  14  15
ENDBRANCH   7   9
ENDBRANCH   4   5
ENDBRANCH   3   4
ENDBRANCH   2   3
ENDBRANCH   1   2
BRANCH   1  74
ATOM     74  C   UNL A   1      32.568  28.042  26.044  1.00  0.00     0.021 C 
BRANCH  74  75
ATOM     75  C   UNL A   1      33.766  27.077  25.667  1.00  0.00     0.116 C 
BRANCH  75  76
ATOM     76  N   UNL A   1      33.829  26.123  24.360  1.00  0.00    -0.356 N 
ATOM     77  C   UNL A   1      34.160  24.950  23.689  1.00  0.00     0.224 C 
ATOM     78  H   UNL A   1      33.398  26.668  23.663  1.00  0.00     0.163 HD
ATOM     79  O   UNL A   1      33.762  25.062  22.499  1.00  0.00    -0.275 OA
BRANCH  77  80
ATOM     80  C   UNL A   1      34.901  23.412  23.974  1.00  0.00     0.098 C 
ATOM     81  C   UNL A   1      34.810  21.909  24.715  1.00  0.00     0.099 C 
ATOM     82  C   UNL A   1      36.486  23.579  24.072  1.00  0.00     0.025 C 
ATOM     83  C   UNL A   1      36.294  21.522  24.966  1.00  0.00     0.025 C 
ATOM     84  C   UNL A   1      36.962  23.632  25.514  1.00  0.00    -0.027 C 
ATOM     85  C   UNL A   1      36.983  22.150  23.764  1.00  0.00     0.017 C 
ATOM     86  C   UNL A   1      36.859  22.403  26.039  1.00  0.00    -0.027 C 
BRANCH  81  87
ATOM     87  C   UNL A   1      34.005  21.187  25.879  1.00  0.00     0.229 C 
ATOM     88  O   UNL A   1      34.417  21.306  27.040  1.00  0.00    -0.274 OA
ATOM     89  N   UNL A   1      32.840  20.498  25.710  1.00  0.00    -0.323 N 
ATOM     90  H   UNL A   1      32.293  20.314  26.507  1.00  0.00     0.170 HD
BRANCH  89  91
ATOM     91  C   UNL A   1      32.382  20.044  24.492  1.00  0.00     0.084 A 
ATOM     92  C   UNL A   1      32.117  20.929  23.436  1.00  0.00     0.030 A 
ATOM     93  C   UNL A   1      32.336  18.697  24.296  1.00  0.00     0.149 A 
ATOM     94  C   UNL A   1      32.053  20.460  22.116  1.00  0.00     0.002 A 
ATOM     95  C   UNL A   1      32.326  18.254  22.945  1.00  0.00     0.049 A 
ATOM     96  C   UNL A   1      32.221  19.115  21.861  1.00  0.00     0.004 A 
BRANCH  93  97
ATOM     97  O   UNL A   1      32.331  17.769  25.296  1.00  0.00    -0.433 OA
BRANCH  97  98
ATOM     98  C   UNL A   1      33.068  16.662  25.862  1.00  0.00     0.542 C 
ATOM     99  F   UNL A   1      32.471  15.491  25.590  1.00  0.00    -0.167 F 
ATOM    100  F   UNL A   1      34.294  16.634  25.264  1.00  0.00    -0.167 F 
ENDBRANCH  97  98
ENDBRANCH  93  97
ENDBRANCH  89  91
ENDBRANCH  81  87
ENDBRANCH  77  80
ENDBRANCH  75  76
ENDBRANCH  74  75
ENDBRANCH   1  74
TORSDOF 20
ENDMDL
MODEL 2
REMARK VINA RESULT:     -12.3      2.538      8.171
REMARK SMILES O=C(NCCCCCCNC(=O)[C@@H]1[C@H](C(=O)Nc2ccccc2OC(F)F)[C@@H]2C=C[C@H]1C2)c1ccc(-c2c3nc(c(-c4cc(S(=O)(=O)[O-])ccc4F)c4ccc([nH]4)c(-c4cc(S(=O)(=O)[O-])ccc4F)c4nc(c(-c5cc(S(=O)(=O)[O-])ccc5F)c5ccc2[nH]5)C=C4)C=C3)cc1
REMARK SMILES IDX 7 1 6 2 5 3 4 4 3 5 1 6 2 7 33 9 34 10 95 11 35 12 94 13
REMARK SMILES IDX 36 14 37 15 38 16 88 17 39 18 93 19 87 20 89 21 40 22 92 23
REMARK SMILES IDX 86 24 85 25 41 27 73 28 53 29 72 30 54 31 57 32 71 33 90 34
REMARK SMILES IDX 55 35 56 36 70 38 91 39 58 40 42 41 43 42 51 43 44 44 50 45
REMARK SMILES IDX 52 46 49 47 45 48 46 49 47 50 48 51 74 52 75 53 83 54 76 55
REMARK SMILES IDX 82 56 84 57 81 58 77 59 78 60 79 61 80 62 59 63 60 64 68 65
REMARK SMILES IDX 61 66 67 67 69 68 66 69 62 70 63 71 64 72 65 73 8 74 9 75
REMARK SMILES IDX 10 76 11 77 12 79 13 80 14 81 31 82 28 83 30 84 32 85 29 86
REMARK SMILES IDX 15 87 16 88 17 89 18 91 19 92 23 93 20 94 22 95 21 96 24 97
REMARK SMILES IDX 25 98 26 99 27 100
REMARK H PARENT 3 8 89 26 57 37 10 78 17 90
REMARK Flexibility Score: inf
ROOT
ATOM      1  C   UNL A   1      32.563  29.948  27.185  1.00  0.00     0.002 C 
ENDROOT
BRANCH   1   2
ATOM      2  C   UNL A   1      31.475  30.767  26.495  1.00  0.00     0.002 C 
BRANCH   2   3
ATOM      3  C   UNL A   1      31.492  32.289  26.690  1.00  0.00     0.021 C 
BRANCH   3   4
ATOM      4  C   UNL A   1      32.823  32.929  27.095  1.00  0.00     0.116 C 
BRANCH   4   5
ATOM      5  N   UNL A   1      32.654  34.208  27.774  1.00  0.00    -0.352 N 
ATOM      6  O   UNL A   1      32.776  35.690  29.465  1.00  0.00    -0.269 OA
ATOM      7  C   UNL A   1      33.218  34.679  28.939  1.00  0.00     0.251 C 
ATOM      8  H   UNL A   1      32.040  34.835  27.328  1.00  0.00     0.163 HD
BRANCH   7   9
ATOM      9  C   UNL A   1      34.365  33.967  29.548  1.00  0.00     0.039 A 
ATOM     10  C   UNL A   1      35.670  34.380  29.277  1.00  0.00     0.014 A 
ATOM     11  C   UNL A   1      34.131  32.920  30.444  1.00  0.00     0.014 A 
ATOM     12  C   UNL A   1      36.744  33.672  29.806  1.00  0.00     0.010 A 
ATOM     13  C   UNL A   1      35.213  32.259  31.038  1.00  0.00     0.010 A 
ATOM     14  C   UNL A   1      36.529  32.622  30.714  1.00  0.00    -0.014 A 
BRANCH  14  15
ATOM     15  C   UNL A   1      37.697  31.984  31.375  1.00  0.00     0.031 A 
ATOM     16  C   UNL A   1      38.466  30.882  30.704  1.00  0.00     0.074 A 
ATOM     17  C   UNL A   1      38.071  32.435  32.589  1.00  0.00     0.049 A 
ATOM     18  N   UNL A   1      39.500  30.212  31.146  1.00  0.00    -0.248 NA
ATOM     19  C   UNL A   1      38.011  30.472  29.368  1.00  0.00     0.031 C 
ATOM     20  C   UNL A   1      37.396  33.506  33.329  1.00  0.00     0.029 A 
ATOM     21  N   UNL A   1      39.108  32.072  33.408  1.00  0.00    -0.354 N 
ATOM     22  C   UNL A   1      39.818  29.295  30.149  1.00  0.00     0.074 A 
ATOM     23  C   UNL A   1      38.838  29.471  29.096  1.00  0.00     0.031 C 
ATOM     24  C   UNL A   1      38.066  33.747  34.464  1.00  0.00     0.029 A 
ATOM     25  C   UNL A   1      39.163  32.794  34.578  1.00  0.00     0.049 A 
ATOM     26  H   UNL A   1      39.753  31.364  33.182  1.00  0.00     0.167 HD
ATOM     27  C   UNL A   1      40.837  28.398  30.118  1.00  0.00     0.034 A 
ATOM     28  C   UNL A   1      39.983  32.685  35.640  1.00  0.00     0.034 A 
ATOM     29  C   UNL A   1      41.794  28.236  31.189  1.00  0.00     0.049 A 
ATOM     30  C   UNL A   1      41.057  31.632  35.611  1.00  0.00     0.074 A 
ATOM     31  C   UNL A   1      42.874  27.372  31.256  1.00  0.00     0.029 A 
ATOM     32  N   UNL A   1      41.782  28.944  32.386  1.00  0.00    -0.354 N 
ATOM     33  N   UNL A   1      41.349  30.777  34.657  1.00  0.00    -0.248 NA
ATOM     34  C   UNL A   1      41.913  31.529  36.798  1.00  0.00     0.031 C 
ATOM     35  C   UNL A   1      43.462  27.500  32.519  1.00  0.00     0.029 A 
ATOM     36  C   UNL A   1      42.812  28.509  33.210  1.00  0.00     0.049 A 
ATOM     37  H   UNL A   1      41.138  29.651  32.616  1.00  0.00     0.167 HD
ATOM     38  C   UNL A   1      42.442  30.053  35.121  1.00  0.00     0.074 A 
ATOM     39  C   UNL A   1      42.768  30.587  36.428  1.00  0.00     0.031 C 
ATOM     40  C   UNL A   1      43.117  29.041  34.519  1.00  0.00     0.034 A 
BRANCH  27  41
ATOM     41  C   UNL A   1      40.935  27.490  28.914  1.00  0.00     0.023 A 
ATOM     42  C   UNL A   1      41.900  27.690  27.909  1.00  0.00     0.031 A 
ATOM     43  C   UNL A   1      40.044  26.414  28.759  1.00  0.00     0.131 A 
ATOM     44  C   UNL A   1      41.906  26.870  26.769  1.00  0.00     0.055 A 
ATOM     45  C   UNL A   1      40.109  25.551  27.663  1.00  0.00     0.041 A 
ATOM     46  F   UNL A   1      39.086  26.183  29.671  1.00  0.00    -0.206 F 
ATOM     47  C   UNL A   1      41.035  25.785  26.652  1.00  0.00     0.022 A 
BRANCH  44  48
ATOM     48  S   UNL A   1      42.975  27.329  25.376  1.00  0.00     0.124 S 
ATOM     49  O   UNL A   1      44.176  27.794  26.065  1.00  0.00    -0.237 OA
ATOM     50  O   UNL A   1      43.101  26.072  24.648  1.00  0.00    -0.237 OA
ATOM     51  O   UNL A   1      42.214  28.372  24.691  1.00  0.00    -0.744 OA
ENDBRANCH  44  48
ENDBRANCH  27  41
BRANCH  28  52
ATOM     52  C   UNL A   1      39.799  33.565  36.831  1.00  0.00     0.023 A 
ATOM     53  C   UNL A   1      39.202  33.080  38.004  1.00  0.00     0.031 A 
ATOM     54  C   UNL A   1      40.187  34.917  36.798  1.00  0.00     0.131 A 
ATOM     55  C   UNL A   1      38.969  33.951  39.080  1.00  0.00     0.055 A 
ATOM     56  C   UNL A   1      40.012  35.763  37.894  1.00  0.00     0.041 A 
ATOM     57  F   UNL A   1      40.762  35.435  35.701  1.00  0.00    -0.206 F 
ATOM     58  C   UNL A   1      39.385  35.283  39.039  1.00  0.00     0.022 A 
BRANCH  55  59
ATOM     59  S   UNL A   1      38.020  33.338  40.499  1.00  0.00     0.124 S 
ATOM     60  O   UNL A   1      36.755  32.970  39.872  1.00  0.00    -0.237 OA
ATOM     61  O   UNL A   1      38.851  32.235  40.965  1.00  0.00    -0.237 OA
ATOM     62  O   UNL A   1      37.962  34.494  41.392  1.00  0.00    -0.744 OA
ENDBRANCH  55  59
ENDBRANCH  28  52
BRANCH  40  63
ATOM     63  C   UNL A   1      44.309  28.482  35.259  1.00  0.00     0.023 A 
ATOM     64  C   UNL A   1      44.209  27.341  36.074  1.00  0.00     0.031 A 
ATOM     65  C   UNL A   1      45.560  29.117  35.163  1.00  0.00     0.131 A 
ATOM     66  C   UNL A   1      45.321  26.909  36.811  1.00  0.00     0.055 A 
ATOM     67  C   UNL A   1      46.681  28.640  35.843  1.00  0.00     0.041 A 
ATOM     68  F   UNL A   1      45.714  30.215  34.405  1.00  0.00    -0.206 F 
ATOM     69  C   UNL A   1      46.562  27.539  36.685  1.00  0.00     0.022 A 
BRANCH  66  70
ATOM     70  S   UNL A   1      45.099  25.578  38.024  1.00  0.00     0.124 S 
ATOM     71  O   UNL A   1      43.838  24.983  37.594  1.00  0.00    -0.237 OA
ATOM     72  O   UNL A   1      46.293  24.763  37.816  1.00  0.00    -0.237 OA
ATOM     73  O   UNL A   1      45.047  26.284  39.302  1.00  0.00    -0.744 OA
ENDBRANCH  66  70
ENDBRANCH  40  63
ENDBRANCH  14  15
ENDBRANCH   7   9
ENDBRANCH   4   5
ENDBRANCH   3   4
ENDBRANCH   2   3
ENDBRANCH   1   2
BRANCH   1  74
ATOM     74  C   UNL A   1      32.636  28.445  26.870  1.00  0.00     0.021 C 
BRANCH  74  75
ATOM     75  C   UNL A   1      31.342  27.534  26.818  1.00  0.00     0.116 C 
BRANCH  75  76
ATOM     76  N   UNL A   1      31.327  25.918  26.920  1.00  0.00    -0.356 N 
ATOM     77  C   UNL A   1      31.749  24.642  26.558  1.00  0.00     0.224 C 
ATOM     78  H   UNL A   1      30.655  25.743  27.618  1.00  0.00     0.163 HD
ATOM     79  O   UNL A   1      31.124  23.813  27.270  1.00  0.00    -0.275 OA
BRANCH  77  80
ATOM     80  C   UNL A   1      32.856  23.857  25.484  1.00  0.00     0.098 C 
ATOM     81  C   UNL A   1      33.362  23.606  23.904  1.00  0.00     0.099 C 
ATOM     82  C   UNL A   1      33.211  22.400  26.033  1.00  0.00     0.025 C 
ATOM     83  C   UNL A   1      33.959  22.171  23.922  1.00  0.00     0.025 C 
ATOM     84  C   UNL A   1      32.392  21.321  25.345  1.00  0.00    -0.027 C 
ATOM     85  C   UNL A   1      34.549  22.103  25.323  1.00  0.00     0.017 C 
ATOM     86  C   UNL A   1      32.850  21.177  24.093  1.00  0.00    -0.027 C 
BRANCH  81  87
ATOM     87  C   UNL A   1      32.822  23.795  22.422  1.00  0.00     0.229 C 
ATOM     88  O   UNL A   1      32.740  22.798  21.694  1.00  0.00    -0.274 OA
ATOM     89  N   UNL A   1      32.365  24.971  21.903  1.00  0.00    -0.323 N 
ATOM     90  H   UNL A   1      31.821  24.934  21.084  1.00  0.00     0.170 HD
BRANCH  89  91
ATOM     91  C   UNL A   1      32.618  26.208  22.456  1.00  0.00     0.084 A 
ATOM     92  C   UNL A   1      33.809  26.897  22.184  1.00  0.00     0.030 A 
ATOM     93  C   UNL A   1      31.613  26.806  23.154  1.00  0.00     0.149 A 
ATOM     94  C   UNL A   1      33.893  28.281  22.397  1.00  0.00     0.002 A 
ATOM     95  C   UNL A   1      31.701  28.217  23.305  1.00  0.00     0.049 A 
ATOM     96  C   UNL A   1      32.805  28.960  22.905  1.00  0.00     0.004 A 
BRANCH  93  97
ATOM     97  O   UNL A   1      30.537  26.151  23.677  1.00  0.00    -0.433 OA
BRANCH  97  98
ATOM     98  C   UNL A   1      29.101  26.205  23.828  1.00  0.00     0.542 C 
ATOM     99  F   UNL A   1      28.737  25.995  25.103  1.00  0.00    -0.167 F 
ATOM    100  F   UNL A   1      28.699  27.468  23.501  1.00  0.00    -0.167 F 
ENDBRANCH  97  98
ENDBRANCH  93  97
ENDBRANCH  89  91
ENDBRANCH  81  87
ENDBRANCH  77  80
ENDBRANCH  75  76
ENDBRANCH  74  75
ENDBRANCH   1  74
TORSDOF 20
ENDMDL
MODEL 3
REMARK VINA RESULT:     -12.2      2.635      3.836
REMARK SMILES O=C(NCCCCCCNC(=O)[C@@H]1[C@H](C(=O)Nc2ccccc2OC(F)F)[C@@H]2C=C[C@H]1C2)c1ccc(-c2c3nc(c(-c4cc(S(=O)(=O)[O-])ccc4F)c4ccc([nH]4)c(-c4cc(S(=O)(=O)[O-])ccc4F)c4nc(c(-c5cc(S(=O)(=O)[O-])ccc5F)c5ccc2[nH]5)C=C4)C=C3)cc1
REMARK SMILES IDX 7 1 6 2 5 3 4 4 3 5 1 6 2 7 33 9 34 10 95 11 35 12 94 13
REMARK SMILES IDX 36 14 37 15 38 16 88 17 39 18 93 19 87 20 89 21 40 22 92 23
REMARK SMILES IDX 86 24 85 25 41 27 73 28 53 29 72 30 54 31 57 32 71 33 90 34
REMARK SMILES IDX 55 35 56 36 70 38 91 39 58 40 42 41 43 42 51 43 44 44 50 45
REMARK SMILES IDX 52 46 49 47 45 48 46 49 47 50 48 51 74 52 75 53 83 54 76 55
REMARK SMILES IDX 82 56 84 57 81 58 77 59 78 60 79 61 80 62 59 63 60 64 68 65
REMARK SMILES IDX 61 66 67 67 69 68 66 69 62 70 63 71 64 72 65 73 8 74 9 75
REMARK SMILES IDX 10 76 11 77 12 79 13 80 14 81 31 82 28 83 30 84 32 85 29 86
REMARK SMILES IDX 15 87 16 88 17 89 18 91 19 92 23 93 20 94 22 95 21 96 24 97
REMARK SMILES IDX 25 98 26 99 27 100
REMARK H PARENT 3 8 89 26 57 37 10 78 17 90
REMARK Flexibility Score: inf
ROOT
ATOM      1  C   UNL A   1      32.793  30.232  27.190  1.00  0.00     0.002 C 
ENDROOT
BRANCH   1   2
ATOM      2  C   UNL A   1      31.704  31.038  26.485  1.00  0.00     0.002 C 
BRANCH   2   3
ATOM      3  C   UNL A   1      31.624  32.543  26.779  1.00  0.00     0.021 C 
BRANCH   3   4
ATOM      4  C   UNL A   1      32.880  33.216  27.339  1.00  0.00     0.116 C 
BRANCH   4   5
ATOM      5  N   UNL A   1      32.609  34.520  27.929  1.00  0.00    -0.352 N 
ATOM      6  O   UNL A   1      32.579  36.109  29.524  1.00  0.00    -0.269 OA
ATOM      7  C   UNL A   1      33.101  35.098  29.079  1.00  0.00     0.251 C 
ATOM      8  H   UNL A   1      31.975  35.079  27.424  1.00  0.00     0.163 HD
BRANCH   7   9
ATOM      9  C   UNL A   1      34.266  34.499  29.769  1.00  0.00     0.039 A 
ATOM     10  C   UNL A   1      34.073  33.643  30.855  1.00  0.00     0.014 A 
ATOM     11  C   UNL A   1      35.555  34.746  29.289  1.00  0.00     0.014 A 
ATOM     12  C   UNL A   1      35.173  33.130  31.535  1.00  0.00     0.010 A 
ATOM     13  C   UNL A   1      36.657  34.163  29.926  1.00  0.00     0.010 A 
ATOM     14  C   UNL A   1      36.475  33.361  31.063  1.00  0.00    -0.014 A 
BRANCH  14  15
ATOM     15  C   UNL A   1      37.618  32.677  31.724  1.00  0.00     0.031 A 
ATOM     16  C   UNL A   1      38.091  33.091  33.088  1.00  0.00     0.074 A 
ATOM     17  C   UNL A   1      38.211  31.653  31.079  1.00  0.00     0.049 A 
ATOM     18  N   UNL A   1      39.077  32.608  33.800  1.00  0.00    -0.248 NA
ATOM     19  C   UNL A   1      37.369  34.196  33.735  1.00  0.00     0.031 C 
ATOM     20  C   UNL A   1      37.827  31.165  29.750  1.00  0.00     0.029 A 
ATOM     21  N   UNL A   1      39.242  30.828  31.446  1.00  0.00    -0.354 N 
ATOM     22  C   UNL A   1      39.103  33.352  34.974  1.00  0.00     0.074 A 
ATOM     23  C   UNL A   1      38.055  34.346  34.859  1.00  0.00     0.031 C 
ATOM     24  C   UNL A   1      38.575  30.098  29.439  1.00  0.00     0.029 A 
ATOM     25  C   UNL A   1      39.548  29.876  30.501  1.00  0.00     0.049 A 
ATOM     26  H   UNL A   1      39.717  30.908  32.305  1.00  0.00     0.167 HD
ATOM     27  C   UNL A   1      39.923  33.210  36.048  1.00  0.00     0.034 A 
ATOM     28  C   UNL A   1      40.522  28.947  30.474  1.00  0.00     0.034 A 
ATOM     29  C   UNL A   1      40.968  32.215  36.132  1.00  0.00     0.049 A 
ATOM     30  C   UNL A   1      41.463  28.861  31.645  1.00  0.00     0.074 A 
ATOM     31  C   UNL A   1      41.844  31.971  37.176  1.00  0.00     0.029 A 
ATOM     32  N   UNL A   1      41.289  31.306  35.129  1.00  0.00    -0.354 N 
ATOM     33  N   UNL A   1      41.470  29.568  32.752  1.00  0.00    -0.248 NA
ATOM     34  C   UNL A   1      42.526  27.852  31.564  1.00  0.00     0.031 C 
ATOM     35  C   UNL A   1      42.742  30.976  36.774  1.00  0.00     0.029 A 
ATOM     36  C   UNL A   1      42.372  30.528  35.517  1.00  0.00     0.049 A 
ATOM     37  H   UNL A   1      40.817  31.226  34.269  1.00  0.00     0.167 HD
ATOM     38  C   UNL A   1      42.522  29.068  33.512  1.00  0.00     0.074 A 
ATOM     39  C   UNL A   1      43.111  27.988  32.745  1.00  0.00     0.031 C 
ATOM     40  C   UNL A   1      42.959  29.464  34.735  1.00  0.00     0.034 A 
BRANCH  27  41
ATOM     41  C   UNL A   1      39.754  34.183  37.192  1.00  0.00     0.023 A 
ATOM     42  C   UNL A   1      39.245  33.782  38.441  1.00  0.00     0.031 A 
ATOM     43  C   UNL A   1      40.097  35.538  37.030  1.00  0.00     0.131 A 
ATOM     44  C   UNL A   1      39.033  34.734  39.451  1.00  0.00     0.055 A 
ATOM     45  C   UNL A   1      39.960  36.464  38.067  1.00  0.00     0.041 A 
ATOM     46  F   UNL A   1      40.567  35.989  35.856  1.00  0.00    -0.206 F 
ATOM     47  C   UNL A   1      39.412  36.067  39.282  1.00  0.00     0.022 A 
BRANCH  44  48
ATOM     48  S   UNL A   1      38.120  34.233  40.937  1.00  0.00     0.124 S 
ATOM     49  O   UNL A   1      37.087  33.368  40.373  1.00  0.00    -0.237 OA
ATOM     50  O   UNL A   1      39.148  33.568  41.729  1.00  0.00    -0.237 OA
ATOM     51  O   UNL A   1      37.634  35.498  41.484  1.00  0.00    -0.744 OA
ENDBRANCH  44  48
ENDBRANCH  27  41
BRANCH  28  52
ATOM     52  C   UNL A   1      40.682  28.055  29.289  1.00  0.00     0.023 A 
ATOM     53  C   UNL A   1      41.620  28.344  28.287  1.00  0.00     0.031 A 
ATOM     54  C   UNL A   1      39.872  26.916  29.125  1.00  0.00     0.131 A 
ATOM     55  C   UNL A   1      41.694  27.532  27.144  1.00  0.00     0.055 A 
ATOM     56  C   UNL A   1      39.995  26.075  28.019  1.00  0.00     0.041 A 
ATOM     57  F   UNL A   1      38.958  26.592  30.053  1.00  0.00    -0.206 F 
ATOM     58  C   UNL A   1      40.901  26.390  27.013  1.00  0.00     0.022 A 
BRANCH  55  59
ATOM     59  S   UNL A   1      42.777  28.048  25.784  1.00  0.00     0.124 S 
ATOM     60  O   UNL A   1      42.562  29.491  25.766  1.00  0.00    -0.237 OA
ATOM     61  O   UNL A   1      44.084  27.599  26.249  1.00  0.00    -0.237 OA
ATOM     62  O   UNL A   1      42.243  27.323  24.633  1.00  0.00    -0.744 OA
ENDBRANCH  55  59
ENDBRANCH  28  52
BRANCH  40  63
ATOM     63  C   UNL A   1      44.105  28.683  35.334  1.00  0.00     0.023 A 
ATOM     64  C   UNL A   1      43.890  27.593  36.196  1.00  0.00     0.031 A 
ATOM     65  C   UNL A   1      45.433  29.052  35.053  1.00  0.00     0.131 A 
ATOM     66  C   UNL A   1      44.984  26.953  36.798  1.00  0.00     0.055 A 
ATOM     67  C   UNL A   1      46.518  28.365  35.599  1.00  0.00     0.041 A 
ATOM     68  F   UNL A   1      45.698  30.088  34.242  1.00  0.00    -0.206 F 
ATOM     69  C   UNL A   1      46.296  27.318  36.489  1.00  0.00     0.022 A 
BRANCH  66  70
ATOM     70  S   UNL A   1      44.667  25.706  38.077  1.00  0.00     0.124 S 
ATOM     71  O   UNL A   1      43.640  24.881  37.449  1.00  0.00    -0.237 OA
ATOM     72  O   UNL A   1      45.977  25.082  38.236  1.00  0.00    -0.237 OA
ATOM     73  O   UNL A   1      44.215  26.496  39.221  1.00  0.00    -0.744 OA
ENDBRANCH  66  70
ENDBRANCH  40  63
ENDBRANCH  14  15
ENDBRANCH   7   9
ENDBRANCH   4   5
ENDBRANCH   3   4
ENDBRANCH   2   3
ENDBRANCH   1   2
BRANCH   1  74
ATOM     74  C   UNL A   1      32.782  28.705  27.012  1.00  0.00     0.021 C 
BRANCH  74  75
ATOM     75  C   UNL A   1      31.559  27.815  27.480  1.00  0.00     0.116 C 
BRANCH  75  76
ATOM     76  N   UNL A   1      31.317  26.265  27.077  1.00  0.00    -0.356 N 
ATOM     77  C   UNL A   1      31.681  25.061  26.482  1.00  0.00     0.224 C 
ATOM     78  H   UNL A   1      30.433  26.068  27.463  1.00  0.00     0.163 HD
ATOM     79  O   UNL A   1      30.758  24.231  26.697  1.00  0.00    -0.275 OA
BRANCH  77  80
ATOM     80  C   UNL A   1      32.983  24.353  25.588  1.00  0.00     0.098 C 
ATOM     81  C   UNL A   1      33.735  24.147  24.103  1.00  0.00     0.099 C 
ATOM     82  C   UNL A   1      33.337  22.915  26.185  1.00  0.00     0.025 C 
ATOM     83  C   UNL A   1      34.408  22.750  24.212  1.00  0.00     0.025 C 
ATOM     84  C   UNL A   1      32.699  21.795  25.381  1.00  0.00    -0.027 C 
ATOM     85  C   UNL A   1      34.783  22.704  25.686  1.00  0.00     0.017 C 
ATOM     86  C   UNL A   1      33.348  21.690  24.213  1.00  0.00    -0.027 C 
BRANCH  81  87
ATOM     87  C   UNL A   1      33.415  24.316  22.557  1.00  0.00     0.229 C 
ATOM     88  O   UNL A   1      33.630  23.359  21.803  1.00  0.00    -0.274 OA
ATOM     89  N   UNL A   1      32.844  25.421  21.996  1.00  0.00    -0.323 N 
ATOM     90  H   UNL A   1      32.454  25.334  21.096  1.00  0.00     0.170 HD
BRANCH  89  91
ATOM     91  C   UNL A   1      32.781  26.653  22.611  1.00  0.00     0.084 A 
ATOM     92  C   UNL A   1      33.860  27.548  22.563  1.00  0.00     0.030 A 
ATOM     93  C   UNL A   1      31.585  27.035  23.139  1.00  0.00     0.149 A 
ATOM     94  C   UNL A   1      33.663  28.913  22.818  1.00  0.00     0.002 A 
ATOM     95  C   UNL A   1      31.397  28.431  23.334  1.00  0.00     0.049 A 
ATOM     96  C   UNL A   1      32.403  29.370  23.146  1.00  0.00     0.004 A 
BRANCH  93  97
ATOM     97  O   UNL A   1      30.570  26.181  23.455  1.00  0.00    -0.433 OA
BRANCH  97  98
ATOM     98  C   UNL A   1      29.152  26.106  23.723  1.00  0.00     0.542 C 
ATOM     99  F   UNL A   1      28.907  26.069  25.042  1.00  0.00    -0.167 F 
ATOM    100  F   UNL A   1      28.580  27.248  23.242  1.00  0.00    -0.167 F 
ENDBRANCH  97  98
ENDBRANCH  93  97
ENDBRANCH  89  91
ENDBRANCH  81  87
ENDBRANCH  77  80
ENDBRANCH  75  76
ENDBRANCH  74  75
ENDBRANCH   1  74
TORSDOF 20
ENDMDL
