MODEL 1
REMARK VINA RESULT:      -9.9      0.000      0.000
REMARK SMILES CN(CCOCC1CC1)C(=O)N1CCOC[C@@H]1C(=O)NCCCCCCNC(=O)c1ccc(-c2c3nc(c(-c4cc(S(=O)(=O)[O-])ccc4F)c4ccc([nH]4)c(-c4cc(S(=O)(=O)[O-])ccc4F)c4nc(c(-c5cc(S(=O)(=O)[O-])ccc5F)c5ccc2[nH]5)C=C4)C=C3)cc1
REMARK SMILES IDX 21 1 20 2 18 3 19 4 17 6 12 7 13 8 14 9 16 10 15 11 10 12
REMARK SMILES IDX 11 13 2 14 1 15 3 16 4 17 5 18 6 19 7 20 8 21 9 22 22 23
REMARK SMILES IDX 23 24 24 25 25 26 26 27 27 28 28 29 29 31 30 32 31 33 92 34
REMARK SMILES IDX 32 35 91 36 33 37 34 38 35 39 85 40 36 41 90 42 84 43 86 44
REMARK SMILES IDX 37 45 89 46 83 47 82 48 38 50 70 51 50 52 69 53 51 54 54 55
REMARK SMILES IDX 68 56 87 57 52 58 53 59 67 61 88 62 55 63 39 64 40 65 48 66
REMARK SMILES IDX 41 67 47 68 49 69 46 70 42 71 43 72 44 73 45 74 71 75 72 76
REMARK SMILES IDX 80 77 73 78 79 79 81 80 78 81 74 82 75 83 76 84 77 85 56 86
REMARK SMILES IDX 57 87 65 88 58 89 64 90 66 91 63 92 59 93 60 94 61 95 62 96
REMARK H PARENT 20 5 27 30 86 49 54 60
REMARK Flexibility Score: inf
ROOT
ATOM      1  C   UNL A   1      35.589  23.805  25.218  1.00  0.00     0.116 C 
ENDROOT
BRANCH   1   2
ATOM      2  N   UNL A   1      35.134  23.516  23.871  1.00  0.00    -0.354 N 
ATOM      3  C   UNL A   1      34.112  24.085  23.163  1.00  0.00     0.245 C 
ATOM      4  O   UNL A   1      33.882  23.672  22.023  1.00  0.00    -0.273 OA
ATOM      5  H   UNL A   1      35.631  22.809  23.400  1.00  0.00     0.163 HD
BRANCH   3   6
ATOM      6  C   UNL A   1      33.321  25.251  23.786  1.00  0.00     0.202 C 
ATOM      7  N   UNL A   1      32.083  25.034  24.586  1.00  0.00    -0.308 N 
ATOM      8  C   UNL A   1      31.691  26.296  25.225  1.00  0.00     0.151 C 
ATOM      9  C   UNL A   1      31.466  27.386  24.167  1.00  0.00     0.182 C 
ATOM     10  C   UNL A   1      32.997  26.299  22.704  1.00  0.00     0.195 C 
ATOM     11  O   UNL A   1      32.617  27.550  23.320  1.00  0.00    -0.377 OA
BRANCH   7  12
ATOM     12  C   UNL A   1      31.432  23.828  24.491  1.00  0.00     0.320 C 
ATOM     13  O   UNL A   1      30.730  23.601  23.499  1.00  0.00    -0.248 OA
BRANCH  12  14
ATOM     14  N   UNL A   1      31.533  22.833  25.441  1.00  0.00    -0.325 N 
ATOM     15  C   UNL A   1      30.635  22.968  26.597  1.00  0.00     0.148 C 
BRANCH  14  16
ATOM     16  C   UNL A   1      32.417  21.668  25.497  1.00  0.00     0.149 C 
BRANCH  16  17
ATOM     17  C   UNL A   1      32.312  20.722  24.281  1.00  0.00     0.181 C 
BRANCH  17  18
ATOM     18  O   UNL A   1      32.110  19.341  24.586  1.00  0.00    -0.379 OA
BRANCH  18  19
ATOM     19  C   UNL A   1      33.211  18.722  25.250  1.00  0.00     0.163 C 
BRANCH  19  20
ATOM     20  C   UNL A   1      34.148  18.140  24.249  1.00  0.00     0.015 C 
ATOM     21  C   UNL A   1      34.406  16.655  24.293  1.00  0.00     0.006 C 
ATOM     22  C   UNL A   1      33.673  17.260  23.125  1.00  0.00     0.006 C 
ENDBRANCH  19  20
ENDBRANCH  18  19
ENDBRANCH  17  18
ENDBRANCH  16  17
ENDBRANCH  14  16
ENDBRANCH  12  14
ENDBRANCH   7  12
ENDBRANCH   3   6
ENDBRANCH   1   2
BRANCH   1  23
ATOM     23  C   UNL A   1      36.007  22.548  25.983  1.00  0.00     0.021 C 
BRANCH  23  24
ATOM     24  C   UNL A   1      36.016  21.256  25.159  1.00  0.00     0.002 C 
BRANCH  24  25
ATOM     25  C   UNL A   1      37.333  20.943  24.444  1.00  0.00     0.002 C 
BRANCH  25  26
ATOM     26  C   UNL A   1      38.095  19.735  24.987  1.00  0.00     0.021 C 
BRANCH  26  27
ATOM     27  C   UNL A   1      39.050  20.044  26.136  1.00  0.00     0.116 C 
BRANCH  27  28
ATOM     28  N   UNL A   1      40.222  19.186  26.124  1.00  0.00    -0.352 N 
ATOM     29  C   UNL A   1      41.553  19.525  26.151  1.00  0.00     0.251 C 
ATOM     30  H   UNL A   1      40.035  18.220  26.093  1.00  0.00     0.163 HD
ATOM     31  O   UNL A   1      42.400  18.664  25.934  1.00  0.00    -0.269 OA
BRANCH  29  32
ATOM     32  C   UNL A   1      41.961  20.924  26.422  1.00  0.00     0.039 A 
ATOM     33  C   UNL A   1      42.079  21.812  25.348  1.00  0.00     0.014 A 
ATOM     34  C   UNL A   1      42.255  21.356  27.717  1.00  0.00     0.014 A 
ATOM     35  C   UNL A   1      42.457  23.136  25.581  1.00  0.00     0.010 A 
ATOM     36  C   UNL A   1      42.544  22.696  27.958  1.00  0.00     0.010 A 
ATOM     37  C   UNL A   1      42.673  23.597  26.890  1.00  0.00    -0.014 A 
BRANCH  37  38
ATOM     38  C   UNL A   1      43.090  25.000  27.153  1.00  0.00     0.031 A 
ATOM     39  C   UNL A   1      42.139  25.953  27.827  1.00  0.00     0.074 A 
ATOM     40  C   UNL A   1      44.307  25.426  26.764  1.00  0.00     0.049 A 
ATOM     41  N   UNL A   1      42.299  27.220  28.120  1.00  0.00    -0.248 NA
ATOM     42  C   UNL A   1      40.819  25.417  28.190  1.00  0.00     0.031 C 
ATOM     43  C   UNL A   1      45.309  24.607  26.077  1.00  0.00     0.029 A 
ATOM     44  N   UNL A   1      44.914  26.649  26.896  1.00  0.00    -0.354 N 
ATOM     45  C   UNL A   1      41.099  27.630  28.695  1.00  0.00     0.074 A 
ATOM     46  C   UNL A   1      40.197  26.501  28.624  1.00  0.00     0.031 C 
ATOM     47  C   UNL A   1      46.420  25.338  25.892  1.00  0.00     0.029 A 
ATOM     48  C   UNL A   1      46.197  26.688  26.402  1.00  0.00     0.049 A 
ATOM     49  H   UNL A   1      44.472  27.428  27.306  1.00  0.00     0.167 HD
ATOM     50  C   UNL A   1      40.788  28.823  29.263  1.00  0.00     0.034 A 
ATOM     51  C   UNL A   1      47.093  27.695  26.367  1.00  0.00     0.034 A 
ATOM     52  C   UNL A   1      41.701  29.940  29.325  1.00  0.00     0.049 A 
ATOM     53  C   UNL A   1      46.709  29.032  26.953  1.00  0.00     0.074 A 
ATOM     54  C   UNL A   1      41.505  31.185  29.895  1.00  0.00     0.029 A 
ATOM     55  N   UNL A   1      42.983  29.950  28.787  1.00  0.00    -0.354 N 
ATOM     56  N   UNL A   1      45.584  29.393  27.528  1.00  0.00    -0.248 NA
ATOM     57  C   UNL A   1      47.725  30.090  26.897  1.00  0.00     0.031 C 
ATOM     58  C   UNL A   1      42.636  31.970  29.638  1.00  0.00     0.029 A 
ATOM     59  C   UNL A   1      43.577  31.187  28.987  1.00  0.00     0.049 A 
ATOM     60  H   UNL A   1      43.409  29.188  28.331  1.00  0.00     0.167 HD
ATOM     61  C   UNL A   1      45.778  30.708  27.945  1.00  0.00     0.074 A 
ATOM     62  C   UNL A   1      47.129  31.067  27.561  1.00  0.00     0.031 C 
ATOM     63  C   UNL A   1      44.923  31.539  28.596  1.00  0.00     0.034 A 
BRANCH  50  64
ATOM     64  C   UNL A   1      39.393  28.972  29.831  1.00  0.00     0.023 A 
ATOM     65  C   UNL A   1      38.347  29.538  29.078  1.00  0.00     0.031 A 
ATOM     66  C   UNL A   1      39.116  28.607  31.160  1.00  0.00     0.131 A 
ATOM     67  C   UNL A   1      37.116  29.823  29.687  1.00  0.00     0.055 A 
ATOM     68  C   UNL A   1      37.855  28.798  31.730  1.00  0.00     0.041 A 
ATOM     69  F   UNL A   1      40.073  28.082  31.940  1.00  0.00    -0.206 F 
ATOM     70  C   UNL A   1      36.852  29.430  31.000  1.00  0.00     0.022 A 
BRANCH  67  71
ATOM     71  S   UNL A   1      35.945  30.888  28.803  1.00  0.00     0.124 S 
ATOM     72  O   UNL A   1      35.230  29.917  27.976  1.00  0.00    -0.237 OA
ATOM     73  O   UNL A   1      35.180  31.489  29.889  1.00  0.00    -0.237 OA
ATOM     74  O   UNL A   1      36.808  31.806  28.062  1.00  0.00    -0.744 OA
ENDBRANCH  67  71
ENDBRANCH  50  64
BRANCH  51  75
ATOM     75  C   UNL A   1      48.447  27.485  25.778  1.00  0.00     0.023 A 
ATOM     76  C   UNL A   1      48.712  27.835  24.445  1.00  0.00     0.031 A 
ATOM     77  C   UNL A   1      49.482  26.892  26.522  1.00  0.00     0.131 A 
ATOM     78  C   UNL A   1      49.963  27.544  23.879  1.00  0.00     0.055 A 
ATOM     79  C   UNL A   1      50.744  26.656  25.973  1.00  0.00     0.041 A 
ATOM     80  F   UNL A   1      49.283  26.540  27.803  1.00  0.00    -0.206 F 
ATOM     81  C   UNL A   1      50.986  26.971  24.639  1.00  0.00     0.022 A 
BRANCH  78  82
ATOM     82  S   UNL A   1      50.206  27.843  22.107  1.00  0.00     0.124 S 
ATOM     83  O   UNL A   1      48.833  27.824  21.614  1.00  0.00    -0.237 OA
ATOM     84  O   UNL A   1      50.870  29.142  22.107  1.00  0.00    -0.237 OA
ATOM     85  O   UNL A   1      51.038  26.719  21.684  1.00  0.00    -0.744 OA
ENDBRANCH  78  82
ENDBRANCH  51  75
BRANCH  63  86
ATOM     86  C   UNL A   1      45.452  32.899  28.991  1.00  0.00     0.023 A 
ATOM     87  C   UNL A   1      45.326  34.023  28.155  1.00  0.00     0.031 A 
ATOM     88  C   UNL A   1      46.117  33.064  30.219  1.00  0.00     0.131 A 
ATOM     89  C   UNL A   1      45.920  35.240  28.525  1.00  0.00     0.055 A 
ATOM     90  C   UNL A   1      46.642  34.295  30.615  1.00  0.00     0.041 A 
ATOM     91  F   UNL A   1      46.272  32.027  31.058  1.00  0.00    -0.206 F 
ATOM     92  C   UNL A   1      46.560  35.388  29.757  1.00  0.00     0.022 A 
BRANCH  89  93
ATOM     93  S   UNL A   1      45.952  36.594  27.318  1.00  0.00     0.124 S 
ATOM     94  O   UNL A   1      47.010  37.447  27.848  1.00  0.00    -0.237 OA
ATOM     95  O   UNL A   1      46.260  35.896  26.074  1.00  0.00    -0.237 OA
ATOM     96  O   UNL A   1      44.605  37.156  27.396  1.00  0.00    -0.744 OA
ENDBRANCH  89  93
ENDBRANCH  63  86
ENDBRANCH  37  38
ENDBRANCH  29  32
ENDBRANCH  27  28
ENDBRANCH  26  27
ENDBRANCH  25  26
ENDBRANCH  24  25
ENDBRANCH  23  24
ENDBRANCH   1  23
TORSDOF 23
ENDMDL
MODEL 2
REMARK VINA RESULT:      -9.6      1.657      7.535
REMARK SMILES CN(CCOCC1CC1)C(=O)N1CCOC[C@@H]1C(=O)NCCCCCCNC(=O)c1ccc(-c2c3nc(c(-c4cc(S(=O)(=O)[O-])ccc4F)c4ccc([nH]4)c(-c4cc(S(=O)(=O)[O-])ccc4F)c4nc(c(-c5cc(S(=O)(=O)[O-])ccc5F)c5ccc2[nH]5)C=C4)C=C3)cc1
REMARK SMILES IDX 21 1 20 2 18 3 19 4 17 6 12 7 13 8 14 9 16 10 15 11 10 12
REMARK SMILES IDX 11 13 2 14 1 15 3 16 4 17 5 18 6 19 7 20 8 21 9 22 22 23
REMARK SMILES IDX 23 24 24 25 25 26 26 27 27 28 28 29 29 31 30 32 31 33 92 34
REMARK SMILES IDX 32 35 91 36 33 37 34 38 35 39 85 40 36 41 90 42 84 43 86 44
REMARK SMILES IDX 37 45 89 46 83 47 82 48 38 50 70 51 50 52 69 53 51 54 54 55
REMARK SMILES IDX 68 56 87 57 52 58 53 59 67 61 88 62 55 63 39 64 40 65 48 66
REMARK SMILES IDX 41 67 47 68 49 69 46 70 42 71 43 72 44 73 45 74 71 75 72 76
REMARK SMILES IDX 80 77 73 78 79 79 81 80 78 81 74 82 75 83 76 84 77 85 56 86
REMARK SMILES IDX 57 87 65 88 58 89 64 90 66 91 63 92 59 93 60 94 61 95 62 96
REMARK H PARENT 20 5 27 30 86 49 54 60
REMARK Flexibility Score: inf
ROOT
ATOM      1  C   UNL A   1      35.446  24.106  24.937  1.00  0.00     0.116 C 
ENDROOT
BRANCH   1   2
ATOM      2  N   UNL A   1      34.979  23.572  23.672  1.00  0.00    -0.354 N 
ATOM      3  C   UNL A   1      33.935  23.986  22.891  1.00  0.00     0.245 C 
ATOM      4  O   UNL A   1      33.697  23.371  21.848  1.00  0.00    -0.273 OA
ATOM      5  H   UNL A   1      35.484  22.801  23.325  1.00  0.00     0.163 HD
BRANCH   3   6
ATOM      6  C   UNL A   1      33.128  25.230  23.310  1.00  0.00     0.202 C 
ATOM      7  N   UNL A   1      31.918  25.138  24.173  1.00  0.00    -0.308 N 
ATOM      8  C   UNL A   1      31.507  26.488  24.577  1.00  0.00     0.151 C 
ATOM      9  C   UNL A   1      31.225  27.357  23.342  1.00  0.00     0.182 C 
ATOM     10  C   UNL A   1      32.748  26.049  22.063  1.00  0.00     0.195 C 
ATOM     11  O   UNL A   1      32.349  27.385  22.446  1.00  0.00    -0.377 OA
BRANCH   7  12
ATOM     12  C   UNL A   1      31.297  23.922  24.324  1.00  0.00     0.320 C 
ATOM     13  O   UNL A   1      30.621  23.473  23.392  1.00  0.00    -0.248 OA
BRANCH  12  14
ATOM     14  N   UNL A   1      31.404  23.150  25.463  1.00  0.00    -0.325 N 
ATOM     15  C   UNL A   1      30.320  23.314  26.442  1.00  0.00     0.148 C 
BRANCH  14  16
ATOM     16  C   UNL A   1      32.445  22.205  25.868  1.00  0.00     0.149 C 
BRANCH  16  17
ATOM     17  C   UNL A   1      32.653  21.022  24.899  1.00  0.00     0.181 C 
BRANCH  17  18
ATOM     18  O   UNL A   1      32.098  19.774  25.318  1.00  0.00    -0.379 OA
BRANCH  18  19
ATOM     19  C   UNL A   1      32.998  18.671  25.216  1.00  0.00     0.163 C 
BRANCH  19  20
ATOM     20  C   UNL A   1      32.494  17.693  24.212  1.00  0.00     0.015 C 
ATOM     21  C   UNL A   1      32.801  17.945  22.756  1.00  0.00     0.006 C 
ATOM     22  C   UNL A   1      33.415  16.767  23.464  1.00  0.00     0.006 C 
ENDBRANCH  19  20
ENDBRANCH  18  19
ENDBRANCH  17  18
ENDBRANCH  16  17
ENDBRANCH  14  16
ENDBRANCH  12  14
ENDBRANCH   7  12
ENDBRANCH   3   6
ENDBRANCH   1   2
BRANCH   1  23
ATOM     23  C   UNL A   1      36.049  23.032  25.845  1.00  0.00     0.021 C 
BRANCH  23  24
ATOM     24  C   UNL A   1      36.502  21.753  25.131  1.00  0.00     0.002 C 
BRANCH  24  25
ATOM     25  C   UNL A   1      38.016  21.587  24.982  1.00  0.00     0.002 C 
BRANCH  25  26
ATOM     26  C   UNL A   1      38.530  20.156  25.136  1.00  0.00     0.021 C 
BRANCH  26  27
ATOM     27  C   UNL A   1      39.363  19.907  26.389  1.00  0.00     0.116 C 
BRANCH  27  28
ATOM     28  N   UNL A   1      40.605  19.213  26.096  1.00  0.00    -0.352 N 
ATOM     29  C   UNL A   1      41.877  19.716  25.968  1.00  0.00     0.251 C 
ATOM     30  H   UNL A   1      40.524  18.240  25.972  1.00  0.00     0.163 HD
ATOM     31  O   UNL A   1      42.768  18.999  25.521  1.00  0.00    -0.269 OA
BRANCH  29  32
ATOM     32  C   UNL A   1      42.167  21.119  26.347  1.00  0.00     0.039 A 
ATOM     33  C   UNL A   1      42.389  21.421  27.694  1.00  0.00     0.014 A 
ATOM     34  C   UNL A   1      42.193  22.138  25.392  1.00  0.00     0.014 A 
ATOM     35  C   UNL A   1      42.670  22.736  28.073  1.00  0.00     0.010 A 
ATOM     36  C   UNL A   1      42.561  23.429  25.758  1.00  0.00     0.010 A 
ATOM     37  C   UNL A   1      42.780  23.749  27.106  1.00  0.00    -0.014 A 
BRANCH  37  38
ATOM     38  C   UNL A   1      43.063  25.156  27.496  1.00  0.00     0.031 A 
ATOM     39  C   UNL A   1      44.438  25.734  27.279  1.00  0.00     0.074 A 
ATOM     40  C   UNL A   1      42.101  25.906  28.068  1.00  0.00     0.049 A 
ATOM     41  N   UNL A   1      44.896  26.925  27.574  1.00  0.00    -0.248 NA
ATOM     42  C   UNL A   1      45.438  24.839  26.679  1.00  0.00     0.031 C 
ATOM     43  C   UNL A   1      40.739  25.453  28.356  1.00  0.00     0.029 A 
ATOM     44  N   UNL A   1      42.116  27.207  28.501  1.00  0.00    -0.354 N 
ATOM     45  C   UNL A   1      46.237  26.918  27.202  1.00  0.00     0.074 A 
ATOM     46  C   UNL A   1      46.534  25.577  26.745  1.00  0.00     0.031 C 
ATOM     47  C   UNL A   1      40.038  26.474  28.874  1.00  0.00     0.029 A 
ATOM     48  C   UNL A   1      40.909  27.639  29.000  1.00  0.00     0.049 A 
ATOM     49  H   UNL A   1      42.917  27.779  28.460  1.00  0.00     0.167 HD
ATOM     50  C   UNL A   1      47.129  27.940  27.203  1.00  0.00     0.034 A 
ATOM     51  C   UNL A   1      40.546  28.838  29.498  1.00  0.00     0.034 A 
ATOM     52  C   UNL A   1      46.815  29.273  27.663  1.00  0.00     0.049 A 
ATOM     53  C   UNL A   1      41.568  29.947  29.544  1.00  0.00     0.074 A 
ATOM     54  C   UNL A   1      47.628  30.392  27.689  1.00  0.00     0.029 A 
ATOM     55  N   UNL A   1      45.589  29.665  28.188  1.00  0.00    -0.354 N 
ATOM     56  N   UNL A   1      42.822  29.938  29.152  1.00  0.00    -0.248 NA
ATOM     57  C   UNL A   1      41.116  31.235  30.087  1.00  0.00     0.031 C 
ATOM     58  C   UNL A   1      46.921  31.436  28.296  1.00  0.00     0.029 A 
ATOM     59  C   UNL A   1      45.634  30.998  28.566  1.00  0.00     0.049 A 
ATOM     60  H   UNL A   1      44.801  29.080  28.277  1.00  0.00     0.167 HD
ATOM     61  C   UNL A   1      43.293  31.232  29.358  1.00  0.00     0.074 A 
ATOM     62  C   UNL A   1      42.185  31.993  29.900  1.00  0.00     0.031 C 
ATOM     63  C   UNL A   1      44.525  31.748  29.112  1.00  0.00     0.034 A 
BRANCH  50  64
ATOM     64  C   UNL A   1      48.529  27.634  26.717  1.00  0.00     0.023 A 
ATOM     65  C   UNL A   1      49.585  27.396  27.616  1.00  0.00     0.031 A 
ATOM     66  C   UNL A   1      48.831  27.643  25.344  1.00  0.00     0.131 A 
ATOM     67  C   UNL A   1      50.901  27.288  27.142  1.00  0.00     0.055 A 
ATOM     68  C   UNL A   1      50.128  27.430  24.872  1.00  0.00     0.041 A 
ATOM     69  F   UNL A   1      47.874  27.884  24.434  1.00  0.00    -0.206 F 
ATOM     70  C   UNL A   1      51.178  27.274  25.774  1.00  0.00     0.022 A 
BRANCH  67  71
ATOM     71  S   UNL A   1      52.258  27.368  28.343  1.00  0.00     0.124 S 
ATOM     72  O   UNL A   1      53.428  27.273  27.472  1.00  0.00    -0.237 OA
ATOM     73  O   UNL A   1      52.039  28.660  28.983  1.00  0.00    -0.237 OA
ATOM     74  O   UNL A   1      52.032  26.202  29.194  1.00  0.00    -0.744 OA
ENDBRANCH  67  71
ENDBRANCH  50  64
BRANCH  51  75
ATOM     75  C   UNL A   1      39.152  29.069  29.975  1.00  0.00     0.023 A 
ATOM     76  C   UNL A   1      38.189  29.640  29.126  1.00  0.00     0.031 A 
ATOM     77  C   UNL A   1      38.771  28.767  31.293  1.00  0.00     0.131 A 
ATOM     78  C   UNL A   1      36.909  29.938  29.618  1.00  0.00     0.055 A 
ATOM     79  C   UNL A   1      37.478  29.011  31.763  1.00  0.00     0.041 A 
ATOM     80  F   UNL A   1      39.651  28.217  32.146  1.00  0.00    -0.206 F 
ATOM     81  C   UNL A   1      36.543  29.613  30.927  1.00  0.00     0.022 A 
BRANCH  78  82
ATOM     82  S   UNL A   1      35.756  30.840  28.548  1.00  0.00     0.124 S 
ATOM     83  O   UNL A   1      36.668  31.631  27.731  1.00  0.00    -0.237 OA
ATOM     84  O   UNL A   1      35.061  29.753  27.867  1.00  0.00    -0.237 OA
ATOM     85  O   UNL A   1      34.942  31.601  29.493  1.00  0.00    -0.744 OA
ENDBRANCH  78  82
ENDBRANCH  51  75
BRANCH  63  86
ATOM     86  C   UNL A   1      44.716  33.226  29.366  1.00  0.00     0.023 A 
ATOM     87  C   UNL A   1      44.356  34.202  28.419  1.00  0.00     0.031 A 
ATOM     88  C   UNL A   1      45.295  33.662  30.572  1.00  0.00     0.131 A 
ATOM     89  C   UNL A   1      44.643  35.553  28.663  1.00  0.00     0.055 A 
ATOM     90  C   UNL A   1      45.512  35.014  30.840  1.00  0.00     0.041 A 
ATOM     91  F   UNL A   1      45.664  32.778  31.513  1.00  0.00    -0.206 F 
ATOM     92  C   UNL A   1      45.201  35.968  29.875  1.00  0.00     0.022 A 
BRANCH  89  93
ATOM     93  S   UNL A   1      44.393  36.752  27.324  1.00  0.00     0.124 S 
ATOM     94  O   UNL A   1      43.291  36.150  26.581  1.00  0.00    -0.237 OA
ATOM     95  O   UNL A   1      44.077  37.974  28.055  1.00  0.00    -0.237 OA
ATOM     96  O   UNL A   1      45.678  36.761  26.628  1.00  0.00    -0.744 OA
ENDBRANCH  89  93
ENDBRANCH  63  86
ENDBRANCH  37  38
ENDBRANCH  29  32
ENDBRANCH  27  28
ENDBRANCH  26  27
ENDBRANCH  25  26
ENDBRANCH  24  25
ENDBRANCH  23  24
ENDBRANCH   1  23
TORSDOF 23
ENDMDL
MODEL 3
REMARK VINA RESULT:      -9.4      1.957      3.870
REMARK SMILES CN(CCOCC1CC1)C(=O)N1CCOC[C@@H]1C(=O)NCCCCCCNC(=O)c1ccc(-c2c3nc(c(-c4cc(S(=O)(=O)[O-])ccc4F)c4ccc([nH]4)c(-c4cc(S(=O)(=O)[O-])ccc4F)c4nc(c(-c5cc(S(=O)(=O)[O-])ccc5F)c5ccc2[nH]5)C=C4)C=C3)cc1
REMARK SMILES IDX 21 1 20 2 18 3 19 4 17 6 12 7 13 8 14 9 16 10 15 11 10 12
REMARK SMILES IDX 11 13 2 14 1 15 3 16 4 17 5 18 6 19 7 20 8 21 9 22 22 23
REMARK SMILES IDX 23 24 24 25 25 26 26 27 27 28 28 29 29 31 30 32 31 33 92 34
REMARK SMILES IDX 32 35 91 36 33 37 34 38 35 39 85 40 36 41 90 42 84 43 86 44
REMARK SMILES IDX 37 45 89 46 83 47 82 48 38 50 70 51 50 52 69 53 51 54 54 55
REMARK SMILES IDX 68 56 87 57 52 58 53 59 67 61 88 62 55 63 39 64 40 65 48 66
REMARK SMILES IDX 41 67 47 68 49 69 46 70 42 71 43 72 44 73 45 74 71 75 72 76
REMARK SMILES IDX 80 77 73 78 79 79 81 80 78 81 74 82 75 83 76 84 77 85 56 86
REMARK SMILES IDX 57 87 65 88 58 89 64 90 66 91 63 92 59 93 60 94 61 95 62 96
REMARK H PARENT 20 5 27 30 86 49 54 60
REMARK Flexibility Score: inf
ROOT
ATOM      1  C   UNL A   1      35.667  23.698  25.624  1.00  0.00     0.116 C 
ENDROOT
BRANCH   1   2
ATOM      2  N   UNL A   1      34.992  23.106  26.764  1.00  0.00    -0.354 N 
ATOM      3  C   UNL A   1      34.060  22.105  26.792  1.00  0.00     0.245 C 
ATOM      4  O   UNL A   1      33.595  21.761  27.883  1.00  0.00    -0.273 OA
ATOM      5  H   UNL A   1      35.239  23.477  27.641  1.00  0.00     0.163 HD
BRANCH   3   6
ATOM      6  C   UNL A   1      33.661  21.409  25.477  1.00  0.00     0.202 C 
ATOM      7  N   UNL A   1      32.458  21.813  24.697  1.00  0.00    -0.308 N 
ATOM      8  C   UNL A   1      32.469  21.129  23.399  1.00  0.00     0.151 C 
ATOM      9  C   UNL A   1      32.498  19.605  23.595  1.00  0.00     0.182 C 
ATOM     10  C   UNL A   1      33.581  19.887  25.696  1.00  0.00     0.195 C 
ATOM     11  O   UNL A   1      33.600  19.198  24.424  1.00  0.00    -0.377 OA
BRANCH   7  12
ATOM     12  C   UNL A   1      31.492  22.575  25.309  1.00  0.00     0.320 C 
ATOM     13  O   UNL A   1      30.595  22.010  25.945  1.00  0.00    -0.248 OA
BRANCH  12  14
ATOM     14  N   UNL A   1      31.476  23.954  25.273  1.00  0.00    -0.325 N 
ATOM     15  C   UNL A   1      32.292  24.569  24.217  1.00  0.00     0.148 C 
BRANCH  14  16
ATOM     16  C   UNL A   1      30.791  24.913  26.141  1.00  0.00     0.149 C 
BRANCH  16  17
ATOM     17  C   UNL A   1      31.316  26.361  26.040  1.00  0.00     0.181 C 
BRANCH  17  18
ATOM     18  O   UNL A   1      31.122  27.173  27.199  1.00  0.00    -0.379 OA
BRANCH  18  19
ATOM     19  C   UNL A   1      32.180  28.097  27.449  1.00  0.00     0.163 C 
BRANCH  19  20
ATOM     20  C   UNL A   1      31.766  29.468  27.042  1.00  0.00     0.015 C 
ATOM     21  C   UNL A   1      32.809  30.558  27.042  1.00  0.00     0.006 C 
ATOM     22  C   UNL A   1      32.210  30.087  25.744  1.00  0.00     0.006 C 
ENDBRANCH  19  20
ENDBRANCH  18  19
ENDBRANCH  17  18
ENDBRANCH  16  17
ENDBRANCH  14  16
ENDBRANCH  12  14
ENDBRANCH   7  12
ENDBRANCH   3   6
ENDBRANCH   1   2
BRANCH   1  23
ATOM     23  C   UNL A   1      37.189  23.563  25.705  1.00  0.00     0.021 C 
BRANCH  23  24
ATOM     24  C   UNL A   1      37.737  22.165  25.399  1.00  0.00     0.002 C 
BRANCH  24  25
ATOM     25  C   UNL A   1      39.066  21.820  26.075  1.00  0.00     0.002 C 
BRANCH  25  26
ATOM     26  C   UNL A   1      39.492  20.357  25.961  1.00  0.00     0.021 C 
BRANCH  26  27
ATOM     27  C   UNL A   1      40.681  19.966  26.833  1.00  0.00     0.116 C 
BRANCH  27  28
ATOM     28  N   UNL A   1      41.750  19.352  26.065  1.00  0.00    -0.352 N 
ATOM     29  C   UNL A   1      42.876  19.923  25.525  1.00  0.00     0.251 C 
ATOM     30  H   UNL A   1      41.653  18.385  25.910  1.00  0.00     0.163 HD
ATOM     31  O   UNL A   1      43.562  19.277  24.738  1.00  0.00    -0.269 OA
BRANCH  29  32
ATOM     32  C   UNL A   1      43.249  21.314  25.873  1.00  0.00     0.039 A 
ATOM     33  C   UNL A   1      43.049  22.324  24.927  1.00  0.00     0.014 A 
ATOM     34  C   UNL A   1      43.819  21.623  27.111  1.00  0.00     0.014 A 
ATOM     35  C   UNL A   1      43.387  23.643  25.238  1.00  0.00     0.010 A 
ATOM     36  C   UNL A   1      44.071  22.949  27.451  1.00  0.00     0.010 A 
ATOM     37  C   UNL A   1      43.883  23.972  26.510  1.00  0.00    -0.014 A 
BRANCH  37  38
ATOM     38  C   UNL A   1      44.262  25.369  26.850  1.00  0.00     0.031 A 
ATOM     39  C   UNL A   1      43.239  26.302  27.446  1.00  0.00     0.074 A 
ATOM     40  C   UNL A   1      45.510  25.810  26.601  1.00  0.00     0.049 A 
ATOM     41  N   UNL A   1      43.360  27.561  27.786  1.00  0.00    -0.248 NA
ATOM     42  C   UNL A   1      41.892  25.751  27.656  1.00  0.00     0.031 C 
ATOM     43  C   UNL A   1      46.583  25.013  26.002  1.00  0.00     0.029 A 
ATOM     44  N   UNL A   1      46.092  27.031  26.827  1.00  0.00    -0.354 N 
ATOM     45  C   UNL A   1      42.105  27.952  28.242  1.00  0.00     0.074 A 
ATOM     46  C   UNL A   1      41.222  26.822  28.050  1.00  0.00     0.031 C 
ATOM     47  C   UNL A   1      47.703  25.751  25.952  1.00  0.00     0.029 A 
ATOM     48  C   UNL A   1      47.420  27.087  26.469  1.00  0.00     0.049 A 
ATOM     49  H   UNL A   1      45.605  27.798  27.208  1.00  0.00     0.167 HD
ATOM     50  C   UNL A   1      41.729  29.128  28.805  1.00  0.00     0.034 A 
ATOM     51  C   UNL A   1      48.308  28.098  26.553  1.00  0.00     0.034 A 
ATOM     52  C   UNL A   1      42.624  30.247  28.990  1.00  0.00     0.049 A 
ATOM     53  C   UNL A   1      47.857  29.418  27.130  1.00  0.00     0.074 A 
ATOM     54  C   UNL A   1      42.362  31.476  29.568  1.00  0.00     0.029 A 
ATOM     55  N   UNL A   1      43.955  30.275  28.589  1.00  0.00    -0.354 N 
ATOM     56  N   UNL A   1      46.676  29.761  27.594  1.00  0.00    -0.248 NA
ATOM     57  C   UNL A   1      48.866  30.481  27.207  1.00  0.00     0.031 C 
ATOM     58  C   UNL A   1      43.509  32.271  29.449  1.00  0.00     0.029 A 
ATOM     59  C   UNL A   1      44.517  31.509  28.881  1.00  0.00     0.049 A 
ATOM     60  H   UNL A   1      44.430  29.527  28.160  1.00  0.00     0.167 HD
ATOM     61  C   UNL A   1      46.818  31.065  28.061  1.00  0.00     0.074 A 
ATOM     62  C   UNL A   1      48.199  31.439  27.830  1.00  0.00     0.031 C 
ATOM     63  C   UNL A   1      45.894  31.876  28.640  1.00  0.00     0.034 A 
BRANCH  50  64
ATOM     64  C   UNL A   1      40.282  29.258  29.228  1.00  0.00     0.023 A 
ATOM     65  C   UNL A   1      39.902  29.197  30.582  1.00  0.00     0.031 A 
ATOM     66  C   UNL A   1      39.261  29.380  28.270  1.00  0.00     0.131 A 
ATOM     67  C   UNL A   1      38.544  29.145  30.930  1.00  0.00     0.055 A 
ATOM     68  C   UNL A   1      37.912  29.434  28.631  1.00  0.00     0.041 A 
ATOM     69  F   UNL A   1      39.552  29.424  26.960  1.00  0.00    -0.206 F 
ATOM     70  C   UNL A   1      37.546  29.293  29.967  1.00  0.00     0.022 A 
BRANCH  67  71
ATOM     71  S   UNL A   1      38.108  28.683  32.629  1.00  0.00     0.124 S 
ATOM     72  O   UNL A   1      36.733  29.170  32.722  1.00  0.00    -0.237 OA
ATOM     73  O   UNL A   1      38.275  27.235  32.616  1.00  0.00    -0.237 OA
ATOM     74  O   UNL A   1      39.075  29.417  33.443  1.00  0.00    -0.744 OA
ENDBRANCH  67  71
ENDBRANCH  50  64
BRANCH  51  75
ATOM     75  C   UNL A   1      49.717  27.908  26.104  1.00  0.00     0.023 A 
ATOM     76  C   UNL A   1      50.060  28.029  24.748  1.00  0.00     0.031 A 
ATOM     77  C   UNL A   1      50.732  27.559  27.011  1.00  0.00     0.131 A 
ATOM     78  C   UNL A   1      51.372  27.755  24.330  1.00  0.00     0.055 A 
ATOM     79  C   UNL A   1      52.049  27.343  26.599  1.00  0.00     0.041 A 
ATOM     80  F   UNL A   1      50.459  27.432  28.321  1.00  0.00    -0.206 F 
ATOM     81  C   UNL A   1      52.371  27.427  25.248  1.00  0.00     0.022 A 
BRANCH  78  82
ATOM     82  S   UNL A   1      51.731  27.743  22.552  1.00  0.00     0.124 S 
ATOM     83  O   UNL A   1      52.824  26.780  22.478  1.00  0.00    -0.237 OA
ATOM     84  O   UNL A   1      50.456  27.314  21.988  1.00  0.00    -0.237 OA
ATOM     85  O   UNL A   1      52.099  29.129  22.271  1.00  0.00    -0.744 OA
ENDBRANCH  78  82
ENDBRANCH  51  75
BRANCH  63  86
ATOM     86  C   UNL A   1      46.370  33.227  29.123  1.00  0.00     0.023 A 
ATOM     87  C   UNL A   1      46.367  34.362  28.293  1.00  0.00     0.031 A 
ATOM     88  C   UNL A   1      46.862  33.372  30.433  1.00  0.00     0.131 A 
ATOM     89  C   UNL A   1      46.910  35.570  28.757  1.00  0.00     0.055 A 
ATOM     90  C   UNL A   1      47.333  34.594  30.914  1.00  0.00     0.041 A 
ATOM     91  F   UNL A   1      46.894  32.323  31.271  1.00  0.00    -0.206 F 
ATOM     92  C   UNL A   1      47.376  35.699  30.068  1.00  0.00     0.022 A 
BRANCH  89  93
ATOM     93  S   UNL A   1      47.115  36.939  27.584  1.00  0.00     0.124 S 
ATOM     94  O   UNL A   1      48.567  37.028  27.472  1.00  0.00    -0.237 OA
ATOM     95  O   UNL A   1      46.413  36.446  26.404  1.00  0.00    -0.237 OA
ATOM     96  O   UNL A   1      46.475  38.067  28.259  1.00  0.00    -0.744 OA
ENDBRANCH  89  93
ENDBRANCH  63  86
ENDBRANCH  37  38
ENDBRANCH  29  32
ENDBRANCH  27  28
ENDBRANCH  26  27
ENDBRANCH  25  26
ENDBRANCH  24  25
ENDBRANCH  23  24
ENDBRANCH   1  23
TORSDOF 23
ENDMDL
