MODEL 1
REMARK VINA RESULT:     -12.9      0.000      0.000
REMARK SMILES O=C(NCCCCCCNC(=O)c1cc2n(n1)[C@@H](C(F)(F)F)C[C@H](c1ccc3c(c1)OCO3)N2)c1ccc(-c2c3nc(c(-c4cc(S(=O)(=O)[O-])ccc4F)c4ccc([nH]4)c(-c4cc(S(=O)(=O)[O-])ccc4F)c4nc(c(-c5cc(S(=O)(=O)[O-])ccc5F)c5ccc2[nH]5)C=C4)C=C3)cc1
REMARK SMILES IDX 5 1 4 2 3 3 1 4 2 5 35 7 36 8 97 9 37 10 96 11 38 12 39 13
REMARK SMILES IDX 40 14 90 15 41 16 95 17 89 18 91 19 42 20 94 21 88 22 87 23
REMARK SMILES IDX 43 25 75 26 55 27 74 28 56 29 59 30 73 31 92 32 57 33 58 34
REMARK SMILES IDX 72 36 93 37 60 38 44 39 45 40 53 41 46 42 52 43 54 44 51 45
REMARK SMILES IDX 47 46 48 47 49 48 50 49 76 50 77 51 85 52 78 53 84 54 86 55
REMARK SMILES IDX 83 56 79 57 80 58 81 59 82 60 61 61 62 62 70 63 63 64 69 65
REMARK SMILES IDX 71 66 68 67 64 68 65 69 66 70 67 71 6 72 7 73 8 74 9 75
REMARK SMILES IDX 10 76 11 77 12 79 13 80 14 81 17 82 15 83 16 84 34 85 18 86
REMARK SMILES IDX 24 87 23 89 19 90 20 91 21 92 22 93 25 94 26 95 30 96 27 97
REMARK SMILES IDX 29 98 28 99 31 100 33 101 32 102
REMARK H PARENT 3 6 91 24 59 35 10 78 34 88
REMARK Flexibility Score: inf
ROOT
ATOM      1  C   UNL A   1      36.280  23.304  23.739  1.00  0.00     0.021 C 
ENDROOT
BRANCH   1   2
ATOM      2  C   UNL A   1      37.044  23.682  24.997  1.00  0.00     0.116 C 
BRANCH   2   3
ATOM      3  N   UNL A   1      37.926  22.622  25.466  1.00  0.00    -0.352 N 
ATOM      4  O   UNL A   1      39.785  21.749  26.414  1.00  0.00    -0.269 OA
ATOM      5  C   UNL A   1      39.071  22.729  26.222  1.00  0.00     0.251 C 
ATOM      6  H   UNL A   1      37.668  21.707  25.209  1.00  0.00     0.163 HD
BRANCH   5   7
ATOM      7  C   UNL A   1      39.442  24.049  26.779  1.00  0.00     0.039 A 
ATOM      8  C   UNL A   1      40.096  24.980  25.972  1.00  0.00     0.014 A 
ATOM      9  C   UNL A   1      39.179  24.342  28.120  1.00  0.00     0.014 A 
ATOM     10  C   UNL A   1      40.650  26.113  26.546  1.00  0.00     0.010 A 
ATOM     11  C   UNL A   1      39.629  25.551  28.666  1.00  0.00     0.010 A 
ATOM     12  C   UNL A   1      40.394  26.435  27.891  1.00  0.00    -0.014 A 
BRANCH  12  13
ATOM     13  C   UNL A   1      40.874  27.748  28.399  1.00  0.00     0.031 A 
ATOM     14  C   UNL A   1      42.325  28.138  28.351  1.00  0.00     0.074 A 
ATOM     15  C   UNL A   1      39.948  28.625  28.841  1.00  0.00     0.049 A 
ATOM     16  N   UNL A   1      42.881  29.273  28.696  1.00  0.00    -0.248 NA
ATOM     17  C   UNL A   1      43.278  27.132  27.861  1.00  0.00     0.031 C 
ATOM     18  C   UNL A   1      38.511  28.344  28.944  1.00  0.00     0.029 A 
ATOM     19  N   UNL A   1      40.054  29.930  29.246  1.00  0.00    -0.354 N 
ATOM     20  C   UNL A   1      44.244  29.122  28.470  1.00  0.00     0.074 A 
ATOM     21  C   UNL A   1      44.436  27.765  27.997  1.00  0.00     0.031 C 
ATOM     22  C   UNL A   1      37.867  29.458  29.309  1.00  0.00     0.029 A 
ATOM     23  C   UNL A   1      38.846  30.506  29.565  1.00  0.00     0.049 A 
ATOM     24  H   UNL A   1      40.913  30.408  29.304  1.00  0.00     0.167 HD
ATOM     25  C   UNL A   1      45.236  30.034  28.630  1.00  0.00     0.034 A 
ATOM     26  C   UNL A   1      38.553  31.730  30.041  1.00  0.00     0.034 A 
ATOM     27  C   UNL A   1      45.023  31.379  29.114  1.00  0.00     0.049 A 
ATOM     28  C   UNL A   1      39.681  32.701  30.254  1.00  0.00     0.074 A 
ATOM     29  C   UNL A   1      45.956  32.382  29.313  1.00  0.00     0.029 A 
ATOM     30  N   UNL A   1      43.792  31.912  29.481  1.00  0.00    -0.354 N 
ATOM     31  N   UNL A   1      40.964  32.538  30.021  1.00  0.00    -0.248 NA
ATOM     32  C   UNL A   1      39.323  34.019  30.786  1.00  0.00     0.031 C 
ATOM     33  C   UNL A   1      45.305  33.491  29.865  1.00  0.00     0.029 A 
ATOM     34  C   UNL A   1      43.950  33.217  29.930  1.00  0.00     0.049 A 
ATOM     35  H   UNL A   1      42.933  31.434  29.431  1.00  0.00     0.167 HD
ATOM     36  C   UNL A   1      41.564  33.745  30.368  1.00  0.00     0.074 A 
ATOM     37  C   UNL A   1      40.496  34.634  30.779  1.00  0.00     0.031 C 
ATOM     38  C   UNL A   1      42.877  34.085  30.359  1.00  0.00     0.034 A 
BRANCH  25  39
ATOM     39  C   UNL A   1      46.648  29.600  28.309  1.00  0.00     0.023 A 
ATOM     40  C   UNL A   1      47.488  29.037  29.285  1.00  0.00     0.031 A 
ATOM     41  C   UNL A   1      47.157  29.735  27.004  1.00  0.00     0.131 A 
ATOM     42  C   UNL A   1      48.805  28.678  28.957  1.00  0.00     0.055 A 
ATOM     43  C   UNL A   1      48.443  29.307  26.665  1.00  0.00     0.041 A 
ATOM     44  F   UNL A   1      46.411  30.284  26.032  1.00  0.00    -0.206 F 
ATOM     45  C   UNL A   1      49.280  28.784  27.647  1.00  0.00     0.022 A 
BRANCH  42  46
ATOM     46  S   UNL A   1      49.928  28.179  30.291  1.00  0.00     0.124 S 
ATOM     47  O   UNL A   1      51.234  28.455  29.698  1.00  0.00    -0.237 OA
ATOM     48  O   UNL A   1      49.528  29.056  31.385  1.00  0.00    -0.237 OA
ATOM     49  O   UNL A   1      49.625  26.763  30.485  1.00  0.00    -0.744 OA
ENDBRANCH  42  46
ENDBRANCH  25  39
BRANCH  26  50
ATOM     50  C   UNL A   1      37.150  32.083  30.402  1.00  0.00     0.023 A 
ATOM     51  C   UNL A   1      36.268  32.630  29.458  1.00  0.00     0.031 A 
ATOM     52  C   UNL A   1      36.687  31.929  31.722  1.00  0.00     0.131 A 
ATOM     53  C   UNL A   1      34.994  33.061  29.861  1.00  0.00     0.055 A 
ATOM     54  C   UNL A   1      35.393  32.288  32.100  1.00  0.00     0.041 A 
ATOM     55  F   UNL A   1      37.488  31.413  32.669  1.00  0.00    -0.206 F 
ATOM     56  C   UNL A   1      34.544  32.876  31.170  1.00  0.00     0.022 A 
BRANCH  53  57
ATOM     57  S   UNL A   1      33.980  33.985  28.677  1.00  0.00     0.124 S 
ATOM     58  O   UNL A   1      33.644  32.951  27.703  1.00  0.00    -0.237 OA
ATOM     59  O   UNL A   1      32.884  34.454  29.519  1.00  0.00    -0.237 OA
ATOM     60  O   UNL A   1      34.884  35.027  28.195  1.00  0.00    -0.744 OA
ENDBRANCH  53  57
ENDBRANCH  26  50
BRANCH  38  61
ATOM     61  C   UNL A   1      43.210  35.497  30.783  1.00  0.00     0.023 A 
ATOM     62  C   UNL A   1      43.315  36.540  29.845  1.00  0.00     0.031 A 
ATOM     63  C   UNL A   1      43.486  35.790  32.130  1.00  0.00     0.131 A 
ATOM     64  C   UNL A   1      43.770  37.802  30.252  1.00  0.00     0.055 A 
ATOM     65  C   UNL A   1      43.862  37.069  32.540  1.00  0.00     0.041 A 
ATOM     66  F   UNL A   1      43.409  34.834  33.068  1.00  0.00    -0.206 F 
ATOM     67  C   UNL A   1      44.027  38.080  31.596  1.00  0.00     0.022 A 
BRANCH  64  68
ATOM     68  S   UNL A   1      44.160  39.035  28.979  1.00  0.00     0.124 S 
ATOM     69  O   UNL A   1      45.240  39.787  29.609  1.00  0.00    -0.237 OA
ATOM     70  O   UNL A   1      44.541  38.200  27.844  1.00  0.00    -0.237 OA
ATOM     71  O   UNL A   1      42.906  39.767  28.816  1.00  0.00    -0.744 OA
ENDBRANCH  64  68
ENDBRANCH  38  61
ENDBRANCH  12  13
ENDBRANCH   5   7
ENDBRANCH   2   3
ENDBRANCH   1   2
BRANCH   1  72
ATOM     72  C   UNL A   1      34.786  23.614  23.785  1.00  0.00     0.002 C 
BRANCH  72  73
ATOM     73  C   UNL A   1      34.179  23.696  25.190  1.00  0.00     0.002 C 
BRANCH  73  74
ATOM     74  C   UNL A   1      33.368  22.472  25.627  1.00  0.00     0.021 C 
BRANCH  74  75
ATOM     75  C   UNL A   1      31.963  22.393  25.038  1.00  0.00     0.116 C 
BRANCH  75  76
ATOM     76  N   UNL A   1      30.941  22.355  26.073  1.00  0.00    -0.351 N 
ATOM     77  C   UNL A   1      30.305  23.401  26.702  1.00  0.00     0.271 C 
ATOM     78  H   UNL A   1      30.665  21.455  26.363  1.00  0.00     0.163 HD
ATOM     79  O   UNL A   1      29.619  23.155  27.698  1.00  0.00    -0.267 OA
BRANCH  77  80
ATOM     80  C   UNL A   1      30.466  24.750  26.148  1.00  0.00     0.152 A 
ATOM     81  C   UNL A   1      29.697  25.343  25.103  1.00  0.00     0.082 A 
ATOM     82  N   UNL A   1      31.406  25.609  26.599  1.00  0.00    -0.165 NA
ATOM     83  C   UNL A   1      30.300  26.542  24.849  1.00  0.00     0.126 A 
ATOM     84  N   UNL A   1      31.297  26.658  25.772  1.00  0.00    -0.237 N 
ATOM     85  N   UNL A   1      30.073  27.497  23.926  1.00  0.00    -0.363 N 
ATOM     86  C   UNL A   1      32.153  27.821  25.882  1.00  0.00     0.217 C 
ATOM     87  C   UNL A   1      30.854  28.730  23.876  1.00  0.00     0.113 C 
ATOM     88  H   UNL A   1      29.357  27.360  23.265  1.00  0.00     0.162 HD
ATOM     89  C   UNL A   1      31.432  29.040  25.275  1.00  0.00     0.066 C 
BRANCH  86  90
ATOM     90  C   UNL A   1      33.487  27.551  25.222  1.00  0.00     0.410 C 
ATOM     91  F   UNL A   1      34.316  26.940  26.112  1.00  0.00    -0.169 F 
ATOM     92  F   UNL A   1      33.394  26.721  24.162  1.00  0.00    -0.169 F 
ATOM     93  F   UNL A   1      34.122  28.672  24.817  1.00  0.00    -0.169 F 
ENDBRANCH  86  90
BRANCH  87  94
ATOM     94  C   UNL A   1      30.028  29.900  23.351  1.00  0.00    -0.022 A 
ATOM     95  C   UNL A   1      29.803  31.013  24.202  1.00  0.00     0.010 A 
ATOM     96  C   UNL A   1      29.493  29.930  22.049  1.00  0.00     0.056 A 
ATOM     97  C   UNL A   1      29.072  32.127  23.773  1.00  0.00     0.051 A 
ATOM     98  C   UNL A   1      28.798  31.051  21.646  1.00  0.00     0.166 A 
ATOM     99  C   UNL A   1      28.591  32.118  22.483  1.00  0.00     0.165 A 
ATOM    100  O   UNL A   1      28.251  31.241  20.416  1.00  0.00    -0.454 OA
ATOM    101  O   UNL A   1      27.882  33.115  21.890  1.00  0.00    -0.454 OA
ATOM    102  C   UNL A   1      27.719  32.573  20.560  1.00  0.00     0.468 C 
ENDBRANCH  87  94
ENDBRANCH  77  80
ENDBRANCH  75  76
ENDBRANCH  74  75
ENDBRANCH  73  74
ENDBRANCH  72  73
ENDBRANCH   1  72
TORSDOF 18
ENDMDL
MODEL 2
REMARK VINA RESULT:     -12.6      4.747     10.250
REMARK SMILES O=C(NCCCCCCNC(=O)c1cc2n(n1)[C@@H](C(F)(F)F)C[C@H](c1ccc3c(c1)OCO3)N2)c1ccc(-c2c3nc(c(-c4cc(S(=O)(=O)[O-])ccc4F)c4ccc([nH]4)c(-c4cc(S(=O)(=O)[O-])ccc4F)c4nc(c(-c5cc(S(=O)(=O)[O-])ccc5F)c5ccc2[nH]5)C=C4)C=C3)cc1
REMARK SMILES IDX 5 1 4 2 3 3 1 4 2 5 35 7 36 8 97 9 37 10 96 11 38 12 39 13
REMARK SMILES IDX 40 14 90 15 41 16 95 17 89 18 91 19 42 20 94 21 88 22 87 23
REMARK SMILES IDX 43 25 75 26 55 27 74 28 56 29 59 30 73 31 92 32 57 33 58 34
REMARK SMILES IDX 72 36 93 37 60 38 44 39 45 40 53 41 46 42 52 43 54 44 51 45
REMARK SMILES IDX 47 46 48 47 49 48 50 49 76 50 77 51 85 52 78 53 84 54 86 55
REMARK SMILES IDX 83 56 79 57 80 58 81 59 82 60 61 61 62 62 70 63 63 64 69 65
REMARK SMILES IDX 71 66 68 67 64 68 65 69 66 70 67 71 6 72 7 73 8 74 9 75
REMARK SMILES IDX 10 76 11 77 12 79 13 80 14 81 17 82 15 83 16 84 34 85 18 86
REMARK SMILES IDX 24 87 23 89 19 90 20 91 21 92 22 93 25 94 26 95 30 96 27 97
REMARK SMILES IDX 29 98 28 99 31 100 33 101 32 102
REMARK H PARENT 3 6 91 24 59 35 10 78 34 88
REMARK Flexibility Score: inf
ROOT
ATOM      1  C   UNL A   1      33.119  29.013  24.156  1.00  0.00     0.021 C 
ENDROOT
BRANCH   1   2
ATOM      2  C   UNL A   1      33.318  29.308  25.633  1.00  0.00     0.116 C 
BRANCH   2   3
ATOM      3  N   UNL A   1      32.790  30.606  26.029  1.00  0.00    -0.352 N 
ATOM      4  O   UNL A   1      32.606  32.456  27.318  1.00  0.00    -0.269 OA
ATOM      5  C   UNL A   1      33.251  31.459  27.007  1.00  0.00     0.251 C 
ATOM      6  H   UNL A   1      32.000  30.916  25.531  1.00  0.00     0.163 HD
BRANCH   5   7
ATOM      7  C   UNL A   1      34.521  31.141  27.696  1.00  0.00     0.039 A 
ATOM      8  C   UNL A   1      34.728  29.859  28.206  1.00  0.00     0.014 A 
ATOM      9  C   UNL A   1      35.489  32.133  27.873  1.00  0.00     0.014 A 
ATOM     10  C   UNL A   1      35.803  29.624  29.048  1.00  0.00     0.010 A 
ATOM     11  C   UNL A   1      36.642  31.852  28.618  1.00  0.00     0.010 A 
ATOM     12  C   UNL A   1      36.795  30.603  29.238  1.00  0.00    -0.014 A 
BRANCH  12  13
ATOM     13  C   UNL A   1      38.007  30.229  30.014  1.00  0.00     0.031 A 
ATOM     14  C   UNL A   1      38.242  30.728  31.412  1.00  0.00     0.074 A 
ATOM     15  C   UNL A   1      38.868  29.355  29.450  1.00  0.00     0.049 A 
ATOM     16  N   UNL A   1      39.219  30.436  32.234  1.00  0.00    -0.248 NA
ATOM     17  C   UNL A   1      37.266  31.682  31.961  1.00  0.00     0.031 C 
ATOM     18  C   UNL A   1      38.743  28.817  28.091  1.00  0.00     0.029 A 
ATOM     19  N   UNL A   1      39.984  28.733  29.946  1.00  0.00    -0.354 N 
ATOM     20  C   UNL A   1      38.981  31.165  33.394  1.00  0.00     0.074 A 
ATOM     21  C   UNL A   1      37.787  31.950  33.151  1.00  0.00     0.031 C 
ATOM     22  C   UNL A   1      39.693  27.896  27.890  1.00  0.00     0.029 A 
ATOM     23  C   UNL A   1      40.557  27.847  29.062  1.00  0.00     0.049 A 
ATOM     24  H   UNL A   1      40.341  28.904  30.847  1.00  0.00     0.167 HD
ATOM     25  C   UNL A   1      39.687  31.167  34.553  1.00  0.00     0.034 A 
ATOM     26  C   UNL A   1      41.670  27.099  29.164  1.00  0.00     0.034 A 
ATOM     27  C   UNL A   1      40.882  30.383  34.770  1.00  0.00     0.049 A 
ATOM     28  C   UNL A   1      42.456  27.161  30.444  1.00  0.00     0.074 A 
ATOM     29  C   UNL A   1      41.672  30.312  35.905  1.00  0.00     0.029 A 
ATOM     30  N   UNL A   1      41.466  29.538  33.833  1.00  0.00    -0.354 N 
ATOM     31  N   UNL A   1      42.205  27.851  31.534  1.00  0.00    -0.248 NA
ATOM     32  C   UNL A   1      43.670  26.341  30.511  1.00  0.00     0.031 C 
ATOM     33  C   UNL A   1      42.767  29.484  35.631  1.00  0.00     0.029 A 
ATOM     34  C   UNL A   1      42.619  28.966  34.356  1.00  0.00     0.049 A 
ATOM     35  H   UNL A   1      41.115  29.371  32.929  1.00  0.00     0.167 HD
ATOM     36  C   UNL A   1      43.227  27.534  32.422  1.00  0.00     0.074 A 
ATOM     37  C   UNL A   1      44.066  26.558  31.756  1.00  0.00     0.031 C 
ATOM     38  C   UNL A   1      43.459  28.012  33.671  1.00  0.00     0.034 A 
BRANCH  25  39
ATOM     39  C   UNL A   1      39.203  32.066  35.669  1.00  0.00     0.023 A 
ATOM     40  C   UNL A   1      39.643  33.395  35.789  1.00  0.00     0.031 A 
ATOM     41  C   UNL A   1      38.276  31.593  36.616  1.00  0.00     0.131 A 
ATOM     42  C   UNL A   1      39.198  34.189  36.858  1.00  0.00     0.055 A 
ATOM     43  C   UNL A   1      37.780  32.410  37.634  1.00  0.00     0.041 A 
ATOM     44  F   UNL A   1      37.834  30.326  36.566  1.00  0.00    -0.206 F 
ATOM     45  C   UNL A   1      38.248  33.714  37.766  1.00  0.00     0.022 A 
BRANCH  42  46
ATOM     46  S   UNL A   1      39.967  35.812  37.114  1.00  0.00     0.124 S 
ATOM     47  O   UNL A   1      39.655  36.489  35.857  1.00  0.00    -0.237 OA
ATOM     48  O   UNL A   1      39.270  36.309  38.295  1.00  0.00    -0.237 OA
ATOM     49  O   UNL A   1      41.380  35.496  37.310  1.00  0.00    -0.744 OA
ENDBRANCH  42  46
ENDBRANCH  25  39
BRANCH  26  50
ATOM     50  C   UNL A   1      42.136  26.278  28.009  1.00  0.00     0.023 A 
ATOM     51  C   UNL A   1      41.700  24.957  27.827  1.00  0.00     0.031 A 
ATOM     52  C   UNL A   1      43.076  26.792  27.096  1.00  0.00     0.131 A 
ATOM     53  C   UNL A   1      42.250  24.177  26.798  1.00  0.00     0.055 A 
ATOM     54  C   UNL A   1      43.562  26.036  26.028  1.00  0.00     0.041 A 
ATOM     55  F   UNL A   1      43.531  28.049  27.222  1.00  0.00    -0.206 F 
ATOM     56  C   UNL A   1      43.163  24.712  25.887  1.00  0.00     0.022 A 
BRANCH  53  57
ATOM     57  S   UNL A   1      41.850  22.409  26.747  1.00  0.00     0.124 S 
ATOM     58  O   UNL A   1      40.428  22.417  27.071  1.00  0.00    -0.237 OA
ATOM     59  O   UNL A   1      42.194  22.062  25.371  1.00  0.00    -0.237 OA
ATOM     60  O   UNL A   1      42.721  21.834  27.770  1.00  0.00    -0.744 OA
ENDBRANCH  53  57
ENDBRANCH  26  50
BRANCH  38  61
ATOM     61  C   UNL A   1      44.661  27.450  34.395  1.00  0.00     0.023 A 
ATOM     62  C   UNL A   1      44.567  26.288  35.182  1.00  0.00     0.031 A 
ATOM     63  C   UNL A   1      45.898  28.117  34.347  1.00  0.00     0.131 A 
ATOM     64  C   UNL A   1      45.661  25.880  35.958  1.00  0.00     0.055 A 
ATOM     65  C   UNL A   1      47.006  27.659  35.059  1.00  0.00     0.041 A 
ATOM     66  F   UNL A   1      46.046  29.233  33.617  1.00  0.00    -0.206 F 
ATOM     67  C   UNL A   1      46.887  26.546  35.887  1.00  0.00     0.022 A 
BRANCH  64  68
ATOM     68  S   UNL A   1      45.418  24.551  37.169  1.00  0.00     0.124 S 
ATOM     69  O   UNL A   1      46.760  24.397  37.721  1.00  0.00    -0.237 OA
ATOM     70  O   UNL A   1      44.421  25.126  38.066  1.00  0.00    -0.237 OA
ATOM     71  O   UNL A   1      44.948  23.430  36.357  1.00  0.00    -0.744 OA
ENDBRANCH  64  68
ENDBRANCH  38  61
ENDBRANCH  12  13
ENDBRANCH   5   7
ENDBRANCH   2   3
ENDBRANCH   1   2
BRANCH   1  72
ATOM     72  C   UNL A   1      33.788  27.730  23.668  1.00  0.00     0.002 C 
BRANCH  72  73
ATOM     73  C   UNL A   1      33.058  27.005  22.533  1.00  0.00     0.002 C 
BRANCH  73  74
ATOM     74  C   UNL A   1      31.552  27.269  22.445  1.00  0.00     0.021 C 
BRANCH  74  75
ATOM     75  C   UNL A   1      30.673  26.150  22.996  1.00  0.00     0.116 C 
BRANCH  75  76
ATOM     76  N   UNL A   1      30.246  26.416  24.360  1.00  0.00    -0.351 N 
ATOM     77  C   UNL A   1      30.380  25.629  25.481  1.00  0.00     0.271 C 
ATOM     78  H   UNL A   1      29.798  27.282  24.502  1.00  0.00     0.163 HD
ATOM     79  O   UNL A   1      29.764  25.951  26.500  1.00  0.00    -0.267 OA
BRANCH  77  80
ATOM     80  C   UNL A   1      31.259  24.456  25.408  1.00  0.00     0.152 A 
ATOM     81  C   UNL A   1      30.940  23.122  25.801  1.00  0.00     0.082 A 
ATOM     82  N   UNL A   1      32.522  24.527  24.934  1.00  0.00    -0.165 NA
ATOM     83  C   UNL A   1      32.105  22.421  25.673  1.00  0.00     0.126 A 
ATOM     84  N   UNL A   1      33.007  23.296  25.142  1.00  0.00    -0.237 N 
ATOM     85  N   UNL A   1      32.439  21.150  25.967  1.00  0.00    -0.363 N 
ATOM     86  C   UNL A   1      34.365  22.931  24.797  1.00  0.00     0.217 C 
ATOM     87  C   UNL A   1      33.772  20.616  25.706  1.00  0.00     0.113 C 
ATOM     88  H   UNL A   1      31.761  20.561  26.371  1.00  0.00     0.162 HD
ATOM     89  C   UNL A   1      34.438  21.410  24.560  1.00  0.00     0.066 C 
BRANCH  86  90
ATOM     90  C   UNL A   1      35.319  23.394  25.877  1.00  0.00     0.410 C 
ATOM     91  F   UNL A   1      36.303  22.467  26.038  1.00  0.00    -0.169 F 
ATOM     92  F   UNL A   1      35.939  24.553  25.572  1.00  0.00    -0.169 F 
ATOM     93  F   UNL A   1      34.732  23.541  27.083  1.00  0.00    -0.169 F 
ENDBRANCH  86  90
BRANCH  87  94
ATOM     94  C   UNL A   1      33.731  19.125  25.388  1.00  0.00    -0.022 A 
ATOM     95  C   UNL A   1      34.746  18.574  24.564  1.00  0.00     0.010 A 
ATOM     96  C   UNL A   1      32.736  18.267  25.894  1.00  0.00     0.056 A 
ATOM     97  C   UNL A   1      34.777  17.209  24.254  1.00  0.00     0.051 A 
ATOM     98  C   UNL A   1      32.806  16.923  25.591  1.00  0.00     0.166 A 
ATOM     99  C   UNL A   1      33.796  16.408  24.793  1.00  0.00     0.165 A 
ATOM    100  O   UNL A   1      31.940  15.969  26.027  1.00  0.00    -0.454 OA
ATOM    101  O   UNL A   1      33.678  15.065  24.619  1.00  0.00    -0.454 OA
ATOM    102  C   UNL A   1      32.530  14.786  25.452  1.00  0.00     0.468 C 
ENDBRANCH  87  94
ENDBRANCH  77  80
ENDBRANCH  75  76
ENDBRANCH  74  75
ENDBRANCH  73  74
ENDBRANCH  72  73
ENDBRANCH   1  72
TORSDOF 18
ENDMDL
MODEL 3
REMARK VINA RESULT:     -12.4      2.291      3.002
REMARK SMILES O=C(NCCCCCCNC(=O)c1cc2n(n1)[C@@H](C(F)(F)F)C[C@H](c1ccc3c(c1)OCO3)N2)c1ccc(-c2c3nc(c(-c4cc(S(=O)(=O)[O-])ccc4F)c4ccc([nH]4)c(-c4cc(S(=O)(=O)[O-])ccc4F)c4nc(c(-c5cc(S(=O)(=O)[O-])ccc5F)c5ccc2[nH]5)C=C4)C=C3)cc1
REMARK SMILES IDX 5 1 4 2 3 3 1 4 2 5 35 7 36 8 97 9 37 10 96 11 38 12 39 13
REMARK SMILES IDX 40 14 90 15 41 16 95 17 89 18 91 19 42 20 94 21 88 22 87 23
REMARK SMILES IDX 43 25 75 26 55 27 74 28 56 29 59 30 73 31 92 32 57 33 58 34
REMARK SMILES IDX 72 36 93 37 60 38 44 39 45 40 53 41 46 42 52 43 54 44 51 45
REMARK SMILES IDX 47 46 48 47 49 48 50 49 76 50 77 51 85 52 78 53 84 54 86 55
REMARK SMILES IDX 83 56 79 57 80 58 81 59 82 60 61 61 62 62 70 63 63 64 69 65
REMARK SMILES IDX 71 66 68 67 64 68 65 69 66 70 67 71 6 72 7 73 8 74 9 75
REMARK SMILES IDX 10 76 11 77 12 79 13 80 14 81 17 82 15 83 16 84 34 85 18 86
REMARK SMILES IDX 24 87 23 89 19 90 20 91 21 92 22 93 25 94 26 95 30 96 27 97
REMARK SMILES IDX 29 98 28 99 31 100 33 101 32 102
REMARK H PARENT 3 6 91 24 59 35 10 78 34 88
REMARK Flexibility Score: inf
ROOT
ATOM      1  C   UNL A   1      37.121  20.573  25.017  1.00  0.00     0.021 C 
ENDROOT
BRANCH   1   2
ATOM      2  C   UNL A   1      38.459  21.059  25.547  1.00  0.00     0.116 C 
BRANCH   2   3
ATOM      3  N   UNL A   1      39.421  19.982  25.735  1.00  0.00    -0.352 N 
ATOM      4  O   UNL A   1      41.461  19.071  26.089  1.00  0.00    -0.269 OA
ATOM      5  C   UNL A   1      40.741  20.065  26.115  1.00  0.00     0.251 C 
ATOM      6  H   UNL A   1      39.081  19.073  25.571  1.00  0.00     0.163 HD
BRANCH   5   7
ATOM      7  C   UNL A   1      41.287  21.377  26.530  1.00  0.00     0.039 A 
ATOM      8  C   UNL A   1      41.223  21.758  27.870  1.00  0.00     0.014 A 
ATOM      9  C   UNL A   1      41.821  22.247  25.575  1.00  0.00     0.014 A 
ATOM     10  C   UNL A   1      41.513  23.066  28.223  1.00  0.00     0.010 A 
ATOM     11  C   UNL A   1      42.237  23.528  25.961  1.00  0.00     0.010 A 
ATOM     12  C   UNL A   1      42.059  23.959  27.284  1.00  0.00    -0.014 A 
BRANCH  12  13
ATOM     13  C   UNL A   1      42.508  25.293  27.765  1.00  0.00     0.031 A 
ATOM     14  C   UNL A   1      43.937  25.745  27.641  1.00  0.00     0.074 A 
ATOM     15  C   UNL A   1      41.569  26.131  28.255  1.00  0.00     0.049 A 
ATOM     16  N   UNL A   1      44.461  26.903  27.957  1.00  0.00    -0.248 NA
ATOM     17  C   UNL A   1      44.905  24.778  27.104  1.00  0.00     0.031 C 
ATOM     18  C   UNL A   1      40.154  25.790  28.433  1.00  0.00     0.029 A 
ATOM     19  N   UNL A   1      41.642  27.441  28.653  1.00  0.00    -0.354 N 
ATOM     20  C   UNL A   1      45.816  26.809  27.660  1.00  0.00     0.074 A 
ATOM     21  C   UNL A   1      46.041  25.461  27.178  1.00  0.00     0.031 C 
ATOM     22  C   UNL A   1      39.482  26.877  28.830  1.00  0.00     0.029 A 
ATOM     23  C   UNL A   1      40.428  27.966  29.034  1.00  0.00     0.049 A 
ATOM     24  H   UNL A   1      42.481  27.956  28.665  1.00  0.00     0.167 HD
ATOM     25  C   UNL A   1      46.775  27.763  27.767  1.00  0.00     0.034 A 
ATOM     26  C   UNL A   1      40.109  29.178  29.523  1.00  0.00     0.034 A 
ATOM     27  C   UNL A   1      46.530  29.099  28.260  1.00  0.00     0.049 A 
ATOM     28  C   UNL A   1      41.204  30.196  29.676  1.00  0.00     0.074 A 
ATOM     29  C   UNL A   1      47.430  30.142  28.410  1.00  0.00     0.029 A 
ATOM     30  N   UNL A   1      45.299  29.581  28.691  1.00  0.00    -0.354 N 
ATOM     31  N   UNL A   1      42.479  30.088  29.377  1.00  0.00    -0.248 NA
ATOM     32  C   UNL A   1      40.818  31.500  30.225  1.00  0.00     0.031 C 
ATOM     33  C   UNL A   1      46.761  31.223  28.994  1.00  0.00     0.029 A 
ATOM     34  C   UNL A   1      45.424  30.892  29.130  1.00  0.00     0.049 A 
ATOM     35  H   UNL A   1      44.460  29.066  28.686  1.00  0.00     0.167 HD
ATOM     36  C   UNL A   1      43.043  31.320  29.691  1.00  0.00     0.074 A 
ATOM     37  C   UNL A   1      41.962  32.164  30.156  1.00  0.00     0.031 C 
ATOM     38  C   UNL A   1      44.339  31.716  29.614  1.00  0.00     0.034 A 
BRANCH  25  39
ATOM     39  C   UNL A   1      48.186  27.388  27.373  1.00  0.00     0.023 A 
ATOM     40  C   UNL A   1      48.753  27.817  26.160  1.00  0.00     0.031 A 
ATOM     41  C   UNL A   1      48.982  26.606  28.229  1.00  0.00     0.131 A 
ATOM     42  C   UNL A   1      50.054  27.420  25.813  1.00  0.00     0.055 A 
ATOM     43  C   UNL A   1      50.302  26.276  27.913  1.00  0.00     0.041 A 
ATOM     44  F   UNL A   1      48.491  26.149  29.392  1.00  0.00    -0.206 F 
ATOM     45  C   UNL A   1      50.842  26.675  26.694  1.00  0.00     0.022 A 
BRANCH  42  46
ATOM     46  S   UNL A   1      50.660  27.793  24.145  1.00  0.00     0.124 S 
ATOM     47  O   UNL A   1      49.422  27.769  23.368  1.00  0.00    -0.237 OA
ATOM     48  O   UNL A   1      51.279  29.102  24.318  1.00  0.00    -0.237 OA
ATOM     49  O   UNL A   1      51.586  26.697  23.863  1.00  0.00    -0.744 OA
ENDBRANCH  42  46
ENDBRANCH  25  39
BRANCH  26  50
ATOM     50  C   UNL A   1      38.712  29.472  29.956  1.00  0.00     0.023 A 
ATOM     51  C   UNL A   1      37.819  30.166  29.126  1.00  0.00     0.031 A 
ATOM     52  C   UNL A   1      38.267  29.110  31.242  1.00  0.00     0.131 A 
ATOM     53  C   UNL A   1      36.554  30.529  29.611  1.00  0.00     0.055 A 
ATOM     54  C   UNL A   1      36.980  29.407  31.691  1.00  0.00     0.041 A 
ATOM     55  F   UNL A   1      39.079  28.447  32.082  1.00  0.00    -0.206 F 
ATOM     56  C   UNL A   1      36.121  30.139  30.880  1.00  0.00     0.022 A 
BRANCH  53  57
ATOM     57  S   UNL A   1      35.527  31.634  28.605  1.00  0.00     0.124 S 
ATOM     58  O   UNL A   1      36.522  32.559  28.072  1.00  0.00    -0.237 OA
ATOM     59  O   UNL A   1      34.935  30.706  27.647  1.00  0.00    -0.237 OA
ATOM     60  O   UNL A   1      34.595  32.208  29.573  1.00  0.00    -0.744 OA
ENDBRANCH  53  57
ENDBRANCH  26  50
BRANCH  38  61
ATOM     61  C   UNL A   1      44.634  33.142  30.018  1.00  0.00     0.023 A 
ATOM     62  C   UNL A   1      44.582  34.195  29.087  1.00  0.00     0.031 A 
ATOM     63  C   UNL A   1      45.029  33.442  31.334  1.00  0.00     0.131 A 
ATOM     64  C   UNL A   1      45.005  35.479  29.461  1.00  0.00     0.055 A 
ATOM     65  C   UNL A   1      45.371  34.738  31.719  1.00  0.00     0.041 A 
ATOM     66  F   UNL A   1      45.101  32.477  32.264  1.00  0.00    -0.206 F 
ATOM     67  C   UNL A   1      45.381  35.762  30.776  1.00  0.00     0.022 A 
BRANCH  64  68
ATOM     68  S   UNL A   1      45.192  36.739  28.170  1.00  0.00     0.124 S 
ATOM     69  O   UNL A   1      43.812  36.936  27.739  1.00  0.00    -0.237 OA
ATOM     70  O   UNL A   1      45.796  37.848  28.903  1.00  0.00    -0.237 OA
ATOM     71  O   UNL A   1      46.063  36.098  27.188  1.00  0.00    -0.744 OA
ENDBRANCH  64  68
ENDBRANCH  38  61
ENDBRANCH  12  13
ENDBRANCH   5   7
ENDBRANCH   2   3
ENDBRANCH   1   2
BRANCH   1  72
ATOM     72  C   UNL A   1      35.915  21.374  25.503  1.00  0.00     0.002 C 
BRANCH  72  73
ATOM     73  C   UNL A   1      34.740  21.445  24.523  1.00  0.00     0.002 C 
BRANCH  73  74
ATOM     74  C   UNL A   1      33.349  21.333  25.154  1.00  0.00     0.021 C 
BRANCH  74  75
ATOM     75  C   UNL A   1      32.875  22.586  25.884  1.00  0.00     0.116 C 
BRANCH  75  76
ATOM     76  N   UNL A   1      31.597  22.378  26.546  1.00  0.00    -0.351 N 
ATOM     77  C   UNL A   1      30.625  23.301  26.864  1.00  0.00     0.271 C 
ATOM     78  H   UNL A   1      31.398  21.448  26.800  1.00  0.00     0.163 HD
ATOM     79  O   UNL A   1      29.707  22.949  27.610  1.00  0.00    -0.267 OA
BRANCH  77  80
ATOM     80  C   UNL A   1      30.727  24.647  26.290  1.00  0.00     0.152 A 
ATOM     81  C   UNL A   1      29.973  25.170  25.197  1.00  0.00     0.082 A 
ATOM     82  N   UNL A   1      31.588  25.573  26.766  1.00  0.00    -0.165 NA
ATOM     83  C   UNL A   1      30.510  26.401  24.947  1.00  0.00     0.126 A 
ATOM     84  N   UNL A   1      31.452  26.597  25.913  1.00  0.00    -0.237 N 
ATOM     85  N   UNL A   1      30.267  27.322  23.995  1.00  0.00    -0.363 N 
ATOM     86  C   UNL A   1      32.226  27.815  26.038  1.00  0.00     0.217 C 
ATOM     87  C   UNL A   1      30.969  28.601  23.955  1.00  0.00     0.113 C 
ATOM     88  H   UNL A   1      29.593  27.127  23.304  1.00  0.00     0.162 HD
ATOM     89  C   UNL A   1      31.459  28.974  25.372  1.00  0.00     0.066 C 
BRANCH  86  90
ATOM     90  C   UNL A   1      33.605  27.620  25.447  1.00  0.00     0.410 C 
ATOM     91  F   UNL A   1      34.335  26.809  26.261  1.00  0.00    -0.169 F 
ATOM     92  F   UNL A   1      33.581  27.019  24.239  1.00  0.00    -0.169 F 
ATOM     93  F   UNL A   1      34.304  28.768  25.326  1.00  0.00    -0.169 F 
ENDBRANCH  86  90
BRANCH  87  94
ATOM     94  C   UNL A   1      30.096  29.706  23.368  1.00  0.00    -0.022 A 
ATOM     95  C   UNL A   1      29.756  30.814  24.185  1.00  0.00     0.010 A 
ATOM     96  C   UNL A   1      29.629  29.681  22.040  1.00  0.00     0.056 A 
ATOM     97  C   UNL A   1      28.977  31.871  23.699  1.00  0.00     0.051 A 
ATOM     98  C   UNL A   1      28.884  30.748  21.581  1.00  0.00     0.166 A 
ATOM     99  C   UNL A   1      28.565  31.811  22.387  1.00  0.00     0.165 A 
ATOM    100  O   UNL A   1      28.389  30.883  20.322  1.00  0.00    -0.454 OA
ATOM    101  O   UNL A   1      27.823  32.749  21.740  1.00  0.00    -0.454 OA
ATOM    102  C   UNL A   1      27.765  32.178  20.415  1.00  0.00     0.468 C 
ENDBRANCH  87  94
ENDBRANCH  77  80
ENDBRANCH  75  76
ENDBRANCH  74  75
ENDBRANCH  73  74
ENDBRANCH  72  73
ENDBRANCH   1  72
TORSDOF 18
ENDMDL
