MODEL 1
REMARK VINA RESULT:     -11.0      0.000      0.000
REMARK SMILES O=C(NCCCCCCNC(=O)[C@@H]1CCCN(c2ccc3cc(S(=O)(=O)N4CCCCC4)ccc3n2)C1)c1ccc(-c2c3nc(c(-c4cc(S(=O)(=O)[O-])ccc4F)c4ccc([nH]4)c(-c4cc(S(=O)(=O)[O-])ccc4F)c4nc(c(-c5cc(S(=O)(=O)[O-])ccc5F)c5ccc2[nH]5)C=C4)C=C3)cc1
REMARK SMILES IDX 6 1 5 2 4 3 3 4 1 5 2 6 38 8 39 9 100 10 40 11 99 12 41 13
REMARK SMILES IDX 42 14 43 15 93 16 44 17 98 18 92 19 94 20 45 21 97 22 91 23
REMARK SMILES IDX 90 24 46 26 78 27 58 28 77 29 59 30 62 31 76 32 95 33 60 34
REMARK SMILES IDX 61 35 75 37 96 38 63 39 47 40 48 41 56 42 49 43 55 44 57 45
REMARK SMILES IDX 54 46 50 47 51 48 52 49 53 50 79 51 80 52 88 53 81 54 87 55
REMARK SMILES IDX 89 56 86 57 82 58 83 59 84 60 85 61 64 62 65 63 73 64 66 65
REMARK SMILES IDX 72 66 74 67 71 68 67 69 68 70 69 71 70 72 7 73 8 74 9 75
REMARK SMILES IDX 10 76 11 77 12 79 13 80 14 81 37 82 15 83 17 84 16 85 18 86
REMARK SMILES IDX 19 87 36 88 20 89 35 90 21 91 34 92 22 93 33 94 23 95 24 96
REMARK SMILES IDX 25 97 26 98 27 99 28 100 32 101 29 102 31 103 30 104
REMARK H PARENT 3 7 94 25 62 36 10 78
REMARK Flexibility Score: inf
ROOT
ATOM      1  C   UNL A   1      39.265  26.345  29.366  1.00  0.00     0.002 C 
ENDROOT
BRANCH   1   2
ATOM      2  C   UNL A   1      39.655  25.936  27.944  1.00  0.00     0.021 C 
BRANCH   2   3
ATOM      3  C   UNL A   1      40.862  25.006  27.863  1.00  0.00     0.116 C 
BRANCH   3   4
ATOM      4  N   UNL A   1      41.445  24.988  26.529  1.00  0.00    -0.352 N 
ATOM      5  O   UNL A   1      42.280  25.877  24.630  1.00  0.00    -0.269 OA
ATOM      6  C   UNL A   1      42.040  26.009  25.826  1.00  0.00     0.251 C 
ATOM      7  H   UNL A   1      41.410  24.122  26.064  1.00  0.00     0.163 HD
BRANCH   6   8
ATOM      8  C   UNL A   1      42.378  27.271  26.519  1.00  0.00     0.039 A 
ATOM      9  C   UNL A   1      43.349  27.285  27.523  1.00  0.00     0.014 A 
ATOM     10  C   UNL A   1      41.717  28.451  26.166  1.00  0.00     0.014 A 
ATOM     11  C   UNL A   1      43.546  28.436  28.275  1.00  0.00     0.010 A 
ATOM     12  C   UNL A   1      41.985  29.632  26.864  1.00  0.00     0.010 A 
ATOM     13  C   UNL A   1      42.874  29.626  27.951  1.00  0.00    -0.014 A 
BRANCH  13  14
ATOM     14  C   UNL A   1      43.145  30.850  28.752  1.00  0.00     0.031 A 
ATOM     15  C   UNL A   1      44.210  31.829  28.335  1.00  0.00     0.074 A 
ATOM     16  C   UNL A   1      42.386  31.096  29.838  1.00  0.00     0.049 A 
ATOM     17  N   UNL A   1      44.549  32.966  28.890  1.00  0.00    -0.248 NA
ATOM     18  C   UNL A   1      45.005  31.483  27.148  1.00  0.00     0.031 C 
ATOM     19  C   UNL A   1      41.329  30.213  30.340  1.00  0.00     0.029 A 
ATOM     20  N   UNL A   1      42.361  32.163  30.698  1.00  0.00    -0.354 N 
ATOM     21  C   UNL A   1      45.610  33.459  28.136  1.00  0.00     0.074 A 
ATOM     22  C   UNL A   1      45.877  32.480  27.104  1.00  0.00     0.031 C 
ATOM     23  C   UNL A   1      40.722  30.802  31.380  1.00  0.00     0.029 A 
ATOM     24  C   UNL A   1      41.386  32.068  31.664  1.00  0.00     0.049 A 
ATOM     25  H   UNL A   1      42.981  32.925  30.630  1.00  0.00     0.167 HD
ATOM     26  C   UNL A   1      46.289  34.626  28.288  1.00  0.00     0.034 A 
ATOM     27  C   UNL A   1      41.069  32.899  32.674  1.00  0.00     0.034 A 
ATOM     28  C   UNL A   1      46.000  35.596  29.320  1.00  0.00     0.049 A 
ATOM     29  C   UNL A   1      41.850  34.176  32.832  1.00  0.00     0.074 A 
ATOM     30  C   UNL A   1      46.602  36.822  29.546  1.00  0.00     0.029 A 
ATOM     31  N   UNL A   1      45.030  35.448  30.305  1.00  0.00    -0.354 N 
ATOM     32  N   UNL A   1      42.836  34.637  32.098  1.00  0.00    -0.248 NA
ATOM     33  C   UNL A   1      41.470  35.046  33.950  1.00  0.00     0.031 C 
ATOM     34  C   UNL A   1      46.045  37.382  30.701  1.00  0.00     0.029 A 
ATOM     35  C   UNL A   1      45.037  36.545  31.155  1.00  0.00     0.049 A 
ATOM     36  H   UNL A   1      44.424  34.676  30.388  1.00  0.00     0.167 HD
ATOM     37  C   UNL A   1      43.175  35.867  32.651  1.00  0.00     0.074 A 
ATOM     38  C   UNL A   1      42.274  36.082  33.765  1.00  0.00     0.031 C 
ATOM     39  C   UNL A   1      44.143  36.742  32.271  1.00  0.00     0.034 A 
BRANCH  26  40
ATOM     40  C   UNL A   1      47.442  34.888  27.346  1.00  0.00     0.023 A 
ATOM     41  C   UNL A   1      48.759  34.508  27.657  1.00  0.00     0.031 A 
ATOM     42  C   UNL A   1      47.223  35.552  26.126  1.00  0.00     0.131 A 
ATOM     43  C   UNL A   1      49.813  34.858  26.797  1.00  0.00     0.055 A 
ATOM     44  C   UNL A   1      48.264  35.828  25.237  1.00  0.00     0.041 A 
ATOM     45  F   UNL A   1      45.991  35.959  25.780  1.00  0.00    -0.206 F 
ATOM     46  C   UNL A   1      49.572  35.495  25.578  1.00  0.00     0.022 A 
BRANCH  43  47
ATOM     47  S   UNL A   1      51.517  34.602  27.365  1.00  0.00     0.124 S 
ATOM     48  O   UNL A   1      51.428  35.004  28.767  1.00  0.00    -0.237 OA
ATOM     49  O   UNL A   1      51.720  33.179  27.122  1.00  0.00    -0.237 OA
ATOM     50  O   UNL A   1      52.301  35.499  26.516  1.00  0.00    -0.744 OA
ENDBRANCH  43  47
ENDBRANCH  26  40
BRANCH  27  51
ATOM     51  C   UNL A   1      39.974  32.547  33.622  1.00  0.00     0.023 A 
ATOM     52  C   UNL A   1      38.700  33.123  33.504  1.00  0.00     0.031 A 
ATOM     53  C   UNL A   1      40.196  31.645  34.680  1.00  0.00     0.131 A 
ATOM     54  C   UNL A   1      37.709  32.825  34.451  1.00  0.00     0.055 A 
ATOM     55  C   UNL A   1      39.191  31.311  35.585  1.00  0.00     0.041 A 
ATOM     56  F   UNL A   1      41.395  31.062  34.833  1.00  0.00    -0.206 F 
ATOM     57  C   UNL A   1      37.940  31.912  35.483  1.00  0.00     0.022 A 
BRANCH  54  58
ATOM     58  S   UNL A   1      36.129  33.711  34.362  1.00  0.00     0.124 S 
ATOM     59  O   UNL A   1      35.772  33.826  35.772  1.00  0.00    -0.237 OA
ATOM     60  O   UNL A   1      36.515  34.951  33.695  1.00  0.00    -0.237 OA
ATOM     61  O   UNL A   1      35.282  32.819  33.574  1.00  0.00    -0.744 OA
ENDBRANCH  54  58
ENDBRANCH  27  51
BRANCH  39  62
ATOM     62  C   UNL A   1      44.230  38.034  33.046  1.00  0.00     0.023 A 
ATOM     63  C   UNL A   1      43.402  39.133  32.754  1.00  0.00     0.031 A 
ATOM     64  C   UNL A   1      45.185  38.180  34.068  1.00  0.00     0.131 A 
ATOM     65  C   UNL A   1      43.592  40.349  33.425  1.00  0.00     0.055 A 
ATOM     66  C   UNL A   1      45.325  39.373  34.778  1.00  0.00     0.041 A 
ATOM     67  F   UNL A   1      46.004  37.165  34.387  1.00  0.00    -0.206 F 
ATOM     68  C   UNL A   1      44.538  40.472  34.446  1.00  0.00     0.022 A 
BRANCH  65  69
ATOM     69  S   UNL A   1      42.667  41.807  32.866  1.00  0.00     0.124 S 
ATOM     70  O   UNL A   1      41.883  41.263  31.763  1.00  0.00    -0.237 OA
ATOM     71  O   UNL A   1      41.917  42.176  34.061  1.00  0.00    -0.237 OA
ATOM     72  O   UNL A   1      43.715  42.749  32.477  1.00  0.00    -0.744 OA
ENDBRANCH  65  69
ENDBRANCH  39  62
ENDBRANCH  13  14
ENDBRANCH   6   8
ENDBRANCH   3   4
ENDBRANCH   2   3
ENDBRANCH   1   2
BRANCH   1  73
ATOM     73  C   UNL A   1      38.940  27.833  29.551  1.00  0.00     0.002 C 
BRANCH  73  74
ATOM     74  C   UNL A   1      38.719  28.613  28.250  1.00  0.00     0.021 C 
BRANCH  74  75
ATOM     75  C   UNL A   1      38.247  30.051  28.452  1.00  0.00     0.116 C 
BRANCH  75  76
ATOM     76  N   UNL A   1      37.400  30.206  29.613  1.00  0.00    -0.356 N 
ATOM     77  C   UNL A   1      36.598  31.205  30.042  1.00  0.00     0.224 C 
ATOM     78  H   UNL A   1      37.411  29.426  30.214  1.00  0.00     0.163 HD
ATOM     79  O   UNL A   1      35.957  30.957  31.077  1.00  0.00    -0.275 OA
BRANCH  77  80
ATOM     80  C   UNL A   1      36.488  32.612  29.451  1.00  0.00     0.098 C 
ATOM     81  C   UNL A   1      35.954  33.818  30.232  1.00  0.00     0.017 C 
ATOM     82  C   UNL A   1      35.846  32.512  28.073  1.00  0.00     0.131 C 
ATOM     83  C   UNL A   1      34.468  34.180  30.036  1.00  0.00     0.022 C 
ATOM     84  N   UNL A   1      34.402  32.540  28.225  1.00  0.00    -0.356 N 
ATOM     85  C   UNL A   1      33.838  33.796  28.691  1.00  0.00     0.118 C 
BRANCH  84  86
ATOM     86  C   UNL A   1      33.606  31.592  27.621  1.00  0.00     0.129 A 
ATOM     87  C   UNL A   1      32.357  31.938  27.100  1.00  0.00     0.047 A 
ATOM     88  N   UNL A   1      34.086  30.342  27.467  1.00  0.00    -0.231 NA
ATOM     89  C   UNL A   1      31.613  31.010  26.380  1.00  0.00     0.014 A 
ATOM     90  C   UNL A   1      33.356  29.429  26.807  1.00  0.00     0.073 A 
ATOM     91  C   UNL A   1      32.111  29.723  26.221  1.00  0.00     0.002 A 
ATOM     92  C   UNL A   1      33.837  28.135  26.694  1.00  0.00     0.030 A 
ATOM     93  C   UNL A   1      31.403  28.744  25.506  1.00  0.00     0.032 A 
ATOM     94  C   UNL A   1      33.128  27.142  26.010  1.00  0.00     0.024 A 
ATOM     95  C   UNL A   1      31.916  27.449  25.396  1.00  0.00     0.083 A 
BRANCH  95  96
ATOM     96  S   UNL A   1      30.928  26.275  24.483  1.00  0.00     0.243 S 
ATOM     97  O   UNL A   1      30.026  25.684  25.450  1.00  0.00    -0.207 OA
ATOM     98  O   UNL A   1      30.422  26.987  23.328  1.00  0.00    -0.207 OA
BRANCH  96  99
ATOM     99  N   UNL A   1      31.966  25.038  23.931  1.00  0.00    -0.198 NA
ATOM    100  C   UNL A   1      32.003  23.803  24.756  1.00  0.00     0.102 C 
ATOM    101  C   UNL A   1      32.083  24.910  22.459  1.00  0.00     0.102 C 
ATOM    102  C   UNL A   1      33.043  22.804  24.263  1.00  0.00     0.017 C 
ATOM    103  C   UNL A   1      33.148  23.903  22.052  1.00  0.00     0.017 C 
ATOM    104  C   UNL A   1      32.940  22.577  22.764  1.00  0.00     0.003 C 
ENDBRANCH  96  99
ENDBRANCH  95  96
ENDBRANCH  84  86
ENDBRANCH  77  80
ENDBRANCH  75  76
ENDBRANCH  74  75
ENDBRANCH  73  74
ENDBRANCH   1  73
TORSDOF 19
ENDMDL
MODEL 2
REMARK VINA RESULT:     -10.8      7.017     14.057
REMARK SMILES O=C(NCCCCCCNC(=O)[C@@H]1CCCN(c2ccc3cc(S(=O)(=O)N4CCCCC4)ccc3n2)C1)c1ccc(-c2c3nc(c(-c4cc(S(=O)(=O)[O-])ccc4F)c4ccc([nH]4)c(-c4cc(S(=O)(=O)[O-])ccc4F)c4nc(c(-c5cc(S(=O)(=O)[O-])ccc5F)c5ccc2[nH]5)C=C4)C=C3)cc1
REMARK SMILES IDX 6 1 5 2 4 3 3 4 1 5 2 6 38 8 39 9 100 10 40 11 99 12 41 13
REMARK SMILES IDX 42 14 43 15 93 16 44 17 98 18 92 19 94 20 45 21 97 22 91 23
REMARK SMILES IDX 90 24 46 26 78 27 58 28 77 29 59 30 62 31 76 32 95 33 60 34
REMARK SMILES IDX 61 35 75 37 96 38 63 39 47 40 48 41 56 42 49 43 55 44 57 45
REMARK SMILES IDX 54 46 50 47 51 48 52 49 53 50 79 51 80 52 88 53 81 54 87 55
REMARK SMILES IDX 89 56 86 57 82 58 83 59 84 60 85 61 64 62 65 63 73 64 66 65
REMARK SMILES IDX 72 66 74 67 71 68 67 69 68 70 69 71 70 72 7 73 8 74 9 75
REMARK SMILES IDX 10 76 11 77 12 79 13 80 14 81 37 82 15 83 17 84 16 85 18 86
REMARK SMILES IDX 19 87 36 88 20 89 35 90 21 91 34 92 22 93 33 94 23 95 24 96
REMARK SMILES IDX 25 97 26 98 27 99 28 100 32 101 29 102 31 103 30 104
REMARK H PARENT 3 7 94 25 62 36 10 78
REMARK Flexibility Score: inf
ROOT
ATOM      1  C   UNL A   1      49.312  37.996  28.762  1.00  0.00     0.002 C 
ENDROOT
BRANCH   1   2
ATOM      2  C   UNL A   1      49.589  36.499  28.604  1.00  0.00     0.021 C 
BRANCH   2   3
ATOM      3  C   UNL A   1      49.327  35.673  29.860  1.00  0.00     0.116 C 
BRANCH   3   4
ATOM      4  N   UNL A   1      48.391  36.333  30.759  1.00  0.00    -0.352 N 
ATOM      5  O   UNL A   1      46.369  36.846  31.619  1.00  0.00    -0.269 OA
ATOM      6  C   UNL A   1      47.067  36.053  30.993  1.00  0.00     0.251 C 
ATOM      7  H   UNL A   1      48.761  37.085  31.274  1.00  0.00     0.163 HD
BRANCH   6   8
ATOM      8  C   UNL A   1      46.484  34.796  30.475  1.00  0.00     0.039 A 
ATOM      9  C   UNL A   1      45.785  34.791  29.266  1.00  0.00     0.014 A 
ATOM     10  C   UNL A   1      46.634  33.614  31.205  1.00  0.00     0.014 A 
ATOM     11  C   UNL A   1      45.108  33.645  28.867  1.00  0.00     0.010 A 
ATOM     12  C   UNL A   1      46.027  32.438  30.752  1.00  0.00     0.010 A 
ATOM     13  C   UNL A   1      45.226  32.452  29.599  1.00  0.00    -0.014 A 
BRANCH  13  14
ATOM     14  C   UNL A   1      44.522  31.235  29.116  1.00  0.00     0.031 A 
ATOM     15  C   UNL A   1      45.213  30.245  28.217  1.00  0.00     0.074 A 
ATOM     16  C   UNL A   1      43.262  31.005  29.536  1.00  0.00     0.049 A 
ATOM     17  N   UNL A   1      44.764  29.111  27.738  1.00  0.00    -0.248 NA
ATOM     18  C   UNL A   1      46.581  30.574  27.792  1.00  0.00     0.031 C 
ATOM     19  C   UNL A   1      42.490  31.900  30.403  1.00  0.00     0.029 A 
ATOM     20  N   UNL A   1      42.418  29.946  29.319  1.00  0.00    -0.354 N 
ATOM     21  C   UNL A   1      45.782  28.603  26.938  1.00  0.00     0.074 A 
ATOM     22  C   UNL A   1      46.859  29.571  26.972  1.00  0.00     0.031 C 
ATOM     23  C   UNL A   1      41.313  31.326  30.691  1.00  0.00     0.029 A 
ATOM     24  C   UNL A   1      41.215  30.058  29.978  1.00  0.00     0.049 A 
ATOM     25  H   UNL A   1      42.650  29.180  28.747  1.00  0.00     0.167 HD
ATOM     26  C   UNL A   1      45.817  27.434  26.248  1.00  0.00     0.034 A 
ATOM     27  C   UNL A   1      40.147  29.239  29.998  1.00  0.00     0.034 A 
ATOM     28  C   UNL A   1      44.734  26.476  26.235  1.00  0.00     0.049 A 
ATOM     29  C   UNL A   1      40.203  27.959  29.209  1.00  0.00     0.074 A 
ATOM     30  C   UNL A   1      44.674  25.248  25.598  1.00  0.00     0.029 A 
ATOM     31  N   UNL A   1      43.516  26.640  26.884  1.00  0.00    -0.354 N 
ATOM     32  N   UNL A   1      41.183  27.484  28.474  1.00  0.00    -0.248 NA
ATOM     33  C   UNL A   1      39.014  27.102  29.258  1.00  0.00     0.031 C 
ATOM     34  C   UNL A   1      43.402  24.703  25.804  1.00  0.00     0.029 A 
ATOM     35  C   UNL A   1      42.690  25.551  26.639  1.00  0.00     0.049 A 
ATOM     36  H   UNL A   1      43.273  27.417  27.438  1.00  0.00     0.167 HD
ATOM     37  C   UNL A   1      40.734  26.257  27.996  1.00  0.00     0.074 A 
ATOM     38  C   UNL A   1      39.407  26.060  28.544  1.00  0.00     0.031 C 
ATOM     39  C   UNL A   1      41.364  25.372  27.180  1.00  0.00     0.034 A 
BRANCH  26  40
ATOM     40  C   UNL A   1      47.044  27.154  25.412  1.00  0.00     0.023 A 
ATOM     41  C   UNL A   1      47.200  27.680  24.117  1.00  0.00     0.031 A 
ATOM     42  C   UNL A   1      48.067  26.326  25.909  1.00  0.00     0.131 A 
ATOM     43  C   UNL A   1      48.311  27.316  23.339  1.00  0.00     0.055 A 
ATOM     44  C   UNL A   1      49.209  26.031  25.160  1.00  0.00     0.041 A 
ATOM     45  F   UNL A   1      47.969  25.777  27.130  1.00  0.00    -0.206 F 
ATOM     46  C   UNL A   1      49.328  26.513  23.860  1.00  0.00     0.022 A 
BRANCH  43  47
ATOM     47  S   UNL A   1      48.333  27.784  21.586  1.00  0.00     0.124 S 
ATOM     48  O   UNL A   1      49.446  28.729  21.545  1.00  0.00    -0.237 OA
ATOM     49  O   UNL A   1      48.558  26.505  20.921  1.00  0.00    -0.237 OA
ATOM     50  O   UNL A   1      47.014  28.376  21.371  1.00  0.00    -0.744 OA
ENDBRANCH  43  47
ENDBRANCH  26  40
BRANCH  27  51
ATOM     51  C   UNL A   1      38.932  29.608  30.776  1.00  0.00     0.023 A 
ATOM     52  C   UNL A   1      38.051  30.601  30.320  1.00  0.00     0.031 A 
ATOM     53  C   UNL A   1      38.645  28.987  32.007  1.00  0.00     0.131 A 
ATOM     54  C   UNL A   1      36.952  30.975  31.106  1.00  0.00     0.055 A 
ATOM     55  C   UNL A   1      37.520  29.325  32.758  1.00  0.00     0.041 A 
ATOM     56  F   UNL A   1      39.452  28.027  32.486  1.00  0.00    -0.206 F 
ATOM     57  C   UNL A   1      36.672  30.334  32.316  1.00  0.00     0.022 A 
BRANCH  54  58
ATOM     58  S   UNL A   1      35.930  32.372  30.563  1.00  0.00     0.124 S 
ATOM     59  O   UNL A   1      35.706  33.083  31.816  1.00  0.00    -0.237 OA
ATOM     60  O   UNL A   1      36.807  33.030  29.600  1.00  0.00    -0.237 OA
ATOM     61  O   UNL A   1      34.751  31.728  29.990  1.00  0.00    -0.744 OA
ENDBRANCH  54  58
ENDBRANCH  27  51
BRANCH  39  62
ATOM     62  C   UNL A   1      40.630  24.087  26.880  1.00  0.00     0.023 A 
ATOM     63  C   UNL A   1      39.396  24.077  26.207  1.00  0.00     0.031 A 
ATOM     64  C   UNL A   1      41.157  22.858  27.313  1.00  0.00     0.131 A 
ATOM     65  C   UNL A   1      38.697  22.872  26.048  1.00  0.00     0.055 A 
ATOM     66  C   UNL A   1      40.487  21.653  27.093  1.00  0.00     0.041 A 
ATOM     67  F   UNL A   1      42.330  22.808  27.965  1.00  0.00    -0.206 F 
ATOM     68  C   UNL A   1      39.241  21.658  26.473  1.00  0.00     0.022 A 
BRANCH  65  69
ATOM     69  S   UNL A   1      37.009  22.925  25.383  1.00  0.00     0.124 S 
ATOM     70  O   UNL A   1      36.666  21.509  25.311  1.00  0.00    -0.237 OA
ATOM     71  O   UNL A   1      36.301  23.702  26.395  1.00  0.00    -0.237 OA
ATOM     72  O   UNL A   1      37.170  23.591  24.091  1.00  0.00    -0.744 OA
ENDBRANCH  65  69
ENDBRANCH  39  62
ENDBRANCH  13  14
ENDBRANCH   6   8
ENDBRANCH   3   4
ENDBRANCH   2   3
ENDBRANCH   1   2
BRANCH   1  73
ATOM     73  C   UNL A   1      48.153  38.538  27.917  1.00  0.00     0.002 C 
BRANCH  73  74
ATOM     74  C   UNL A   1      48.432  38.619  26.412  1.00  0.00     0.021 C 
BRANCH  74  75
ATOM     75  C   UNL A   1      47.249  38.228  25.531  1.00  0.00     0.116 C 
BRANCH  75  76
ATOM     76  N   UNL A   1      47.017  39.164  24.454  1.00  0.00    -0.356 N 
ATOM     77  C   UNL A   1      46.480  40.403  24.409  1.00  0.00     0.224 C 
ATOM     78  H   UNL A   1      47.310  38.832  23.574  1.00  0.00     0.163 HD
ATOM     79  O   UNL A   1      46.502  40.946  23.291  1.00  0.00    -0.275 OA
BRANCH  77  80
ATOM     80  C   UNL A   1      45.770  41.138  25.548  1.00  0.00     0.098 C 
ATOM     81  C   UNL A   1      44.887  40.437  26.586  1.00  0.00     0.017 C 
ATOM     82  C   UNL A   1      45.085  42.374  24.978  1.00  0.00     0.131 C 
ATOM     83  C   UNL A   1      43.366  40.438  26.330  1.00  0.00     0.022 C 
ATOM     84  N   UNL A   1      43.769  42.000  24.494  1.00  0.00    -0.356 N 
ATOM     85  C   UNL A   1      42.807  41.609  25.511  1.00  0.00     0.118 C 
BRANCH  84  86
ATOM     86  C   UNL A   1      43.351  42.349  23.229  1.00  0.00     0.129 A 
ATOM     87  C   UNL A   1      41.991  42.411  22.919  1.00  0.00     0.047 A 
ATOM     88  N   UNL A   1      44.276  42.710  22.316  1.00  0.00    -0.231 NA
ATOM     89  C   UNL A   1      41.572  42.886  21.681  1.00  0.00     0.014 A 
ATOM     90  C   UNL A   1      43.880  43.132  21.104  1.00  0.00     0.073 A 
ATOM     91  C   UNL A   1      42.526  43.259  20.743  1.00  0.00     0.002 A 
ATOM     92  C   UNL A   1      44.837  43.456  20.158  1.00  0.00     0.030 A 
ATOM     93  C   UNL A   1      42.161  43.744  19.477  1.00  0.00     0.032 A 
ATOM     94  C   UNL A   1      44.489  43.912  18.882  1.00  0.00     0.024 A 
ATOM     95  C   UNL A   1      43.147  44.076  18.544  1.00  0.00     0.083 A 
BRANCH  95  96
ATOM     96  S   UNL A   1      42.578  44.664  16.957  1.00  0.00     0.243 S 
ATOM     97  O   UNL A   1      43.348  43.937  15.969  1.00  0.00    -0.207 OA
ATOM     98  O   UNL A   1      41.132  44.575  16.990  1.00  0.00    -0.207 OA
BRANCH  96  99
ATOM     99  N   UNL A   1      43.007  46.310  16.826  1.00  0.00    -0.198 NA
ATOM    100  C   UNL A   1      42.055  47.281  17.425  1.00  0.00     0.102 C 
ATOM    101  C   UNL A   1      44.458  46.601  16.905  1.00  0.00     0.102 C 
ATOM    102  C   UNL A   1      42.451  48.728  17.156  1.00  0.00     0.017 C 
ATOM    103  C   UNL A   1      44.769  48.061  16.614  1.00  0.00     0.017 C 
ATOM    104  C   UNL A   1      43.916  48.979  17.473  1.00  0.00     0.003 C 
ENDBRANCH  96  99
ENDBRANCH  95  96
ENDBRANCH  84  86
ENDBRANCH  77  80
ENDBRANCH  75  76
ENDBRANCH  74  75
ENDBRANCH  73  74
ENDBRANCH   1  73
TORSDOF 19
ENDMDL
MODEL 3
REMARK VINA RESULT:     -10.5      1.370      7.254
REMARK SMILES O=C(NCCCCCCNC(=O)[C@@H]1CCCN(c2ccc3cc(S(=O)(=O)N4CCCCC4)ccc3n2)C1)c1ccc(-c2c3nc(c(-c4cc(S(=O)(=O)[O-])ccc4F)c4ccc([nH]4)c(-c4cc(S(=O)(=O)[O-])ccc4F)c4nc(c(-c5cc(S(=O)(=O)[O-])ccc5F)c5ccc2[nH]5)C=C4)C=C3)cc1
REMARK SMILES IDX 6 1 5 2 4 3 3 4 1 5 2 6 38 8 39 9 100 10 40 11 99 12 41 13
REMARK SMILES IDX 42 14 43 15 93 16 44 17 98 18 92 19 94 20 45 21 97 22 91 23
REMARK SMILES IDX 90 24 46 26 78 27 58 28 77 29 59 30 62 31 76 32 95 33 60 34
REMARK SMILES IDX 61 35 75 37 96 38 63 39 47 40 48 41 56 42 49 43 55 44 57 45
REMARK SMILES IDX 54 46 50 47 51 48 52 49 53 50 79 51 80 52 88 53 81 54 87 55
REMARK SMILES IDX 89 56 86 57 82 58 83 59 84 60 85 61 64 62 65 63 73 64 66 65
REMARK SMILES IDX 72 66 74 67 71 68 67 69 68 70 69 71 70 72 7 73 8 74 9 75
REMARK SMILES IDX 10 76 11 77 12 79 13 80 14 81 37 82 15 83 17 84 16 85 18 86
REMARK SMILES IDX 19 87 36 88 20 89 35 90 21 91 34 92 22 93 33 94 23 95 24 96
REMARK SMILES IDX 25 97 26 98 27 99 28 100 32 101 29 102 31 103 30 104
REMARK H PARENT 3 7 94 25 62 36 10 78
REMARK Flexibility Score: inf
ROOT
ATOM      1  C   UNL A   1      40.319  27.001  29.090  1.00  0.00     0.002 C 
ENDROOT
BRANCH   1   2
ATOM      2  C   UNL A   1      40.147  25.745  28.233  1.00  0.00     0.021 C 
BRANCH   2   3
ATOM      3  C   UNL A   1      41.400  24.883  28.117  1.00  0.00     0.116 C 
BRANCH   3   4
ATOM      4  N   UNL A   1      41.866  24.784  26.741  1.00  0.00    -0.352 N 
ATOM      5  O   UNL A   1      42.481  25.554  24.711  1.00  0.00    -0.269 OA
ATOM      6  C   UNL A   1      42.338  25.771  25.910  1.00  0.00     0.251 C 
ATOM      7  H   UNL A   1      41.839  23.881  26.350  1.00  0.00     0.163 HD
BRANCH   6   8
ATOM      8  C   UNL A   1      42.663  27.101  26.469  1.00  0.00     0.039 A 
ATOM      9  C   UNL A   1      43.668  27.235  27.429  1.00  0.00     0.014 A 
ATOM     10  C   UNL A   1      41.955  28.225  26.033  1.00  0.00     0.014 A 
ATOM     11  C   UNL A   1      43.858  28.457  28.063  1.00  0.00     0.010 A 
ATOM     12  C   UNL A   1      42.213  29.473  26.608  1.00  0.00     0.010 A 
ATOM     13  C   UNL A   1      43.139  29.593  27.656  1.00  0.00    -0.014 A 
BRANCH  13  14
ATOM     14  C   UNL A   1      43.403  30.893  28.328  1.00  0.00     0.031 A 
ATOM     15  C   UNL A   1      42.571  31.343  29.500  1.00  0.00     0.074 A 
ATOM     16  C   UNL A   1      44.435  31.647  27.901  1.00  0.00     0.049 A 
ATOM     17  N   UNL A   1      42.690  32.424  30.230  1.00  0.00    -0.248 NA
ATOM     18  C   UNL A   1      41.455  30.473  29.897  1.00  0.00     0.031 C 
ATOM     19  C   UNL A   1      45.305  31.313  26.770  1.00  0.00     0.029 A 
ATOM     20  N   UNL A   1      44.947  32.827  28.375  1.00  0.00    -0.354 N 
ATOM     21  C   UNL A   1      41.653  32.377  31.156  1.00  0.00     0.074 A 
ATOM     22  C   UNL A   1      40.896  31.175  30.872  1.00  0.00     0.031 C 
ATOM     23  C   UNL A   1      46.276  32.233  26.676  1.00  0.00     0.029 A 
ATOM     24  C   UNL A   1      46.062  33.256  27.691  1.00  0.00     0.049 A 
ATOM     25  H   UNL A   1      44.556  33.319  29.133  1.00  0.00     0.167 HD
ATOM     26  C   UNL A   1      41.366  33.251  32.155  1.00  0.00     0.034 A 
ATOM     27  C   UNL A   1      46.820  34.356  27.854  1.00  0.00     0.034 A 
ATOM     28  C   UNL A   1      42.140  34.441  32.428  1.00  0.00     0.049 A 
ATOM     29  C   UNL A   1      46.469  35.319  28.956  1.00  0.00     0.074 A 
ATOM     30  C   UNL A   1      41.959  35.378  33.432  1.00  0.00     0.029 A 
ATOM     31  N   UNL A   1      43.240  34.864  31.691  1.00  0.00    -0.354 N 
ATOM     32  N   UNL A   1      45.497  35.249  29.836  1.00  0.00    -0.248 NA
ATOM     33  C   UNL A   1      47.321  36.506  29.090  1.00  0.00     0.031 C 
ATOM     34  C   UNL A   1      42.902  36.397  33.261  1.00  0.00     0.029 A 
ATOM     35  C   UNL A   1      43.727  36.060  32.200  1.00  0.00     0.049 A 
ATOM     36  H   UNL A   1      43.619  34.385  30.919  1.00  0.00     0.167 HD
ATOM     37  C   UNL A   1      45.640  36.370  30.647  1.00  0.00     0.074 A 
ATOM     38  C   UNL A   1      46.804  37.085  30.162  1.00  0.00     0.031 C 
ATOM     39  C   UNL A   1      44.880  36.771  31.699  1.00  0.00     0.034 A 
BRANCH  26  40
ATOM     40  C   UNL A   1      40.136  32.976  32.990  1.00  0.00     0.023 A 
ATOM     41  C   UNL A   1      40.210  32.334  34.238  1.00  0.00     0.031 A 
ATOM     42  C   UNL A   1      38.863  33.343  32.517  1.00  0.00     0.131 A 
ATOM     43  C   UNL A   1      39.034  32.012  34.935  1.00  0.00     0.055 A 
ATOM     44  C   UNL A   1      37.702  33.091  33.252  1.00  0.00     0.041 A 
ATOM     45  F   UNL A   1      38.723  33.941  31.324  1.00  0.00    -0.206 F 
ATOM     46  C   UNL A   1      37.781  32.407  34.461  1.00  0.00     0.022 A 
BRANCH  43  47
ATOM     47  S   UNL A   1      39.155  30.940  36.393  1.00  0.00     0.124 S 
ATOM     48  O   UNL A   1      40.048  31.710  37.256  1.00  0.00    -0.237 OA
ATOM     49  O   UNL A   1      37.767  30.847  36.833  1.00  0.00    -0.237 OA
ATOM     50  O   UNL A   1      39.726  29.702  35.864  1.00  0.00    -0.744 OA
ENDBRANCH  43  47
ENDBRANCH  26  40
BRANCH  27  51
ATOM     51  C   UNL A   1      47.972  34.616  26.947  1.00  0.00     0.023 A 
ATOM     52  C   UNL A   1      49.242  34.082  27.216  1.00  0.00     0.031 A 
ATOM     53  C   UNL A   1      47.826  35.427  25.805  1.00  0.00     0.131 A 
ATOM     54  C   UNL A   1      50.325  34.399  26.382  1.00  0.00     0.055 A 
ATOM     55  C   UNL A   1      48.893  35.694  24.949  1.00  0.00     0.041 A 
ATOM     56  F   UNL A   1      46.632  35.958  25.499  1.00  0.00    -0.206 F 
ATOM     57  C   UNL A   1      50.156  35.189  25.242  1.00  0.00     0.022 A 
BRANCH  54  58
ATOM     58  S   UNL A   1      51.980  33.825  26.851  1.00  0.00     0.124 S 
ATOM     59  O   UNL A   1      52.137  32.646  26.007  1.00  0.00    -0.237 OA
ATOM     60  O   UNL A   1      52.808  34.976  26.504  1.00  0.00    -0.237 OA
ATOM     61  O   UNL A   1      51.855  33.558  28.281  1.00  0.00    -0.744 OA
ENDBRANCH  54  58
ENDBRANCH  27  51
BRANCH  39  62
ATOM     62  C   UNL A   1      45.328  38.019  32.421  1.00  0.00     0.023 A 
ATOM     63  C   UNL A   1      44.833  39.290  32.083  1.00  0.00     0.031 A 
ATOM     64  C   UNL A   1      46.297  37.936  33.437  1.00  0.00     0.131 A 
ATOM     65  C   UNL A   1      45.358  40.433  32.704  1.00  0.00     0.055 A 
ATOM     66  C   UNL A   1      46.768  39.071  34.097  1.00  0.00     0.041 A 
ATOM     67  F   UNL A   1      46.809  36.748  33.798  1.00  0.00    -0.206 F 
ATOM     68  C   UNL A   1      46.311  40.331  33.720  1.00  0.00     0.022 A 
BRANCH  65  69
ATOM     69  S   UNL A   1      44.865  42.065  32.084  1.00  0.00     0.124 S 
ATOM     70  O   UNL A   1      43.443  42.096  32.407  1.00  0.00    -0.237 OA
ATOM     71  O   UNL A   1      45.715  42.962  32.859  1.00  0.00    -0.237 OA
ATOM     72  O   UNL A   1      45.175  41.998  30.656  1.00  0.00    -0.744 OA
ENDBRANCH  65  69
ENDBRANCH  39  62
ENDBRANCH  13  14
ENDBRANCH   6   8
ENDBRANCH   3   4
ENDBRANCH   2   3
ENDBRANCH   1   2
BRANCH   1  73
ATOM     73  C   UNL A   1      39.020  27.746  29.424  1.00  0.00     0.002 C 
BRANCH  73  74
ATOM     74  C   UNL A   1      38.426  28.558  28.268  1.00  0.00     0.021 C 
BRANCH  74  75
ATOM     75  C   UNL A   1      38.183  30.030  28.593  1.00  0.00     0.116 C 
BRANCH  75  76
ATOM     76  N   UNL A   1      37.278  30.218  29.704  1.00  0.00    -0.356 N 
ATOM     77  C   UNL A   1      36.445  31.222  30.055  1.00  0.00     0.224 C 
ATOM     78  H   UNL A   1      37.266  29.461  30.334  1.00  0.00     0.163 HD
ATOM     79  O   UNL A   1      35.755  31.005  31.065  1.00  0.00    -0.275 OA
BRANCH  77  80
ATOM     80  C   UNL A   1      36.349  32.605  29.406  1.00  0.00     0.098 C 
ATOM     81  C   UNL A   1      35.759  33.831  30.111  1.00  0.00     0.017 C 
ATOM     82  C   UNL A   1      35.784  32.445  28.000  1.00  0.00     0.131 C 
ATOM     83  C   UNL A   1      34.281  34.164  29.822  1.00  0.00     0.022 C 
ATOM     84  N   UNL A   1      34.334  32.457  28.074  1.00  0.00    -0.356 N 
ATOM     85  C   UNL A   1      33.730  33.721  28.461  1.00  0.00     0.118 C 
BRANCH  84  86
ATOM     86  C   UNL A   1      33.584  31.476  27.463  1.00  0.00     0.129 A 
ATOM     87  C   UNL A   1      32.295  31.750  27.000  1.00  0.00     0.047 A 
ATOM     88  N   UNL A   1      34.144  30.270  27.246  1.00  0.00    -0.231 NA
ATOM     89  C   UNL A   1      31.591  30.797  26.273  1.00  0.00     0.014 A 
ATOM     90  C   UNL A   1      33.455  29.330  26.579  1.00  0.00     0.073 A 
ATOM     91  C   UNL A   1      32.171  29.554  26.049  1.00  0.00     0.002 A 
ATOM     92  C   UNL A   1      34.021  28.079  26.401  1.00  0.00     0.030 A 
ATOM     93  C   UNL A   1      31.507  28.553  25.323  1.00  0.00     0.032 A 
ATOM     94  C   UNL A   1      33.358  27.061  25.706  1.00  0.00     0.024 A 
ATOM     95  C   UNL A   1      32.105  27.302  25.148  1.00  0.00     0.083 A 
BRANCH  95  96
ATOM     96  S   UNL A   1      31.168  26.093  24.227  1.00  0.00     0.243 S 
ATOM     97  O   UNL A   1      29.979  25.836  25.013  1.00  0.00    -0.207 OA
ATOM     98  O   UNL A   1      31.074  26.601  22.874  1.00  0.00    -0.207 OA
BRANCH  96  99
ATOM     99  N   UNL A   1      32.076  24.648  24.190  1.00  0.00    -0.198 NA
ATOM    100  C   UNL A   1      31.437  23.461  24.813  1.00  0.00     0.102 C 
ATOM    101  C   UNL A   1      32.913  24.450  22.983  1.00  0.00     0.102 C 
ATOM    102  C   UNL A   1      32.361  22.251  24.847  1.00  0.00     0.017 C 
ATOM    103  C   UNL A   1      33.813  23.229  23.101  1.00  0.00     0.017 C 
ATOM    104  C   UNL A   1      33.010  22.001  23.496  1.00  0.00     0.003 C 
ENDBRANCH  96  99
ENDBRANCH  95  96
ENDBRANCH  84  86
ENDBRANCH  77  80
ENDBRANCH  75  76
ENDBRANCH  74  75
ENDBRANCH  73  74
ENDBRANCH   1  73
TORSDOF 19
ENDMDL
