MODEL 1
REMARK VINA RESULT:     -12.4      0.000      0.000
REMARK SMILES Cc1cc(C)c2c(c1)C=C(C(=O)NCCCCCCNC(=O)c1ccc(-c3c4nc(c(-c5cc(S(=O)(=O)[O-])ccc5F)c5ccc([nH]5)c(-c5cc(S(=O)(=O)[O-])ccc5F)c5nc(c(-c6cc(S(=O)(=O)[O-])ccc6F)c6ccc3[nH]6)C=C5)C=C4)cc1)[C@@H](C(F)(F)F)O2
REMARK SMILES IDX 17 1 16 2 15 3 14 4 13 5 11 6 12 7 10 9 1 10 2 11 3 12 8 13
REMARK SMILES IDX 4 14 7 15 5 16 6 17 9 18 91 19 86 20 87 21 88 22 89 23 90 24
REMARK SMILES IDX 18 25 19 26 20 27 21 28 22 30 23 31 24 32 85 33 25 34 84 35
REMARK SMILES IDX 26 36 27 37 28 38 78 39 29 40 83 41 77 42 79 43 30 44 82 45
REMARK SMILES IDX 76 46 75 47 31 49 63 50 43 51 62 52 44 53 47 54 61 55 80 56
REMARK SMILES IDX 45 57 46 58 60 60 81 61 48 62 32 63 33 64 41 65 34 66 40 67
REMARK SMILES IDX 42 68 39 69 35 70 36 71 37 72 38 73 64 74 65 75 73 76 66 77
REMARK SMILES IDX 72 78 74 79 71 80 67 81 68 82 69 83 70 84 49 85 50 86 58 87
REMARK SMILES IDX 51 88 57 89 59 90 56 91 52 92 53 93 54 94 55 95
REMARK H PARENT 13 8 20 29 79 48 47 59
REMARK Flexibility Score: inf
ROOT
ATOM      1  C   UNL A   1      34.692  22.284  23.975  1.00  0.00     0.002 C 
ENDROOT
BRANCH   1   2
ATOM      2  C   UNL A   1      34.127  21.065  24.716  1.00  0.00     0.002 C 
BRANCH   2   3
ATOM      3  C   UNL A   1      32.615  20.859  24.585  1.00  0.00     0.021 C 
BRANCH   3   4
ATOM      4  C   UNL A   1      31.824  22.158  24.475  1.00  0.00     0.116 C 
BRANCH   4   5
ATOM      5  N   UNL A   1      31.066  22.429  25.685  1.00  0.00    -0.352 N 
ATOM      6  C   UNL A   1      30.648  23.518  26.368  1.00  0.00     0.251 C 
ATOM      7  O   UNL A   1      29.988  23.276  27.385  1.00  0.00    -0.270 OA
ATOM      8  H   UNL A   1      30.780  21.596  26.124  1.00  0.00     0.163 HD
BRANCH   6   9
ATOM      9  C   UNL A   1      30.923  24.938  25.990  1.00  0.00     0.067 C 
ATOM     10  C   UNL A   1      28.843  29.310  22.139  1.00  0.00     0.044 C 
ATOM     11  C   UNL A   1      29.695  28.724  23.225  1.00  0.00    -0.050 A 
ATOM     12  C   UNL A   1      30.638  29.514  23.894  1.00  0.00     0.010 A 
ATOM     13  C   UNL A   1      29.510  27.392  23.622  1.00  0.00     0.015 A 
ATOM     14  C   UNL A   1      31.410  28.983  24.935  1.00  0.00    -0.008 A 
ATOM     15  C   UNL A   1      30.275  26.847  24.658  1.00  0.00     0.018 A 
ATOM     16  C   UNL A   1      32.423  29.835  25.647  1.00  0.00     0.048 C 
ATOM     17  C   UNL A   1      31.223  27.644  25.300  1.00  0.00     0.130 A 
ATOM     18  C   UNL A   1      30.065  25.476  25.104  1.00  0.00     0.025 C 
ATOM     19  O   UNL A   1      31.970  27.181  26.345  1.00  0.00    -0.475 OA
ATOM     20  C   UNL A   1      32.087  25.743  26.494  1.00  0.00     0.314 C 
BRANCH  20  21
ATOM     21  C   UNL A   1      33.431  25.286  25.899  1.00  0.00     0.429 C 
ATOM     22  F   UNL A   1      33.854  24.145  26.498  1.00  0.00    -0.167 F 
ATOM     23  F   UNL A   1      33.347  25.014  24.576  1.00  0.00    -0.167 F 
ATOM     24  F   UNL A   1      34.405  26.210  26.049  1.00  0.00    -0.167 F 
ENDBRANCH  20  21
ENDBRANCH   6   9
ENDBRANCH   4   5
ENDBRANCH   3   4
ENDBRANCH   2   3
ENDBRANCH   1   2
BRANCH   1  25
ATOM     25  C   UNL A   1      36.167  22.593  24.246  1.00  0.00     0.021 C 
BRANCH  25  26
ATOM     26  C   UNL A   1      36.591  22.429  25.701  1.00  0.00     0.116 C 
BRANCH  26  27
ATOM     27  N   UNL A   1      37.575  21.373  25.857  1.00  0.00    -0.352 N 
ATOM     28  C   UNL A   1      38.914  21.476  26.136  1.00  0.00     0.251 C 
ATOM     29  H   UNL A   1      37.234  20.456  25.748  1.00  0.00     0.163 HD
ATOM     30  O   UNL A   1      39.645  20.498  26.000  1.00  0.00    -0.269 OA
BRANCH  28  31
ATOM     31  C   UNL A   1      39.467  22.770  26.585  1.00  0.00     0.039 A 
ATOM     32  C   UNL A   1      40.404  22.785  27.620  1.00  0.00     0.014 A 
ATOM     33  C   UNL A   1      39.056  23.965  25.985  1.00  0.00     0.014 A 
ATOM     34  C   UNL A   1      40.961  23.998  28.025  1.00  0.00     0.010 A 
ATOM     35  C   UNL A   1      39.663  25.165  26.343  1.00  0.00     0.010 A 
ATOM     36  C   UNL A   1      40.609  25.195  27.378  1.00  0.00    -0.014 A 
BRANCH  36  37
ATOM     37  C   UNL A   1      41.185  26.491  27.814  1.00  0.00     0.031 A 
ATOM     38  C   UNL A   1      42.616  26.816  27.486  1.00  0.00     0.074 A 
ATOM     39  C   UNL A   1      40.427  27.362  28.508  1.00  0.00     0.049 A 
ATOM     40  N   UNL A   1      43.309  27.884  27.788  1.00  0.00    -0.248 NA
ATOM     41  C   UNL A   1      43.374  25.799  26.740  1.00  0.00     0.031 C 
ATOM     42  C   UNL A   1      39.034  27.142  28.904  1.00  0.00     0.029 A 
ATOM     43  N   UNL A   1      40.715  28.612  28.993  1.00  0.00    -0.354 N 
ATOM     44  C   UNL A   1      44.580  27.667  27.267  1.00  0.00     0.074 A 
ATOM     45  C   UNL A   1      44.582  26.339  26.693  1.00  0.00     0.031 C 
ATOM     46  C   UNL A   1      38.578  28.239  29.531  1.00  0.00     0.029 A 
ATOM     47  C   UNL A   1      39.651  29.224  29.615  1.00  0.00     0.049 A 
ATOM     48  H   UNL A   1      41.601  29.033  28.903  1.00  0.00     0.167 HD
ATOM     49  C   UNL A   1      45.637  28.512  27.239  1.00  0.00     0.034 A 
ATOM     50  C   UNL A   1      39.555  30.441  30.186  1.00  0.00     0.034 A 
ATOM     51  C   UNL A   1      45.614  29.842  27.785  1.00  0.00     0.049 A 
ATOM     52  C   UNL A   1      40.761  31.343  30.189  1.00  0.00     0.074 A 
ATOM     53  C   UNL A   1      46.610  30.802  27.757  1.00  0.00     0.029 A 
ATOM     54  N   UNL A   1      44.537  30.400  28.460  1.00  0.00    -0.354 N 
ATOM     55  N   UNL A   1      41.947  31.131  29.667  1.00  0.00    -0.248 NA
ATOM     56  C   UNL A   1      40.622  32.640  30.865  1.00  0.00     0.031 C 
ATOM     57  C   UNL A   1      46.156  31.920  28.463  1.00  0.00     0.029 A 
ATOM     58  C   UNL A   1      44.858  31.677  28.885  1.00  0.00     0.049 A 
ATOM     59  H   UNL A   1      43.674  29.954  28.613  1.00  0.00     0.167 HD
ATOM     60  C   UNL A   1      42.692  32.272  29.945  1.00  0.00     0.074 A 
ATOM     61  C   UNL A   1      41.822  33.174  30.670  1.00  0.00     0.031 C 
ATOM     62  C   UNL A   1      43.982  32.548  29.628  1.00  0.00     0.034 A 
BRANCH  49  63
ATOM     63  C   UNL A   1      46.903  28.018  26.591  1.00  0.00     0.023 A 
ATOM     64  C   UNL A   1      47.085  28.088  25.199  1.00  0.00     0.031 A 
ATOM     65  C   UNL A   1      47.939  27.475  27.369  1.00  0.00     0.131 A 
ATOM     66  C   UNL A   1      48.253  27.571  24.622  1.00  0.00     0.055 A 
ATOM     67  C   UNL A   1      49.127  27.023  26.794  1.00  0.00     0.041 A 
ATOM     68  F   UNL A   1      47.808  27.370  28.702  1.00  0.00    -0.206 F 
ATOM     69  C   UNL A   1      49.286  27.060  25.412  1.00  0.00     0.022 A 
BRANCH  66  70
ATOM     70  S   UNL A   1      48.365  27.494  22.814  1.00  0.00     0.124 S 
ATOM     71  O   UNL A   1      49.625  28.191  22.569  1.00  0.00    -0.237 OA
ATOM     72  O   UNL A   1      48.369  26.059  22.557  1.00  0.00    -0.237 OA
ATOM     73  O   UNL A   1      47.169  28.204  22.367  1.00  0.00    -0.744 OA
ENDBRANCH  66  70
ENDBRANCH  49  63
BRANCH  50  74
ATOM     74  C   UNL A   1      38.274  30.878  30.806  1.00  0.00     0.023 A 
ATOM     75  C   UNL A   1      37.315  31.578  30.059  1.00  0.00     0.031 A 
ATOM     76  C   UNL A   1      37.992  30.604  32.156  1.00  0.00     0.131 A 
ATOM     77  C   UNL A   1      36.125  32.001  30.672  1.00  0.00     0.055 A 
ATOM     78  C   UNL A   1      36.793  30.995  32.752  1.00  0.00     0.041 A 
ATOM     79  F   UNL A   1      38.876  29.930  32.909  1.00  0.00    -0.206 F 
ATOM     80  C   UNL A   1      35.854  31.705  32.010  1.00  0.00     0.022 A 
BRANCH  77  81
ATOM     81  S   UNL A   1      34.941  32.973  29.700  1.00  0.00     0.124 S 
ATOM     82  O   UNL A   1      34.411  31.967  28.787  1.00  0.00    -0.237 OA
ATOM     83  O   UNL A   1      34.024  33.455  30.728  1.00  0.00    -0.237 OA
ATOM     84  O   UNL A   1      35.773  34.002  29.081  1.00  0.00    -0.744 OA
ENDBRANCH  77  81
ENDBRANCH  50  74
BRANCH  62  85
ATOM     85  C   UNL A   1      44.535  33.874  30.068  1.00  0.00     0.023 A 
ATOM     86  C   UNL A   1      44.351  35.027  29.288  1.00  0.00     0.031 A 
ATOM     87  C   UNL A   1      45.184  34.000  31.308  1.00  0.00     0.131 A 
ATOM     88  C   UNL A   1      44.823  36.263  29.753  1.00  0.00     0.055 A 
ATOM     89  C   UNL A   1      45.616  35.238  31.783  1.00  0.00     0.041 A 
ATOM     90  F   UNL A   1      45.375  32.925  32.090  1.00  0.00    -0.206 F 
ATOM     91  C   UNL A   1      45.438  36.378  31.003  1.00  0.00     0.022 A 
BRANCH  88  92
ATOM     92  S   UNL A   1      44.624  37.724  28.699  1.00  0.00     0.124 S 
ATOM     93  O   UNL A   1      46.010  38.069  28.398  1.00  0.00    -0.237 OA
ATOM     94  O   UNL A   1      43.840  37.209  27.582  1.00  0.00    -0.237 OA
ATOM     95  O   UNL A   1      43.921  38.673  29.561  1.00  0.00    -0.744 OA
ENDBRANCH  88  92
ENDBRANCH  62  85
ENDBRANCH  36  37
ENDBRANCH  28  31
ENDBRANCH  26  27
ENDBRANCH  25  26
ENDBRANCH   1  25
TORSDOF 17
ENDMDL
MODEL 2
REMARK VINA RESULT:     -12.3      4.852      9.844
REMARK SMILES Cc1cc(C)c2c(c1)C=C(C(=O)NCCCCCCNC(=O)c1ccc(-c3c4nc(c(-c5cc(S(=O)(=O)[O-])ccc5F)c5ccc([nH]5)c(-c5cc(S(=O)(=O)[O-])ccc5F)c5nc(c(-c6cc(S(=O)(=O)[O-])ccc6F)c6ccc3[nH]6)C=C5)C=C4)cc1)[C@@H](C(F)(F)F)O2
REMARK SMILES IDX 17 1 16 2 15 3 14 4 13 5 11 6 12 7 10 9 1 10 2 11 3 12 8 13
REMARK SMILES IDX 4 14 7 15 5 16 6 17 9 18 91 19 86 20 87 21 88 22 89 23 90 24
REMARK SMILES IDX 18 25 19 26 20 27 21 28 22 30 23 31 24 32 85 33 25 34 84 35
REMARK SMILES IDX 26 36 27 37 28 38 78 39 29 40 83 41 77 42 79 43 30 44 82 45
REMARK SMILES IDX 76 46 75 47 31 49 63 50 43 51 62 52 44 53 47 54 61 55 80 56
REMARK SMILES IDX 45 57 46 58 60 60 81 61 48 62 32 63 33 64 41 65 34 66 40 67
REMARK SMILES IDX 42 68 39 69 35 70 36 71 37 72 38 73 64 74 65 75 73 76 66 77
REMARK SMILES IDX 72 78 74 79 71 80 67 81 68 82 69 83 70 84 49 85 50 86 58 87
REMARK SMILES IDX 51 88 57 89 59 90 56 91 52 92 53 93 54 94 55 95
REMARK H PARENT 13 8 20 29 79 48 47 59
REMARK Flexibility Score: inf
ROOT
ATOM      1  C   UNL A   1      31.421  28.292  25.993  1.00  0.00     0.002 C 
ENDROOT
BRANCH   1   2
ATOM      2  C   UNL A   1      31.509  28.484  24.473  1.00  0.00     0.002 C 
BRANCH   2   3
ATOM      3  C   UNL A   1      30.460  27.726  23.654  1.00  0.00     0.021 C 
BRANCH   3   4
ATOM      4  C   UNL A   1      30.817  26.266  23.396  1.00  0.00     0.116 C 
BRANCH   4   5
ATOM      5  N   UNL A   1      31.663  26.119  22.225  1.00  0.00    -0.352 N 
ATOM      6  C   UNL A   1      32.690  25.328  21.837  1.00  0.00     0.251 C 
ATOM      7  O   UNL A   1      33.121  25.550  20.701  1.00  0.00    -0.270 OA
ATOM      8  H   UNL A   1      31.425  26.769  21.525  1.00  0.00     0.163 HD
BRANCH   6   9
ATOM      9  C   UNL A   1      33.313  24.250  22.664  1.00  0.00     0.067 C 
ATOM     10  C   UNL A   1      32.296  18.388  24.358  1.00  0.00     0.044 C 
ATOM     11  C   UNL A   1      33.040  19.686  24.273  1.00  0.00    -0.050 A 
ATOM     12  C   UNL A   1      34.295  19.828  24.878  1.00  0.00     0.010 A 
ATOM     13  C   UNL A   1      32.510  20.753  23.533  1.00  0.00     0.015 A 
ATOM     14  C   UNL A   1      35.012  21.026  24.770  1.00  0.00    -0.008 A 
ATOM     15  C   UNL A   1      33.213  21.956  23.419  1.00  0.00     0.018 A 
ATOM     16  C   UNL A   1      36.358  21.174  25.423  1.00  0.00     0.048 C 
ATOM     17  C   UNL A   1      34.454  22.086  24.044  1.00  0.00     0.130 A 
ATOM     18  C   UNL A   1      32.690  23.057  22.621  1.00  0.00     0.025 C 
ATOM     19  O   UNL A   1      35.205  23.220  23.933  1.00  0.00    -0.475 OA
ATOM     20  C   UNL A   1      34.521  24.435  23.536  1.00  0.00     0.314 C 
BRANCH  20  21
ATOM     21  C   UNL A   1      34.227  25.277  24.791  1.00  0.00     0.429 C 
ATOM     22  F   UNL A   1      35.162  25.050  25.747  1.00  0.00    -0.167 F 
ATOM     23  F   UNL A   1      34.251  26.607  24.542  1.00  0.00    -0.167 F 
ATOM     24  F   UNL A   1      33.018  25.000  25.329  1.00  0.00    -0.167 F 
ENDBRANCH  20  21
ENDBRANCH   6   9
ENDBRANCH   4   5
ENDBRANCH   3   4
ENDBRANCH   2   3
ENDBRANCH   1   2
BRANCH   1  25
ATOM     25  C   UNL A   1      32.746  28.414  26.749  1.00  0.00     0.021 C 
BRANCH  25  26
ATOM     26  C   UNL A   1      33.735  29.399  26.137  1.00  0.00     0.116 C 
BRANCH  26  27
ATOM     27  N   UNL A   1      33.471  30.762  26.563  1.00  0.00    -0.352 N 
ATOM     28  C   UNL A   1      34.078  31.487  27.557  1.00  0.00     0.251 C 
ATOM     29  H   UNL A   1      32.757  31.228  26.072  1.00  0.00     0.163 HD
ATOM     30  O   UNL A   1      33.573  32.539  27.942  1.00  0.00    -0.269 OA
BRANCH  28  31
ATOM     31  C   UNL A   1      35.328  30.988  28.164  1.00  0.00     0.039 A 
ATOM     32  C   UNL A   1      35.292  29.821  28.929  1.00  0.00     0.014 A 
ATOM     33  C   UNL A   1      36.532  31.677  27.980  1.00  0.00     0.014 A 
ATOM     34  C   UNL A   1      36.474  29.320  29.475  1.00  0.00     0.010 A 
ATOM     35  C   UNL A   1      37.719  31.138  28.466  1.00  0.00     0.010 A 
ATOM     36  C   UNL A   1      37.699  29.964  29.233  1.00  0.00    -0.014 A 
BRANCH  36  37
ATOM     37  C   UNL A   1      38.957  29.446  29.824  1.00  0.00     0.031 A 
ATOM     38  C   UNL A   1      39.462  30.023  31.118  1.00  0.00     0.074 A 
ATOM     39  C   UNL A   1      39.643  28.471  29.196  1.00  0.00     0.049 A 
ATOM     40  N   UNL A   1      40.544  29.721  31.789  1.00  0.00    -0.248 NA
ATOM     41  C   UNL A   1      38.659  31.096  31.725  1.00  0.00     0.031 C 
ATOM     42  C   UNL A   1      39.261  27.854  27.924  1.00  0.00     0.029 A 
ATOM     43  N   UNL A   1      40.798  27.820  29.546  1.00  0.00    -0.354 N 
ATOM     44  C   UNL A   1      40.547  30.563  32.895  1.00  0.00     0.074 A 
ATOM     45  C   UNL A   1      39.400  31.435  32.768  1.00  0.00     0.031 C 
ATOM     46  C   UNL A   1      40.140  26.884  27.626  1.00  0.00     0.029 A 
ATOM     47  C   UNL A   1      41.168  26.834  28.661  1.00  0.00     0.049 A 
ATOM     48  H   UNL A   1      41.314  28.038  30.356  1.00  0.00     0.167 HD
ATOM     49  C   UNL A   1      41.408  30.583  33.940  1.00  0.00     0.034 A 
ATOM     50  C   UNL A   1      42.215  25.986  28.685  1.00  0.00     0.034 A 
ATOM     51  C   UNL A   1      42.528  29.690  34.071  1.00  0.00     0.049 A 
ATOM     52  C   UNL A   1      43.189  26.063  29.831  1.00  0.00     0.074 A 
ATOM     53  C   UNL A   1      43.428  29.586  35.117  1.00  0.00     0.029 A 
ATOM     54  N   UNL A   1      42.903  28.747  33.124  1.00  0.00    -0.354 N 
ATOM     55  N   UNL A   1      43.161  26.847  30.883  1.00  0.00    -0.248 NA
ATOM     56  C   UNL A   1      44.341  25.151  29.789  1.00  0.00     0.031 C 
ATOM     57  C   UNL A   1      44.378  28.619  34.778  1.00  0.00     0.029 A 
ATOM     58  C   UNL A   1      44.041  28.083  33.544  1.00  0.00     0.049 A 
ATOM     59  H   UNL A   1      42.428  28.577  32.279  1.00  0.00     0.167 HD
ATOM     60  C   UNL A   1      44.285  26.517  31.632  1.00  0.00     0.074 A 
ATOM     61  C   UNL A   1      44.966  25.456  30.920  1.00  0.00     0.031 C 
ATOM     62  C   UNL A   1      44.716  27.045  32.805  1.00  0.00     0.034 A 
BRANCH  49  63
ATOM     63  C   UNL A   1      41.165  31.602  35.021  1.00  0.00     0.023 A 
ATOM     64  C   UNL A   1      40.072  31.487  35.898  1.00  0.00     0.031 A 
ATOM     65  C   UNL A   1      42.031  32.696  35.180  1.00  0.00     0.131 A 
ATOM     66  C   UNL A   1      39.843  32.480  36.860  1.00  0.00     0.055 A 
ATOM     67  C   UNL A   1      41.835  33.647  36.183  1.00  0.00     0.041 A 
ATOM     68  F   UNL A   1      43.080  32.861  34.357  1.00  0.00    -0.206 F 
ATOM     69  C   UNL A   1      40.730  33.547  37.024  1.00  0.00     0.022 A 
BRANCH  66  70
ATOM     70  S   UNL A   1      38.318  32.406  37.836  1.00  0.00     0.124 S 
ATOM     71  O   UNL A   1      37.751  31.133  37.398  1.00  0.00    -0.237 OA
ATOM     72  O   UNL A   1      38.815  32.446  39.206  1.00  0.00    -0.237 OA
ATOM     73  O   UNL A   1      37.579  33.591  37.407  1.00  0.00    -0.744 OA
ENDBRANCH  66  70
ENDBRANCH  49  63
BRANCH  50  74
ATOM     74  C   UNL A   1      42.401  24.994  27.591  1.00  0.00     0.023 A 
ATOM     75  C   UNL A   1      41.703  23.777  27.596  1.00  0.00     0.031 A 
ATOM     76  C   UNL A   1      43.283  25.248  26.525  1.00  0.00     0.131 A 
ATOM     77  C   UNL A   1      41.914  22.847  26.565  1.00  0.00     0.055 A 
ATOM     78  C   UNL A   1      43.462  24.337  25.484  1.00  0.00     0.041 A 
ATOM     79  F   UNL A   1      43.967  26.403  26.472  1.00  0.00    -0.206 F 
ATOM     80  C   UNL A   1      42.780  23.124  25.504  1.00  0.00     0.022 A 
BRANCH  77  81
ATOM     81  S   UNL A   1      41.056  21.251  26.642  1.00  0.00     0.124 S 
ATOM     82  O   UNL A   1      40.875  21.081  28.080  1.00  0.00    -0.237 OA
ATOM     83  O   UNL A   1      39.847  21.515  25.870  1.00  0.00    -0.237 OA
ATOM     84  O   UNL A   1      42.000  20.327  26.018  1.00  0.00    -0.744 OA
ENDBRANCH  77  81
ENDBRANCH  50  74
BRANCH  62  85
ATOM     85  C   UNL A   1      45.984  26.492  33.390  1.00  0.00     0.023 A 
ATOM     86  C   UNL A   1      45.969  25.327  34.173  1.00  0.00     0.031 A 
ATOM     87  C   UNL A   1      47.223  27.091  33.102  1.00  0.00     0.131 A 
ATOM     88  C   UNL A   1      47.175  24.798  34.654  1.00  0.00     0.055 A 
ATOM     89  C   UNL A   1      48.422  26.538  33.550  1.00  0.00     0.041 A 
ATOM     90  F   UNL A   1      47.285  28.202  32.351  1.00  0.00    -0.206 F 
ATOM     91  C   UNL A   1      48.402  25.386  34.332  1.00  0.00     0.022 A 
BRANCH  88  92
ATOM     92  S   UNL A   1      47.122  23.326  35.711  1.00  0.00     0.124 S 
ATOM     93  O   UNL A   1      45.690  23.184  35.956  1.00  0.00    -0.237 OA
ATOM     94  O   UNL A   1      47.728  22.303  34.865  1.00  0.00    -0.237 OA
ATOM     95  O   UNL A   1      47.916  23.713  36.876  1.00  0.00    -0.744 OA
ENDBRANCH  88  92
ENDBRANCH  62  85
ENDBRANCH  36  37
ENDBRANCH  28  31
ENDBRANCH  26  27
ENDBRANCH  25  26
ENDBRANCH   1  25
TORSDOF 17
ENDMDL
MODEL 3
REMARK VINA RESULT:     -12.1      0.834      7.439
REMARK SMILES Cc1cc(C)c2c(c1)C=C(C(=O)NCCCCCCNC(=O)c1ccc(-c3c4nc(c(-c5cc(S(=O)(=O)[O-])ccc5F)c5ccc([nH]5)c(-c5cc(S(=O)(=O)[O-])ccc5F)c5nc(c(-c6cc(S(=O)(=O)[O-])ccc6F)c6ccc3[nH]6)C=C5)C=C4)cc1)[C@@H](C(F)(F)F)O2
REMARK SMILES IDX 17 1 16 2 15 3 14 4 13 5 11 6 12 7 10 9 1 10 2 11 3 12 8 13
REMARK SMILES IDX 4 14 7 15 5 16 6 17 9 18 91 19 86 20 87 21 88 22 89 23 90 24
REMARK SMILES IDX 18 25 19 26 20 27 21 28 22 30 23 31 24 32 85 33 25 34 84 35
REMARK SMILES IDX 26 36 27 37 28 38 78 39 29 40 83 41 77 42 79 43 30 44 82 45
REMARK SMILES IDX 76 46 75 47 31 49 63 50 43 51 62 52 44 53 47 54 61 55 80 56
REMARK SMILES IDX 45 57 46 58 60 60 81 61 48 62 32 63 33 64 41 65 34 66 40 67
REMARK SMILES IDX 42 68 39 69 35 70 36 71 37 72 38 73 64 74 65 75 73 76 66 77
REMARK SMILES IDX 72 78 74 79 71 80 67 81 68 82 69 83 70 84 49 85 50 86 58 87
REMARK SMILES IDX 51 88 57 89 59 90 56 91 52 92 53 93 54 94 55 95
REMARK H PARENT 13 8 20 29 79 48 47 59
REMARK Flexibility Score: inf
ROOT
ATOM      1  C   UNL A   1      34.763  22.138  23.856  1.00  0.00     0.002 C 
ENDROOT
BRANCH   1   2
ATOM      2  C   UNL A   1      34.016  21.103  24.708  1.00  0.00     0.002 C 
BRANCH   2   3
ATOM      3  C   UNL A   1      32.505  21.026  24.471  1.00  0.00     0.021 C 
BRANCH   3   4
ATOM      4  C   UNL A   1      31.818  22.388  24.424  1.00  0.00     0.116 C 
BRANCH   4   5
ATOM      5  N   UNL A   1      31.047  22.642  25.628  1.00  0.00    -0.352 N 
ATOM      6  C   UNL A   1      30.603  23.721  26.311  1.00  0.00     0.251 C 
ATOM      7  O   UNL A   1      29.939  23.464  27.322  1.00  0.00    -0.270 OA
ATOM      8  H   UNL A   1      30.772  21.802  26.063  1.00  0.00     0.163 HD
BRANCH   6   9
ATOM      9  C   UNL A   1      30.856  25.147  25.939  1.00  0.00     0.067 C 
ATOM     10  C   UNL A   1      28.710  29.500  22.103  1.00  0.00     0.044 C 
ATOM     11  C   UNL A   1      29.569  28.923  23.188  1.00  0.00    -0.050 A 
ATOM     12  C   UNL A   1      30.499  29.726  23.861  1.00  0.00     0.010 A 
ATOM     13  C   UNL A   1      29.405  27.587  23.579  1.00  0.00     0.015 A 
ATOM     14  C   UNL A   1      31.278  29.204  24.900  1.00  0.00    -0.008 A 
ATOM     15  C   UNL A   1      30.178  27.050  24.613  1.00  0.00     0.018 A 
ATOM     16  C   UNL A   1      32.276  30.069  25.618  1.00  0.00     0.048 C 
ATOM     17  C   UNL A   1      31.113  27.860  25.260  1.00  0.00     0.130 A 
ATOM     18  C   UNL A   1      29.990  25.675  25.054  1.00  0.00     0.025 C 
ATOM     19  O   UNL A   1      31.865  27.405  26.304  1.00  0.00    -0.475 OA
ATOM     20  C   UNL A   1      32.005  25.969  26.448  1.00  0.00     0.314 C 
BRANCH  20  21
ATOM     21  C   UNL A   1      33.358  25.536  25.853  1.00  0.00     0.429 C 
ATOM     22  F   UNL A   1      34.291  26.502  26.038  1.00  0.00    -0.167 F 
ATOM     23  F   UNL A   1      33.847  24.416  26.435  1.00  0.00    -0.167 F 
ATOM     24  F   UNL A   1      33.285  25.288  24.526  1.00  0.00    -0.167 F 
ENDBRANCH  20  21
ENDBRANCH   6   9
ENDBRANCH   4   5
ENDBRANCH   3   4
ENDBRANCH   2   3
ENDBRANCH   1   2
BRANCH   1  25
ATOM     25  C   UNL A   1      35.958  22.811  24.537  1.00  0.00     0.021 C 
BRANCH  25  26
ATOM     26  C   UNL A   1      36.248  22.307  25.946  1.00  0.00     0.116 C 
BRANCH  26  27
ATOM     27  N   UNL A   1      37.183  21.196  25.937  1.00  0.00    -0.352 N 
ATOM     28  C   UNL A   1      38.553  21.221  25.995  1.00  0.00     0.251 C 
ATOM     29  H   UNL A   1      36.777  20.301  25.882  1.00  0.00     0.163 HD
ATOM     30  O   UNL A   1      39.195  20.206  25.738  1.00  0.00    -0.269 OA
BRANCH  28  31
ATOM     31  C   UNL A   1      39.245  22.476  26.352  1.00  0.00     0.039 A 
ATOM     32  C   UNL A   1      40.290  22.435  27.277  1.00  0.00     0.014 A 
ATOM     33  C   UNL A   1      38.855  23.690  25.777  1.00  0.00     0.014 A 
ATOM     34  C   UNL A   1      40.975  23.609  27.592  1.00  0.00     0.010 A 
ATOM     35  C   UNL A   1      39.584  24.846  26.040  1.00  0.00     0.010 A 
ATOM     36  C   UNL A   1      40.640  24.820  26.962  1.00  0.00    -0.014 A 
BRANCH  36  37
ATOM     37  C   UNL A   1      41.352  26.075  27.305  1.00  0.00     0.031 A 
ATOM     38  C   UNL A   1      40.678  27.097  28.178  1.00  0.00     0.074 A 
ATOM     39  C   UNL A   1      42.592  26.295  26.827  1.00  0.00     0.049 A 
ATOM     40  N   UNL A   1      41.122  28.261  28.580  1.00  0.00    -0.248 NA
ATOM     41  C   UNL A   1      39.318  26.782  28.641  1.00  0.00     0.031 C 
ATOM     42  C   UNL A   1      43.334  25.385  25.951  1.00  0.00     0.029 A 
ATOM     43  N   UNL A   1      43.453  27.346  27.017  1.00  0.00    -0.354 N 
ATOM     44  C   UNL A   1      40.099  28.810  29.343  1.00  0.00     0.074 A 
ATOM     45  C   UNL A   1      38.987  27.887  29.290  1.00  0.00     0.031 C 
ATOM     46  C   UNL A   1      44.555  25.897  25.719  1.00  0.00     0.029 A 
ATOM     47  C   UNL A   1      44.669  27.186  26.394  1.00  0.00     0.049 A 
ATOM     48  H   UNL A   1      43.222  28.141  27.550  1.00  0.00     0.167 HD
ATOM     49  C   UNL A   1      40.099  29.963  30.052  1.00  0.00     0.034 A 
ATOM     50  C   UNL A   1      45.753  27.987  26.374  1.00  0.00     0.034 A 
ATOM     51  C   UNL A   1      41.222  30.859  30.124  1.00  0.00     0.049 A 
ATOM     52  C   UNL A   1      45.711  29.290  27.128  1.00  0.00     0.074 A 
ATOM     53  C   UNL A   1      41.350  32.023  30.860  1.00  0.00     0.029 A 
ATOM     54  N   UNL A   1      42.413  30.690  29.430  1.00  0.00    -0.354 N 
ATOM     55  N   UNL A   1      44.743  29.781  27.868  1.00  0.00    -0.248 NA
ATOM     56  C   UNL A   1      46.898  30.151  27.038  1.00  0.00     0.031 C 
ATOM     57  C   UNL A   1      42.596  32.587  30.570  1.00  0.00     0.029 A 
ATOM     58  C   UNL A   1      43.266  31.748  29.693  1.00  0.00     0.049 A 
ATOM     59  H   UNL A   1      42.619  29.931  28.840  1.00  0.00     0.167 HD
ATOM     60  C   UNL A   1      45.209  31.004  28.337  1.00  0.00     0.074 A 
ATOM     61  C   UNL A   1      46.546  31.174  27.808  1.00  0.00     0.031 C 
ATOM     62  C   UNL A   1      44.585  31.907  29.134  1.00  0.00     0.034 A 
BRANCH  49  63
ATOM     63  C   UNL A   1      38.846  30.314  30.809  1.00  0.00     0.023 A 
ATOM     64  C   UNL A   1      37.784  30.991  30.185  1.00  0.00     0.031 A 
ATOM     65  C   UNL A   1      38.708  29.968  32.163  1.00  0.00     0.131 A 
ATOM     66  C   UNL A   1      36.653  31.350  30.931  1.00  0.00     0.055 A 
ATOM     67  C   UNL A   1      37.551  30.270  32.883  1.00  0.00     0.041 A 
ATOM     68  F   UNL A   1      39.701  29.335  32.810  1.00  0.00    -0.206 F 
ATOM     69  C   UNL A   1      36.518  30.974  32.269  1.00  0.00     0.022 A 
BRANCH  66  70
ATOM     70  S   UNL A   1      35.396  32.396  30.149  1.00  0.00     0.124 S 
ATOM     71  O   UNL A   1      36.168  33.594  29.829  1.00  0.00    -0.237 OA
ATOM     72  O   UNL A   1      34.971  31.588  29.012  1.00  0.00    -0.237 OA
ATOM     73  O   UNL A   1      34.394  32.569  31.199  1.00  0.00    -0.744 OA
ENDBRANCH  66  70
ENDBRANCH  49  63
BRANCH  50  74
ATOM     74  C   UNL A   1      46.968  27.585  25.614  1.00  0.00     0.023 A 
ATOM     75  C   UNL A   1      47.093  27.881  24.248  1.00  0.00     0.031 A 
ATOM     76  C   UNL A   1      48.020  26.895  26.242  1.00  0.00     0.131 A 
ATOM     77  C   UNL A   1      48.237  27.469  23.546  1.00  0.00     0.055 A 
ATOM     78  C   UNL A   1      49.172  26.520  25.549  1.00  0.00     0.041 A 
ATOM     79  F   UNL A   1      47.950  26.597  27.549  1.00  0.00    -0.206 F 
ATOM     80  C   UNL A   1      49.282  26.801  24.191  1.00  0.00     0.022 A 
BRANCH  77  81
ATOM     81  S   UNL A   1      48.333  27.797  21.765  1.00  0.00     0.124 S 
ATOM     82  O   UNL A   1      47.003  28.331  21.490  1.00  0.00    -0.237 OA
ATOM     83  O   UNL A   1      49.435  28.750  21.688  1.00  0.00    -0.237 OA
ATOM     84  O   UNL A   1      48.609  26.482  21.191  1.00  0.00    -0.744 OA
ENDBRANCH  77  81
ENDBRANCH  50  74
BRANCH  62  85
ATOM     85  C   UNL A   1      45.335  33.163  29.480  1.00  0.00     0.023 A 
ATOM     86  C   UNL A   1      45.256  34.299  28.658  1.00  0.00     0.031 A 
ATOM     87  C   UNL A   1      46.071  33.249  30.673  1.00  0.00     0.131 A 
ATOM     88  C   UNL A   1      45.915  35.477  29.037  1.00  0.00     0.055 A 
ATOM     89  C   UNL A   1      46.691  34.434  31.065  1.00  0.00     0.041 A 
ATOM     90  F   UNL A   1      46.167  32.189  31.493  1.00  0.00    -0.206 F 
ATOM     91  C   UNL A   1      46.616  35.557  30.244  1.00  0.00     0.022 A 
BRANCH  88  92
ATOM     92  S   UNL A   1      45.845  36.910  27.929  1.00  0.00     0.124 S 
ATOM     93  O   UNL A   1      44.943  36.438  26.883  1.00  0.00    -0.237 OA
ATOM     94  O   UNL A   1      45.321  37.959  28.796  1.00  0.00    -0.237 OA
ATOM     95  O   UNL A   1      47.236  37.089  27.515  1.00  0.00    -0.744 OA
ENDBRANCH  88  92
ENDBRANCH  62  85
ENDBRANCH  36  37
ENDBRANCH  28  31
ENDBRANCH  26  27
ENDBRANCH  25  26
ENDBRANCH   1  25
TORSDOF 17
ENDMDL
