MODEL 1
REMARK VINA RESULT:     -12.0      0.000      0.000
REMARK SMILES CC(C)(O)C#Cc1ccc(C(=O)N[C@@H](CC2=c3ccccc3=NC2)C(=O)NCCCCCCNC(=O)c2ccc(-c3c4nc(c(-c5cc(S(=O)(=O)[O-])ccc5F)c5ccc([nH]5)c(-c5cc(S(=O)(=O)[O-])ccc5F)c5nc(c(-c6cc(S(=O)(=O)[O-])ccc6F)c6ccc3[nH]6)C=C5)C=C4)cc2)s1
REMARK SMILES IDX 29 1 28 2 27 3 25 4 26 5 14 7 13 8 11 9 12 10 10 12 7 13
REMARK SMILES IDX 8 14 100 15 9 16 6 17 5 18 2 19 1 20 3 21 4 22 15 24 16 25
REMARK SMILES IDX 17 26 24 27 18 28 22 29 23 30 19 31 21 32 20 33 30 34 31 35
REMARK SMILES IDX 32 36 33 37 34 38 35 39 36 41 37 42 38 43 99 44 39 45 98 46
REMARK SMILES IDX 40 47 41 48 42 49 92 50 43 51 97 52 91 53 93 54 44 55 96 56
REMARK SMILES IDX 90 57 89 58 45 60 77 61 57 62 76 63 58 64 61 65 75 66 94 67
REMARK SMILES IDX 59 68 60 69 74 71 95 72 62 73 46 74 47 75 55 76 48 77 54 78
REMARK SMILES IDX 56 79 53 80 49 81 50 82 51 83 52 84 78 85 79 86 87 87 80 88
REMARK SMILES IDX 86 89 88 90 85 91 81 92 82 93 83 94 84 95 63 96 64 97 72 98
REMARK SMILES IDX 65 99 71 100 73 101 70 102 66 103 67 104 68 105 69 106
REMARK H PARENT 27 6 13 11 4 23 34 40 93 59 61 70
REMARK Flexibility Score: inf
ROOT
ATOM      1  C   UNL A   1      31.664  27.859  27.052  1.00  0.00     0.021 C 
ENDROOT
BRANCH   1   2
ATOM      2  C   UNL A   1      32.054  26.505  26.501  1.00  0.00     0.116 C 
BRANCH   2   3
ATOM      3  N   UNL A   1      31.188  26.021  25.460  1.00  0.00    -0.354 N 
ATOM      4  C   UNL A   1      31.184  24.804  24.853  1.00  0.00     0.242 C 
ATOM      5  O   UNL A   1      30.167  24.497  24.220  1.00  0.00    -0.273 OA
ATOM      6  H   UNL A   1      30.506  26.657  25.143  1.00  0.00     0.163 HD
BRANCH   4   7
ATOM      7  C   UNL A   1      32.357  23.798  24.971  1.00  0.00     0.175 C 
BRANCH   7   8
ATOM      8  N   UNL A   1      32.887  23.337  23.673  1.00  0.00    -0.339 N 
ATOM      9  C   UNL A   1      33.181  23.988  22.504  1.00  0.00     0.262 C 
ATOM     10  O   UNL A   1      33.633  23.279  21.585  1.00  0.00    -0.268 OA
ATOM     11  H   UNL A   1      33.065  22.370  23.641  1.00  0.00     0.164 HD
BRANCH   9  12
ATOM     12  C   UNL A   1      33.087  25.418  22.376  1.00  0.00     0.093 A 
ATOM     13  C   UNL A   1      31.993  27.550  22.359  1.00  0.00     0.078 A 
ATOM     14  C   UNL A   1      33.194  27.640  23.027  1.00  0.00     0.030 A 
ATOM     15  S   UNL A   1      32.019  26.217  21.307  1.00  0.00    -0.121 S 
ATOM     16  C   UNL A   1      33.866  26.378  23.006  1.00  0.00     0.027 A 
BRANCH  13  17
ATOM     17  C   UNL A   1      30.908  28.449  22.415  1.00  0.00    -0.053 C 
ATOM     18  C   UNL A   1      29.797  29.125  22.522  1.00  0.00    -0.063 C 
BRANCH  18  19
ATOM     19  C   UNL A   1      28.503  29.913  22.647  1.00  0.00     0.120 C 
ATOM     20  C   UNL A   1      28.070  30.414  21.272  1.00  0.00     0.056 C 
ATOM     21  C   UNL A   1      28.698  31.071  23.623  1.00  0.00     0.056 C 
BRANCH  19  22
ATOM     22  O   UNL A   1      27.499  29.039  23.155  1.00  0.00    -0.378 OA
ATOM     23  H   UNL A   1      27.059  29.457  23.911  1.00  0.00     0.212 HD
ENDBRANCH  19  22
ENDBRANCH  18  19
ENDBRANCH  13  17
ENDBRANCH   9  12
ENDBRANCH   7   8
BRANCH   7  24
ATOM     24  C   UNL A   1      33.462  24.168  26.007  1.00  0.00     0.068 C 
BRANCH  24  25
ATOM     25  C   UNL A   1      34.821  23.542  25.878  1.00  0.00    -0.037 C 
ATOM     26  C   UNL A   1      35.161  22.255  25.768  1.00  0.00     0.001 A 
ATOM     27  C   UNL A   1      36.041  24.412  25.746  1.00  0.00     0.174 C 
ATOM     28  C   UNL A   1      34.459  21.013  25.783  1.00  0.00     0.010 A 
ATOM     29  C   UNL A   1      36.561  22.336  25.311  1.00  0.00     0.065 A 
ATOM     30  N   UNL A   1      37.116  23.508  25.283  1.00  0.00    -0.280 NA
ATOM     31  C   UNL A   1      35.046  19.927  25.255  1.00  0.00     0.001 A 
ATOM     32  C   UNL A   1      37.160  21.087  24.793  1.00  0.00     0.028 A 
ATOM     33  C   UNL A   1      36.402  19.979  24.734  1.00  0.00     0.002 A 
ENDBRANCH  24  25
ENDBRANCH   7  24
ENDBRANCH   4   7
ENDBRANCH   2   3
ENDBRANCH   1   2
BRANCH   1  34
ATOM     34  C   UNL A   1      31.433  28.925  25.985  1.00  0.00     0.002 C 
BRANCH  34  35
ATOM     35  C   UNL A   1      32.563  29.948  25.804  1.00  0.00     0.002 C 
BRANCH  35  36
ATOM     36  C   UNL A   1      32.755  30.965  26.937  1.00  0.00     0.021 C 
BRANCH  36  37
ATOM     37  C   UNL A   1      34.096  30.888  27.665  1.00  0.00     0.116 C 
BRANCH  37  38
ATOM     38  N   UNL A   1      34.656  32.180  27.985  1.00  0.00    -0.352 N 
ATOM     39  C   UNL A   1      35.879  32.633  28.387  1.00  0.00     0.251 C 
ATOM     40  H   UNL A   1      33.999  32.907  27.890  1.00  0.00     0.163 HD
ATOM     41  O   UNL A   1      35.972  33.857  28.518  1.00  0.00    -0.269 OA
BRANCH  39  42
ATOM     42  C   UNL A   1      37.051  31.777  28.716  1.00  0.00     0.039 A 
ATOM     43  C   UNL A   1      38.157  32.161  29.474  1.00  0.00     0.014 A 
ATOM     44  C   UNL A   1      37.027  30.476  28.176  1.00  0.00     0.014 A 
ATOM     45  C   UNL A   1      39.246  31.303  29.614  1.00  0.00     0.010 A 
ATOM     46  C   UNL A   1      38.103  29.610  28.328  1.00  0.00     0.010 A 
ATOM     47  C   UNL A   1      39.234  30.043  29.010  1.00  0.00    -0.014 A 
BRANCH  47  48
ATOM     48  C   UNL A   1      40.404  29.188  29.196  1.00  0.00     0.031 A 
ATOM     49  C   UNL A   1      40.671  28.774  30.603  1.00  0.00     0.074 A 
ATOM     50  C   UNL A   1      41.151  28.712  28.181  1.00  0.00     0.049 A 
ATOM     51  N   UNL A   1      41.685  29.067  31.352  1.00  0.00    -0.248 NA
ATOM     52  C   UNL A   1      39.609  28.034  31.299  1.00  0.00     0.031 C 
ATOM     53  C   UNL A   1      40.857  28.745  26.746  1.00  0.00     0.029 A 
ATOM     54  N   UNL A   1      42.309  27.996  28.241  1.00  0.00    -0.354 N 
ATOM     55  C   UNL A   1      41.479  28.406  32.565  1.00  0.00     0.074 A 
ATOM     56  C   UNL A   1      40.127  27.907  32.521  1.00  0.00     0.031 C 
ATOM     57  C   UNL A   1      41.682  27.888  26.103  1.00  0.00     0.029 A 
ATOM     58  C   UNL A   1      42.658  27.376  27.050  1.00  0.00     0.049 A 
ATOM     59  H   UNL A   1      42.852  27.925  29.059  1.00  0.00     0.167 HD
ATOM     60  C   UNL A   1      42.491  28.171  33.450  1.00  0.00     0.034 A 
ATOM     61  C   UNL A   1      43.635  26.454  26.870  1.00  0.00     0.034 A 
ATOM     62  C   UNL A   1      43.643  28.976  33.152  1.00  0.00     0.049 A 
ATOM     63  C   UNL A   1      44.571  26.538  28.015  1.00  0.00     0.074 A 
ATOM     64  C   UNL A   1      43.921  30.326  33.167  1.00  0.00     0.029 A 
ATOM     65  N   UNL A   1      44.660  28.387  32.442  1.00  0.00    -0.354 N 
ATOM     66  N   UNL A   1      45.383  27.533  28.233  1.00  0.00    -0.248 NA
ATOM     67  C   UNL A   1      44.314  25.679  29.160  1.00  0.00     0.031 C 
ATOM     68  C   UNL A   1      44.824  30.529  32.086  1.00  0.00     0.029 A 
ATOM     69  C   UNL A   1      45.086  29.286  31.501  1.00  0.00     0.049 A 
ATOM     70  H   UNL A   1      45.018  27.482  32.584  1.00  0.00     0.167 HD
ATOM     71  C   UNL A   1      45.368  27.697  29.609  1.00  0.00     0.074 A 
ATOM     72  C   UNL A   1      44.795  26.458  30.130  1.00  0.00     0.031 C 
ATOM     73  C   UNL A   1      45.559  28.922  30.180  1.00  0.00     0.034 A 
BRANCH  60  74
ATOM     74  C   UNL A   1      42.555  26.993  34.397  1.00  0.00     0.023 A 
ATOM     75  C   UNL A   1      43.428  25.907  34.210  1.00  0.00     0.031 A 
ATOM     76  C   UNL A   1      41.898  27.039  35.646  1.00  0.00     0.131 A 
ATOM     77  C   UNL A   1      43.625  24.937  35.204  1.00  0.00     0.055 A 
ATOM     78  C   UNL A   1      42.143  26.107  36.665  1.00  0.00     0.041 A 
ATOM     79  F   UNL A   1      41.039  28.027  35.943  1.00  0.00    -0.206 F 
ATOM     80  C   UNL A   1      43.013  25.049  36.447  1.00  0.00     0.022 A 
BRANCH  77  81
ATOM     81  S   UNL A   1      44.704  23.513  34.893  1.00  0.00     0.124 S 
ATOM     82  O   UNL A   1      45.397  23.377  36.166  1.00  0.00    -0.237 OA
ATOM     83  O   UNL A   1      43.732  22.467  34.583  1.00  0.00    -0.237 OA
ATOM     84  O   UNL A   1      45.523  23.947  33.762  1.00  0.00    -0.744 OA
ENDBRANCH  77  81
ENDBRANCH  60  74
BRANCH  61  85
ATOM     85  C   UNL A   1      43.540  25.226  26.048  1.00  0.00     0.023 A 
ATOM     86  C   UNL A   1      42.617  24.226  26.404  1.00  0.00     0.031 A 
ATOM     87  C   UNL A   1      44.554  24.880  25.139  1.00  0.00     0.131 A 
ATOM     88  C   UNL A   1      42.755  22.924  25.909  1.00  0.00     0.055 A 
ATOM     89  C   UNL A   1      44.680  23.582  24.631  1.00  0.00     0.041 A 
ATOM     90  F   UNL A   1      45.489  25.777  24.787  1.00  0.00    -0.206 F 
ATOM     91  C   UNL A   1      43.786  22.591  25.029  1.00  0.00     0.022 A 
BRANCH  88  92
ATOM     92  S   UNL A   1      41.649  21.606  26.482  1.00  0.00     0.124 S 
ATOM     93  O   UNL A   1      40.331  22.142  26.148  1.00  0.00    -0.237 OA
ATOM     94  O   UNL A   1      42.092  20.475  25.672  1.00  0.00    -0.237 OA
ATOM     95  O   UNL A   1      41.934  21.516  27.911  1.00  0.00    -0.744 OA
ENDBRANCH  88  92
ENDBRANCH  61  85
BRANCH  73  96
ATOM     96  C   UNL A   1      46.058  30.063  29.319  1.00  0.00     0.023 A 
ATOM     97  C   UNL A   1      45.104  30.738  28.536  1.00  0.00     0.031 A 
ATOM     98  C   UNL A   1      47.415  30.343  29.070  1.00  0.00     0.131 A 
ATOM     99  C   UNL A   1      45.507  31.609  27.519  1.00  0.00     0.055 A 
ATOM    100  C   UNL A   1      47.813  31.273  28.104  1.00  0.00     0.041 A 
ATOM    101  F   UNL A   1      48.397  29.669  29.684  1.00  0.00    -0.206 F 
ATOM    102  C   UNL A   1      46.857  31.897  27.308  1.00  0.00     0.022 A 
BRANCH  99 103
ATOM    103  S   UNL A   1      44.296  32.253  26.337  1.00  0.00     0.124 S 
ATOM    104  O   UNL A   1      43.428  31.098  26.124  1.00  0.00    -0.237 OA
ATOM    105  O   UNL A   1      43.694  33.359  27.080  1.00  0.00    -0.237 OA
ATOM    106  O   UNL A   1      45.100  32.652  25.186  1.00  0.00    -0.744 OA
ENDBRANCH  99 103
ENDBRANCH  73  96
ENDBRANCH  47  48
ENDBRANCH  39  42
ENDBRANCH  37  38
ENDBRANCH  36  37
ENDBRANCH  35  36
ENDBRANCH  34  35
ENDBRANCH   1  34
TORSDOF 23
ENDMDL
MODEL 2
REMARK VINA RESULT:     -12.0      3.014      8.697
REMARK SMILES CC(C)(O)C#Cc1ccc(C(=O)N[C@@H](CC2=c3ccccc3=NC2)C(=O)NCCCCCCNC(=O)c2ccc(-c3c4nc(c(-c5cc(S(=O)(=O)[O-])ccc5F)c5ccc([nH]5)c(-c5cc(S(=O)(=O)[O-])ccc5F)c5nc(c(-c6cc(S(=O)(=O)[O-])ccc6F)c6ccc3[nH]6)C=C5)C=C4)cc2)s1
REMARK SMILES IDX 29 1 28 2 27 3 25 4 26 5 14 7 13 8 11 9 12 10 10 12 7 13
REMARK SMILES IDX 8 14 100 15 9 16 6 17 5 18 2 19 1 20 3 21 4 22 15 24 16 25
REMARK SMILES IDX 17 26 24 27 18 28 22 29 23 30 19 31 21 32 20 33 30 34 31 35
REMARK SMILES IDX 32 36 33 37 34 38 35 39 36 41 37 42 38 43 99 44 39 45 98 46
REMARK SMILES IDX 40 47 41 48 42 49 92 50 43 51 97 52 91 53 93 54 44 55 96 56
REMARK SMILES IDX 90 57 89 58 45 60 77 61 57 62 76 63 58 64 61 65 75 66 94 67
REMARK SMILES IDX 59 68 60 69 74 71 95 72 62 73 46 74 47 75 55 76 48 77 54 78
REMARK SMILES IDX 56 79 53 80 49 81 50 82 51 83 52 84 78 85 79 86 87 87 80 88
REMARK SMILES IDX 86 89 88 90 85 91 81 92 82 93 83 94 84 95 63 96 64 97 72 98
REMARK SMILES IDX 65 99 71 100 73 101 70 102 66 103 67 104 68 105 69 106
REMARK H PARENT 27 6 13 11 4 23 34 40 93 59 61 70
REMARK Flexibility Score: inf
ROOT
ATOM      1  C   UNL A   1      34.069  25.083  23.019  1.00  0.00     0.021 C 
ENDROOT
BRANCH   1   2
ATOM      2  C   UNL A   1      33.961  26.552  23.364  1.00  0.00     0.116 C 
BRANCH   2   3
ATOM      3  N   UNL A   1      32.632  27.088  23.244  1.00  0.00    -0.354 N 
ATOM      4  C   UNL A   1      31.597  27.002  24.123  1.00  0.00     0.242 C 
ATOM      5  O   UNL A   1      30.659  27.792  23.965  1.00  0.00    -0.273 OA
ATOM      6  H   UNL A   1      32.445  27.584  22.415  1.00  0.00     0.163 HD
BRANCH   4   7
ATOM      7  C   UNL A   1      31.581  26.009  25.313  1.00  0.00     0.175 C 
BRANCH   7   8
ATOM      8  N   UNL A   1      31.019  26.570  26.558  1.00  0.00    -0.339 N 
ATOM      9  C   UNL A   1      31.387  27.623  27.352  1.00  0.00     0.262 C 
ATOM     10  O   UNL A   1      30.669  27.831  28.348  1.00  0.00    -0.268 OA
ATOM     11  H   UNL A   1      30.223  26.091  26.882  1.00  0.00     0.164 HD
BRANCH   9  12
ATOM     12  C   UNL A   1      32.463  28.512  27.000  1.00  0.00     0.093 A 
ATOM     13  C   UNL A   1      33.754  30.529  27.081  1.00  0.00     0.078 A 
ATOM     14  C   UNL A   1      34.589  29.434  27.060  1.00  0.00     0.030 A 
ATOM     15  S   UNL A   1      32.240  30.110  26.437  1.00  0.00    -0.121 S 
ATOM     16  C   UNL A   1      33.821  28.230  26.974  1.00  0.00     0.027 A 
BRANCH  13  17
ATOM     17  C   UNL A   1      34.074  31.847  27.467  1.00  0.00    -0.053 C 
ATOM     18  C   UNL A   1      34.428  32.986  27.994  1.00  0.00    -0.063 C 
BRANCH  18  19
ATOM     19  C   UNL A   1      34.840  34.315  28.609  1.00  0.00     0.120 C 
ATOM     20  C   UNL A   1      36.274  34.223  29.123  1.00  0.00     0.056 C 
ATOM     21  C   UNL A   1      33.871  34.685  29.730  1.00  0.00     0.056 C 
BRANCH  19  22
ATOM     22  O   UNL A   1      34.779  35.312  27.592  1.00  0.00    -0.378 OA
ATOM     23  H   UNL A   1      35.067  36.163  27.957  1.00  0.00     0.212 HD
ENDBRANCH  19  22
ENDBRANCH  18  19
ENDBRANCH  13  17
ENDBRANCH   9  12
ENDBRANCH   7   8
BRANCH   7  24
ATOM     24  C   UNL A   1      31.073  24.572  24.986  1.00  0.00     0.068 C 
BRANCH  24  25
ATOM     25  C   UNL A   1      31.725  23.397  25.657  1.00  0.00    -0.037 C 
ATOM     26  C   UNL A   1      32.008  22.186  25.173  1.00  0.00     0.001 A 
ATOM     27  C   UNL A   1      32.266  23.535  27.054  1.00  0.00     0.174 C 
ATOM     28  C   UNL A   1      31.785  21.507  23.937  1.00  0.00     0.010 A 
ATOM     29  C   UNL A   1      32.951  21.656  26.176  1.00  0.00     0.065 A 
ATOM     30  N   UNL A   1      33.135  22.354  27.253  1.00  0.00    -0.280 NA
ATOM     31  C   UNL A   1      32.539  20.437  23.637  1.00  0.00     0.001 A 
ATOM     32  C   UNL A   1      33.707  20.443  25.796  1.00  0.00     0.028 A 
ATOM     33  C   UNL A   1      33.526  19.922  24.570  1.00  0.00     0.002 A 
ENDBRANCH  24  25
ENDBRANCH   7  24
ENDBRANCH   4   7
ENDBRANCH   2   3
ENDBRANCH   1   2
BRANCH   1  34
ATOM     34  C   UNL A   1      34.878  24.264  24.020  1.00  0.00     0.002 C 
BRANCH  34  35
ATOM     35  C   UNL A   1      35.341  22.883  23.537  1.00  0.00     0.002 C 
BRANCH  35  36
ATOM     36  C   UNL A   1      36.808  22.520  23.802  1.00  0.00     0.021 C 
BRANCH  36  37
ATOM     37  C   UNL A   1      37.208  22.449  25.275  1.00  0.00     0.116 C 
BRANCH  37  38
ATOM     38  N   UNL A   1      38.518  21.880  25.492  1.00  0.00    -0.352 N 
ATOM     39  C   UNL A   1      39.632  22.252  26.187  1.00  0.00     0.251 C 
ATOM     40  H   UNL A   1      38.634  21.019  25.030  1.00  0.00     0.163 HD
ATOM     41  O   UNL A   1      40.565  21.443  26.160  1.00  0.00    -0.269 OA
BRANCH  39  42
ATOM     42  C   UNL A   1      39.811  23.543  26.906  1.00  0.00     0.039 A 
ATOM     43  C   UNL A   1      38.917  24.614  26.899  1.00  0.00     0.014 A 
ATOM     44  C   UNL A   1      41.014  23.677  27.626  1.00  0.00     0.014 A 
ATOM     45  C   UNL A   1      39.255  25.815  27.518  1.00  0.00     0.010 A 
ATOM     46  C   UNL A   1      41.348  24.867  28.261  1.00  0.00     0.010 A 
ATOM     47  C   UNL A   1      40.485  25.954  28.167  1.00  0.00    -0.014 A 
BRANCH  47  48
ATOM     48  C   UNL A   1      40.780  27.237  28.800  1.00  0.00     0.031 A 
ATOM     49  C   UNL A   1      41.923  27.989  28.209  1.00  0.00     0.074 A 
ATOM     50  C   UNL A   1      40.033  27.775  29.784  1.00  0.00     0.049 A 
ATOM     51  N   UNL A   1      43.055  28.298  28.755  1.00  0.00    -0.248 NA
ATOM     52  C   UNL A   1      41.834  28.338  26.784  1.00  0.00     0.031 C 
ATOM     53  C   UNL A   1      38.716  27.343  30.260  1.00  0.00     0.029 A 
ATOM     54  N   UNL A   1      40.267  28.905  30.508  1.00  0.00    -0.354 N 
ATOM     55  C   UNL A   1      43.762  29.034  27.802  1.00  0.00     0.074 A 
ATOM     56  C   UNL A   1      43.022  28.905  26.571  1.00  0.00     0.031 C 
ATOM     57  C   UNL A   1      38.174  28.324  31.018  1.00  0.00     0.029 A 
ATOM     58  C   UNL A   1      39.164  29.369  31.211  1.00  0.00     0.049 A 
ATOM     59  H   UNL A   1      41.143  29.354  30.530  1.00  0.00     0.167 HD
ATOM     60  C   UNL A   1      44.815  29.837  28.132  1.00  0.00     0.034 A 
ATOM     61  C   UNL A   1      39.051  30.561  31.847  1.00  0.00     0.034 A 
ATOM     62  C   UNL A   1      45.300  29.546  29.453  1.00  0.00     0.049 A 
ATOM     63  C   UNL A   1      40.411  31.099  32.075  1.00  0.00     0.074 A 
ATOM     64  C   UNL A   1      45.914  28.466  30.051  1.00  0.00     0.029 A 
ATOM     65  N   UNL A   1      44.873  30.355  30.476  1.00  0.00    -0.354 N 
ATOM     66  N   UNL A   1      41.272  30.597  32.913  1.00  0.00    -0.248 NA
ATOM     67  C   UNL A   1      40.968  31.977  31.058  1.00  0.00     0.031 C 
ATOM     68  C   UNL A   1      45.419  28.453  31.385  1.00  0.00     0.029 A 
ATOM     69  C   UNL A   1      44.570  29.552  31.543  1.00  0.00     0.049 A 
ATOM     70  H   UNL A   1      44.800  31.335  30.449  1.00  0.00     0.167 HD
ATOM     71  C   UNL A   1      42.492  30.713  32.267  1.00  0.00     0.074 A 
ATOM     72  C   UNL A   1      42.260  31.675  31.191  1.00  0.00     0.031 C 
ATOM     73  C   UNL A   1      43.499  29.816  32.484  1.00  0.00     0.034 A 
BRANCH  60  74
ATOM     74  C   UNL A   1      45.210  31.094  27.388  1.00  0.00     0.023 A 
ATOM     75  C   UNL A   1      44.375  32.221  27.289  1.00  0.00     0.031 A 
ATOM     76  C   UNL A   1      46.540  31.280  26.948  1.00  0.00     0.131 A 
ATOM     77  C   UNL A   1      44.841  33.444  26.784  1.00  0.00     0.055 A 
ATOM     78  C   UNL A   1      47.023  32.519  26.505  1.00  0.00     0.041 A 
ATOM     79  F   UNL A   1      47.433  30.277  26.991  1.00  0.00    -0.206 F 
ATOM     80  C   UNL A   1      46.172  33.611  26.423  1.00  0.00     0.022 A 
BRANCH  77  81
ATOM     81  S   UNL A   1      43.710  34.851  26.607  1.00  0.00     0.124 S 
ATOM     82  O   UNL A   1      42.886  34.728  27.801  1.00  0.00    -0.237 OA
ATOM     83  O   UNL A   1      44.640  35.977  26.589  1.00  0.00    -0.237 OA
ATOM     84  O   UNL A   1      43.037  34.588  25.336  1.00  0.00    -0.744 OA
ENDBRANCH  77  81
ENDBRANCH  60  74
BRANCH  61  85
ATOM     85  C   UNL A   1      37.868  31.452  31.832  1.00  0.00     0.023 A 
ATOM     86  C   UNL A   1      37.754  32.465  32.802  1.00  0.00     0.031 A 
ATOM     87  C   UNL A   1      36.712  31.113  31.108  1.00  0.00     0.131 A 
ATOM     88  C   UNL A   1      36.514  33.060  33.064  1.00  0.00     0.055 A 
ATOM     89  C   UNL A   1      35.478  31.722  31.359  1.00  0.00     0.041 A 
ATOM     90  F   UNL A   1      36.745  30.129  30.195  1.00  0.00    -0.206 F 
ATOM     91  C   UNL A   1      35.370  32.691  32.354  1.00  0.00     0.022 A 
BRANCH  88  92
ATOM     92  S   UNL A   1      36.343  34.262  34.411  1.00  0.00     0.124 S 
ATOM     93  O   UNL A   1      36.115  33.399  35.568  1.00  0.00    -0.237 OA
ATOM     94  O   UNL A   1      37.638  34.934  34.374  1.00  0.00    -0.237 OA
ATOM     95  O   UNL A   1      35.195  35.068  34.007  1.00  0.00    -0.744 OA
ENDBRANCH  88  92
ENDBRANCH  61  85
BRANCH  73  96
ATOM     96  C   UNL A   1      43.378  28.844  33.638  1.00  0.00     0.023 A 
ATOM     97  C   UNL A   1      44.032  29.188  34.835  1.00  0.00     0.031 A 
ATOM     98  C   UNL A   1      42.866  27.537  33.532  1.00  0.00     0.131 A 
ATOM     99  C   UNL A   1      44.204  28.240  35.848  1.00  0.00     0.055 A 
ATOM    100  C   UNL A   1      42.973  26.614  34.578  1.00  0.00     0.041 A 
ATOM    101  F   UNL A   1      42.329  27.081  32.393  1.00  0.00    -0.206 F 
ATOM    102  C   UNL A   1      43.663  26.957  35.737  1.00  0.00     0.022 A 
BRANCH  99 103
ATOM    103  S   UNL A   1      45.284  28.598  37.258  1.00  0.00     0.124 S 
ATOM    104  O   UNL A   1      46.508  27.888  36.897  1.00  0.00    -0.237 OA
ATOM    105  O   UNL A   1      45.372  30.057  37.218  1.00  0.00    -0.237 OA
ATOM    106  O   UNL A   1      44.561  28.057  38.405  1.00  0.00    -0.744 OA
ENDBRANCH  99 103
ENDBRANCH  73  96
ENDBRANCH  47  48
ENDBRANCH  39  42
ENDBRANCH  37  38
ENDBRANCH  36  37
ENDBRANCH  35  36
ENDBRANCH  34  35
ENDBRANCH   1  34
TORSDOF 23
ENDMDL
MODEL 3
REMARK VINA RESULT:     -12.0      2.778      7.944
REMARK SMILES CC(C)(O)C#Cc1ccc(C(=O)N[C@@H](CC2=c3ccccc3=NC2)C(=O)NCCCCCCNC(=O)c2ccc(-c3c4nc(c(-c5cc(S(=O)(=O)[O-])ccc5F)c5ccc([nH]5)c(-c5cc(S(=O)(=O)[O-])ccc5F)c5nc(c(-c6cc(S(=O)(=O)[O-])ccc6F)c6ccc3[nH]6)C=C5)C=C4)cc2)s1
REMARK SMILES IDX 29 1 28 2 27 3 25 4 26 5 14 7 13 8 11 9 12 10 10 12 7 13
REMARK SMILES IDX 8 14 100 15 9 16 6 17 5 18 2 19 1 20 3 21 4 22 15 24 16 25
REMARK SMILES IDX 17 26 24 27 18 28 22 29 23 30 19 31 21 32 20 33 30 34 31 35
REMARK SMILES IDX 32 36 33 37 34 38 35 39 36 41 37 42 38 43 99 44 39 45 98 46
REMARK SMILES IDX 40 47 41 48 42 49 92 50 43 51 97 52 91 53 93 54 44 55 96 56
REMARK SMILES IDX 90 57 89 58 45 60 77 61 57 62 76 63 58 64 61 65 75 66 94 67
REMARK SMILES IDX 59 68 60 69 74 71 95 72 62 73 46 74 47 75 55 76 48 77 54 78
REMARK SMILES IDX 56 79 53 80 49 81 50 82 51 83 52 84 78 85 79 86 87 87 80 88
REMARK SMILES IDX 86 89 88 90 85 91 81 92 82 93 83 94 84 95 63 96 64 97 72 98
REMARK SMILES IDX 65 99 71 100 73 101 70 102 66 103 67 104 68 105 69 106
REMARK H PARENT 27 6 13 11 4 23 34 40 93 59 61 70
REMARK Flexibility Score: inf
ROOT
ATOM      1  C   UNL A   1      31.393  27.160  26.674  1.00  0.00     0.021 C 
ENDROOT
BRANCH   1   2
ATOM      2  C   UNL A   1      31.873  25.734  26.509  1.00  0.00     0.116 C 
BRANCH   2   3
ATOM      3  N   UNL A   1      30.830  24.748  26.609  1.00  0.00    -0.354 N 
ATOM      4  C   UNL A   1      30.745  23.536  25.998  1.00  0.00     0.242 C 
ATOM      5  O   UNL A   1      29.932  22.729  26.465  1.00  0.00    -0.273 OA
ATOM      6  H   UNL A   1      30.077  24.982  27.198  1.00  0.00     0.163 HD
BRANCH   4   7
ATOM      7  C   UNL A   1      31.643  23.127  24.804  1.00  0.00     0.175 C 
BRANCH   7   8
ATOM      8  N   UNL A   1      32.076  21.715  24.831  1.00  0.00    -0.339 N 
ATOM      9  C   UNL A   1      33.305  21.118  24.749  1.00  0.00     0.262 C 
ATOM     10  O   UNL A   1      33.312  19.874  24.817  1.00  0.00    -0.268 OA
ATOM     11  H   UNL A   1      31.333  21.078  24.927  1.00  0.00     0.164 HD
BRANCH   9  12
ATOM     12  C   UNL A   1      34.527  21.876  24.708  1.00  0.00     0.093 A 
ATOM     13  C   UNL A   1      36.837  22.336  25.148  1.00  0.00     0.078 A 
ATOM     14  C   UNL A   1      36.527  22.674  23.850  1.00  0.00     0.030 A 
ATOM     15  S   UNL A   1      35.426  22.322  26.092  1.00  0.00    -0.121 S 
ATOM     16  C   UNL A   1      35.140  22.436  23.596  1.00  0.00     0.027 A 
BRANCH  13  17
ATOM     17  C   UNL A   1      38.118  22.122  25.699  1.00  0.00    -0.053 C 
ATOM     18  C   UNL A   1      39.343  21.829  26.040  1.00  0.00    -0.063 C 
BRANCH  18  19
ATOM     19  C   UNL A   1      40.770  21.488  26.439  1.00  0.00     0.120 C 
ATOM     20  C   UNL A   1      40.905  19.980  26.635  1.00  0.00     0.056 C 
ATOM     21  C   UNL A   1      41.145  22.249  27.709  1.00  0.00     0.056 C 
BRANCH  19  22
ATOM     22  O   UNL A   1      41.635  21.893  25.380  1.00  0.00    -0.378 OA
ATOM     23  H   UNL A   1      41.566  22.852  25.256  1.00  0.00     0.212 HD
ENDBRANCH  19  22
ENDBRANCH  18  19
ENDBRANCH  13  17
ENDBRANCH   9  12
ENDBRANCH   7   8
BRANCH   7  24
ATOM     24  C   UNL A   1      31.163  23.610  23.401  1.00  0.00     0.068 C 
BRANCH  24  25
ATOM     25  C   UNL A   1      31.592  24.963  22.910  1.00  0.00    -0.037 C 
ATOM     26  C   UNL A   1      30.966  26.140  22.992  1.00  0.00     0.001 A 
ATOM     27  C   UNL A   1      32.959  25.146  22.308  1.00  0.00     0.174 C 
ATOM     28  C   UNL A   1      29.703  26.587  23.483  1.00  0.00     0.010 A 
ATOM     29  C   UNL A   1      32.044  27.095  22.676  1.00  0.00     0.065 A 
ATOM     30  N   UNL A   1      33.179  26.608  22.280  1.00  0.00    -0.280 NA
ATOM     31  C   UNL A   1      29.541  27.887  23.775  1.00  0.00     0.001 A 
ATOM     32  C   UNL A   1      31.775  28.518  22.974  1.00  0.00     0.028 A 
ATOM     33  C   UNL A   1      30.602  28.852  23.540  1.00  0.00     0.002 A 
ENDBRANCH  24  25
ENDBRANCH   7  24
ENDBRANCH   4   7
ENDBRANCH   2   3
ENDBRANCH   1   2
BRANCH   1  34
ATOM     34  C   UNL A   1      32.428  28.101  27.282  1.00  0.00     0.002 C 
BRANCH  34  35
ATOM     35  C   UNL A   1      33.441  28.708  26.300  1.00  0.00     0.002 C 
BRANCH  35  36
ATOM     36  C   UNL A   1      34.358  29.807  26.854  1.00  0.00     0.021 C 
BRANCH  36  37
ATOM     37  C   UNL A   1      35.576  29.312  27.631  1.00  0.00     0.116 C 
BRANCH  37  38
ATOM     38  N   UNL A   1      35.476  29.519  29.057  1.00  0.00    -0.352 N 
ATOM     39  C   UNL A   1      36.355  29.505  30.102  1.00  0.00     0.251 C 
ATOM     40  H   UNL A   1      34.556  29.720  29.343  1.00  0.00     0.163 HD
ATOM     41  O   UNL A   1      35.870  29.784  31.202  1.00  0.00    -0.269 OA
BRANCH  39  42
ATOM     42  C   UNL A   1      37.794  29.137  30.015  1.00  0.00     0.039 A 
ATOM     43  C   UNL A   1      38.404  28.060  30.658  1.00  0.00     0.014 A 
ATOM     44  C   UNL A   1      38.594  29.988  29.227  1.00  0.00     0.014 A 
ATOM     45  C   UNL A   1      39.784  27.891  30.590  1.00  0.00     0.010 A 
ATOM     46  C   UNL A   1      39.969  29.813  29.140  1.00  0.00     0.010 A 
ATOM     47  C   UNL A   1      40.571  28.788  29.862  1.00  0.00    -0.014 A 
BRANCH  47  48
ATOM     48  C   UNL A   1      42.013  28.555  29.826  1.00  0.00     0.031 A 
ATOM     49  C   UNL A   1      42.444  27.360  29.044  1.00  0.00     0.074 A 
ATOM     50  C   UNL A   1      42.920  29.391  30.366  1.00  0.00     0.049 A 
ATOM     51  N   UNL A   1      43.026  26.285  29.469  1.00  0.00    -0.248 NA
ATOM     52  C   UNL A   1      42.067  27.314  27.624  1.00  0.00     0.031 C 
ATOM     53  C   UNL A   1      42.709  30.748  30.879  1.00  0.00     0.029 A 
ATOM     54  N   UNL A   1      44.268  29.227  30.478  1.00  0.00    -0.354 N 
ATOM     55  C   UNL A   1      43.250  25.491  28.342  1.00  0.00     0.074 A 
ATOM     56  C   UNL A   1      42.517  26.111  27.267  1.00  0.00     0.031 C 
ATOM     57  C   UNL A   1      43.906  31.359  31.026  1.00  0.00     0.029 A 
ATOM     58  C   UNL A   1      44.961  30.391  30.778  1.00  0.00     0.049 A 
ATOM     59  H   UNL A   1      44.712  28.357  30.356  1.00  0.00     0.167 HD
ATOM     60  C   UNL A   1      44.160  24.474  28.335  1.00  0.00     0.034 A 
ATOM     61  C   UNL A   1      46.305  30.564  30.754  1.00  0.00     0.034 A 
ATOM     62  C   UNL A   1      44.555  24.116  29.669  1.00  0.00     0.049 A 
ATOM     63  C   UNL A   1      46.948  29.231  30.809  1.00  0.00     0.074 A 
ATOM     64  C   UNL A   1      43.920  23.562  30.759  1.00  0.00     0.029 A 
ATOM     65  N   UNL A   1      45.734  24.638  30.140  1.00  0.00    -0.354 N 
ATOM     66  N   UNL A   1      46.945  28.454  31.854  1.00  0.00    -0.248 NA
ATOM     67  C   UNL A   1      47.259  28.580  29.546  1.00  0.00     0.031 C 
ATOM     68  C   UNL A   1      44.522  24.181  31.891  1.00  0.00     0.029 A 
ATOM     69  C   UNL A   1      45.524  25.042  31.432  1.00  0.00     0.049 A 
ATOM     70  H   UNL A   1      46.579  24.708  29.641  1.00  0.00     0.167 HD
ATOM     71  C   UNL A   1      46.794  27.178  31.335  1.00  0.00     0.074 A 
ATOM     72  C   UNL A   1      47.116  27.307  29.915  1.00  0.00     0.031 C 
ATOM     73  C   UNL A   1      46.156  26.197  32.038  1.00  0.00     0.034 A 
BRANCH  60  74
ATOM     74  C   UNL A   1      44.927  24.009  27.116  1.00  0.00     0.023 A 
ATOM     75  C   UNL A   1      44.758  22.735  26.545  1.00  0.00     0.031 A 
ATOM     76  C   UNL A   1      45.688  24.923  26.354  1.00  0.00     0.131 A 
ATOM     77  C   UNL A   1      45.313  22.404  25.300  1.00  0.00     0.055 A 
ATOM     78  C   UNL A   1      46.188  24.614  25.081  1.00  0.00     0.041 A 
ATOM     79  F   UNL A   1      45.920  26.170  26.794  1.00  0.00    -0.206 F 
ATOM     80  C   UNL A   1      45.999  23.348  24.546  1.00  0.00     0.022 A 
BRANCH  77  81
ATOM     81  S   UNL A   1      45.131  20.727  24.634  1.00  0.00     0.124 S 
ATOM     82  O   UNL A   1      46.507  20.252  24.633  1.00  0.00    -0.237 OA
ATOM     83  O   UNL A   1      44.246  20.111  25.620  1.00  0.00    -0.237 OA
ATOM     84  O   UNL A   1      44.530  20.946  23.319  1.00  0.00    -0.744 OA
ENDBRANCH  77  81
ENDBRANCH  60  74
BRANCH  61  85
ATOM     85  C   UNL A   1      47.027  31.740  30.216  1.00  0.00     0.023 A 
ATOM     86  C   UNL A   1      46.721  32.207  28.924  1.00  0.00     0.031 A 
ATOM     87  C   UNL A   1      48.220  32.192  30.805  1.00  0.00     0.131 A 
ATOM     88  C   UNL A   1      47.615  33.041  28.242  1.00  0.00     0.055 A 
ATOM     89  C   UNL A   1      49.102  33.041  30.128  1.00  0.00     0.041 A 
ATOM     90  F   UNL A   1      48.587  31.756  32.020  1.00  0.00    -0.206 F 
ATOM     91  C   UNL A   1      48.809  33.457  28.832  1.00  0.00     0.022 A 
BRANCH  88  92
ATOM     92  S   UNL A   1      47.285  33.524  26.524  1.00  0.00     0.124 S 
ATOM     93  O   UNL A   1      48.552  33.208  25.867  1.00  0.00    -0.237 OA
ATOM     94  O   UNL A   1      46.165  32.653  26.182  1.00  0.00    -0.237 OA
ATOM     95  O   UNL A   1      46.979  34.948  26.622  1.00  0.00    -0.744 OA
ENDBRANCH  88  92
ENDBRANCH  61  85
BRANCH  73  96
ATOM     96  C   UNL A   1      45.847  26.427  33.502  1.00  0.00     0.023 A 
ATOM     97  C   UNL A   1      44.809  27.327  33.804  1.00  0.00     0.031 A 
ATOM     98  C   UNL A   1      46.659  25.993  34.568  1.00  0.00     0.131 A 
ATOM     99  C   UNL A   1      44.639  27.804  35.108  1.00  0.00     0.055 A 
ATOM    100  C   UNL A   1      46.437  26.413  35.884  1.00  0.00     0.041 A 
ATOM    101  F   UNL A   1      47.738  25.227  34.364  1.00  0.00    -0.206 F 
ATOM    102  C   UNL A   1      45.434  27.339  36.157  1.00  0.00     0.022 A 
BRANCH  99 103
ATOM    103  S   UNL A   1      43.492  29.167  35.437  1.00  0.00     0.124 S 
ATOM    104  O   UNL A   1      43.479  29.214  36.896  1.00  0.00    -0.237 OA
ATOM    105  O   UNL A   1      44.152  30.293  34.780  1.00  0.00    -0.237 OA
ATOM    106  O   UNL A   1      42.243  28.738  34.814  1.00  0.00    -0.744 OA
ENDBRANCH  99 103
ENDBRANCH  73  96
ENDBRANCH  47  48
ENDBRANCH  39  42
ENDBRANCH  37  38
ENDBRANCH  36  37
ENDBRANCH  35  36
ENDBRANCH  34  35
ENDBRANCH   1  34
TORSDOF 23
ENDMDL
