MODEL 1
REMARK VINA RESULT:     -10.4      0.000      0.000
REMARK SMILES CC(C)[C@H]([NH2+]Cc1ccc(N(C)C)cc1)C(=O)NCCCCCCNC(=O)c1ccc(-c2c3nc(c(-c4cc(S(=O)(=O)[O-])ccc4F)c4ccc([nH]4)c(-c4cc(S(=O)(=O)[O-])ccc4F)c4nc(c(-c5cc(S(=O)(=O)[O-])ccc5F)c5ccc2[nH]5)C=C4)C=C3)cc1
REMARK SMILES IDX 21 1 20 2 19 3 18 4 16 5 17 6 4 8 2 9 1 10 3 11 5 12 6 15
REMARK SMILES IDX 7 16 8 17 15 18 9 19 14 20 10 21 11 22 12 23 13 24 22 25
REMARK SMILES IDX 23 26 24 27 25 28 26 29 27 31 28 32 29 33 90 34 30 35 89 36
REMARK SMILES IDX 31 37 32 38 33 39 83 40 34 41 88 42 82 43 84 44 35 45 87 46
REMARK SMILES IDX 81 47 80 48 36 50 68 51 48 52 67 53 49 54 52 55 66 56 85 57
REMARK SMILES IDX 50 58 51 59 65 61 86 62 53 63 37 64 38 65 46 66 39 67 45 68
REMARK SMILES IDX 47 69 44 70 40 71 41 72 42 73 43 74 69 75 70 76 78 77 71 78
REMARK SMILES IDX 77 79 79 80 76 81 72 82 73 83 74 84 75 85 54 86 55 87 63 88
REMARK SMILES IDX 56 89 62 90 64 91 61 92 57 93 58 94 59 95 60 96
REMARK H PARENT 18 7 5 13 5 14 25 30 84 49 52 60
REMARK Flexibility Score: inf
ROOT
ATOM      1  C   UNL A   1      36.968  22.011  24.653  1.00  0.00     0.002 C 
ENDROOT
BRANCH   1   2
ATOM      2  C   UNL A   1      36.084  22.851  23.721  1.00  0.00     0.021 C 
BRANCH   2   3
ATOM      3  C   UNL A   1      35.443  24.059  24.396  1.00  0.00     0.116 C 
BRANCH   3   4
ATOM      4  N   UNL A   1      34.938  23.712  25.709  1.00  0.00    -0.351 N 
ATOM      5  C   UNL A   1      33.687  23.855  26.232  1.00  0.00     0.278 C 
ATOM      6  O   UNL A   1      33.479  23.396  27.356  1.00  0.00    -0.268 OA
ATOM      7  H   UNL A   1      35.600  23.310  26.317  1.00  0.00     0.163 HD
BRANCH   5   8
ATOM      8  C   UNL A   1      32.564  24.545  25.417  1.00  0.00     0.275 C 
BRANCH   8   9
ATOM      9  C   UNL A   1      32.032  25.851  26.092  1.00  0.00     0.051 C 
ATOM     10  C   UNL A   1      33.087  26.951  26.290  1.00  0.00     0.014 C 
ATOM     11  C   UNL A   1      30.890  26.449  25.255  1.00  0.00     0.014 C 
ENDBRANCH   8   9
BRANCH   8  12
ATOM     12  N   UNL A   1      31.610  23.507  24.933  1.00  0.00    -0.332 N 
ATOM     13  H   UNL A   1      30.708  23.963  24.801  1.00  0.00     0.347 HD
ATOM     14  H   UNL A   1      31.638  22.781  25.650  1.00  0.00     0.347 HD
BRANCH  12  15
ATOM     15  C   UNL A   1      31.929  22.810  23.696  1.00  0.00     0.297 C 
BRANCH  15  16
ATOM     16  C   UNL A   1      32.198  21.338  23.918  1.00  0.00     0.006 A 
ATOM     17  C   UNL A   1      32.550  20.841  25.173  1.00  0.00     0.012 A 
ATOM     18  C   UNL A   1      32.161  20.437  22.852  1.00  0.00     0.012 A 
ATOM     19  C   UNL A   1      32.892  19.486  25.341  1.00  0.00     0.026 A 
ATOM     20  C   UNL A   1      32.503  19.089  23.032  1.00  0.00     0.026 A 
ATOM     21  C   UNL A   1      32.902  18.569  24.276  1.00  0.00     0.036 A 
BRANCH  21  22
ATOM     22  N   UNL A   1      33.304  17.247  24.417  1.00  0.00    -0.378 N 
ATOM     23  C   UNL A   1      34.015  16.508  23.382  1.00  0.00     0.143 C 
ATOM     24  C   UNL A   1      33.131  16.548  25.689  1.00  0.00     0.143 C 
ENDBRANCH  21  22
ENDBRANCH  15  16
ENDBRANCH  12  15
ENDBRANCH   8  12
ENDBRANCH   5   8
ENDBRANCH   3   4
ENDBRANCH   2   3
ENDBRANCH   1   2
BRANCH   1  25
ATOM     25  C   UNL A   1      36.596  20.528  24.731  1.00  0.00     0.002 C 
BRANCH  25  26
ATOM     26  C   UNL A   1      37.769  19.574  24.978  1.00  0.00     0.021 C 
BRANCH  26  27
ATOM     27  C   UNL A   1      38.955  20.190  25.712  1.00  0.00     0.116 C 
BRANCH  27  28
ATOM     28  N   UNL A   1      40.024  19.231  25.927  1.00  0.00    -0.352 N 
ATOM     29  C   UNL A   1      41.354  19.446  26.171  1.00  0.00     0.251 C 
ATOM     30  H   UNL A   1      39.752  18.285  25.891  1.00  0.00     0.163 HD
ATOM     31  O   UNL A   1      42.135  18.491  26.129  1.00  0.00    -0.269 OA
BRANCH  29  32
ATOM     32  C   UNL A   1      41.858  20.806  26.456  1.00  0.00     0.039 A 
ATOM     33  C   UNL A   1      42.044  21.687  25.387  1.00  0.00     0.014 A 
ATOM     34  C   UNL A   1      42.170  21.211  27.758  1.00  0.00     0.014 A 
ATOM     35  C   UNL A   1      42.495  22.985  25.630  1.00  0.00     0.010 A 
ATOM     36  C   UNL A   1      42.553  22.529  28.006  1.00  0.00     0.010 A 
ATOM     37  C   UNL A   1      42.725  23.429  26.944  1.00  0.00    -0.014 A 
BRANCH  37  38
ATOM     38  C   UNL A   1      43.130  24.835  27.202  1.00  0.00     0.031 A 
ATOM     39  C   UNL A   1      42.177  25.799  27.857  1.00  0.00     0.074 A 
ATOM     40  C   UNL A   1      44.355  25.247  26.821  1.00  0.00     0.049 A 
ATOM     41  N   UNL A   1      42.360  27.057  28.171  1.00  0.00    -0.248 NA
ATOM     42  C   UNL A   1      40.834  25.291  28.174  1.00  0.00     0.031 C 
ATOM     43  C   UNL A   1      45.345  24.417  26.128  1.00  0.00     0.029 A 
ATOM     44  N   UNL A   1      44.981  26.460  26.960  1.00  0.00    -0.354 N 
ATOM     45  C   UNL A   1      41.158  27.492  28.719  1.00  0.00     0.074 A 
ATOM     46  C   UNL A   1      40.235  26.380  28.633  1.00  0.00     0.031 C 
ATOM     47  C   UNL A   1      46.463  25.134  25.935  1.00  0.00     0.029 A 
ATOM     48  C   UNL A   1      46.260  26.484  26.452  1.00  0.00     0.049 A 
ATOM     49  H   UNL A   1      44.555  27.240  27.383  1.00  0.00     0.167 HD
ATOM     50  C   UNL A   1      40.860  28.699  29.262  1.00  0.00     0.034 A 
ATOM     51  C   UNL A   1      47.167  27.479  26.407  1.00  0.00     0.034 A 
ATOM     52  C   UNL A   1      41.797  29.795  29.345  1.00  0.00     0.049 A 
ATOM     53  C   UNL A   1      46.812  28.810  27.018  1.00  0.00     0.074 A 
ATOM     54  C   UNL A   1      41.620  31.038  29.927  1.00  0.00     0.029 A 
ATOM     55  N   UNL A   1      43.084  29.785  28.820  1.00  0.00    -0.354 N 
ATOM     56  N   UNL A   1      45.692  29.183  27.595  1.00  0.00    -0.248 NA
ATOM     57  C   UNL A   1      47.849  29.847  26.987  1.00  0.00     0.031 C 
ATOM     58  C   UNL A   1      42.771  31.802  29.693  1.00  0.00     0.029 A 
ATOM     59  C   UNL A   1      43.698  31.010  29.036  1.00  0.00     0.049 A 
ATOM     60  H   UNL A   1      43.499  29.019  28.362  1.00  0.00     0.167 HD
ATOM     61  C   UNL A   1      45.903  30.493  28.017  1.00  0.00     0.074 A 
ATOM     62  C   UNL A   1      47.265  30.829  27.655  1.00  0.00     0.031 C 
ATOM     63  C   UNL A   1      45.050  31.343  28.646  1.00  0.00     0.034 A 
BRANCH  50  64
ATOM     64  C   UNL A   1      39.456  28.901  29.786  1.00  0.00     0.023 A 
ATOM     65  C   UNL A   1      38.454  29.507  29.005  1.00  0.00     0.031 A 
ATOM     66  C   UNL A   1      39.117  28.499  31.090  1.00  0.00     0.131 A 
ATOM     67  C   UNL A   1      37.188  29.757  29.559  1.00  0.00     0.055 A 
ATOM     68  C   UNL A   1      37.832  28.677  31.607  1.00  0.00     0.041 A 
ATOM     69  F   UNL A   1      40.034  27.936  31.891  1.00  0.00    -0.206 F 
ATOM     70  C   UNL A   1      36.862  29.323  30.846  1.00  0.00     0.022 A 
BRANCH  67  71
ATOM     71  S   UNL A   1      36.021  30.785  28.625  1.00  0.00     0.124 S 
ATOM     72  O   UNL A   1      36.915  31.771  28.021  1.00  0.00    -0.237 OA
ATOM     73  O   UNL A   1      35.419  29.823  27.708  1.00  0.00    -0.237 OA
ATOM     74  O   UNL A   1      35.127  31.311  29.654  1.00  0.00    -0.744 OA
ENDBRANCH  67  71
ENDBRANCH  50  64
BRANCH  51  75
ATOM     75  C   UNL A   1      48.494  27.264  25.763  1.00  0.00     0.023 A 
ATOM     76  C   UNL A   1      48.684  27.497  24.391  1.00  0.00     0.031 A 
ATOM     77  C   UNL A   1      49.586  26.778  26.505  1.00  0.00     0.131 A 
ATOM     78  C   UNL A   1      49.917  27.196  23.794  1.00  0.00     0.055 A 
ATOM     79  C   UNL A   1      50.829  26.534  25.917  1.00  0.00     0.041 A 
ATOM     80  F   UNL A   1      49.463  26.546  27.822  1.00  0.00    -0.206 F 
ATOM     81  C   UNL A   1      50.995  26.729  24.550  1.00  0.00     0.022 A 
BRANCH  78  82
ATOM     82  S   UNL A   1      50.068  27.339  21.992  1.00  0.00     0.124 S 
ATOM     83  O   UNL A   1      49.887  28.772  21.790  1.00  0.00    -0.237 OA
ATOM     84  O   UNL A   1      51.412  26.823  21.760  1.00  0.00    -0.237 OA
ATOM     85  O   UNL A   1      48.984  26.496  21.492  1.00  0.00    -0.744 OA
ENDBRANCH  78  82
ENDBRANCH  51  75
BRANCH  63  86
ATOM     86  C   UNL A   1      45.590  32.709  28.998  1.00  0.00     0.023 A 
ATOM     87  C   UNL A   1      45.510  33.788  28.099  1.00  0.00     0.031 A 
ATOM     88  C   UNL A   1      46.237  32.923  30.228  1.00  0.00     0.131 A 
ATOM     89  C   UNL A   1      46.135  35.005  28.407  1.00  0.00     0.055 A 
ATOM     90  C   UNL A   1      46.794  34.158  30.560  1.00  0.00     0.041 A 
ATOM     91  F   UNL A   1      46.346  31.931  31.125  1.00  0.00    -0.206 F 
ATOM     92  C   UNL A   1      46.763  35.202  29.640  1.00  0.00     0.022 A 
BRANCH  89  93
ATOM     93  S   UNL A   1      46.233  36.282  27.123  1.00  0.00     0.124 S 
ATOM     94  O   UNL A   1      45.557  35.635  26.002  1.00  0.00    -0.237 OA
ATOM     95  O   UNL A   1      45.520  37.397  27.738  1.00  0.00    -0.237 OA
ATOM     96  O   UNL A   1      47.669  36.484  26.947  1.00  0.00    -0.744 OA
ENDBRANCH  89  93
ENDBRANCH  63  86
ENDBRANCH  37  38
ENDBRANCH  29  32
ENDBRANCH  27  28
ENDBRANCH  26  27
ENDBRANCH  25  26
ENDBRANCH   1  25
TORSDOF 21
ENDMDL
MODEL 2
REMARK VINA RESULT:     -10.4      6.314     11.284
REMARK SMILES CC(C)[C@H]([NH2+]Cc1ccc(N(C)C)cc1)C(=O)NCCCCCCNC(=O)c1ccc(-c2c3nc(c(-c4cc(S(=O)(=O)[O-])ccc4F)c4ccc([nH]4)c(-c4cc(S(=O)(=O)[O-])ccc4F)c4nc(c(-c5cc(S(=O)(=O)[O-])ccc5F)c5ccc2[nH]5)C=C4)C=C3)cc1
REMARK SMILES IDX 21 1 20 2 19 3 18 4 16 5 17 6 4 8 2 9 1 10 3 11 5 12 6 15
REMARK SMILES IDX 7 16 8 17 15 18 9 19 14 20 10 21 11 22 12 23 13 24 22 25
REMARK SMILES IDX 23 26 24 27 25 28 26 29 27 31 28 32 29 33 90 34 30 35 89 36
REMARK SMILES IDX 31 37 32 38 33 39 83 40 34 41 88 42 82 43 84 44 35 45 87 46
REMARK SMILES IDX 81 47 80 48 36 50 68 51 48 52 67 53 49 54 52 55 66 56 85 57
REMARK SMILES IDX 50 58 51 59 65 61 86 62 53 63 37 64 38 65 46 66 39 67 45 68
REMARK SMILES IDX 47 69 44 70 40 71 41 72 42 73 43 74 69 75 70 76 78 77 71 78
REMARK SMILES IDX 77 79 79 80 76 81 72 82 73 83 74 84 75 85 54 86 55 87 63 88
REMARK SMILES IDX 56 89 62 90 64 91 61 92 57 93 58 94 59 95 60 96
REMARK H PARENT 18 7 5 13 5 14 25 30 84 49 52 60
REMARK Flexibility Score: inf
ROOT
ATOM      1  C   UNL A   1      31.483  30.016  25.316  1.00  0.00     0.002 C 
ENDROOT
BRANCH   1   2
ATOM      2  C   UNL A   1      32.706  29.381  24.641  1.00  0.00     0.021 C 
BRANCH   2   3
ATOM      3  C   UNL A   1      32.372  28.547  23.409  1.00  0.00     0.116 C 
BRANCH   3   4
ATOM      4  N   UNL A   1      30.992  28.107  23.439  1.00  0.00    -0.351 N 
ATOM      5  C   UNL A   1      30.470  26.882  23.731  1.00  0.00     0.278 C 
ATOM      6  O   UNL A   1      29.242  26.777  23.778  1.00  0.00    -0.268 OA
ATOM      7  H   UNL A   1      30.329  28.799  23.215  1.00  0.00     0.163 HD
BRANCH   5   8
ATOM      8  C   UNL A   1      31.398  25.677  24.024  1.00  0.00     0.275 C 
BRANCH   8   9
ATOM      9  C   UNL A   1      31.409  24.618  22.873  1.00  0.00     0.051 C 
ATOM     10  C   UNL A   1      32.692  24.597  22.028  1.00  0.00     0.014 C 
ATOM     11  C   UNL A   1      31.212  23.208  23.452  1.00  0.00     0.014 C 
ENDBRANCH   8   9
BRANCH   8  12
ATOM     12  N   UNL A   1      31.202  25.247  25.438  1.00  0.00    -0.332 N 
ATOM     13  H   UNL A   1      31.055  24.239  25.431  1.00  0.00     0.347 HD
ATOM     14  H   UNL A   1      30.416  25.807  25.768  1.00  0.00     0.347 HD
BRANCH  12  15
ATOM     15  C   UNL A   1      32.270  25.522  26.389  1.00  0.00     0.297 C 
BRANCH  15  16
ATOM     16  C   UNL A   1      33.444  24.583  26.222  1.00  0.00     0.006 A 
ATOM     17  C   UNL A   1      34.552  24.928  25.448  1.00  0.00     0.012 A 
ATOM     18  C   UNL A   1      33.425  23.309  26.794  1.00  0.00     0.012 A 
ATOM     19  C   UNL A   1      35.589  24.004  25.224  1.00  0.00     0.026 A 
ATOM     20  C   UNL A   1      34.466  22.398  26.564  1.00  0.00     0.026 A 
ATOM     21  C   UNL A   1      35.574  22.703  25.755  1.00  0.00     0.036 A 
BRANCH  21  22
ATOM     22  N   UNL A   1      36.558  21.762  25.483  1.00  0.00    -0.378 N 
ATOM     23  C   UNL A   1      36.273  20.415  25.004  1.00  0.00     0.143 C 
ATOM     24  C   UNL A   1      37.973  22.121  25.557  1.00  0.00     0.143 C 
ENDBRANCH  21  22
ENDBRANCH  15  16
ENDBRANCH  12  15
ENDBRANCH   8  12
ENDBRANCH   5   8
ENDBRANCH   3   4
ENDBRANCH   2   3
ENDBRANCH   1   2
BRANCH   1  25
ATOM     25  C   UNL A   1      31.735  30.570  26.721  1.00  0.00     0.002 C 
BRANCH  25  26
ATOM     26  C   UNL A   1      31.604  32.090  26.856  1.00  0.00     0.021 C 
BRANCH  26  27
ATOM     27  C   UNL A   1      32.892  32.816  27.232  1.00  0.00     0.116 C 
BRANCH  27  28
ATOM     28  N   UNL A   1      32.639  34.153  27.738  1.00  0.00    -0.352 N 
ATOM     29  C   UNL A   1      33.174  34.792  28.824  1.00  0.00     0.251 C 
ATOM     30  H   UNL A   1      31.984  34.679  27.224  1.00  0.00     0.163 HD
ATOM     31  O   UNL A   1      32.680  35.858  29.199  1.00  0.00    -0.269 OA
BRANCH  29  32
ATOM     32  C   UNL A   1      34.315  34.203  29.558  1.00  0.00     0.039 A 
ATOM     33  C   UNL A   1      34.050  33.387  30.661  1.00  0.00     0.014 A 
ATOM     34  C   UNL A   1      35.637  34.465  29.185  1.00  0.00     0.014 A 
ATOM     35  C   UNL A   1      35.106  32.798  31.358  1.00  0.00     0.010 A 
ATOM     36  C   UNL A   1      36.687  33.820  29.838  1.00  0.00     0.010 A 
ATOM     37  C   UNL A   1      36.433  32.984  30.935  1.00  0.00    -0.014 A 
BRANCH  37  38
ATOM     38  C   UNL A   1      37.549  32.293  31.632  1.00  0.00     0.031 A 
ATOM     39  C   UNL A   1      38.302  31.179  30.955  1.00  0.00     0.074 A 
ATOM     40  C   UNL A   1      37.863  32.657  32.891  1.00  0.00     0.049 A 
ATOM     41  N   UNL A   1      39.309  30.471  31.404  1.00  0.00    -0.248 NA
ATOM     42  C   UNL A   1      37.848  30.792  29.611  1.00  0.00     0.031 C 
ATOM     43  C   UNL A   1      37.167  33.685  33.669  1.00  0.00     0.029 A 
ATOM     44  N   UNL A   1      38.845  32.211  33.739  1.00  0.00    -0.354 N 
ATOM     45  C   UNL A   1      39.606  29.554  30.401  1.00  0.00     0.074 A 
ATOM     46  C   UNL A   1      38.631  29.756  29.350  1.00  0.00     0.031 C 
ATOM     47  C   UNL A   1      37.766  33.814  34.863  1.00  0.00     0.029 A 
ATOM     48  C   UNL A   1      38.861  32.854  34.955  1.00  0.00     0.049 A 
ATOM     49  H   UNL A   1      39.479  31.497  33.499  1.00  0.00     0.167 HD
ATOM     50  C   UNL A   1      40.612  28.645  30.352  1.00  0.00     0.034 A 
ATOM     51  C   UNL A   1      39.665  32.690  36.023  1.00  0.00     0.034 A 
ATOM     52  C   UNL A   1      41.580  28.463  31.409  1.00  0.00     0.049 A 
ATOM     53  C   UNL A   1      40.775  31.675  35.944  1.00  0.00     0.074 A 
ATOM     54  C   UNL A   1      42.674  27.615  31.439  1.00  0.00     0.029 A 
ATOM     55  N   UNL A   1      41.566  29.132  32.627  1.00  0.00    -0.354 N 
ATOM     56  N   UNL A   1      41.086  30.862  34.959  1.00  0.00    -0.248 NA
ATOM     57  C   UNL A   1      41.654  31.567  37.114  1.00  0.00     0.031 C 
ATOM     58  C   UNL A   1      43.276  27.719  32.699  1.00  0.00     0.029 A 
ATOM     59  C   UNL A   1      42.610  28.691  33.427  1.00  0.00     0.049 A 
ATOM     60  H   UNL A   1      40.910  29.819  32.885  1.00  0.00     0.167 HD
ATOM     61  C   UNL A   1      42.212  30.165  35.386  1.00  0.00     0.074 A 
ATOM     62  C   UNL A   1      42.541  30.676  36.701  1.00  0.00     0.031 C 
ATOM     63  C   UNL A   1      42.912  29.190  34.750  1.00  0.00     0.034 A 
BRANCH  50  64
ATOM     64  C   UNL A   1      40.698  27.763  29.127  1.00  0.00     0.023 A 
ATOM     65  C   UNL A   1      41.618  28.017  28.094  1.00  0.00     0.031 A 
ATOM     66  C   UNL A   1      39.835  26.662  28.981  1.00  0.00     0.131 A 
ATOM     67  C   UNL A   1      41.606  27.228  26.933  1.00  0.00     0.055 A 
ATOM     68  C   UNL A   1      39.884  25.831  27.859  1.00  0.00     0.041 A 
ATOM     69  F   UNL A   1      38.921  26.380  29.921  1.00  0.00    -0.206 F 
ATOM     70  C   UNL A   1      40.763  26.121  26.819  1.00  0.00     0.022 A 
BRANCH  67  71
ATOM     71  S   UNL A   1      42.608  27.755  25.515  1.00  0.00     0.124 S 
ATOM     72  O   UNL A   1      42.416  26.641  24.589  1.00  0.00    -0.237 OA
ATOM     73  O   UNL A   1      41.979  29.016  25.136  1.00  0.00    -0.237 OA
ATOM     74  O   UNL A   1      43.954  27.871  26.070  1.00  0.00    -0.744 OA
ENDBRANCH  67  71
ENDBRANCH  50  64
BRANCH  51  75
ATOM     75  C   UNL A   1      39.456  33.499  37.259  1.00  0.00     0.023 A 
ATOM     76  C   UNL A   1      40.137  34.710  37.460  1.00  0.00     0.031 A 
ATOM     77  C   UNL A   1      38.601  33.047  38.280  1.00  0.00     0.131 A 
ATOM     78  C   UNL A   1      39.994  35.401  38.672  1.00  0.00     0.055 A 
ATOM     79  C   UNL A   1      38.417  33.767  39.462  1.00  0.00     0.041 A 
ATOM     80  F   UNL A   1      37.918  31.900  38.137  1.00  0.00    -0.206 F 
ATOM     81  C   UNL A   1      39.128  34.945  39.669  1.00  0.00     0.022 A 
BRANCH  78  82
ATOM     82  S   UNL A   1      41.026  36.863  38.967  1.00  0.00     0.124 S 
ATOM     83  O   UNL A   1      40.030  37.927  39.010  1.00  0.00    -0.237 OA
ATOM     84  O   UNL A   1      41.665  36.530  40.236  1.00  0.00    -0.237 OA
ATOM     85  O   UNL A   1      41.918  36.888  37.811  1.00  0.00    -0.744 OA
ENDBRANCH  78  82
ENDBRANCH  51  75
BRANCH  63  86
ATOM     86  C   UNL A   1      44.118  28.638  35.474  1.00  0.00     0.023 A 
ATOM     87  C   UNL A   1      44.020  27.524  36.327  1.00  0.00     0.031 A 
ATOM     88  C   UNL A   1      45.371  29.264  35.349  1.00  0.00     0.131 A 
ATOM     89  C   UNL A   1      45.131  27.119  37.081  1.00  0.00     0.055 A 
ATOM     90  C   UNL A   1      46.491  28.812  36.047  1.00  0.00     0.041 A 
ATOM     91  F   UNL A   1      45.525  30.333  34.553  1.00  0.00    -0.206 F 
ATOM     92  C   UNL A   1      46.371  27.746  36.934  1.00  0.00     0.022 A 
BRANCH  89  93
ATOM     93  S   UNL A   1      44.900  25.848  38.355  1.00  0.00     0.124 S 
ATOM     94  O   UNL A   1      43.960  24.938  37.707  1.00  0.00    -0.237 OA
ATOM     95  O   UNL A   1      46.256  25.339  38.536  1.00  0.00    -0.237 OA
ATOM     96  O   UNL A   1      44.360  26.593  39.490  1.00  0.00    -0.744 OA
ENDBRANCH  89  93
ENDBRANCH  63  86
ENDBRANCH  37  38
ENDBRANCH  29  32
ENDBRANCH  27  28
ENDBRANCH  26  27
ENDBRANCH  25  26
ENDBRANCH   1  25
TORSDOF 21
ENDMDL
MODEL 3
REMARK VINA RESULT:     -10.3      1.394      1.848
REMARK SMILES CC(C)[C@H]([NH2+]Cc1ccc(N(C)C)cc1)C(=O)NCCCCCCNC(=O)c1ccc(-c2c3nc(c(-c4cc(S(=O)(=O)[O-])ccc4F)c4ccc([nH]4)c(-c4cc(S(=O)(=O)[O-])ccc4F)c4nc(c(-c5cc(S(=O)(=O)[O-])ccc5F)c5ccc2[nH]5)C=C4)C=C3)cc1
REMARK SMILES IDX 21 1 20 2 19 3 18 4 16 5 17 6 4 8 2 9 1 10 3 11 5 12 6 15
REMARK SMILES IDX 7 16 8 17 15 18 9 19 14 20 10 21 11 22 12 23 13 24 22 25
REMARK SMILES IDX 23 26 24 27 25 28 26 29 27 31 28 32 29 33 90 34 30 35 89 36
REMARK SMILES IDX 31 37 32 38 33 39 83 40 34 41 88 42 82 43 84 44 35 45 87 46
REMARK SMILES IDX 81 47 80 48 36 50 68 51 48 52 67 53 49 54 52 55 66 56 85 57
REMARK SMILES IDX 50 58 51 59 65 61 86 62 53 63 37 64 38 65 46 66 39 67 45 68
REMARK SMILES IDX 47 69 44 70 40 71 41 72 42 73 43 74 69 75 70 76 78 77 71 78
REMARK SMILES IDX 77 79 79 80 76 81 72 82 73 83 74 84 75 85 54 86 55 87 63 88
REMARK SMILES IDX 56 89 62 90 64 91 61 92 57 93 58 94 59 95 60 96
REMARK H PARENT 18 7 5 13 5 14 25 30 84 49 52 60
REMARK Flexibility Score: inf
ROOT
ATOM      1  C   UNL A   1      37.104  21.718  24.927  1.00  0.00     0.002 C 
ENDROOT
BRANCH   1   2
ATOM      2  C   UNL A   1      36.455  22.501  23.778  1.00  0.00     0.021 C 
BRANCH   2   3
ATOM      3  C   UNL A   1      35.589  23.670  24.235  1.00  0.00     0.116 C 
BRANCH   3   4
ATOM      4  N   UNL A   1      35.029  23.419  25.548  1.00  0.00    -0.351 N 
ATOM      5  C   UNL A   1      33.728  23.367  25.950  1.00  0.00     0.278 C 
ATOM      6  O   UNL A   1      33.499  23.042  27.117  1.00  0.00    -0.268 OA
ATOM      7  H   UNL A   1      35.691  23.260  26.259  1.00  0.00     0.163 HD
BRANCH   5   8
ATOM      8  C   UNL A   1      32.581  23.676  24.955  1.00  0.00     0.275 C 
BRANCH   8   9
ATOM      9  C   UNL A   1      31.840  25.016  25.272  1.00  0.00     0.051 C 
ATOM     10  C   UNL A   1      31.438  25.839  24.037  1.00  0.00     0.014 C 
ATOM     11  C   UNL A   1      30.562  24.734  26.077  1.00  0.00     0.014 C 
ENDBRANCH   8   9
BRANCH   8  12
ATOM     12  N   UNL A   1      31.803  22.428  24.710  1.00  0.00    -0.332 N 
ATOM     13  H   UNL A   1      30.825  22.695  24.612  1.00  0.00     0.347 HD
ATOM     14  H   UNL A   1      32.022  21.830  25.507  1.00  0.00     0.347 HD
BRANCH  12  15
ATOM     15  C   UNL A   1      32.151  21.625  23.546  1.00  0.00     0.297 C 
BRANCH  15  16
ATOM     16  C   UNL A   1      32.609  20.233  23.925  1.00  0.00     0.006 A 
ATOM     17  C   UNL A   1      32.424  19.146  23.073  1.00  0.00     0.012 A 
ATOM     18  C   UNL A   1      33.182  19.987  25.175  1.00  0.00     0.012 A 
ATOM     19  C   UNL A   1      32.767  17.844  23.482  1.00  0.00     0.026 A 
ATOM     20  C   UNL A   1      33.520  18.685  25.570  1.00  0.00     0.026 A 
ATOM     21  C   UNL A   1      33.306  17.564  24.749  1.00  0.00     0.036 A 
BRANCH  21  22
ATOM     22  N   UNL A   1      33.584  16.276  25.188  1.00  0.00    -0.378 N 
ATOM     23  C   UNL A   1      32.561  15.256  25.384  1.00  0.00     0.143 C 
ATOM     24  C   UNL A   1      34.964  15.833  25.369  1.00  0.00     0.143 C 
ENDBRANCH  21  22
ENDBRANCH  15  16
ENDBRANCH  12  15
ENDBRANCH   8  12
ENDBRANCH   5   8
ENDBRANCH   3   4
ENDBRANCH   2   3
ENDBRANCH   1   2
BRANCH   1  25
ATOM     25  C   UNL A   1      36.954  20.197  24.836  1.00  0.00     0.002 C 
BRANCH  25  26
ATOM     26  C   UNL A   1      38.252  19.402  25.006  1.00  0.00     0.021 C 
BRANCH  26  27
ATOM     27  C   UNL A   1      39.300  20.065  25.895  1.00  0.00     0.116 C 
BRANCH  27  28
ATOM     28  N   UNL A   1      40.471  19.225  26.079  1.00  0.00    -0.352 N 
ATOM     29  C   UNL A   1      41.783  19.580  26.237  1.00  0.00     0.251 C 
ATOM     30  H   UNL A   1      40.294  18.257  26.092  1.00  0.00     0.163 HD
ATOM     31  O   UNL A   1      42.653  18.707  26.183  1.00  0.00    -0.269 OA
BRANCH  29  32
ATOM     32  C   UNL A   1      42.162  20.994  26.446  1.00  0.00     0.039 A 
ATOM     33  C   UNL A   1      42.427  21.429  27.748  1.00  0.00     0.014 A 
ATOM     34  C   UNL A   1      42.232  21.896  25.380  1.00  0.00     0.014 A 
ATOM     35  C   UNL A   1      42.810  22.753  27.971  1.00  0.00     0.010 A 
ATOM     36  C   UNL A   1      42.683  23.199  25.596  1.00  0.00     0.010 A 
ATOM     37  C   UNL A   1      42.971  23.642  26.895  1.00  0.00    -0.014 A 
BRANCH  37  38
ATOM     38  C   UNL A   1      43.453  25.028  27.131  1.00  0.00     0.031 A 
ATOM     39  C   UNL A   1      42.522  26.082  27.669  1.00  0.00     0.074 A 
ATOM     40  C   UNL A   1      44.730  25.340  26.833  1.00  0.00     0.049 A 
ATOM     41  N   UNL A   1      42.769  27.338  27.948  1.00  0.00    -0.248 NA
ATOM     42  C   UNL A   1      41.126  25.680  27.898  1.00  0.00     0.031 C 
ATOM     43  C   UNL A   1      45.709  24.416  26.254  1.00  0.00     0.029 A 
ATOM     44  N   UNL A   1      45.427  26.513  26.974  1.00  0.00    -0.354 N 
ATOM     45  C   UNL A   1      41.562  27.876  28.380  1.00  0.00     0.074 A 
ATOM     46  C   UNL A   1      40.572  26.825  28.265  1.00  0.00     0.031 C 
ATOM     47  C   UNL A   1      46.886  25.047  26.123  1.00  0.00     0.029 A 
ATOM     48  C   UNL A   1      46.740  26.429  26.570  1.00  0.00     0.049 A 
ATOM     49  H   UNL A   1      45.026  27.337  27.331  1.00  0.00     0.167 HD
ATOM     50  C   UNL A   1      41.308  29.123  28.851  1.00  0.00     0.034 A 
ATOM     51  C   UNL A   1      47.715  27.357  26.558  1.00  0.00     0.034 A 
ATOM     52  C   UNL A   1      42.311  30.157  28.966  1.00  0.00     0.049 A 
ATOM     53  C   UNL A   1      47.408  28.735  27.087  1.00  0.00     0.074 A 
ATOM     54  C   UNL A   1      42.178  31.433  29.483  1.00  0.00     0.029 A 
ATOM     55  N   UNL A   1      43.631  30.037  28.546  1.00  0.00    -0.354 N 
ATOM     56  N   UNL A   1      46.276  29.208  27.558  1.00  0.00    -0.248 NA
ATOM     57  C   UNL A   1      48.515  29.697  27.099  1.00  0.00     0.031 C 
ATOM     58  C   UNL A   1      43.394  32.107  29.312  1.00  0.00     0.029 A 
ATOM     59  C   UNL A   1      44.311  31.227  28.763  1.00  0.00     0.049 A 
ATOM     60  H   UNL A   1      44.025  29.225  28.153  1.00  0.00     0.167 HD
ATOM     61  C   UNL A   1      46.546  30.518  27.944  1.00  0.00     0.074 A 
ATOM     62  C   UNL A   1      47.953  30.746  27.679  1.00  0.00     0.031 C 
ATOM     63  C   UNL A   1      45.709  31.450  28.469  1.00  0.00     0.034 A 
BRANCH  50  64
ATOM     64  C   UNL A   1      39.886  29.442  29.253  1.00  0.00     0.023 A 
ATOM     65  C   UNL A   1      39.493  29.507  30.602  1.00  0.00     0.031 A 
ATOM     66  C   UNL A   1      38.903  29.668  28.272  1.00  0.00     0.131 A 
ATOM     67  C   UNL A   1      38.145  29.718  30.932  1.00  0.00     0.055 A 
ATOM     68  C   UNL A   1      37.579  29.959  28.609  1.00  0.00     0.041 A 
ATOM     69  F   UNL A   1      39.210  29.598  26.968  1.00  0.00    -0.206 F 
ATOM     70  C   UNL A   1      37.189  29.970  29.945  1.00  0.00     0.022 A 
BRANCH  67  71
ATOM     71  S   UNL A   1      37.633  29.517  32.660  1.00  0.00     0.124 S 
ATOM     72  O   UNL A   1      38.648  30.301  33.361  1.00  0.00    -0.237 OA
ATOM     73  O   UNL A   1      36.285  30.074  32.657  1.00  0.00    -0.237 OA
ATOM     74  O   UNL A   1      37.712  28.074  32.876  1.00  0.00    -0.744 OA
ENDBRANCH  67  71
ENDBRANCH  50  64
BRANCH  51  75
ATOM     75  C   UNL A   1      49.070  27.026  26.031  1.00  0.00     0.023 A 
ATOM     76  C   UNL A   1      49.474  27.440  24.752  1.00  0.00     0.031 A 
ATOM     77  C   UNL A   1      49.967  26.248  26.786  1.00  0.00     0.131 A 
ATOM     78  C   UNL A   1      50.717  27.033  24.245  1.00  0.00     0.055 A 
ATOM     79  C   UNL A   1      51.226  25.893  26.299  1.00  0.00     0.041 A 
ATOM     80  F   UNL A   1      49.635  25.831  28.018  1.00  0.00    -0.206 F 
ATOM     81  C   UNL A   1      51.602  26.274  25.015  1.00  0.00     0.022 A 
BRANCH  78  82
ATOM     82  S   UNL A   1      51.128  27.436  22.525  1.00  0.00     0.124 S 
ATOM     83  O   UNL A   1      49.985  26.882  21.808  1.00  0.00    -0.237 OA
ATOM     84  O   UNL A   1      51.214  28.892  22.568  1.00  0.00    -0.237 OA
ATOM     85  O   UNL A   1      52.397  26.746  22.307  1.00  0.00    -0.744 OA
ENDBRANCH  78  82
ENDBRANCH  51  75
BRANCH  63  86
ATOM     86  C   UNL A   1      46.315  32.791  28.810  1.00  0.00     0.023 A 
ATOM     87  C   UNL A   1      46.340  33.847  27.880  1.00  0.00     0.031 A 
ATOM     88  C   UNL A   1      46.919  33.002  30.062  1.00  0.00     0.131 A 
ATOM     89  C   UNL A   1      47.024  35.033  28.185  1.00  0.00     0.055 A 
ATOM     90  C   UNL A   1      47.535  34.210  30.387  1.00  0.00     0.041 A 
ATOM     91  F   UNL A   1      46.929  32.030  30.989  1.00  0.00    -0.206 F 
ATOM     92  C   UNL A   1      47.608  35.227  29.440  1.00  0.00     0.022 A 
BRANCH  89  93
ATOM     93  S   UNL A   1      47.255  36.264  26.874  1.00  0.00     0.124 S 
ATOM     94  O   UNL A   1      48.438  35.755  26.186  1.00  0.00    -0.237 OA
ATOM     95  O   UNL A   1      46.000  36.171  26.135  1.00  0.00    -0.237 OA
ATOM     96  O   UNL A   1      47.454  37.513  27.606  1.00  0.00    -0.744 OA
ENDBRANCH  89  93
ENDBRANCH  63  86
ENDBRANCH  37  38
ENDBRANCH  29  32
ENDBRANCH  27  28
ENDBRANCH  26  27
ENDBRANCH  25  26
ENDBRANCH   1  25
TORSDOF 21
ENDMDL
