MODEL 1
REMARK VINA RESULT:     -11.8      0.000      0.000
REMARK SMILES O=C(Nc1cccc(C(=O)NCCCCCCNC(=O)c2ccc(-c3c4nc(c(-c5cc(S(=O)(=O)[O-])ccc5F)c5ccc([nH]5)c(-c5cc(S(=O)(=O)[O-])ccc5F)c5nc(c(-c6cc(S(=O)(=O)[O-])ccc6F)c6ccc3[nH]6)C=C5)C=C4)cc2)c1)Nc1cc(Cl)c(Cl)cc1Cl
REMARK SMILES IDX 15 1 14 2 13 3 12 4 11 5 9 6 10 7 8 9 4 10 5 11 84 12 6 13
REMARK SMILES IDX 7 14 3 15 1 16 2 17 85 18 86 21 87 22 93 23 88 24 92 25
REMARK SMILES IDX 94 26 89 27 90 28 91 29 16 30 17 31 18 32 19 33 20 35 21 36
REMARK SMILES IDX 22 37 83 38 23 39 82 40 24 41 25 42 26 43 76 44 27 45 81 46
REMARK SMILES IDX 75 47 77 48 28 49 80 50 74 51 73 52 29 54 61 55 41 56 60 57
REMARK SMILES IDX 42 58 45 59 59 60 78 61 43 62 44 63 58 65 79 66 46 67 30 68
REMARK SMILES IDX 31 69 39 70 32 71 38 72 40 73 37 74 33 75 34 76 35 77 36 78
REMARK SMILES IDX 62 79 63 80 71 81 64 82 70 83 72 84 69 85 65 86 66 87 67 88
REMARK SMILES IDX 68 89 47 90 48 91 56 92 49 93 55 94 57 95 54 96 50 97 51 98
REMARK SMILES IDX 52 99 53 100
REMARK H PARENT 11 8 3 19 85 20 18 34 77 53 45 64
REMARK Flexibility Score: inf
ROOT
ATOM      1  C   UNL A   1      35.722  32.615  28.023  1.00  0.00     0.002 C 
ENDROOT
BRANCH   1   2
ATOM      2  C   UNL A   1      34.949  31.303  28.217  1.00  0.00     0.002 C 
BRANCH   2   3
ATOM      3  C   UNL A   1      35.584  30.083  27.537  1.00  0.00     0.021 C 
BRANCH   3   4
ATOM      4  C   UNL A   1      34.584  29.300  26.683  1.00  0.00     0.116 C 
BRANCH   4   5
ATOM      5  N   UNL A   1      33.445  30.132  26.351  1.00  0.00    -0.352 N 
ATOM      6  C   UNL A   1      32.204  29.891  25.826  1.00  0.00     0.251 C 
ATOM      7  O   UNL A   1      31.488  30.877  25.638  1.00  0.00    -0.269 OA
ATOM      8  H   UNL A   1      33.597  31.084  26.547  1.00  0.00     0.163 HD
BRANCH   6   9
ATOM      9  C   UNL A   1      31.645  28.535  25.531  1.00  0.00     0.041 A 
ATOM     10  C   UNL A   1      31.187  26.190  26.009  1.00  0.00     0.043 A 
ATOM     11  C   UNL A   1      30.408  26.092  24.858  1.00  0.00     0.026 A 
ATOM     12  C   UNL A   1      31.871  27.382  26.283  1.00  0.00     0.040 A 
ATOM     13  C   UNL A   1      30.224  27.212  24.052  1.00  0.00     0.003 A 
ATOM     14  C   UNL A   1      30.815  28.428  24.402  1.00  0.00     0.014 A 
BRANCH  10  15
ATOM     15  N   UNL A   1      31.269  25.075  26.860  1.00  0.00    -0.308 N 
ATOM     16  O   UNL A   1      31.857  23.008  27.511  1.00  0.00    -0.248 OA
ATOM     17  C   UNL A   1      32.083  23.968  26.782  1.00  0.00     0.323 C 
ATOM     18  N   UNL A   1      33.208  24.117  26.005  1.00  0.00    -0.306 N 
ATOM     19  H   UNL A   1      30.651  25.087  27.626  1.00  0.00     0.171 HD
ATOM     20  H   UNL A   1      33.378  25.014  25.638  1.00  0.00     0.171 HD
BRANCH  18  21
ATOM     21  C   UNL A   1      34.145  23.107  25.681  1.00  0.00     0.063 A 
ATOM     22  C   UNL A   1      35.483  23.395  25.992  1.00  0.00     0.049 A 
ATOM     23  C   UNL A   1      33.849  21.889  25.043  1.00  0.00     0.066 A 
ATOM     24  C   UNL A   1      36.497  22.460  25.747  1.00  0.00     0.061 A 
ATOM     25  C   UNL A   1      34.862  20.949  24.811  1.00  0.00     0.044 A 
ATOM     26  Cl  UNL A   1      32.318  21.560  24.307  1.00  0.00    -0.082 Cl
ATOM     27  Cl  UNL A   1      38.111  22.904  26.174  1.00  0.00    -0.083 Cl
ATOM     28  C   UNL A   1      36.183  21.228  25.170  1.00  0.00     0.061 A 
ATOM     29  Cl  UNL A   1      37.385  20.038  24.825  1.00  0.00    -0.083 Cl
ENDBRANCH  18  21
ENDBRANCH  10  15
ENDBRANCH   6   9
ENDBRANCH   4   5
ENDBRANCH   3   4
ENDBRANCH   2   3
ENDBRANCH   1   2
BRANCH   1  30
ATOM     30  C   UNL A   1      34.844  33.849  27.794  1.00  0.00     0.021 C 
BRANCH  30  31
ATOM     31  C   UNL A   1      33.419  33.701  28.318  1.00  0.00     0.116 C 
BRANCH  31  32
ATOM     32  N   UNL A   1      33.087  34.770  29.246  1.00  0.00    -0.352 N 
ATOM     33  C   UNL A   1      33.509  34.959  30.538  1.00  0.00     0.251 C 
ATOM     34  H   UNL A   1      32.471  35.455  28.899  1.00  0.00     0.163 HD
ATOM     35  O   UNL A   1      32.912  35.748  31.264  1.00  0.00    -0.269 OA
BRANCH  33  36
ATOM     36  C   UNL A   1      34.676  34.207  31.045  1.00  0.00     0.039 A 
ATOM     37  C   UNL A   1      34.473  32.962  31.645  1.00  0.00     0.014 A 
ATOM     38  C   UNL A   1      35.964  34.741  30.946  1.00  0.00     0.014 A 
ATOM     39  C   UNL A   1      35.571  32.231  32.101  1.00  0.00     0.010 A 
ATOM     40  C   UNL A   1      37.062  33.979  31.334  1.00  0.00     0.010 A 
ATOM     41  C   UNL A   1      36.876  32.719  31.922  1.00  0.00    -0.014 A 
BRANCH  41  42
ATOM     42  C   UNL A   1      38.059  31.931  32.355  1.00  0.00     0.031 A 
ATOM     43  C   UNL A   1      38.745  32.254  33.654  1.00  0.00     0.074 A 
ATOM     44  C   UNL A   1      38.543  30.965  31.548  1.00  0.00     0.049 A 
ATOM     45  N   UNL A   1      39.828  31.732  34.170  1.00  0.00    -0.248 NA
ATOM     46  C   UNL A   1      38.148  33.324  34.470  1.00  0.00     0.031 C 
ATOM     47  C   UNL A   1      37.980  30.590  30.249  1.00  0.00     0.029 A 
ATOM     48  N   UNL A   1      39.621  30.130  31.695  1.00  0.00    -0.354 N 
ATOM     49  C   UNL A   1      40.050  32.416  35.361  1.00  0.00     0.074 A 
ATOM     50  C   UNL A   1      39.021  33.428  35.460  1.00  0.00     0.031 C 
ATOM     51  C   UNL A   1      38.701  29.582  29.732  1.00  0.00     0.029 A 
ATOM     52  C   UNL A   1      39.808  29.274  30.633  1.00  0.00     0.049 A 
ATOM     53  H   UNL A   1      40.207  30.141  32.486  1.00  0.00     0.167 HD
ATOM     54  C   UNL A   1      41.011  32.203  36.294  1.00  0.00     0.034 A 
ATOM     55  C   UNL A   1      40.769  28.358  30.406  1.00  0.00     0.034 A 
ATOM     56  C   UNL A   1      42.021  31.179  36.182  1.00  0.00     0.049 A 
ATOM     57  C   UNL A   1      41.844  28.161  31.446  1.00  0.00     0.074 A 
ATOM     58  C   UNL A   1      43.009  30.841  37.091  1.00  0.00     0.029 A 
ATOM     59  N   UNL A   1      42.181  30.334  35.091  1.00  0.00    -0.354 N 
ATOM     60  N   UNL A   1      42.008  28.781  32.592  1.00  0.00    -0.248 NA
ATOM     61  C   UNL A   1      42.856  27.133  31.169  1.00  0.00     0.031 C 
ATOM     62  C   UNL A   1      43.808  29.846  36.520  1.00  0.00     0.029 A 
ATOM     63  C   UNL A   1      43.271  29.500  35.292  1.00  0.00     0.049 A 
ATOM     64  H   UNL A   1      41.605  30.328  34.293  1.00  0.00     0.167 HD
ATOM     65  C   UNL A   1      43.123  28.192  33.186  1.00  0.00     0.074 A 
ATOM     66  C   UNL A   1      43.576  27.158  32.279  1.00  0.00     0.031 C 
ATOM     67  C   UNL A   1      43.715  28.476  34.374  1.00  0.00     0.034 A 
BRANCH  54  68
ATOM     68  C   UNL A   1      41.028  33.111  37.501  1.00  0.00     0.023 A 
ATOM     69  C   UNL A   1      40.388  32.759  38.703  1.00  0.00     0.031 A 
ATOM     70  C   UNL A   1      41.689  34.351  37.449  1.00  0.00     0.131 A 
ATOM     71  C   UNL A   1      40.368  33.660  39.777  1.00  0.00     0.055 A 
ATOM     72  C   UNL A   1      41.733  35.210  38.549  1.00  0.00     0.041 A 
ATOM     73  F   UNL A   1      42.299  34.753  36.322  1.00  0.00    -0.206 F 
ATOM     74  C   UNL A   1      41.059  34.873  39.718  1.00  0.00     0.022 A 
BRANCH  71  75
ATOM     75  S   UNL A   1      39.316  33.284  41.207  1.00  0.00     0.124 S 
ATOM     76  O   UNL A   1      38.758  31.987  40.828  1.00  0.00    -0.237 OA
ATOM     77  O   UNL A   1      40.272  33.272  42.308  1.00  0.00    -0.237 OA
ATOM     78  O   UNL A   1      38.355  34.385  41.225  1.00  0.00    -0.744 OA
ENDBRANCH  71  75
ENDBRANCH  54  68
BRANCH  55  79
ATOM     79  C   UNL A   1      40.778  27.563  29.143  1.00  0.00     0.023 A 
ATOM     80  C   UNL A   1      41.688  27.852  28.113  1.00  0.00     0.031 A 
ATOM     81  C   UNL A   1      39.837  26.541  28.921  1.00  0.00     0.131 A 
ATOM     82  C   UNL A   1      41.601  27.169  26.890  1.00  0.00     0.055 A 
ATOM     83  C   UNL A   1      39.795  25.822  27.725  1.00  0.00     0.041 A 
ATOM     84  F   UNL A   1      38.944  26.221  29.871  1.00  0.00    -0.206 F 
ATOM     85  C   UNL A   1      40.670  26.147  26.694  1.00  0.00     0.022 A 
BRANCH  82  86
ATOM     86  S   UNL A   1      42.654  27.716  25.516  1.00  0.00     0.124 S 
ATOM     87  O   UNL A   1      42.632  26.547  24.644  1.00  0.00    -0.237 OA
ATOM     88  O   UNL A   1      41.934  28.890  25.034  1.00  0.00    -0.237 OA
ATOM     89  O   UNL A   1      43.936  27.992  26.160  1.00  0.00    -0.744 OA
ENDBRANCH  82  86
ENDBRANCH  55  79
BRANCH  67  90
ATOM     90  C   UNL A   1      44.888  27.616  34.780  1.00  0.00     0.023 A 
ATOM     91  C   UNL A   1      44.716  26.392  35.448  1.00  0.00     0.031 A 
ATOM     92  C   UNL A   1      46.201  28.036  34.497  1.00  0.00     0.131 A 
ATOM     93  C   UNL A   1      45.838  25.660  35.865  1.00  0.00     0.055 A 
ATOM     94  C   UNL A   1      47.311  27.271  34.855  1.00  0.00     0.041 A 
ATOM     95  F   UNL A   1      46.425  29.198  33.862  1.00  0.00    -0.206 F 
ATOM     96  C   UNL A   1      47.133  26.082  35.556  1.00  0.00     0.022 A 
BRANCH  93  97
ATOM     97  S   UNL A   1      45.585  24.194  36.904  1.00  0.00     0.124 S 
ATOM     98  O   UNL A   1      44.900  23.288  35.989  1.00  0.00    -0.237 OA
ATOM     99  O   UNL A   1      46.952  23.825  37.262  1.00  0.00    -0.237 OA
ATOM    100  O   UNL A   1      44.769  24.694  38.009  1.00  0.00    -0.744 OA
ENDBRANCH  93  97
ENDBRANCH  67  90
ENDBRANCH  41  42
ENDBRANCH  33  36
ENDBRANCH  31  32
ENDBRANCH  30  31
ENDBRANCH   1  30
TORSDOF 18
ENDMDL
MODEL 2
REMARK VINA RESULT:     -11.0      2.595      8.180
REMARK SMILES O=C(Nc1cccc(C(=O)NCCCCCCNC(=O)c2ccc(-c3c4nc(c(-c5cc(S(=O)(=O)[O-])ccc5F)c5ccc([nH]5)c(-c5cc(S(=O)(=O)[O-])ccc5F)c5nc(c(-c6cc(S(=O)(=O)[O-])ccc6F)c6ccc3[nH]6)C=C5)C=C4)cc2)c1)Nc1cc(Cl)c(Cl)cc1Cl
REMARK SMILES IDX 15 1 14 2 13 3 12 4 11 5 9 6 10 7 8 9 4 10 5 11 84 12 6 13
REMARK SMILES IDX 7 14 3 15 1 16 2 17 85 18 86 21 87 22 93 23 88 24 92 25
REMARK SMILES IDX 94 26 89 27 90 28 91 29 16 30 17 31 18 32 19 33 20 35 21 36
REMARK SMILES IDX 22 37 83 38 23 39 82 40 24 41 25 42 26 43 76 44 27 45 81 46
REMARK SMILES IDX 75 47 77 48 28 49 80 50 74 51 73 52 29 54 61 55 41 56 60 57
REMARK SMILES IDX 42 58 45 59 59 60 78 61 43 62 44 63 58 65 79 66 46 67 30 68
REMARK SMILES IDX 31 69 39 70 32 71 38 72 40 73 37 74 33 75 34 76 35 77 36 78
REMARK SMILES IDX 62 79 63 80 71 81 64 82 70 83 72 84 69 85 65 86 66 87 67 88
REMARK SMILES IDX 68 89 47 90 48 91 56 92 49 93 55 94 57 95 54 96 50 97 51 98
REMARK SMILES IDX 52 99 53 100
REMARK H PARENT 11 8 3 19 85 20 18 34 77 53 45 64
REMARK Flexibility Score: inf
ROOT
ATOM      1  C   UNL A   1      32.771  28.707  23.524  1.00  0.00     0.002 C 
ENDROOT
BRANCH   1   2
ATOM      2  C   UNL A   1      31.572  28.965  22.601  1.00  0.00     0.002 C 
BRANCH   2   3
ATOM      3  C   UNL A   1      30.233  29.144  23.330  1.00  0.00     0.021 C 
BRANCH   3   4
ATOM      4  C   UNL A   1      29.035  28.763  22.458  1.00  0.00     0.116 C 
BRANCH   4   5
ATOM      5  N   UNL A   1      28.130  27.903  23.193  1.00  0.00    -0.352 N 
ATOM      6  C   UNL A   1      28.289  26.786  23.968  1.00  0.00     0.251 C 
ATOM      7  O   UNL A   1      27.257  26.279  24.415  1.00  0.00    -0.269 OA
ATOM      8  H   UNL A   1      27.190  28.184  23.118  1.00  0.00     0.163 HD
BRANCH   6   9
ATOM      9  C   UNL A   1      29.604  26.189  24.355  1.00  0.00     0.041 A 
ATOM     10  C   UNL A   1      31.753  25.126  23.921  1.00  0.00     0.043 A 
ATOM     11  C   UNL A   1      32.091  25.222  25.269  1.00  0.00     0.026 A 
ATOM     12  C   UNL A   1      30.480  25.525  23.496  1.00  0.00     0.040 A 
ATOM     13  C   UNL A   1      31.204  25.817  26.161  1.00  0.00     0.003 A 
ATOM     14  C   UNL A   1      29.984  26.321  25.702  1.00  0.00     0.014 A 
BRANCH  10  15
ATOM     15  N   UNL A   1      32.710  24.619  23.025  1.00  0.00    -0.308 N 
ATOM     16  O   UNL A   1      34.298  23.225  22.265  1.00  0.00    -0.248 OA
ATOM     17  C   UNL A   1      33.343  23.397  23.015  1.00  0.00     0.323 C 
ATOM     18  N   UNL A   1      32.718  22.404  23.732  1.00  0.00    -0.306 N 
ATOM     19  H   UNL A   1      32.966  25.229  22.296  1.00  0.00     0.171 HD
ATOM     20  H   UNL A   1      31.841  22.622  24.122  1.00  0.00     0.171 HD
BRANCH  18  21
ATOM     21  C   UNL A   1      33.212  21.098  23.963  1.00  0.00     0.063 A 
ATOM     22  C   UNL A   1      32.520  20.061  23.319  1.00  0.00     0.049 A 
ATOM     23  C   UNL A   1      34.285  20.766  24.809  1.00  0.00     0.066 A 
ATOM     24  C   UNL A   1      32.933  18.729  23.447  1.00  0.00     0.061 A 
ATOM     25  C   UNL A   1      34.707  19.435  24.926  1.00  0.00     0.044 A 
ATOM     26  Cl  UNL A   1      34.996  21.892  25.914  1.00  0.00    -0.082 Cl
ATOM     27  Cl  UNL A   1      32.021  17.526  22.605  1.00  0.00    -0.083 Cl
ATOM     28  C   UNL A   1      34.039  18.417  24.240  1.00  0.00     0.061 A 
ATOM     29  Cl  UNL A   1      34.593  16.796  24.455  1.00  0.00    -0.083 Cl
ENDBRANCH  18  21
ENDBRANCH  10  15
ENDBRANCH   6   9
ENDBRANCH   4   5
ENDBRANCH   3   4
ENDBRANCH   2   3
ENDBRANCH   1   2
BRANCH   1  30
ATOM     30  C   UNL A   1      32.469  28.841  25.020  1.00  0.00     0.021 C 
BRANCH  30  31
ATOM     31  C   UNL A   1      33.598  29.475  25.825  1.00  0.00     0.116 C 
BRANCH  31  32
ATOM     32  N   UNL A   1      33.234  30.806  26.283  1.00  0.00    -0.352 N 
ATOM     33  C   UNL A   1      33.746  31.536  27.326  1.00  0.00     0.251 C 
ATOM     34  H   UNL A   1      32.517  31.247  25.772  1.00  0.00     0.163 HD
ATOM     35  O   UNL A   1      33.133  32.512  27.746  1.00  0.00    -0.269 OA
BRANCH  33  36
ATOM     36  C   UNL A   1      35.030  31.135  27.939  1.00  0.00     0.039 A 
ATOM     37  C   UNL A   1      36.083  32.052  27.973  1.00  0.00     0.014 A 
ATOM     38  C   UNL A   1      35.198  29.848  28.460  1.00  0.00     0.014 A 
ATOM     39  C   UNL A   1      37.289  31.692  28.576  1.00  0.00     0.010 A 
ATOM     40  C   UNL A   1      36.375  29.517  29.123  1.00  0.00     0.010 A 
ATOM     41  C   UNL A   1      37.436  30.433  29.182  1.00  0.00    -0.014 A 
BRANCH  41  42
ATOM     42  C   UNL A   1      38.695  30.053  29.872  1.00  0.00     0.031 A 
ATOM     43  C   UNL A   1      39.623  29.049  29.247  1.00  0.00     0.074 A 
ATOM     44  C   UNL A   1      38.969  30.573  31.085  1.00  0.00     0.049 A 
ATOM     45  N   UNL A   1      40.729  28.535  29.722  1.00  0.00    -0.248 NA
ATOM     46  C   UNL A   1      39.244  28.533  27.921  1.00  0.00     0.031 C 
ATOM     47  C   UNL A   1      38.123  31.530  31.804  1.00  0.00     0.029 A 
ATOM     48  N   UNL A   1      40.028  30.366  31.933  1.00  0.00    -0.354 N 
ATOM     49  C   UNL A   1      41.170  27.629  28.763  1.00  0.00     0.074 A 
ATOM     50  C   UNL A   1      40.181  27.622  27.706  1.00  0.00     0.031 C 
ATOM     51  C   UNL A   1      38.710  31.846  32.970  1.00  0.00     0.029 A 
ATOM     52  C   UNL A   1      39.944  31.077  33.108  1.00  0.00     0.049 A 
ATOM     53  H   UNL A   1      40.777  29.765  31.720  1.00  0.00     0.167 HD
ATOM     54  C   UNL A   1      42.306  26.888  28.756  1.00  0.00     0.034 A 
ATOM     55  C   UNL A   1      40.760  31.096  34.180  1.00  0.00     0.034 A 
ATOM     56  C   UNL A   1      43.286  26.918  29.815  1.00  0.00     0.049 A 
ATOM     57  C   UNL A   1      42.003  30.240  34.161  1.00  0.00     0.074 A 
ATOM     58  C   UNL A   1      44.497  26.251  29.886  1.00  0.00     0.029 A 
ATOM     59  N   UNL A   1      43.166  27.648  30.991  1.00  0.00    -0.354 N 
ATOM     60  N   UNL A   1      42.432  29.428  33.222  1.00  0.00    -0.248 NA
ATOM     61  C   UNL A   1      42.876  30.312  35.339  1.00  0.00     0.031 C 
ATOM     62  C   UNL A   1      45.071  26.518  31.133  1.00  0.00     0.029 A 
ATOM     63  C   UNL A   1      44.264  27.419  31.807  1.00  0.00     0.049 A 
ATOM     64  H   UNL A   1      42.413  28.240  31.213  1.00  0.00     0.167 HD
ATOM     65  C   UNL A   1      43.644  28.920  33.685  1.00  0.00     0.074 A 
ATOM     66  C   UNL A   1      43.882  29.532  34.975  1.00  0.00     0.031 C 
ATOM     67  C   UNL A   1      44.486  28.033  33.096  1.00  0.00     0.034 A 
BRANCH  54  68
ATOM     68  C   UNL A   1      42.534  25.966  27.582  1.00  0.00     0.023 A 
ATOM     69  C   UNL A   1      41.963  24.682  27.526  1.00  0.00     0.031 A 
ATOM     70  C   UNL A   1      43.341  26.373  26.505  1.00  0.00     0.131 A 
ATOM     71  C   UNL A   1      42.257  23.830  26.451  1.00  0.00     0.055 A 
ATOM     72  C   UNL A   1      43.565  25.550  25.399  1.00  0.00     0.041 A 
ATOM     73  F   UNL A   1      43.933  27.579  26.511  1.00  0.00    -0.206 F 
ATOM     74  C   UNL A   1      43.032  24.265  25.373  1.00  0.00     0.022 A 
BRANCH  71  75
ATOM     75  S   UNL A   1      41.719  22.100  26.542  1.00  0.00     0.124 S 
ATOM     76  O   UNL A   1      40.277  22.230  26.336  1.00  0.00    -0.237 OA
ATOM     77  O   UNL A   1      42.466  21.479  25.454  1.00  0.00    -0.237 OA
ATOM     78  O   UNL A   1      42.114  21.688  27.887  1.00  0.00    -0.744 OA
ENDBRANCH  71  75
ENDBRANCH  54  68
BRANCH  55  79
ATOM     79  C   UNL A   1      40.433  31.936  35.370  1.00  0.00     0.023 A 
ATOM     80  C   UNL A   1      39.432  31.549  36.275  1.00  0.00     0.031 A 
ATOM     81  C   UNL A   1      41.076  33.168  35.588  1.00  0.00     0.131 A 
ATOM     82  C   UNL A   1      39.062  32.411  37.320  1.00  0.00     0.055 A 
ATOM     83  C   UNL A   1      40.747  33.994  36.664  1.00  0.00     0.041 A 
ATOM     84  F   UNL A   1      42.042  33.587  34.755  1.00  0.00    -0.206 F 
ATOM     85  C   UNL A   1      39.722  33.623  37.529  1.00  0.00     0.022 A 
BRANCH  82  86
ATOM     86  S   UNL A   1      37.625  31.971  38.338  1.00  0.00     0.124 S 
ATOM     87  O   UNL A   1      36.675  33.017  37.975  1.00  0.00    -0.237 OA
ATOM     88  O   UNL A   1      37.315  30.628  37.858  1.00  0.00    -0.237 OA
ATOM     89  O   UNL A   1      38.142  32.041  39.703  1.00  0.00    -0.744 OA
ENDBRANCH  82  86
ENDBRANCH  55  79
BRANCH  67  90
ATOM     90  C   UNL A   1      45.769  27.716  33.825  1.00  0.00     0.023 A 
ATOM     91  C   UNL A   1      45.866  26.639  34.723  1.00  0.00     0.031 A 
ATOM     92  C   UNL A   1      46.911  28.513  33.622  1.00  0.00     0.131 A 
ATOM     93  C   UNL A   1      47.060  26.424  35.429  1.00  0.00     0.055 A 
ATOM     94  C   UNL A   1      48.115  28.253  34.278  1.00  0.00     0.041 A 
ATOM     95  F   UNL A   1      46.875  29.556  32.778  1.00  0.00    -0.206 F 
ATOM     96  C   UNL A   1      48.190  27.212  35.198  1.00  0.00     0.022 A 
BRANCH  93  97
ATOM     97  S   UNL A   1      47.087  25.158  36.729  1.00  0.00     0.124 S 
ATOM     98  O   UNL A   1      47.702  25.876  37.839  1.00  0.00    -0.237 OA
ATOM     99  O   UNL A   1      45.671  24.838  36.882  1.00  0.00    -0.237 OA
ATOM    100  O   UNL A   1      47.904  24.091  36.152  1.00  0.00    -0.744 OA
ENDBRANCH  93  97
ENDBRANCH  67  90
ENDBRANCH  41  42
ENDBRANCH  33  36
ENDBRANCH  31  32
ENDBRANCH  30  31
ENDBRANCH   1  30
TORSDOF 18
ENDMDL
MODEL 3
REMARK VINA RESULT:     -10.9      0.994      7.683
REMARK SMILES O=C(Nc1cccc(C(=O)NCCCCCCNC(=O)c2ccc(-c3c4nc(c(-c5cc(S(=O)(=O)[O-])ccc5F)c5ccc([nH]5)c(-c5cc(S(=O)(=O)[O-])ccc5F)c5nc(c(-c6cc(S(=O)(=O)[O-])ccc6F)c6ccc3[nH]6)C=C5)C=C4)cc2)c1)Nc1cc(Cl)c(Cl)cc1Cl
REMARK SMILES IDX 15 1 14 2 13 3 12 4 11 5 9 6 10 7 8 9 4 10 5 11 84 12 6 13
REMARK SMILES IDX 7 14 3 15 1 16 2 17 85 18 86 21 87 22 93 23 88 24 92 25
REMARK SMILES IDX 94 26 89 27 90 28 91 29 16 30 17 31 18 32 19 33 20 35 21 36
REMARK SMILES IDX 22 37 83 38 23 39 82 40 24 41 25 42 26 43 76 44 27 45 81 46
REMARK SMILES IDX 75 47 77 48 28 49 80 50 74 51 73 52 29 54 61 55 41 56 60 57
REMARK SMILES IDX 42 58 45 59 59 60 78 61 43 62 44 63 58 65 79 66 46 67 30 68
REMARK SMILES IDX 31 69 39 70 32 71 38 72 40 73 37 74 33 75 34 76 35 77 36 78
REMARK SMILES IDX 62 79 63 80 71 81 64 82 70 83 72 84 69 85 65 86 66 87 67 88
REMARK SMILES IDX 68 89 47 90 48 91 56 92 49 93 55 94 57 95 54 96 50 97 51 98
REMARK SMILES IDX 52 99 53 100
REMARK H PARENT 11 8 3 19 85 20 18 34 77 53 45 64
REMARK Flexibility Score: inf
ROOT
ATOM      1  C   UNL A   1      34.964  33.123  28.153  1.00  0.00     0.002 C 
ENDROOT
BRANCH   1   2
ATOM      2  C   UNL A   1      34.792  31.606  27.994  1.00  0.00     0.002 C 
BRANCH   2   3
ATOM      3  C   UNL A   1      33.453  31.177  27.378  1.00  0.00     0.021 C 
BRANCH   3   4
ATOM      4  C   UNL A   1      33.467  29.726  26.895  1.00  0.00     0.116 C 
BRANCH   4   5
ATOM      5  N   UNL A   1      33.529  29.677  25.448  1.00  0.00    -0.352 N 
ATOM      6  C   UNL A   1      32.966  28.875  24.493  1.00  0.00     0.251 C 
ATOM      7  O   UNL A   1      33.285  29.109  23.324  1.00  0.00    -0.269 OA
ATOM      8  H   UNL A   1      34.106  30.377  25.066  1.00  0.00     0.163 HD
BRANCH   6   9
ATOM      9  C   UNL A   1      31.961  27.799  24.757  1.00  0.00     0.041 A 
ATOM     10  C   UNL A   1      31.087  25.837  25.908  1.00  0.00     0.043 A 
ATOM     11  C   UNL A   1      29.895  25.930  25.194  1.00  0.00     0.026 A 
ATOM     12  C   UNL A   1      32.140  26.714  25.616  1.00  0.00     0.040 A 
ATOM     13  C   UNL A   1      29.718  26.964  24.278  1.00  0.00     0.003 A 
ATOM     14  C   UNL A   1      30.732  27.905  24.084  1.00  0.00     0.014 A 
BRANCH  10  15
ATOM     15  N   UNL A   1      31.198  24.850  26.902  1.00  0.00    -0.308 N 
ATOM     16  O   UNL A   1      31.649  22.827  27.768  1.00  0.00    -0.248 OA
ATOM     17  C   UNL A   1      31.842  23.634  26.865  1.00  0.00     0.323 C 
ATOM     18  N   UNL A   1      32.805  23.507  25.891  1.00  0.00    -0.306 N 
ATOM     19  H   UNL A   1      30.746  25.058  27.751  1.00  0.00     0.171 HD
ATOM     20  H   UNL A   1      33.007  24.310  25.359  1.00  0.00     0.171 HD
BRANCH  18  21
ATOM     21  C   UNL A   1      33.534  22.335  25.578  1.00  0.00     0.063 A 
ATOM     22  C   UNL A   1      32.768  21.177  25.377  1.00  0.00     0.049 A 
ATOM     23  C   UNL A   1      34.935  22.237  25.505  1.00  0.00     0.066 A 
ATOM     24  C   UNL A   1      33.374  19.962  25.032  1.00  0.00     0.061 A 
ATOM     25  C   UNL A   1      35.540  21.025  25.146  1.00  0.00     0.044 A 
ATOM     26  Cl  UNL A   1      35.996  23.486  26.058  1.00  0.00    -0.082 Cl
ATOM     27  Cl  UNL A   1      32.344  18.595  24.796  1.00  0.00    -0.083 Cl
ATOM     28  C   UNL A   1      34.762  19.890  24.901  1.00  0.00     0.061 A 
ATOM     29  Cl  UNL A   1      35.576  18.423  24.495  1.00  0.00    -0.083 Cl
ENDBRANCH  18  21
ENDBRANCH  10  15
ENDBRANCH   6   9
ENDBRANCH   4   5
ENDBRANCH   3   4
ENDBRANCH   2   3
ENDBRANCH   1   2
BRANCH   1  30
ATOM     30  C   UNL A   1      33.655  33.905  28.299  1.00  0.00     0.021 C 
BRANCH  30  31
ATOM     31  C   UNL A   1      33.836  35.324  28.827  1.00  0.00     0.116 C 
BRANCH  31  32
ATOM     32  N   UNL A   1      33.068  35.535  30.043  1.00  0.00    -0.352 N 
ATOM     33  C   UNL A   1      33.233  34.969  31.283  1.00  0.00     0.251 C 
ATOM     34  H   UNL A   1      32.323  36.174  29.967  1.00  0.00     0.163 HD
ATOM     35  O   UNL A   1      32.329  35.040  32.109  1.00  0.00    -0.269 OA
BRANCH  33  36
ATOM     36  C   UNL A   1      34.495  34.273  31.607  1.00  0.00     0.039 A 
ATOM     37  C   UNL A   1      35.697  34.982  31.547  1.00  0.00     0.014 A 
ATOM     38  C   UNL A   1      34.492  32.917  31.952  1.00  0.00     0.014 A 
ATOM     39  C   UNL A   1      36.892  34.340  31.880  1.00  0.00     0.010 A 
ATOM     40  C   UNL A   1      35.673  32.301  32.353  1.00  0.00     0.010 A 
ATOM     41  C   UNL A   1      36.886  33.004  32.314  1.00  0.00    -0.014 A 
BRANCH  41  42
ATOM     42  C   UNL A   1      38.142  32.322  32.722  1.00  0.00     0.031 A 
ATOM     43  C   UNL A   1      38.755  31.278  31.830  1.00  0.00     0.074 A 
ATOM     44  C   UNL A   1      38.692  32.607  33.919  1.00  0.00     0.049 A 
ATOM     45  N   UNL A   1      39.803  30.524  32.039  1.00  0.00    -0.248 NA
ATOM     46  C   UNL A   1      38.086  31.032  30.542  1.00  0.00     0.031 C 
ATOM     47  C   UNL A   1      38.164  33.577  34.882  1.00  0.00     0.029 A 
ATOM     48  N   UNL A   1      39.810  32.104  34.536  1.00  0.00    -0.354 N 
ATOM     49  C   UNL A   1      39.912  29.705  30.919  1.00  0.00     0.074 A 
ATOM     50  C   UNL A   1      38.790  30.018  30.061  1.00  0.00     0.031 C 
ATOM     51  C   UNL A   1      38.971  33.617  35.954  1.00  0.00     0.029 A 
ATOM     52  C   UNL A   1      40.043  32.641  35.782  1.00  0.00     0.049 A 
ATOM     53  H   UNL A   1      40.390  31.424  34.126  1.00  0.00     0.167 HD
ATOM     54  C   UNL A   1      40.872  28.794  30.626  1.00  0.00     0.034 A 
ATOM     55  C   UNL A   1      41.003  32.366  36.687  1.00  0.00     0.034 A 
ATOM     56  C   UNL A   1      41.991  28.505  31.490  1.00  0.00     0.049 A 
ATOM     57  C   UNL A   1      42.043  31.326  36.349  1.00  0.00     0.074 A 
ATOM     58  C   UNL A   1      43.050  27.641  31.268  1.00  0.00     0.029 A 
ATOM     59  N   UNL A   1      42.194  29.065  32.745  1.00  0.00    -0.354 N 
ATOM     60  N   UNL A   1      42.161  30.599  35.261  1.00  0.00    -0.248 NA
ATOM     61  C   UNL A   1      43.084  31.078  37.353  1.00  0.00     0.031 C 
ATOM     62  C   UNL A   1      43.849  27.624  32.415  1.00  0.00     0.029 A 
ATOM     63  C   UNL A   1      43.341  28.540  33.321  1.00  0.00     0.049 A 
ATOM     64  H   UNL A   1      41.609  29.737  33.164  1.00  0.00     0.167 HD
ATOM     65  C   UNL A   1      43.312  29.834  35.440  1.00  0.00     0.074 A 
ATOM     66  C   UNL A   1      43.857  30.203  36.730  1.00  0.00     0.031 C 
ATOM     67  C   UNL A   1      43.869  28.914  34.612  1.00  0.00     0.034 A 
BRANCH  54  68
ATOM     68  C   UNL A   1      40.739  28.028  29.331  1.00  0.00     0.023 A 
ATOM     69  C   UNL A   1      41.600  28.255  28.243  1.00  0.00     0.031 A 
ATOM     70  C   UNL A   1      39.731  27.058  29.179  1.00  0.00     0.131 A 
ATOM     71  C   UNL A   1      41.398  27.573  27.034  1.00  0.00     0.055 A 
ATOM     72  C   UNL A   1      39.585  26.325  28.000  1.00  0.00     0.041 A 
ATOM     73  F   UNL A   1      38.864  26.813  30.174  1.00  0.00    -0.206 F 
ATOM     74  C   UNL A   1      40.414  26.589  26.913  1.00  0.00     0.022 A 
BRANCH  71  75
ATOM     75  S   UNL A   1      42.356  28.081  25.580  1.00  0.00     0.124 S 
ATOM     76  O   UNL A   1      41.599  29.243  25.120  1.00  0.00    -0.237 OA
ATOM     77  O   UNL A   1      43.670  28.358  26.148  1.00  0.00    -0.237 OA
ATOM     78  O   UNL A   1      42.289  26.916  24.700  1.00  0.00    -0.744 OA
ENDBRANCH  71  75
ENDBRANCH  54  68
BRANCH  55  79
ATOM     79  C   UNL A   1      41.028  33.067  38.004  1.00  0.00     0.023 A 
ATOM     80  C   UNL A   1      40.280  32.588  39.092  1.00  0.00     0.031 A 
ATOM     81  C   UNL A   1      41.753  34.260  38.180  1.00  0.00     0.131 A 
ATOM     82  C   UNL A   1      40.227  33.327  40.285  1.00  0.00     0.055 A 
ATOM     83  C   UNL A   1      41.746  34.958  39.388  1.00  0.00     0.041 A 
ATOM     84  F   UNL A   1      42.487  34.762  37.174  1.00  0.00    -0.206 F 
ATOM     85  C   UNL A   1      40.966  34.501  40.445  1.00  0.00     0.022 A 
BRANCH  82  86
ATOM     86  S   UNL A   1      39.085  32.787  41.588  1.00  0.00     0.124 S 
ATOM     87  O   UNL A   1      39.562  33.552  42.734  1.00  0.00    -0.237 OA
ATOM     88  O   UNL A   1      37.793  33.187  41.042  1.00  0.00    -0.237 OA
ATOM     89  O   UNL A   1      39.311  31.345  41.661  1.00  0.00    -0.744 OA
ENDBRANCH  82  86
ENDBRANCH  55  79
BRANCH  67  90
ATOM     90  C   UNL A   1      45.166  28.283  35.062  1.00  0.00     0.023 A 
ATOM     91  C   UNL A   1      45.194  27.085  35.796  1.00  0.00     0.031 A 
ATOM     92  C   UNL A   1      46.393  28.899  34.754  1.00  0.00     0.131 A 
ATOM     93  C   UNL A   1      46.419  26.573  36.250  1.00  0.00     0.055 A 
ATOM     94  C   UNL A   1      47.612  28.348  35.151  1.00  0.00     0.041 A 
ATOM     95  F   UNL A   1      46.426  30.046  34.057  1.00  0.00    -0.206 F 
ATOM     96  C   UNL A   1      47.628  27.186  35.916  1.00  0.00     0.022 A 
BRANCH  93  97
ATOM     97  S   UNL A   1      46.405  25.143  37.368  1.00  0.00     0.124 S 
ATOM     98  O   UNL A   1      44.979  24.858  37.478  1.00  0.00    -0.237 OA
ATOM     99  O   UNL A   1      47.196  24.163  36.631  1.00  0.00    -0.237 OA
ATOM    100  O   UNL A   1      47.032  25.655  38.586  1.00  0.00    -0.744 OA
ENDBRANCH  93  97
ENDBRANCH  67  90
ENDBRANCH  41  42
ENDBRANCH  33  36
ENDBRANCH  31  32
ENDBRANCH  30  31
ENDBRANCH   1  30
TORSDOF 18
ENDMDL
