MODEL 1
REMARK VINA RESULT:     -11.7      0.000      0.000
REMARK SMILES CC(C)CCc1cc2c(cc1Cl)C=C(C(=O)NCCCCCCNC(=O)c1ccc(-c3c4nc(c(-c5cc(S(=O)(=O)[O-])ccc5F)c5ccc([nH]5)c(-c5cc(S(=O)(=O)[O-])ccc5F)c5nc(c(-c6cc(S(=O)(=O)[O-])ccc6F)c6ccc3[nH]6)C=C5)C=C4)cc1)[C@@H](C(F)(F)F)O2
REMARK SMILES IDX 20 1 19 2 18 3 17 4 15 5 16 6 14 8 6 9 7 10 11 11 8 12 10 13
REMARK SMILES IDX 12 14 9 15 95 16 13 17 90 18 5 19 4 20 2 21 1 22 3 23 91 24
REMARK SMILES IDX 92 25 93 26 94 27 21 28 22 29 23 30 24 31 25 32 26 34 27 35
REMARK SMILES IDX 28 36 89 37 29 38 88 39 30 40 31 41 32 42 82 43 33 44 87 45
REMARK SMILES IDX 81 46 83 47 34 48 86 49 80 50 79 51 35 53 67 54 47 55 66 56
REMARK SMILES IDX 48 57 51 58 65 59 84 60 49 61 50 62 64 64 85 65 52 66 36 67
REMARK SMILES IDX 37 68 45 69 38 70 44 71 46 72 43 73 39 74 40 75 41 76 42 77
REMARK SMILES IDX 68 78 69 79 77 80 70 81 76 82 78 83 75 84 71 85 72 86 73 87
REMARK SMILES IDX 74 88 53 89 54 90 62 91 55 92 61 93 63 94 60 95 56 96 57 97
REMARK SMILES IDX 58 98 59 99
REMARK H PARENT 17 7 24 33 83 52 51 63
REMARK Flexibility Score: inf
ROOT
ATOM      1  C   UNL A   1      31.634  29.575  25.154  1.00  0.00     0.002 C 
ENDROOT
BRANCH   1   2
ATOM      2  C   UNL A   1      32.891  29.077  24.433  1.00  0.00     0.021 C 
BRANCH   2   3
ATOM      3  C   UNL A   1      32.613  28.426  23.081  1.00  0.00     0.116 C 
BRANCH   3   4
ATOM      4  N   UNL A   1      31.278  27.850  23.021  1.00  0.00    -0.352 N 
ATOM      5  C   UNL A   1      30.696  26.657  23.285  1.00  0.00     0.251 C 
ATOM      6  O   UNL A   1      29.472  26.621  23.111  1.00  0.00    -0.270 OA
ATOM      7  H   UNL A   1      30.619  28.508  22.704  1.00  0.00     0.163 HD
BRANCH   5   8
ATOM      8  C   UNL A   1      31.407  25.428  23.747  1.00  0.00     0.067 C 
ATOM      9  C   UNL A   1      33.339  20.770  24.172  1.00  0.00    -0.026 A 
ATOM     10  C   UNL A   1      33.597  22.014  24.765  1.00  0.00     0.052 A 
ATOM     11  C   UNL A   1      32.418  20.740  23.107  1.00  0.00     0.045 A 
ATOM     12  C   UNL A   1      32.895  23.154  24.381  1.00  0.00     0.128 A 
ATOM     13  C   UNL A   1      31.742  21.900  22.696  1.00  0.00     0.032 A 
ATOM     14  Cl  UNL A   1      32.086  19.284  22.234  1.00  0.00    -0.084 Cl
ATOM     15  C   UNL A   1      31.969  23.113  23.346  1.00  0.00     0.019 A 
ATOM     16  O   UNL A   1      33.197  24.300  25.057  1.00  0.00    -0.475 OA
ATOM     17  C   UNL A   1      31.305  24.350  22.946  1.00  0.00     0.025 C 
ATOM     18  C   UNL A   1      32.176  25.331  25.036  1.00  0.00     0.314 C 
BRANCH   9  19
ATOM     19  C   UNL A   1      34.065  19.524  24.639  1.00  0.00     0.037 C 
BRANCH  19  20
ATOM     20  C   UNL A   1      33.210  18.367  25.196  1.00  0.00     0.008 C 
BRANCH  20  21
ATOM     21  C   UNL A   1      33.760  16.949  24.925  1.00  0.00    -0.017 C 
ATOM     22  C   UNL A   1      32.799  15.858  25.393  1.00  0.00     0.007 C 
ATOM     23  C   UNL A   1      34.056  16.784  23.432  1.00  0.00     0.007 C 
ENDBRANCH  20  21
ENDBRANCH  19  20
ENDBRANCH   9  19
BRANCH  18  24
ATOM     24  C   UNL A   1      31.251  25.173  26.258  1.00  0.00     0.429 C 
ATOM     25  F   UNL A   1      31.012  26.374  26.837  1.00  0.00    -0.167 F 
ATOM     26  F   UNL A   1      30.041  24.661  25.924  1.00  0.00    -0.167 F 
ATOM     27  F   UNL A   1      31.771  24.360  27.204  1.00  0.00    -0.167 F 
ENDBRANCH  18  24
ENDBRANCH   5   8
ENDBRANCH   3   4
ENDBRANCH   2   3
ENDBRANCH   1   2
BRANCH   1  28
ATOM     28  C   UNL A   1      31.854  30.098  26.581  1.00  0.00     0.002 C 
BRANCH  28  29
ATOM     29  C   UNL A   1      31.629  31.599  26.781  1.00  0.00     0.021 C 
BRANCH  29  30
ATOM     30  C   UNL A   1      32.895  32.410  27.037  1.00  0.00     0.116 C 
BRANCH  30  31
ATOM     31  N   UNL A   1      32.606  33.775  27.444  1.00  0.00    -0.352 N 
ATOM     32  C   UNL A   1      33.167  34.514  28.459  1.00  0.00     0.251 C 
ATOM     33  H   UNL A   1      31.912  34.235  26.919  1.00  0.00     0.163 HD
ATOM     34  O   UNL A   1      32.686  35.602  28.764  1.00  0.00    -0.269 OA
BRANCH  32  35
ATOM     35  C   UNL A   1      34.323  33.970  29.200  1.00  0.00     0.039 A 
ATOM     36  C   UNL A   1      35.628  34.302  28.827  1.00  0.00     0.014 A 
ATOM     37  C   UNL A   1      34.096  33.085  30.257  1.00  0.00     0.014 A 
ATOM     38  C   UNL A   1      36.703  33.630  29.403  1.00  0.00     0.010 A 
ATOM     39  C   UNL A   1      35.180  32.463  30.882  1.00  0.00     0.010 A 
ATOM     40  C   UNL A   1      36.488  32.693  30.425  1.00  0.00    -0.014 A 
BRANCH  40  41
ATOM     41  C   UNL A   1      37.633  31.934  30.995  1.00  0.00     0.031 A 
ATOM     42  C   UNL A   1      38.073  32.182  32.412  1.00  0.00     0.074 A 
ATOM     43  C   UNL A   1      38.252  31.004  30.245  1.00  0.00     0.049 A 
ATOM     44  N   UNL A   1      39.078  31.658  33.066  1.00  0.00    -0.248 NA
ATOM     45  C   UNL A   1      37.284  33.144  33.200  1.00  0.00     0.031 C 
ATOM     46  C   UNL A   1      37.883  30.656  28.872  1.00  0.00     0.029 A 
ATOM     47  N   UNL A   1      39.309  30.174  30.527  1.00  0.00    -0.354 N 
ATOM     48  C   UNL A   1      39.053  32.235  34.331  1.00  0.00     0.074 A 
ATOM     49  C   UNL A   1      37.952  33.173  34.345  1.00  0.00     0.031 C 
ATOM     50  C   UNL A   1      38.675  29.661  28.445  1.00  0.00     0.029 A 
ATOM     51  C   UNL A   1      39.655  29.350  29.482  1.00  0.00     0.049 A 
ATOM     52  H   UNL A   1      39.774  30.168  31.394  1.00  0.00     0.167 HD
ATOM     53  C   UNL A   1      39.868  31.993  35.384  1.00  0.00     0.034 A 
ATOM     54  C   UNL A   1      40.662  28.459  29.360  1.00  0.00     0.034 A 
ATOM     55  C   UNL A   1      40.949  31.041  35.358  1.00  0.00     0.049 A 
ATOM     56  C   UNL A   1      41.592  28.252  30.527  1.00  0.00     0.074 A 
ATOM     57  C   UNL A   1      41.828  30.720  36.377  1.00  0.00     0.029 A 
ATOM     58  N   UNL A   1      41.291  30.252  34.269  1.00  0.00    -0.354 N 
ATOM     59  N   UNL A   1      41.550  28.797  31.720  1.00  0.00    -0.248 NA
ATOM     60  C   UNL A   1      42.711  27.318  30.339  1.00  0.00     0.031 C 
ATOM     61  C   UNL A   1      42.733  29.777  35.889  1.00  0.00     0.029 A 
ATOM     62  C   UNL A   1      42.380  29.458  34.587  1.00  0.00     0.049 A 
ATOM     63  H   UNL A   1      40.828  30.254  33.401  1.00  0.00     0.167 HD
ATOM     64  C   UNL A   1      42.616  28.255  32.430  1.00  0.00     0.074 A 
ATOM     65  C   UNL A   1      43.277  27.324  31.539  1.00  0.00     0.031 C 
ATOM     66  C   UNL A   1      43.012  28.510  33.702  1.00  0.00     0.034 A 
BRANCH  53  67
ATOM     67  C   UNL A   1      39.638  32.748  36.669  1.00  0.00     0.023 A 
ATOM     68  C   UNL A   1      38.735  32.249  37.628  1.00  0.00     0.031 A 
ATOM     69  C   UNL A   1      40.203  34.017  36.883  1.00  0.00     0.131 A 
ATOM     70  C   UNL A   1      38.395  33.033  38.738  1.00  0.00     0.055 A 
ATOM     71  C   UNL A   1      39.889  34.778  38.010  1.00  0.00     0.041 A 
ATOM     72  F   UNL A   1      41.072  34.534  35.999  1.00  0.00    -0.206 F 
ATOM     73  C   UNL A   1      38.972  34.293  38.937  1.00  0.00     0.022 A 
BRANCH  70  74
ATOM     74  S   UNL A   1      37.150  32.478  39.934  1.00  0.00     0.124 S 
ATOM     75  O   UNL A   1      35.907  32.703  39.199  1.00  0.00    -0.237 OA
ATOM     76  O   UNL A   1      37.516  31.078  40.128  1.00  0.00    -0.237 OA
ATOM     77  O   UNL A   1      37.356  33.350  41.085  1.00  0.00    -0.744 OA
ENDBRANCH  70  74
ENDBRANCH  53  67
BRANCH  54  78
ATOM     78  C   UNL A   1      40.801  27.683  28.092  1.00  0.00     0.023 A 
ATOM     79  C   UNL A   1      40.402  26.335  28.017  1.00  0.00     0.031 A 
ATOM     80  C   UNL A   1      41.436  28.246  26.973  1.00  0.00     0.131 A 
ATOM     81  C   UNL A   1      40.708  25.579  26.878  1.00  0.00     0.055 A 
ATOM     82  C   UNL A   1      41.674  27.507  25.812  1.00  0.00     0.041 A 
ATOM     83  F   UNL A   1      41.845  29.524  26.999  1.00  0.00    -0.206 F 
ATOM     84  C   UNL A   1      41.327  26.161  25.769  1.00  0.00     0.022 A 
BRANCH  81  85
ATOM     85  S   UNL A   1      40.445  23.783  26.858  1.00  0.00     0.124 S 
ATOM     86  O   UNL A   1      39.057  23.685  26.420  1.00  0.00    -0.237 OA
ATOM     87  O   UNL A   1      41.446  23.345  25.889  1.00  0.00    -0.237 OA
ATOM     88  O   UNL A   1      40.703  23.382  28.237  1.00  0.00    -0.744 OA
ENDBRANCH  81  85
ENDBRANCH  54  78
BRANCH  66  89
ATOM     89  C   UNL A   1      44.207  27.773  34.253  1.00  0.00     0.023 A 
ATOM     90  C   UNL A   1      44.022  26.558  34.941  1.00  0.00     0.031 A 
ATOM     91  C   UNL A   1      45.485  28.357  34.262  1.00  0.00     0.131 A 
ATOM     92  C   UNL A   1      45.084  25.995  35.657  1.00  0.00     0.055 A 
ATOM     93  C   UNL A   1      46.553  27.766  34.939  1.00  0.00     0.041 A 
ATOM     94  F   UNL A   1      45.706  29.519  33.628  1.00  0.00    -0.206 F 
ATOM     95  C   UNL A   1      46.350  26.588  35.654  1.00  0.00     0.022 A 
BRANCH  92  96
ATOM     96  S   UNL A   1      44.839  24.525  36.693  1.00  0.00     0.124 S 
ATOM     97  O   UNL A   1      44.091  23.645  35.798  1.00  0.00    -0.237 OA
ATOM     98  O   UNL A   1      46.213  24.113  36.969  1.00  0.00    -0.237 OA
ATOM     99  O   UNL A   1      44.090  25.024  37.841  1.00  0.00    -0.744 OA
ENDBRANCH  92  96
ENDBRANCH  66  89
ENDBRANCH  40  41
ENDBRANCH  32  35
ENDBRANCH  30  31
ENDBRANCH  29  30
ENDBRANCH  28  29
ENDBRANCH   1  28
TORSDOF 20
ENDMDL
MODEL 2
REMARK VINA RESULT:     -11.7      1.922      2.341
REMARK SMILES CC(C)CCc1cc2c(cc1Cl)C=C(C(=O)NCCCCCCNC(=O)c1ccc(-c3c4nc(c(-c5cc(S(=O)(=O)[O-])ccc5F)c5ccc([nH]5)c(-c5cc(S(=O)(=O)[O-])ccc5F)c5nc(c(-c6cc(S(=O)(=O)[O-])ccc6F)c6ccc3[nH]6)C=C5)C=C4)cc1)[C@@H](C(F)(F)F)O2
REMARK SMILES IDX 20 1 19 2 18 3 17 4 15 5 16 6 14 8 6 9 7 10 11 11 8 12 10 13
REMARK SMILES IDX 12 14 9 15 95 16 13 17 90 18 5 19 4 20 2 21 1 22 3 23 91 24
REMARK SMILES IDX 92 25 93 26 94 27 21 28 22 29 23 30 24 31 25 32 26 34 27 35
REMARK SMILES IDX 28 36 89 37 29 38 88 39 30 40 31 41 32 42 82 43 33 44 87 45
REMARK SMILES IDX 81 46 83 47 34 48 86 49 80 50 79 51 35 53 67 54 47 55 66 56
REMARK SMILES IDX 48 57 51 58 65 59 84 60 49 61 50 62 64 64 85 65 52 66 36 67
REMARK SMILES IDX 37 68 45 69 38 70 44 71 46 72 43 73 39 74 40 75 41 76 42 77
REMARK SMILES IDX 68 78 69 79 77 80 70 81 76 82 78 83 75 84 71 85 72 86 73 87
REMARK SMILES IDX 74 88 53 89 54 90 62 91 55 92 61 93 63 94 60 95 56 96 57 97
REMARK SMILES IDX 58 98 59 99
REMARK H PARENT 17 7 24 33 83 52 51 63
REMARK Flexibility Score: inf
ROOT
ATOM      1  C   UNL A   1      31.613  29.237  26.126  1.00  0.00     0.002 C 
ENDROOT
BRANCH   1   2
ATOM      2  C   UNL A   1      32.086  28.489  24.875  1.00  0.00     0.021 C 
BRANCH   2   3
ATOM      3  C   UNL A   1      31.271  28.799  23.622  1.00  0.00     0.116 C 
BRANCH   3   4
ATOM      4  N   UNL A   1      29.951  28.190  23.670  1.00  0.00    -0.352 N 
ATOM      5  C   UNL A   1      29.432  26.948  23.809  1.00  0.00     0.251 C 
ATOM      6  O   UNL A   1      28.197  26.894  23.822  1.00  0.00    -0.270 OA
ATOM      7  H   UNL A   1      29.242  28.866  23.579  1.00  0.00     0.163 HD
BRANCH   5   8
ATOM      8  C   UNL A   1      30.221  25.687  23.933  1.00  0.00     0.067 C 
ATOM      9  C   UNL A   1      32.777  21.672  25.653  1.00  0.00    -0.026 A 
ATOM     10  C   UNL A   1      32.164  22.019  24.441  1.00  0.00     0.052 A 
ATOM     11  C   UNL A   1      32.584  22.538  26.747  1.00  0.00     0.045 A 
ATOM     12  C   UNL A   1      31.477  23.221  24.300  1.00  0.00     0.128 A 
ATOM     13  C   UNL A   1      31.856  23.731  26.611  1.00  0.00     0.032 A 
ATOM     14  Cl  UNL A   1      33.210  22.173  28.318  1.00  0.00    -0.084 Cl
ATOM     15  C   UNL A   1      31.311  24.085  25.376  1.00  0.00     0.019 A 
ATOM     16  O   UNL A   1      30.959  23.475  23.064  1.00  0.00    -0.475 OA
ATOM     17  C   UNL A   1      30.532  25.304  25.187  1.00  0.00     0.025 C 
ATOM     18  C   UNL A   1      30.699  24.871  22.764  1.00  0.00     0.314 C 
BRANCH   9  19
ATOM     19  C   UNL A   1      33.575  20.389  25.779  1.00  0.00     0.037 C 
BRANCH  19  20
ATOM     20  C   UNL A   1      32.900  19.082  25.316  1.00  0.00     0.008 C 
BRANCH  20  21
ATOM     21  C   UNL A   1      33.524  18.423  24.065  1.00  0.00    -0.017 C 
ATOM     22  C   UNL A   1      34.119  17.049  24.372  1.00  0.00     0.007 C 
ATOM     23  C   UNL A   1      32.471  18.306  22.960  1.00  0.00     0.007 C 
ENDBRANCH  20  21
ENDBRANCH  19  20
ENDBRANCH   9  19
BRANCH  18  24
ATOM     24  C   UNL A   1      31.932  25.495  22.080  1.00  0.00     0.429 C 
ATOM     25  F   UNL A   1      32.579  24.576  21.325  1.00  0.00    -0.167 F 
ATOM     26  F   UNL A   1      31.597  26.510  21.246  1.00  0.00    -0.167 F 
ATOM     27  F   UNL A   1      32.821  25.996  22.967  1.00  0.00    -0.167 F 
ENDBRANCH  18  24
ENDBRANCH   5   8
ENDBRANCH   3   4
ENDBRANCH   2   3
ENDBRANCH   1   2
BRANCH   1  28
ATOM     28  C   UNL A   1      32.664  30.134  26.796  1.00  0.00     0.002 C 
BRANCH  28  29
ATOM     29  C   UNL A   1      32.214  31.563  27.110  1.00  0.00     0.021 C 
BRANCH  29  30
ATOM     30  C   UNL A   1      33.346  32.577  27.252  1.00  0.00     0.116 C 
BRANCH  30  31
ATOM     31  N   UNL A   1      32.880  33.863  27.743  1.00  0.00    -0.352 N 
ATOM     32  C   UNL A   1      33.276  34.559  28.860  1.00  0.00     0.251 C 
ATOM     33  H   UNL A   1      32.183  34.296  27.199  1.00  0.00     0.163 HD
ATOM     34  O   UNL A   1      32.659  35.562  29.210  1.00  0.00    -0.269 OA
BRANCH  32  35
ATOM     35  C   UNL A   1      34.423  34.070  29.652  1.00  0.00     0.039 A 
ATOM     36  C   UNL A   1      35.728  34.448  29.323  1.00  0.00     0.014 A 
ATOM     37  C   UNL A   1      34.190  33.190  30.711  1.00  0.00     0.014 A 
ATOM     38  C   UNL A   1      36.805  33.826  29.948  1.00  0.00     0.010 A 
ATOM     39  C   UNL A   1      35.273  32.619  31.385  1.00  0.00     0.010 A 
ATOM     40  C   UNL A   1      36.587  32.894  30.975  1.00  0.00    -0.014 A 
BRANCH  40  41
ATOM     41  C   UNL A   1      37.738  32.188  31.598  1.00  0.00     0.031 A 
ATOM     42  C   UNL A   1      38.207  32.575  32.974  1.00  0.00     0.074 A 
ATOM     43  C   UNL A   1      38.336  31.180  30.936  1.00  0.00     0.049 A 
ATOM     44  N   UNL A   1      39.221  32.112  33.659  1.00  0.00    -0.248 NA
ATOM     45  C   UNL A   1      37.440  33.619  33.674  1.00  0.00     0.031 C 
ATOM     46  C   UNL A   1      37.938  30.697  29.613  1.00  0.00     0.029 A 
ATOM     47  N   UNL A   1      39.393  30.374  31.282  1.00  0.00    -0.354 N 
ATOM     48  C   UNL A   1      39.225  32.815  34.859  1.00  0.00     0.074 A 
ATOM     49  C   UNL A   1      38.130  33.759  34.798  1.00  0.00     0.031 C 
ATOM     50  C   UNL A   1      38.715  29.657  29.276  1.00  0.00     0.029 A 
ATOM     51  C   UNL A   1      39.713  29.444  30.320  1.00  0.00     0.049 A 
ATOM     52  H   UNL A   1      39.874  30.453  32.136  1.00  0.00     0.167 HD
ATOM     53  C   UNL A   1      40.058  32.675  35.916  1.00  0.00     0.034 A 
ATOM     54  C   UNL A   1      40.712  28.537  30.272  1.00  0.00     0.034 A 
ATOM     55  C   UNL A   1      41.131  31.716  35.968  1.00  0.00     0.049 A 
ATOM     56  C   UNL A   1      41.663  28.442  31.437  1.00  0.00     0.074 A 
ATOM     57  C   UNL A   1      42.028  31.493  36.997  1.00  0.00     0.029 A 
ATOM     58  N   UNL A   1      41.447  30.817  34.959  1.00  0.00    -0.354 N 
ATOM     59  N   UNL A   1      41.647  29.107  32.568  1.00  0.00    -0.248 NA
ATOM     60  C   UNL A   1      42.771  27.484  31.324  1.00  0.00     0.031 C 
ATOM     61  C   UNL A   1      42.917  30.498  36.592  1.00  0.00     0.029 A 
ATOM     62  C   UNL A   1      42.537  30.051  35.336  1.00  0.00     0.049 A 
ATOM     63  H   UNL A   1      40.967  30.735  34.104  1.00  0.00     0.167 HD
ATOM     64  C   UNL A   1      42.723  28.631  33.310  1.00  0.00     0.074 A 
ATOM     65  C   UNL A   1      43.360  27.608  32.507  1.00  0.00     0.031 C 
ATOM     66  C   UNL A   1      43.146  29.012  34.541  1.00  0.00     0.034 A 
BRANCH  53  67
ATOM     67  C   UNL A   1      39.858  33.559  37.121  1.00  0.00     0.023 A 
ATOM     68  C   UNL A   1      39.289  33.032  38.297  1.00  0.00     0.031 A 
ATOM     69  C   UNL A   1      40.101  34.943  37.062  1.00  0.00     0.131 A 
ATOM     70  C   UNL A   1      38.947  33.889  39.350  1.00  0.00     0.055 A 
ATOM     71  C   UNL A   1      39.793  35.787  38.130  1.00  0.00     0.041 A 
ATOM     72  F   UNL A   1      40.646  35.493  35.964  1.00  0.00    -0.206 F 
ATOM     73  C   UNL A   1      39.202  35.263  39.275  1.00  0.00     0.022 A 
BRANCH  70  74
ATOM     74  S   UNL A   1      38.107  33.267  40.832  1.00  0.00     0.124 S 
ATOM     75  O   UNL A   1      38.584  34.193  41.858  1.00  0.00    -0.237 OA
ATOM     76  O   UNL A   1      36.701  33.409  40.468  1.00  0.00    -0.237 OA
ATOM     77  O   UNL A   1      38.592  31.897  40.961  1.00  0.00    -0.744 OA
ENDBRANCH  70  74
ENDBRANCH  53  67
BRANCH  54  78
ATOM     78  C   UNL A   1      40.821  27.635  29.088  1.00  0.00     0.023 A 
ATOM     79  C   UNL A   1      41.765  27.879  28.072  1.00  0.00     0.031 A 
ATOM     80  C   UNL A   1      39.911  26.582  28.901  1.00  0.00     0.131 A 
ATOM     81  C   UNL A   1      41.727  27.131  26.888  1.00  0.00     0.055 A 
ATOM     82  C   UNL A   1      39.924  25.791  27.750  1.00  0.00     0.041 A 
ATOM     83  F   UNL A   1      38.985  26.315  29.835  1.00  0.00    -0.206 F 
ATOM     84  C   UNL A   1      40.823  26.077  26.728  1.00  0.00     0.022 A 
BRANCH  81  85
ATOM     85  S   UNL A   1      42.752  27.595  25.463  1.00  0.00     0.124 S 
ATOM     86  O   UNL A   1      42.666  26.402  24.627  1.00  0.00    -0.237 OA
ATOM     87  O   UNL A   1      42.047  28.771  24.960  1.00  0.00    -0.237 OA
ATOM     88  O   UNL A   1      44.059  27.862  26.052  1.00  0.00    -0.744 OA
ENDBRANCH  81  85
ENDBRANCH  54  78
BRANCH  66  89
ATOM     89  C   UNL A   1      44.346  28.324  35.142  1.00  0.00     0.023 A 
ATOM     90  C   UNL A   1      44.162  27.322  36.116  1.00  0.00     0.031 A 
ATOM     91  C   UNL A   1      45.650  28.785  34.896  1.00  0.00     0.131 A 
ATOM     92  C   UNL A   1      45.259  26.853  36.847  1.00  0.00     0.055 A 
ATOM     93  C   UNL A   1      46.747  28.279  35.595  1.00  0.00     0.041 A 
ATOM     94  F   UNL A   1      45.872  29.745  33.985  1.00  0.00    -0.206 F 
ATOM     95  C   UNL A   1      46.552  27.321  36.587  1.00  0.00     0.022 A 
BRANCH  92  96
ATOM     96  S   UNL A   1      45.039  25.690  38.222  1.00  0.00     0.124 S 
ATOM     97  O   UNL A   1      46.357  25.713  38.851  1.00  0.00    -0.237 OA
ATOM     98  O   UNL A   1      43.969  26.321  38.989  1.00  0.00    -0.237 OA
ATOM     99  O   UNL A   1      44.686  24.434  37.567  1.00  0.00    -0.744 OA
ENDBRANCH  92  96
ENDBRANCH  66  89
ENDBRANCH  40  41
ENDBRANCH  32  35
ENDBRANCH  30  31
ENDBRANCH  29  30
ENDBRANCH  28  29
ENDBRANCH   1  28
TORSDOF 20
ENDMDL
MODEL 3
REMARK VINA RESULT:     -11.6      2.125      7.565
REMARK SMILES CC(C)CCc1cc2c(cc1Cl)C=C(C(=O)NCCCCCCNC(=O)c1ccc(-c3c4nc(c(-c5cc(S(=O)(=O)[O-])ccc5F)c5ccc([nH]5)c(-c5cc(S(=O)(=O)[O-])ccc5F)c5nc(c(-c6cc(S(=O)(=O)[O-])ccc6F)c6ccc3[nH]6)C=C5)C=C4)cc1)[C@@H](C(F)(F)F)O2
REMARK SMILES IDX 20 1 19 2 18 3 17 4 15 5 16 6 14 8 6 9 7 10 11 11 8 12 10 13
REMARK SMILES IDX 12 14 9 15 95 16 13 17 90 18 5 19 4 20 2 21 1 22 3 23 91 24
REMARK SMILES IDX 92 25 93 26 94 27 21 28 22 29 23 30 24 31 25 32 26 34 27 35
REMARK SMILES IDX 28 36 89 37 29 38 88 39 30 40 31 41 32 42 82 43 33 44 87 45
REMARK SMILES IDX 81 46 83 47 34 48 86 49 80 50 79 51 35 53 67 54 47 55 66 56
REMARK SMILES IDX 48 57 51 58 65 59 84 60 49 61 50 62 64 64 85 65 52 66 36 67
REMARK SMILES IDX 37 68 45 69 38 70 44 71 46 72 43 73 39 74 40 75 41 76 42 77
REMARK SMILES IDX 68 78 69 79 77 80 70 81 76 82 78 83 75 84 71 85 72 86 73 87
REMARK SMILES IDX 74 88 53 89 54 90 62 91 55 92 61 93 63 94 60 95 56 96 57 97
REMARK SMILES IDX 58 98 59 99
REMARK H PARENT 17 7 24 33 83 52 51 63
REMARK Flexibility Score: inf
ROOT
ATOM      1  C   UNL A   1      32.304  28.954  25.834  1.00  0.00     0.002 C 
ENDROOT
BRANCH   1   2
ATOM      2  C   UNL A   1      33.390  29.391  24.845  1.00  0.00     0.021 C 
BRANCH   2   3
ATOM      3  C   UNL A   1      33.676  28.370  23.747  1.00  0.00     0.116 C 
BRANCH   3   4
ATOM      4  N   UNL A   1      32.478  28.034  22.994  1.00  0.00    -0.352 N 
ATOM      5  C   UNL A   1      31.664  26.963  22.843  1.00  0.00     0.251 C 
ATOM      6  O   UNL A   1      30.702  27.139  22.086  1.00  0.00    -0.270 OA
ATOM      7  H   UNL A   1      32.176  28.794  22.446  1.00  0.00     0.163 HD
BRANCH   5   8
ATOM      8  C   UNL A   1      31.849  25.634  23.497  1.00  0.00     0.067 C 
ATOM      9  C   UNL A   1      32.539  20.712  24.451  1.00  0.00    -0.026 A 
ATOM     10  C   UNL A   1      32.676  21.899  25.186  1.00  0.00     0.052 A 
ATOM     11  C   UNL A   1      32.260  20.832  23.076  1.00  0.00     0.045 A 
ATOM     12  C   UNL A   1      32.447  23.140  24.597  1.00  0.00     0.128 A 
ATOM     13  C   UNL A   1      32.069  22.088  22.477  1.00  0.00     0.032 A 
ATOM     14  Cl  UNL A   1      32.161  19.445  22.045  1.00  0.00    -0.084 Cl
ATOM     15  C   UNL A   1      32.147  23.250  23.245  1.00  0.00     0.019 A 
ATOM     16  O   UNL A   1      32.566  24.223  25.417  1.00  0.00    -0.475 OA
ATOM     17  C   UNL A   1      31.973  24.579  22.668  1.00  0.00     0.025 C 
ATOM     18  C   UNL A   1      31.868  25.420  24.985  1.00  0.00     0.314 C 
BRANCH   9  19
ATOM     19  C   UNL A   1      32.732  19.363  25.115  1.00  0.00     0.037 C 
BRANCH  19  20
ATOM     20  C   UNL A   1      34.038  18.601  24.815  1.00  0.00     0.008 C 
BRANCH  20  21
ATOM     21  C   UNL A   1      33.903  17.064  24.736  1.00  0.00    -0.017 C 
ATOM     22  C   UNL A   1      32.572  16.570  25.301  1.00  0.00     0.007 C 
ATOM     23  C   UNL A   1      34.063  16.602  23.285  1.00  0.00     0.007 C 
ENDBRANCH  20  21
ENDBRANCH  19  20
ENDBRANCH   9  19
BRANCH  18  24
ATOM     24  C   UNL A   1      30.454  25.449  25.598  1.00  0.00     0.429 C 
ATOM     25  F   UNL A   1      30.302  26.527  26.403  1.00  0.00    -0.167 F 
ATOM     26  F   UNL A   1      29.487  25.537  24.653  1.00  0.00    -0.167 F 
ATOM     27  F   UNL A   1      30.182  24.348  26.334  1.00  0.00    -0.167 F 
ENDBRANCH  18  24
ENDBRANCH   5   8
ENDBRANCH   3   4
ENDBRANCH   2   3
ENDBRANCH   1   2
BRANCH   1  28
ATOM     28  C   UNL A   1      32.173  29.819  27.096  1.00  0.00     0.002 C 
BRANCH  28  29
ATOM     29  C   UNL A   1      32.022  31.323  26.858  1.00  0.00     0.021 C 
BRANCH  29  30
ATOM     30  C   UNL A   1      33.198  32.170  27.335  1.00  0.00     0.116 C 
BRANCH  30  31
ATOM     31  N   UNL A   1      32.818  33.548  27.598  1.00  0.00    -0.352 N 
ATOM     32  C   UNL A   1      33.302  34.415  28.549  1.00  0.00     0.251 C 
ATOM     33  H   UNL A   1      32.116  33.912  27.012  1.00  0.00     0.163 HD
ATOM     34  O   UNL A   1      32.751  35.497  28.732  1.00  0.00    -0.269 OA
BRANCH  32  35
ATOM     35  C   UNL A   1      34.464  34.017  29.370  1.00  0.00     0.039 A 
ATOM     36  C   UNL A   1      35.762  34.356  28.978  1.00  0.00     0.014 A 
ATOM     37  C   UNL A   1      34.251  33.259  30.524  1.00  0.00     0.014 A 
ATOM     38  C   UNL A   1      36.851  33.807  29.650  1.00  0.00     0.010 A 
ATOM     39  C   UNL A   1      35.347  32.766  31.238  1.00  0.00     0.010 A 
ATOM     40  C   UNL A   1      36.653  32.995  30.777  1.00  0.00    -0.014 A 
BRANCH  40  41
ATOM     41  C   UNL A   1      37.816  32.362  31.454  1.00  0.00     0.031 A 
ATOM     42  C   UNL A   1      38.544  31.221  30.797  1.00  0.00     0.074 A 
ATOM     43  C   UNL A   1      38.231  32.836  32.644  1.00  0.00     0.049 A 
ATOM     44  N   UNL A   1      39.543  30.510  31.252  1.00  0.00    -0.248 NA
ATOM     45  C   UNL A   1      38.092  30.824  29.453  1.00  0.00     0.031 C 
ATOM     46  C   UNL A   1      37.623  33.962  33.353  1.00  0.00     0.029 A 
ATOM     47  N   UNL A   1      39.263  32.445  33.462  1.00  0.00    -0.354 N 
ATOM     48  C   UNL A   1      39.829  29.575  30.264  1.00  0.00     0.074 A 
ATOM     49  C   UNL A   1      38.878  29.788  29.195  1.00  0.00     0.031 C 
ATOM     50  C   UNL A   1      38.313  34.195  34.479  1.00  0.00     0.029 A 
ATOM     51  C   UNL A   1      39.366  33.191  34.612  1.00  0.00     0.049 A 
ATOM     52  H   UNL A   1      39.871  31.703  33.245  1.00  0.00     0.167 HD
ATOM     53  C   UNL A   1      40.804  28.635  30.248  1.00  0.00     0.034 A 
ATOM     54  C   UNL A   1      40.198  33.070  35.668  1.00  0.00     0.034 A 
ATOM     55  C   UNL A   1      41.754  28.451  31.313  1.00  0.00     0.049 A 
ATOM     56  C   UNL A   1      41.235  31.977  35.652  1.00  0.00     0.074 A 
ATOM     57  C   UNL A   1      42.784  27.529  31.388  1.00  0.00     0.029 A 
ATOM     58  N   UNL A   1      41.804  29.202  32.479  1.00  0.00    -0.354 N 
ATOM     59  N   UNL A   1      41.499  31.108  34.706  1.00  0.00    -0.248 NA
ATOM     60  C   UNL A   1      42.084  31.838  36.843  1.00  0.00     0.031 C 
ATOM     61  C   UNL A   1      43.421  27.688  32.619  1.00  0.00     0.029 A 
ATOM     62  C   UNL A   1      42.834  28.752  33.286  1.00  0.00     0.049 A 
ATOM     63  H   UNL A   1      41.197  29.946  32.699  1.00  0.00     0.167 HD
ATOM     64  C   UNL A   1      42.559  30.337  35.175  1.00  0.00     0.074 A 
ATOM     65  C   UNL A   1      42.900  30.855  36.483  1.00  0.00     0.031 C 
ATOM     66  C   UNL A   1      43.186  29.294  34.576  1.00  0.00     0.034 A 
BRANCH  53  67
ATOM     67  C   UNL A   1      40.920  27.730  29.048  1.00  0.00     0.023 A 
ATOM     68  C   UNL A   1      41.904  27.975  28.071  1.00  0.00     0.031 A 
ATOM     69  C   UNL A   1      39.977  26.716  28.803  1.00  0.00     0.131 A 
ATOM     70  C   UNL A   1      41.901  27.240  26.879  1.00  0.00     0.055 A 
ATOM     71  C   UNL A   1      40.001  25.961  27.629  1.00  0.00     0.041 A 
ATOM     72  F   UNL A   1      39.021  26.442  29.705  1.00  0.00    -0.206 F 
ATOM     73  C   UNL A   1      40.958  26.231  26.655  1.00  0.00     0.022 A 
BRANCH  70  74
ATOM     74  S   UNL A   1      43.079  27.603  25.549  1.00  0.00     0.124 S 
ATOM     75  O   UNL A   1      42.215  28.220  24.544  1.00  0.00    -0.237 OA
ATOM     76  O   UNL A   1      44.015  28.509  26.208  1.00  0.00    -0.237 OA
ATOM     77  O   UNL A   1      43.614  26.295  25.187  1.00  0.00    -0.744 OA
ENDBRANCH  70  74
ENDBRANCH  53  67
BRANCH  54  78
ATOM     78  C   UNL A   1      40.089  34.039  36.798  1.00  0.00     0.023 A 
ATOM     79  C   UNL A   1      41.070  35.028  37.005  1.00  0.00     0.031 A 
ATOM     80  C   UNL A   1      39.063  33.920  37.750  1.00  0.00     0.131 A 
ATOM     81  C   UNL A   1      41.044  35.805  38.170  1.00  0.00     0.055 A 
ATOM     82  C   UNL A   1      39.001  34.747  38.874  1.00  0.00     0.041 A 
ATOM     83  F   UNL A   1      38.111  32.987  37.604  1.00  0.00    -0.206 F 
ATOM     84  C   UNL A   1      40.006  35.681  39.098  1.00  0.00     0.022 A 
BRANCH  81  85
ATOM     85  S   UNL A   1      42.433  36.896  38.590  1.00  0.00     0.124 S 
ATOM     86  O   UNL A   1      43.385  35.961  39.181  1.00  0.00    -0.237 OA
ATOM     87  O   UNL A   1      42.801  37.428  37.280  1.00  0.00    -0.237 OA
ATOM     88  O   UNL A   1      41.844  37.864  39.509  1.00  0.00    -0.744 OA
ENDBRANCH  81  85
ENDBRANCH  54  78
BRANCH  66  89
ATOM     89  C   UNL A   1      44.331  28.626  35.294  1.00  0.00     0.023 A 
ATOM     90  C   UNL A   1      44.070  27.587  36.210  1.00  0.00     0.031 A 
ATOM     91  C   UNL A   1      45.638  29.134  35.218  1.00  0.00     0.131 A 
ATOM     92  C   UNL A   1      45.089  27.128  37.051  1.00  0.00     0.055 A 
ATOM     93  C   UNL A   1      46.663  28.640  36.027  1.00  0.00     0.041 A 
ATOM     94  F   UNL A   1      45.932  30.131  34.368  1.00  0.00    -0.206 F 
ATOM     95  C   UNL A   1      46.386  27.644  36.961  1.00  0.00     0.022 A 
BRANCH  92  96
ATOM     96  S   UNL A   1      44.750  25.913  38.356  1.00  0.00     0.124 S 
ATOM     97  O   UNL A   1      46.079  25.700  38.923  1.00  0.00    -0.237 OA
ATOM     98  O   UNL A   1      43.814  26.636  39.212  1.00  0.00    -0.237 OA
ATOM     99  O   UNL A   1      44.191  24.772  37.637  1.00  0.00    -0.744 OA
ENDBRANCH  92  96
ENDBRANCH  66  89
ENDBRANCH  40  41
ENDBRANCH  32  35
ENDBRANCH  30  31
ENDBRANCH  29  30
ENDBRANCH  28  29
ENDBRANCH   1  28
TORSDOF 20
ENDMDL
