MODEL 1
REMARK VINA RESULT:     -12.5      0.000      0.000
REMARK SMILES C[C@@H]1C[C@H](C)C[C@H]([N@@H+]2[C@@H](C(=O)NCCCCCCNC(=O)c3ccc(-c4c5nc(c(-c6cc(S(=O)(=O)[O-])ccc6F)c6ccc([nH]6)c(-c6cc(S(=O)(=O)[O-])ccc6F)c6nc(c(-c7cc(S(=O)(=O)[O-])ccc7F)c7ccc4[nH]7)C=C6)C=C5)cc3)CC[C@@H]3CCCC[C@@H]32)C1
REMARK SMILES IDX 16 1 15 2 14 3 13 4 12 5 10 6 11 7 9 9 8 10 92 11 85 13
REMARK SMILES IDX 87 14 91 15 86 16 88 17 90 18 89 19 7 20 5 21 4 22 6 23 3 24
REMARK SMILES IDX 2 25 93 26 1 27 17 28 18 29 19 30 20 31 21 33 22 34 23 35
REMARK SMILES IDX 84 36 24 37 83 38 25 39 26 40 27 41 77 42 28 43 82 44 76 45
REMARK SMILES IDX 78 46 29 47 81 48 75 49 74 50 30 52 62 53 42 54 61 55 43 56
REMARK SMILES IDX 46 57 60 58 79 59 44 60 45 61 59 63 80 64 47 65 31 66 32 67
REMARK SMILES IDX 40 68 33 69 39 70 41 71 38 72 34 73 35 74 36 75 37 76 63 77
REMARK SMILES IDX 64 78 72 79 65 80 71 81 73 82 70 83 66 84 67 85 68 86 69 87
REMARK SMILES IDX 48 88 49 89 57 90 50 91 56 92 58 93 55 94 51 95 52 96 53 97
REMARK SMILES IDX 54 98
REMARK H PARENT 12 8 8 12 19 32 78 51 46 62
REMARK Flexibility Score: inf
ROOT
ATOM      1  C   UNL A   1      31.653  30.638  26.731  1.00  0.00     0.002 C 
ENDROOT
BRANCH   1   2
ATOM      2  C   UNL A   1      32.916  30.076  26.065  1.00  0.00     0.002 C 
BRANCH   2   3
ATOM      3  C   UNL A   1      32.649  29.198  24.842  1.00  0.00     0.021 C 
BRANCH   3   4
ATOM      4  C   UNL A   1      33.863  28.370  24.424  1.00  0.00     0.116 C 
BRANCH   4   5
ATOM      5  N   UNL A   1      33.638  27.797  23.110  1.00  0.00    -0.351 N 
ATOM      6  C   UNL A   1      33.544  26.501  22.697  1.00  0.00     0.278 C 
ATOM      7  O   UNL A   1      33.784  26.311  21.496  1.00  0.00    -0.268 OA
ATOM      8  H   UNL A   1      33.535  28.461  22.391  1.00  0.00     0.163 HD
BRANCH   6   9
ATOM      9  C   UNL A   1      32.952  25.356  23.562  1.00  0.00     0.274 C 
ATOM     10  N   UNL A   1      33.673  25.037  24.832  1.00  0.00    -0.320 N 
ATOM     11  C   UNL A   1      34.935  24.296  24.549  1.00  0.00     0.188 C 
ATOM     12  H   UNL A   1      34.262  25.620  25.427  1.00  0.00     0.349 HD
ATOM     13  C   UNL A   1      32.678  24.071  22.764  1.00  0.00     0.076 C 
ATOM     14  C   UNL A   1      34.865  23.073  23.607  1.00  0.00     0.048 C 
ATOM     15  C   UNL A   1      36.071  24.067  25.566  1.00  0.00     0.065 C 
ATOM     16  C   UNL A   1      33.939  23.300  22.415  1.00  0.00     0.016 C 
ATOM     17  C   UNL A   1      34.592  21.786  24.370  1.00  0.00     0.010 C 
ATOM     18  C   UNL A   1      36.514  22.633  25.901  1.00  0.00     0.006 C 
ATOM     19  C   UNL A   1      35.739  21.451  25.320  1.00  0.00     0.001 C 
BRANCH  10  20
ATOM     20  C   UNL A   1      32.755  25.094  26.008  1.00  0.00     0.185 C 
ATOM     21  C   UNL A   1      29.811  25.576  24.565  1.00  0.00     0.008 C 
ATOM     22  C   UNL A   1      30.216  25.670  26.012  1.00  0.00    -0.008 C 
ATOM     23  C   UNL A   1      31.656  26.150  26.158  1.00  0.00     0.068 C 
ATOM     24  C   UNL A   1      29.917  24.365  26.756  1.00  0.00     0.007 C 
ATOM     25  C   UNL A   1      30.971  23.252  26.657  1.00  0.00    -0.008 C 
ATOM     26  C   UNL A   1      32.404  23.775  26.755  1.00  0.00     0.068 C 
ATOM     27  C   UNL A   1      30.804  22.285  25.489  1.00  0.00     0.008 C 
ENDBRANCH  10  20
ENDBRANCH   6   9
ENDBRANCH   4   5
ENDBRANCH   3   4
ENDBRANCH   2   3
ENDBRANCH   1   2
BRANCH   1  28
ATOM     28  C   UNL A   1      31.591  32.166  26.817  1.00  0.00     0.021 C 
BRANCH  28  29
ATOM     29  C   UNL A   1      32.905  32.827  27.222  1.00  0.00     0.116 C 
BRANCH  29  30
ATOM     30  N   UNL A   1      32.694  34.184  27.695  1.00  0.00    -0.352 N 
ATOM     31  C   UNL A   1      33.198  34.803  28.811  1.00  0.00     0.251 C 
ATOM     32  H   UNL A   1      32.104  34.739  27.135  1.00  0.00     0.163 HD
ATOM     33  O   UNL A   1      32.701  35.854  29.197  1.00  0.00    -0.269 OA
BRANCH  31  34
ATOM     34  C   UNL A   1      34.332  34.198  29.541  1.00  0.00     0.039 A 
ATOM     35  C   UNL A   1      35.634  34.456  29.107  1.00  0.00     0.014 A 
ATOM     36  C   UNL A   1      34.111  33.341  30.626  1.00  0.00     0.014 A 
ATOM     37  C   UNL A   1      36.714  33.878  29.777  1.00  0.00     0.010 A 
ATOM     38  C   UNL A   1      35.191  32.828  31.339  1.00  0.00     0.010 A 
ATOM     39  C   UNL A   1      36.504  33.072  30.908  1.00  0.00    -0.014 A 
BRANCH  39  40
ATOM     40  C   UNL A   1      37.641  32.424  31.613  1.00  0.00     0.031 A 
ATOM     41  C   UNL A   1      38.361  31.274  30.959  1.00  0.00     0.074 A 
ATOM     42  C   UNL A   1      38.000  32.845  32.841  1.00  0.00     0.049 A 
ATOM     43  N   UNL A   1      39.323  30.521  31.433  1.00  0.00    -0.248 NA
ATOM     44  C   UNL A   1      37.922  30.902  29.605  1.00  0.00     0.031 C 
ATOM     45  C   UNL A   1      37.354  33.929  33.586  1.00  0.00     0.029 A 
ATOM     46  N   UNL A   1      38.989  32.407  33.686  1.00  0.00    -0.354 N 
ATOM     47  C   UNL A   1      39.599  29.590  30.437  1.00  0.00     0.074 A 
ATOM     48  C   UNL A   1      38.651  29.823  29.369  1.00  0.00     0.031 C 
ATOM     49  C   UNL A   1      37.977  34.082  34.766  1.00  0.00     0.029 A 
ATOM     50  C   UNL A   1      39.035  33.083  34.884  1.00  0.00     0.049 A 
ATOM     51  H   UNL A   1      39.609  31.678  33.455  1.00  0.00     0.167 HD
ATOM     52  C   UNL A   1      40.574  28.648  30.401  1.00  0.00     0.034 A 
ATOM     53  C   UNL A   1      39.829  32.907  35.958  1.00  0.00     0.034 A 
ATOM     54  C   UNL A   1      41.517  28.433  31.472  1.00  0.00     0.049 A 
ATOM     55  C   UNL A   1      40.894  31.837  35.903  1.00  0.00     0.074 A 
ATOM     56  C   UNL A   1      42.547  27.513  31.544  1.00  0.00     0.029 A 
ATOM     57  N   UNL A   1      41.548  29.155  32.658  1.00  0.00    -0.354 N 
ATOM     58  N   UNL A   1      41.154  30.978  34.944  1.00  0.00    -0.248 NA
ATOM     59  C   UNL A   1      41.786  31.729  37.064  1.00  0.00     0.031 C 
ATOM     60  C   UNL A   1      43.165  27.640  32.792  1.00  0.00     0.029 A 
ATOM     61  C   UNL A   1      42.573  28.695  33.469  1.00  0.00     0.049 A 
ATOM     62  H   UNL A   1      40.931  29.887  32.890  1.00  0.00     0.167 HD
ATOM     63  C   UNL A   1      42.270  30.261  35.371  1.00  0.00     0.074 A 
ATOM     64  C   UNL A   1      42.639  30.799  36.663  1.00  0.00     0.031 C 
ATOM     65  C   UNL A   1      42.934  29.251  34.751  1.00  0.00     0.034 A 
BRANCH  52  66
ATOM     66  C   UNL A   1      40.657  27.779  29.169  1.00  0.00     0.023 A 
ATOM     67  C   UNL A   1      41.590  28.041  28.149  1.00  0.00     0.031 A 
ATOM     68  C   UNL A   1      39.787  26.689  28.997  1.00  0.00     0.131 A 
ATOM     69  C   UNL A   1      41.585  27.269  26.978  1.00  0.00     0.055 A 
ATOM     70  C   UNL A   1      39.843  25.872  27.865  1.00  0.00     0.041 A 
ATOM     71  F   UNL A   1      38.859  26.402  29.924  1.00  0.00    -0.206 F 
ATOM     72  C   UNL A   1      40.738  26.168  26.841  1.00  0.00     0.022 A 
BRANCH  69  73
ATOM     73  S   UNL A   1      42.611  27.806  25.583  1.00  0.00     0.124 S 
ATOM     74  O   UNL A   1      43.877  28.106  26.248  1.00  0.00    -0.237 OA
ATOM     75  O   UNL A   1      42.607  26.634  24.716  1.00  0.00    -0.237 OA
ATOM     76  O   UNL A   1      41.899  28.970  25.061  1.00  0.00    -0.744 OA
ENDBRANCH  69  73
ENDBRANCH  52  66
BRANCH  53  77
ATOM     77  C   UNL A   1      39.654  33.744  37.183  1.00  0.00     0.023 A 
ATOM     78  C   UNL A   1      39.015  33.235  38.325  1.00  0.00     0.031 A 
ATOM     79  C   UNL A   1      40.059  35.090  37.202  1.00  0.00     0.131 A 
ATOM     80  C   UNL A   1      38.734  34.083  39.407  1.00  0.00     0.055 A 
ATOM     81  C   UNL A   1      39.837  35.913  38.308  1.00  0.00     0.041 A 
ATOM     82  F   UNL A   1      40.679  35.630  36.140  1.00  0.00    -0.206 F 
ATOM     83  C   UNL A   1      39.152  35.415  39.413  1.00  0.00     0.022 A 
BRANCH  80  84
ATOM     84  S   UNL A   1      37.697  33.453  40.756  1.00  0.00     0.124 S 
ATOM     85  O   UNL A   1      37.634  34.607  41.645  1.00  0.00    -0.237 OA
ATOM     86  O   UNL A   1      36.463  33.115  40.054  1.00  0.00    -0.237 OA
ATOM     87  O   UNL A   1      38.457  32.313  41.264  1.00  0.00    -0.744 OA
ENDBRANCH  80  84
ENDBRANCH  53  77
BRANCH  65  88
ATOM     88  C   UNL A   1      44.172  28.722  35.433  1.00  0.00     0.023 A 
ATOM     89  C   UNL A   1      44.117  27.689  36.385  1.00  0.00     0.031 A 
ATOM     90  C   UNL A   1      45.430  29.280  35.136  1.00  0.00     0.131 A 
ATOM     91  C   UNL A   1      45.285  27.296  37.056  1.00  0.00     0.055 A 
ATOM     92  C   UNL A   1      46.598  28.836  35.756  1.00  0.00     0.041 A 
ATOM     93  F   UNL A   1      45.542  30.269  34.234  1.00  0.00    -0.206 F 
ATOM     94  C   UNL A   1      46.526  27.850  36.736  1.00  0.00     0.022 A 
BRANCH  91  95
ATOM     95  S   UNL A   1      45.142  26.129  38.438  1.00  0.00     0.124 S 
ATOM     96  O   UNL A   1      44.320  25.071  37.860  1.00  0.00    -0.237 OA
ATOM     97  O   UNL A   1      46.535  25.784  38.699  1.00  0.00    -0.237 OA
ATOM     98  O   UNL A   1      44.492  26.916  39.485  1.00  0.00    -0.744 OA
ENDBRANCH  91  95
ENDBRANCH  65  88
ENDBRANCH  39  40
ENDBRANCH  31  34
ENDBRANCH  29  30
ENDBRANCH  28  29
ENDBRANCH   1  28
TORSDOF 17
ENDMDL
MODEL 2
REMARK VINA RESULT:     -12.1      3.359      8.111
REMARK SMILES C[C@@H]1C[C@H](C)C[C@H]([N@@H+]2[C@@H](C(=O)NCCCCCCNC(=O)c3ccc(-c4c5nc(c(-c6cc(S(=O)(=O)[O-])ccc6F)c6ccc([nH]6)c(-c6cc(S(=O)(=O)[O-])ccc6F)c6nc(c(-c7cc(S(=O)(=O)[O-])ccc7F)c7ccc4[nH]7)C=C6)C=C5)cc3)CC[C@@H]3CCCC[C@@H]32)C1
REMARK SMILES IDX 16 1 15 2 14 3 13 4 12 5 10 6 11 7 9 9 8 10 92 11 85 13
REMARK SMILES IDX 87 14 91 15 86 16 88 17 90 18 89 19 7 20 5 21 4 22 6 23 3 24
REMARK SMILES IDX 2 25 93 26 1 27 17 28 18 29 19 30 20 31 21 33 22 34 23 35
REMARK SMILES IDX 84 36 24 37 83 38 25 39 26 40 27 41 77 42 28 43 82 44 76 45
REMARK SMILES IDX 78 46 29 47 81 48 75 49 74 50 30 52 62 53 42 54 61 55 43 56
REMARK SMILES IDX 46 57 60 58 79 59 44 60 45 61 59 63 80 64 47 65 31 66 32 67
REMARK SMILES IDX 40 68 33 69 39 70 41 71 38 72 34 73 35 74 36 75 37 76 63 77
REMARK SMILES IDX 64 78 72 79 65 80 71 81 73 82 70 83 66 84 67 85 68 86 69 87
REMARK SMILES IDX 48 88 49 89 57 90 50 91 56 92 58 93 55 94 51 95 52 96 53 97
REMARK SMILES IDX 54 98
REMARK H PARENT 12 8 8 12 19 32 78 51 46 62
REMARK Flexibility Score: inf
ROOT
ATOM      1  C   UNL A   1      31.708  30.449  25.909  1.00  0.00     0.002 C 
ENDROOT
BRANCH   1   2
ATOM      2  C   UNL A   1      31.057  29.759  24.703  1.00  0.00     0.002 C 
BRANCH   2   3
ATOM      3  C   UNL A   1      32.028  28.963  23.830  1.00  0.00     0.021 C 
BRANCH   3   4
ATOM      4  C   UNL A   1      31.326  28.158  22.737  1.00  0.00     0.116 C 
BRANCH   4   5
ATOM      5  N   UNL A   1      32.300  27.367  22.008  1.00  0.00    -0.351 N 
ATOM      6  C   UNL A   1      33.050  26.292  22.384  1.00  0.00     0.278 C 
ATOM      7  O   UNL A   1      34.080  26.108  21.720  1.00  0.00    -0.268 OA
ATOM      8  H   UNL A   1      32.445  27.657  21.079  1.00  0.00     0.163 HD
BRANCH   6   9
ATOM      9  C   UNL A   1      32.574  25.214  23.395  1.00  0.00     0.274 C 
ATOM     10  N   UNL A   1      33.388  25.058  24.639  1.00  0.00    -0.320 N 
ATOM     11  C   UNL A   1      34.668  24.351  24.345  1.00  0.00     0.188 C 
ATOM     12  H   UNL A   1      33.982  25.725  25.133  1.00  0.00     0.349 HD
ATOM     13  C   UNL A   1      32.318  23.844  22.747  1.00  0.00     0.076 C 
ATOM     14  C   UNL A   1      34.603  23.038  23.534  1.00  0.00     0.048 C 
ATOM     15  C   UNL A   1      35.875  24.279  25.300  1.00  0.00     0.065 C 
ATOM     16  C   UNL A   1      33.593  23.100  22.391  1.00  0.00     0.016 C 
ATOM     17  C   UNL A   1      34.446  21.823  24.435  1.00  0.00     0.010 C 
ATOM     18  C   UNL A   1      36.413  22.908  25.743  1.00  0.00     0.006 C 
ATOM     19  C   UNL A   1      35.666  21.639  25.335  1.00  0.00     0.001 C 
BRANCH  10  20
ATOM     20  C   UNL A   1      32.544  25.191  25.863  1.00  0.00     0.185 C 
ATOM     21  C   UNL A   1      29.508  25.519  24.577  1.00  0.00     0.008 C 
ATOM     22  C   UNL A   1      29.999  25.729  25.985  1.00  0.00    -0.008 C 
ATOM     23  C   UNL A   1      31.437  26.240  26.003  1.00  0.00     0.068 C 
ATOM     24  C   UNL A   1      29.773  24.481  26.842  1.00  0.00     0.007 C 
ATOM     25  C   UNL A   1      30.839  23.379  26.760  1.00  0.00    -0.008 C 
ATOM     26  C   UNL A   1      32.266  23.928  26.728  1.00  0.00     0.068 C 
ATOM     27  C   UNL A   1      30.619  22.323  25.681  1.00  0.00     0.008 C 
ENDBRANCH  10  20
ENDBRANCH   6   9
ENDBRANCH   4   5
ENDBRANCH   3   4
ENDBRANCH   2   3
ENDBRANCH   1   2
BRANCH   1  28
ATOM     28  C   UNL A   1      32.618  29.553  26.756  1.00  0.00     0.021 C 
BRANCH  28  29
ATOM     29  C   UNL A   1      33.997  30.142  27.034  1.00  0.00     0.116 C 
BRANCH  29  30
ATOM     30  N   UNL A   1      33.902  31.414  27.729  1.00  0.00    -0.352 N 
ATOM     31  C   UNL A   1      34.641  31.884  28.785  1.00  0.00     0.251 C 
ATOM     32  H   UNL A   1      33.208  32.026  27.394  1.00  0.00     0.163 HD
ATOM     33  O   UNL A   1      34.246  32.858  29.414  1.00  0.00    -0.269 OA
BRANCH  31  34
ATOM     34  C   UNL A   1      35.904  31.211  29.160  1.00  0.00     0.039 A 
ATOM     35  C   UNL A   1      35.857  30.116  30.025  1.00  0.00     0.014 A 
ATOM     36  C   UNL A   1      37.134  31.686  28.693  1.00  0.00     0.014 A 
ATOM     37  C   UNL A   1      37.043  29.481  30.401  1.00  0.00     0.010 A 
ATOM     38  C   UNL A   1      38.307  31.005  29.008  1.00  0.00     0.010 A 
ATOM     39  C   UNL A   1      38.277  29.909  29.884  1.00  0.00    -0.014 A 
BRANCH  39  40
ATOM     40  C   UNL A   1      39.550  29.264  30.299  1.00  0.00     0.031 A 
ATOM     41  C   UNL A   1      40.297  29.796  31.493  1.00  0.00     0.074 A 
ATOM     42  C   UNL A   1      40.044  28.231  29.589  1.00  0.00     0.049 A 
ATOM     43  N   UNL A   1      41.459  29.431  31.974  1.00  0.00    -0.248 NA
ATOM     44  C   UNL A   1      39.667  30.906  32.226  1.00  0.00     0.031 C 
ATOM     45  C   UNL A   1      39.423  27.651  28.395  1.00  0.00     0.029 A 
ATOM     46  N   UNL A   1      41.186  27.490  29.760  1.00  0.00    -0.354 N 
ATOM     47  C   UNL A   1      41.698  30.266  33.061  1.00  0.00     0.074 A 
ATOM     48  C   UNL A   1      40.599  31.206  33.119  1.00  0.00     0.031 C 
ATOM     49  C   UNL A   1      40.182  26.635  27.955  1.00  0.00     0.029 A 
ATOM     50  C   UNL A   1      41.364  26.516  28.804  1.00  0.00     0.049 A 
ATOM     51  H   UNL A   1      41.820  27.641  30.499  1.00  0.00     0.167 HD
ATOM     52  C   UNL A   1      42.722  30.233  33.949  1.00  0.00     0.034 A 
ATOM     53  C   UNL A   1      42.371  25.638  28.626  1.00  0.00     0.034 A 
ATOM     54  C   UNL A   1      43.808  29.285  33.882  1.00  0.00     0.049 A 
ATOM     55  C   UNL A   1      43.512  25.635  29.615  1.00  0.00     0.074 A 
ATOM     56  C   UNL A   1      44.895  29.156  34.728  1.00  0.00     0.029 A 
ATOM     57  N   UNL A   1      43.939  28.297  32.915  1.00  0.00    -0.354 N 
ATOM     58  N   UNL A   1      43.711  26.419  30.651  1.00  0.00    -0.248 NA
ATOM     59  C   UNL A   1      44.550  24.614  29.428  1.00  0.00     0.031 C 
ATOM     60  C   UNL A   1      45.710  28.128  34.242  1.00  0.00     0.029 A 
ATOM     61  C   UNL A   1      45.092  27.562  33.139  1.00  0.00     0.049 A 
ATOM     62  H   UNL A   1      43.306  28.142  32.176  1.00  0.00     0.167 HD
ATOM     63  C   UNL A   1      44.873  25.953  31.261  1.00  0.00     0.074 A 
ATOM     64  C   UNL A   1      45.318  24.813  30.488  1.00  0.00     0.031 C 
ATOM     65  C   UNL A   1      45.515  26.420  32.363  1.00  0.00     0.034 A 
BRANCH  52  66
ATOM     66  C   UNL A   1      42.714  31.259  35.058  1.00  0.00     0.023 A 
ATOM     67  C   UNL A   1      43.215  32.558  34.857  1.00  0.00     0.031 A 
ATOM     68  C   UNL A   1      42.220  30.936  36.333  1.00  0.00     0.131 A 
ATOM     69  C   UNL A   1      43.274  33.461  35.930  1.00  0.00     0.055 A 
ATOM     70  C   UNL A   1      42.204  31.867  37.374  1.00  0.00     0.041 A 
ATOM     71  F   UNL A   1      41.750  29.706  36.593  1.00  0.00    -0.206 F 
ATOM     72  C   UNL A   1      42.745  33.134  37.180  1.00  0.00     0.022 A 
BRANCH  69  73
ATOM     73  S   UNL A   1      44.171  35.020  35.701  1.00  0.00     0.124 S 
ATOM     74  O   UNL A   1      43.207  35.802  34.931  1.00  0.00    -0.237 OA
ATOM     75  O   UNL A   1      44.401  35.459  37.072  1.00  0.00    -0.237 OA
ATOM     76  O   UNL A   1      45.368  34.621  34.964  1.00  0.00    -0.744 OA
ENDBRANCH  69  73
ENDBRANCH  52  66
BRANCH  53  77
ATOM     77  C   UNL A   1      42.367  24.697  27.467  1.00  0.00     0.023 A 
ATOM     78  C   UNL A   1      41.592  23.526  27.484  1.00  0.00     0.031 A 
ATOM     79  C   UNL A   1      43.197  24.918  26.354  1.00  0.00     0.131 A 
ATOM     80  C   UNL A   1      41.716  22.588  26.448  1.00  0.00     0.055 A 
ATOM     81  C   UNL A   1      43.266  24.014  25.292  1.00  0.00     0.041 A 
ATOM     82  F   UNL A   1      43.957  26.023  26.280  1.00  0.00    -0.206 F 
ATOM     83  C   UNL A   1      42.538  22.829  25.345  1.00  0.00     0.022 A 
BRANCH  80  84
ATOM     84  S   UNL A   1      40.885  20.985  26.625  1.00  0.00     0.124 S 
ATOM     85  O   UNL A   1      39.605  21.240  25.976  1.00  0.00    -0.237 OA
ATOM     86  O   UNL A   1      41.798  20.093  25.917  1.00  0.00    -0.237 OA
ATOM     87  O   UNL A   1      40.825  20.792  28.072  1.00  0.00    -0.744 OA
ENDBRANCH  80  84
ENDBRANCH  53  77
BRANCH  65  88
ATOM     88  C   UNL A   1      46.720  25.645  32.838  1.00  0.00     0.023 A 
ATOM     89  C   UNL A   1      46.624  24.637  33.813  1.00  0.00     0.031 A 
ATOM     90  C   UNL A   1      47.993  25.939  32.315  1.00  0.00     0.131 A 
ATOM     91  C   UNL A   1      47.786  24.009  34.285  1.00  0.00     0.055 A 
ATOM     92  C   UNL A   1      49.137  25.262  32.739  1.00  0.00     0.041 A 
ATOM     93  F   UNL A   1      48.146  26.892  31.381  1.00  0.00    -0.206 F 
ATOM     94  C   UNL A   1      49.039  24.302  33.743  1.00  0.00     0.022 A 
BRANCH  91  95
ATOM     95  S   UNL A   1      47.652  22.884  35.702  1.00  0.00     0.124 S 
ATOM     96  O   UNL A   1      48.469  21.754  35.273  1.00  0.00    -0.237 OA
ATOM     97  O   UNL A   1      48.197  23.688  36.791  1.00  0.00    -0.237 OA
ATOM     98  O   UNL A   1      46.217  22.614  35.790  1.00  0.00    -0.744 OA
ENDBRANCH  91  95
ENDBRANCH  65  88
ENDBRANCH  39  40
ENDBRANCH  31  34
ENDBRANCH  29  30
ENDBRANCH  28  29
ENDBRANCH   1  28
TORSDOF 17
ENDMDL
MODEL 3
REMARK VINA RESULT:     -12.1      5.950      9.576
REMARK SMILES C[C@@H]1C[C@H](C)C[C@H]([N@@H+]2[C@@H](C(=O)NCCCCCCNC(=O)c3ccc(-c4c5nc(c(-c6cc(S(=O)(=O)[O-])ccc6F)c6ccc([nH]6)c(-c6cc(S(=O)(=O)[O-])ccc6F)c6nc(c(-c7cc(S(=O)(=O)[O-])ccc7F)c7ccc4[nH]7)C=C6)C=C5)cc3)CC[C@@H]3CCCC[C@@H]32)C1
REMARK SMILES IDX 16 1 15 2 14 3 13 4 12 5 10 6 11 7 9 9 8 10 92 11 85 13
REMARK SMILES IDX 87 14 91 15 86 16 88 17 90 18 89 19 7 20 5 21 4 22 6 23 3 24
REMARK SMILES IDX 2 25 93 26 1 27 17 28 18 29 19 30 20 31 21 33 22 34 23 35
REMARK SMILES IDX 84 36 24 37 83 38 25 39 26 40 27 41 77 42 28 43 82 44 76 45
REMARK SMILES IDX 78 46 29 47 81 48 75 49 74 50 30 52 62 53 42 54 61 55 43 56
REMARK SMILES IDX 46 57 60 58 79 59 44 60 45 61 59 63 80 64 47 65 31 66 32 67
REMARK SMILES IDX 40 68 33 69 39 70 41 71 38 72 34 73 35 74 36 75 37 76 63 77
REMARK SMILES IDX 64 78 72 79 65 80 71 81 73 82 70 83 66 84 67 85 68 86 69 87
REMARK SMILES IDX 48 88 49 89 57 90 50 91 56 92 58 93 55 94 51 95 52 96 53 97
REMARK SMILES IDX 54 98
REMARK H PARENT 12 8 8 12 19 32 78 51 46 62
REMARK Flexibility Score: inf
ROOT
ATOM      1  C   UNL A   1      37.073  20.621  24.618  1.00  0.00     0.002 C 
ENDROOT
BRANCH   1   2
ATOM      2  C   UNL A   1      36.683  21.606  25.727  1.00  0.00     0.002 C 
BRANCH   2   3
ATOM      3  C   UNL A   1      35.207  21.563  26.122  1.00  0.00     0.021 C 
BRANCH   3   4
ATOM      4  C   UNL A   1      34.748  22.819  26.862  1.00  0.00     0.116 C 
BRANCH   4   5
ATOM      5  N   UNL A   1      33.341  22.706  27.195  1.00  0.00    -0.351 N 
ATOM      6  C   UNL A   1      32.272  23.484  26.863  1.00  0.00     0.278 C 
ATOM      7  O   UNL A   1      31.299  23.399  27.626  1.00  0.00    -0.268 OA
ATOM      8  H   UNL A   1      33.119  21.931  27.760  1.00  0.00     0.163 HD
BRANCH   6   9
ATOM      9  C   UNL A   1      32.138  24.245  25.516  1.00  0.00     0.274 C 
ATOM     10  N   UNL A   1      33.128  25.336  25.264  1.00  0.00    -0.320 N 
ATOM     11  C   UNL A   1      32.802  26.539  26.083  1.00  0.00     0.188 C 
ATOM     12  H   UNL A   1      34.075  25.470  25.619  1.00  0.00     0.349 HD
ATOM     13  C   UNL A   1      30.710  24.740  25.237  1.00  0.00     0.076 C 
ATOM     14  C   UNL A   1      31.350  27.065  26.059  1.00  0.00     0.048 C 
ATOM     15  C   UNL A   1      33.752  27.732  26.314  1.00  0.00     0.065 C 
ATOM     16  C   UNL A   1      30.316  25.942  26.077  1.00  0.00     0.016 C 
ATOM     17  C   UNL A   1      31.136  28.087  24.953  1.00  0.00     0.010 C 
ATOM     18  C   UNL A   1      33.303  29.149  25.920  1.00  0.00     0.006 C 
ATOM     19  C   UNL A   1      31.976  29.340  25.186  1.00  0.00     0.001 C 
BRANCH  10  20
ATOM     20  C   UNL A   1      33.843  25.136  23.970  1.00  0.00     0.185 C 
ATOM     21  C   UNL A   1      32.122  22.655  22.606  1.00  0.00     0.008 C 
ATOM     22  C   UNL A   1      33.444  23.258  22.211  1.00  0.00    -0.008 C 
ATOM     23  C   UNL A   1      34.217  23.753  23.429  1.00  0.00     0.068 C 
ATOM     24  C   UNL A   1      33.264  24.315  21.118  1.00  0.00     0.007 C 
ATOM     25  C   UNL A   1      32.888  25.732  21.576  1.00  0.00    -0.008 C 
ATOM     26  C   UNL A   1      33.644  26.175  22.829  1.00  0.00     0.068 C 
ATOM     27  C   UNL A   1      31.394  26.016  21.691  1.00  0.00     0.008 C 
ENDBRANCH  10  20
ENDBRANCH   6   9
ENDBRANCH   4   5
ENDBRANCH   3   4
ENDBRANCH   2   3
ENDBRANCH   1   2
BRANCH   1  28
ATOM     28  C   UNL A   1      38.176  19.626  24.994  1.00  0.00     0.021 C 
BRANCH  28  29
ATOM     29  C   UNL A   1      39.124  20.118  26.084  1.00  0.00     0.116 C 
BRANCH  29  30
ATOM     30  N   UNL A   1      40.346  19.334  26.121  1.00  0.00    -0.352 N 
ATOM     31  C   UNL A   1      41.648  19.759  26.198  1.00  0.00     0.251 C 
ATOM     32  H   UNL A   1      40.221  18.358  26.085  1.00  0.00     0.163 HD
ATOM     33  O   UNL A   1      42.556  18.976  25.944  1.00  0.00    -0.269 OA
BRANCH  31  34
ATOM     34  C   UNL A   1      41.947  21.155  26.580  1.00  0.00     0.039 A 
ATOM     35  C   UNL A   1      42.001  22.134  25.586  1.00  0.00     0.014 A 
ATOM     36  C   UNL A   1      42.217  21.491  27.911  1.00  0.00     0.014 A 
ATOM     37  C   UNL A   1      42.298  23.454  25.930  1.00  0.00     0.010 A 
ATOM     38  C   UNL A   1      42.438  22.821  28.262  1.00  0.00     0.010 A 
ATOM     39  C   UNL A   1      42.504  23.813  27.272  1.00  0.00    -0.014 A 
BRANCH  39  40
ATOM     40  C   UNL A   1      42.853  25.207  27.651  1.00  0.00     0.031 A 
ATOM     41  C   UNL A   1      44.280  25.674  27.531  1.00  0.00     0.074 A 
ATOM     42  C   UNL A   1      41.902  26.033  28.129  1.00  0.00     0.049 A 
ATOM     43  N   UNL A   1      44.809  26.820  27.880  1.00  0.00    -0.248 NA
ATOM     44  C   UNL A   1      45.245  24.715  26.971  1.00  0.00     0.031 C 
ATOM     45  C   UNL A   1      40.493  25.680  28.318  1.00  0.00     0.029 A 
ATOM     46  N   UNL A   1      41.976  27.337  28.550  1.00  0.00    -0.354 N 
ATOM     47  C   UNL A   1      46.165  26.716  27.585  1.00  0.00     0.074 A 
ATOM     48  C   UNL A   1      46.388  25.370  27.103  1.00  0.00     0.031 C 
ATOM     49  C   UNL A   1      39.834  26.747  28.800  1.00  0.00     0.029 A 
ATOM     50  C   UNL A   1      40.777  27.845  28.996  1.00  0.00     0.049 A 
ATOM     51  H   UNL A   1      42.810  27.861  28.535  1.00  0.00     0.167 HD
ATOM     52  C   UNL A   1      47.129  27.664  27.675  1.00  0.00     0.034 A 
ATOM     53  C   UNL A   1      40.476  29.052  29.516  1.00  0.00     0.034 A 
ATOM     54  C   UNL A   1      46.890  29.005  28.151  1.00  0.00     0.049 A 
ATOM     55  C   UNL A   1      41.572  30.084  29.627  1.00  0.00     0.074 A 
ATOM     56  C   UNL A   1      47.788  30.049  28.282  1.00  0.00     0.029 A 
ATOM     57  N   UNL A   1      45.656  29.490  28.569  1.00  0.00    -0.354 N 
ATOM     58  N   UNL A   1      42.845  29.976  29.323  1.00  0.00    -0.248 NA
ATOM     59  C   UNL A   1      41.187  31.409  30.128  1.00  0.00     0.031 C 
ATOM     60  C   UNL A   1      47.112  31.145  28.829  1.00  0.00     0.029 A 
ATOM     61  C   UNL A   1      45.774  30.813  28.964  1.00  0.00     0.049 A 
ATOM     62  H   UNL A   1      44.820  28.969  28.583  1.00  0.00     0.167 HD
ATOM     63  C   UNL A   1      43.399  31.233  29.553  1.00  0.00     0.074 A 
ATOM     64  C   UNL A   1      42.319  32.084  30.005  1.00  0.00     0.031 C 
ATOM     65  C   UNL A   1      44.683  31.650  29.403  1.00  0.00     0.034 A 
BRANCH  52  66
ATOM     66  C   UNL A   1      48.528  27.276  27.259  1.00  0.00     0.023 A 
ATOM     67  C   UNL A   1      49.043  27.630  25.999  1.00  0.00     0.031 A 
ATOM     68  C   UNL A   1      49.353  26.530  28.119  1.00  0.00     0.131 A 
ATOM     69  C   UNL A   1      50.313  27.181  25.608  1.00  0.00     0.055 A 
ATOM     70  C   UNL A   1      50.650  26.158  27.756  1.00  0.00     0.041 A 
ATOM     71  F   UNL A   1      48.911  26.143  29.325  1.00  0.00    -0.206 F 
ATOM     72  C   UNL A   1      51.132  26.472  26.488  1.00  0.00     0.022 A 
BRANCH  69  73
ATOM     73  S   UNL A   1      50.825  27.425  23.886  1.00  0.00     0.124 S 
ATOM     74  O   UNL A   1      49.675  26.889  23.160  1.00  0.00    -0.237 OA
ATOM     75  O   UNL A   1      51.012  28.869  23.811  1.00  0.00    -0.237 OA
ATOM     76  O   UNL A   1      52.047  26.631  23.776  1.00  0.00    -0.744 OA
ENDBRANCH  69  73
ENDBRANCH  52  66
BRANCH  53  77
ATOM     77  C   UNL A   1      39.092  29.358  29.984  1.00  0.00     0.023 A 
ATOM     78  C   UNL A   1      38.226  30.155  29.219  1.00  0.00     0.031 A 
ATOM     79  C   UNL A   1      38.640  28.916  31.240  1.00  0.00     0.131 A 
ATOM     80  C   UNL A   1      36.985  30.547  29.746  1.00  0.00     0.055 A 
ATOM     81  C   UNL A   1      37.377  29.253  31.731  1.00  0.00     0.041 A 
ATOM     82  F   UNL A   1      39.423  28.146  32.013  1.00  0.00    -0.206 F 
ATOM     83  C   UNL A   1      36.549  30.091  30.991  1.00  0.00     0.022 A 
BRANCH  80  84
ATOM     84  S   UNL A   1      36.003  31.770  28.834  1.00  0.00     0.124 S 
ATOM     85  O   UNL A   1      36.938  32.885  28.733  1.00  0.00    -0.237 OA
ATOM     86  O   UNL A   1      35.714  31.060  27.592  1.00  0.00    -0.237 OA
ATOM     87  O   UNL A   1      34.851  31.997  29.704  1.00  0.00    -0.744 OA
ENDBRANCH  80  84
ENDBRANCH  53  77
BRANCH  65  88
ATOM     88  C   UNL A   1      44.965  33.112  29.655  1.00  0.00     0.023 A 
ATOM     89  C   UNL A   1      44.883  34.075  28.634  1.00  0.00     0.031 A 
ATOM     90  C   UNL A   1      45.344  33.542  30.940  1.00  0.00     0.131 A 
ATOM     91  C   UNL A   1      45.243  35.405  28.900  1.00  0.00     0.055 A 
ATOM     92  C   UNL A   1      45.634  34.879  31.214  1.00  0.00     0.041 A 
ATOM     93  F   UNL A   1      45.438  32.665  31.954  1.00  0.00    -0.206 F 
ATOM     94  C   UNL A   1      45.601  35.816  30.185  1.00  0.00     0.022 A 
BRANCH  91  95
ATOM     95  S   UNL A   1      45.349  36.570  27.513  1.00  0.00     0.124 S 
ATOM     96  O   UNL A   1      45.757  35.699  26.414  1.00  0.00    -0.237 OA
ATOM     97  O   UNL A   1      43.989  37.092  27.440  1.00  0.00    -0.237 OA
ATOM     98  O   UNL A   1      46.360  37.531  27.949  1.00  0.00    -0.744 OA
ENDBRANCH  91  95
ENDBRANCH  65  88
ENDBRANCH  39  40
ENDBRANCH  31  34
ENDBRANCH  29  30
ENDBRANCH  28  29
ENDBRANCH   1  28
TORSDOF 17
ENDMDL
