MODEL 1
REMARK VINA RESULT:     -13.2      0.000      0.000
REMARK SMILES Cc1nc2sc3c(c2c2nc(CCC(=O)NCCCCCCNC(=O)c4ccc(-c5c6nc(c(-c7cc(S(=O)(=O)[O-])ccc7F)c7ccc([nH]7)c(-c7cc(S(=O)(=O)[O-])ccc7F)c7nc(c(-c8cc(S(=O)(=O)[O-])ccc8F)c8ccc5[nH]8)C=C7)C=C6)cc4)nn12)[C@@H](C)CCC3
REMARK SMILES IDX 20 1 19 2 18 3 17 4 16 5 14 6 15 7 13 9 12 10 11 11 1 12
REMARK SMILES IDX 2 13 3 14 90 15 4 16 9 17 89 18 5 19 8 20 10 21 6 22 7 23
REMARK SMILES IDX 95 24 91 25 94 26 92 27 93 28 21 29 22 30 23 31 24 32 25 34
REMARK SMILES IDX 26 35 27 36 88 37 28 38 87 39 29 40 30 41 31 42 81 43 32 44
REMARK SMILES IDX 86 45 80 46 82 47 33 48 85 49 79 50 78 51 34 53 66 54 46 55
REMARK SMILES IDX 65 56 47 57 50 58 64 59 83 60 48 61 49 62 63 64 84 65 51 66
REMARK SMILES IDX 35 67 36 68 44 69 37 70 43 71 45 72 42 73 38 74 39 75 40 76
REMARK SMILES IDX 41 77 67 78 68 79 76 80 69 81 75 82 77 83 74 84 70 85 71 86
REMARK SMILES IDX 72 87 73 88 52 89 53 90 61 91 54 92 60 93 62 94 59 95 55 96
REMARK SMILES IDX 56 97 57 98 58 99
REMARK H PARENT 16 8 23 33 82 52 50 63
REMARK Flexibility Score: inf
ROOT
ATOM      1  C   UNL A   1      35.883  34.368  34.165  1.00  0.00     0.002 C 
ENDROOT
BRANCH   1   2
ATOM      2  C   UNL A   1      34.771  35.287  33.734  1.00  0.00     0.002 C 
BRANCH   2   3
ATOM      3  C   UNL A   1      34.735  35.480  32.229  1.00  0.00     0.021 C 
BRANCH   3   4
ATOM      4  C   UNL A   1      33.357  35.924  31.804  1.00  0.00     0.116 C 
BRANCH   4   5
ATOM      5  N   UNL A   1      33.468  36.746  30.604  1.00  0.00    -0.356 N 
ATOM      6  C   UNL A   1      33.521  36.305  29.301  1.00  0.00     0.220 C 
ATOM      7  O   UNL A   1      34.021  37.046  28.455  1.00  0.00    -0.275 OA
ATOM      8  H   UNL A   1      33.508  37.720  30.739  1.00  0.00     0.163 HD
BRANCH   6   9
ATOM      9  C   UNL A   1      32.846  34.988  28.929  1.00  0.00     0.108 C 
BRANCH   9  10
ATOM     10  C   UNL A   1      33.389  34.199  27.711  1.00  0.00     0.089 C 
BRANCH  10  11
ATOM     11  C   UNL A   1      32.887  32.783  27.494  1.00  0.00     0.152 A 
ATOM     12  C   UNL A   1      34.771  29.087  27.509  1.00  0.00     0.090 C 
ATOM     13  C   UNL A   1      33.491  29.416  26.778  1.00  0.00     0.131 A 
ATOM     14  N   UNL A   1      33.024  28.564  25.890  1.00  0.00    -0.222 NA
ATOM     15  N   UNL A   1      32.943  30.705  27.068  1.00  0.00    -0.199 N 
ATOM     16  C   UNL A   1      31.963  29.024  25.164  1.00  0.00     0.129 A 
ATOM     17  C   UNL A   1      31.781  31.254  26.515  1.00  0.00     0.168 A 
ATOM     18  N   UNL A   1      33.657  31.695  27.697  1.00  0.00    -0.150 NA
ATOM     19  S   UNL A   1      31.365  27.943  23.212  1.00  0.00    -0.120 S 
ATOM     20  C   UNL A   1      31.125  30.515  25.364  1.00  0.00     0.060 A 
ATOM     21  N   UNL A   1      31.676  32.516  26.879  1.00  0.00    -0.211 NA
ATOM     22  C   UNL A   1      29.882  29.695  22.710  1.00  0.00     0.011 A 
ATOM     23  C   UNL A   1      29.889  30.949  23.965  1.00  0.00    -0.018 A 
ATOM     24  C   UNL A   1      28.851  29.607  21.623  1.00  0.00     0.047 C 
ATOM     25  C   UNL A   1      28.898  32.144  23.739  1.00  0.00     0.018 C 
ATOM     26  C   UNL A   1      27.655  30.480  22.113  1.00  0.00     0.006 C 
ATOM     27  C   UNL A   1      29.430  33.580  23.543  1.00  0.00     0.013 C 
ATOM     28  C   UNL A   1      28.099  31.915  22.403  1.00  0.00     0.008 C 
ENDBRANCH  10  11
ENDBRANCH   9  10
ENDBRANCH   6   9
ENDBRANCH   4   5
ENDBRANCH   3   4
ENDBRANCH   2   3
ENDBRANCH   1   2
BRANCH   1  29
ATOM     29  C   UNL A   1      35.953  32.809  33.544  1.00  0.00     0.021 C 
BRANCH  29  30
ATOM     30  C   UNL A   1      35.345  31.766  31.688  1.00  0.00     0.116 C 
BRANCH  30  31
ATOM     31  N   UNL A   1      35.563  32.336  30.062  1.00  0.00    -0.352 N 
ATOM     32  C   UNL A   1      36.642  32.925  29.414  1.00  0.00     0.251 C 
ATOM     33  H   UNL A   1      34.770  32.218  29.489  1.00  0.00     0.163 HD
ATOM     34  O   UNL A   1      36.526  33.850  28.622  1.00  0.00    -0.269 OA
BRANCH  32  35
ATOM     35  C   UNL A   1      37.902  32.217  29.590  1.00  0.00     0.039 A 
ATOM     36  C   UNL A   1      38.946  32.555  30.449  1.00  0.00     0.014 A 
ATOM     37  C   UNL A   1      37.981  31.095  28.790  1.00  0.00     0.014 A 
ATOM     38  C   UNL A   1      40.045  31.696  30.455  1.00  0.00     0.010 A 
ATOM     39  C   UNL A   1      38.704  30.102  29.307  1.00  0.00     0.010 A 
ATOM     40  C   UNL A   1      39.919  30.461  29.798  1.00  0.00    -0.014 A 
BRANCH  40  41
ATOM     41  C   UNL A   1      40.797  29.319  29.878  1.00  0.00     0.031 A 
ATOM     42  C   UNL A   1      40.954  28.923  31.283  1.00  0.00     0.074 A 
ATOM     43  C   UNL A   1      41.211  28.628  28.784  1.00  0.00     0.049 A 
ATOM     44  N   UNL A   1      41.857  29.416  32.057  1.00  0.00    -0.248 NA
ATOM     45  C   UNL A   1      39.857  28.261  32.012  1.00  0.00     0.031 C 
ATOM     46  C   UNL A   1      40.938  28.836  27.353  1.00  0.00     0.029 A 
ATOM     47  N   UNL A   1      42.029  27.538  28.756  1.00  0.00    -0.354 N 
ATOM     48  C   UNL A   1      41.666  28.794  33.270  1.00  0.00     0.074 A 
ATOM     49  C   UNL A   1      40.297  28.361  33.272  1.00  0.00     0.031 C 
ATOM     50  C   UNL A   1      41.445  27.810  26.619  1.00  0.00     0.029 A 
ATOM     51  C   UNL A   1      42.199  26.930  27.500  1.00  0.00     0.049 A 
ATOM     52  H   UNL A   1      42.474  27.199  29.565  1.00  0.00     0.167 HD
ATOM     53  C   UNL A   1      42.764  28.391  33.961  1.00  0.00     0.034 A 
ATOM     54  C   UNL A   1      43.075  25.922  27.182  1.00  0.00     0.034 A 
ATOM     55  C   UNL A   1      43.960  29.019  33.419  1.00  0.00     0.049 A 
ATOM     56  C   UNL A   1      44.134  25.993  28.229  1.00  0.00     0.074 A 
ATOM     57  C   UNL A   1      44.368  30.330  33.256  1.00  0.00     0.029 A 
ATOM     58  N   UNL A   1      44.679  28.288  32.496  1.00  0.00    -0.354 N 
ATOM     59  N   UNL A   1      44.961  27.000  28.311  1.00  0.00    -0.248 NA
ATOM     60  C   UNL A   1      43.881  25.277  29.474  1.00  0.00     0.031 C 
ATOM     61  C   UNL A   1      44.939  30.386  31.947  1.00  0.00     0.029 A 
ATOM     62  C   UNL A   1      44.979  29.094  31.419  1.00  0.00     0.049 A 
ATOM     63  H   UNL A   1      44.937  27.344  32.591  1.00  0.00     0.167 HD
ATOM     64  C   UNL A   1      44.992  27.322  29.659  1.00  0.00     0.074 A 
ATOM     65  C   UNL A   1      44.330  26.199  30.334  1.00  0.00     0.031 C 
ATOM     66  C   UNL A   1      45.238  28.601  30.075  1.00  0.00     0.034 A 
BRANCH  53  67
ATOM     67  C   UNL A   1      42.813  27.137  34.787  1.00  0.00     0.023 A 
ATOM     68  C   UNL A   1      43.564  26.071  34.271  1.00  0.00     0.031 A 
ATOM     69  C   UNL A   1      41.978  26.837  35.889  1.00  0.00     0.131 A 
ATOM     70  C   UNL A   1      43.428  24.777  34.797  1.00  0.00     0.055 A 
ATOM     71  C   UNL A   1      41.879  25.559  36.438  1.00  0.00     0.041 A 
ATOM     72  F   UNL A   1      41.146  27.731  36.438  1.00  0.00    -0.206 F 
ATOM     73  C   UNL A   1      42.590  24.513  35.878  1.00  0.00     0.022 A 
BRANCH  70  74
ATOM     74  S   UNL A   1      44.298  23.426  33.972  1.00  0.00     0.124 S 
ATOM     75  O   UNL A   1      45.604  24.024  33.717  1.00  0.00    -0.237 OA
ATOM     76  O   UNL A   1      44.258  22.379  34.989  1.00  0.00    -0.237 OA
ATOM     77  O   UNL A   1      43.482  23.172  32.789  1.00  0.00    -0.744 OA
ENDBRANCH  70  74
ENDBRANCH  53  67
BRANCH  54  78
ATOM     78  C   UNL A   1      42.774  24.608  26.504  1.00  0.00     0.023 A 
ATOM     79  C   UNL A   1      43.721  23.967  25.654  1.00  0.00     0.031 A 
ATOM     80  C   UNL A   1      41.668  23.831  26.897  1.00  0.00     0.131 A 
ATOM     81  C   UNL A   1      43.563  22.607  25.281  1.00  0.00     0.055 A 
ATOM     82  C   UNL A   1      41.527  22.483  26.537  1.00  0.00     0.041 A 
ATOM     83  F   UNL A   1      40.727  24.327  27.712  1.00  0.00    -0.206 F 
ATOM     84  C   UNL A   1      42.481  21.860  25.745  1.00  0.00     0.022 A 
BRANCH  81  85
ATOM     85  S   UNL A   1      44.823  21.736  24.277  1.00  0.00     0.124 S 
ATOM     86  O   UNL A   1      44.540  20.336  24.575  1.00  0.00    -0.237 OA
ATOM     87  O   UNL A   1      44.523  22.183  22.922  1.00  0.00    -0.237 OA
ATOM     88  O   UNL A   1      46.090  22.233  24.817  1.00  0.00    -0.744 OA
ENDBRANCH  81  85
ENDBRANCH  54  78
BRANCH  66  89
ATOM     89  C   UNL A   1      45.734  29.607  29.044  1.00  0.00     0.023 A 
ATOM     90  C   UNL A   1      44.933  30.409  28.188  1.00  0.00     0.031 A 
ATOM     91  C   UNL A   1      47.120  29.829  29.026  1.00  0.00     0.131 A 
ATOM     92  C   UNL A   1      45.540  31.388  27.363  1.00  0.00     0.055 A 
ATOM     93  C   UNL A   1      47.710  30.808  28.231  1.00  0.00     0.041 A 
ATOM     94  F   UNL A   1      47.928  29.113  29.825  1.00  0.00    -0.206 F 
ATOM     95  C   UNL A   1      46.925  31.590  27.394  1.00  0.00     0.022 A 
BRANCH  92  96
ATOM     96  S   UNL A   1      44.552  32.432  26.231  1.00  0.00     0.124 S 
ATOM     97  O   UNL A   1      43.400  31.593  25.920  1.00  0.00    -0.237 OA
ATOM     98  O   UNL A   1      44.279  33.616  27.038  1.00  0.00    -0.237 OA
ATOM     99  O   UNL A   1      45.455  32.665  25.100  1.00  0.00    -0.744 OA
ENDBRANCH  92  96
ENDBRANCH  66  89
ENDBRANCH  40  41
ENDBRANCH  32  35
ENDBRANCH  30  31
ENDBRANCH  29  30
ENDBRANCH   1  29
TORSDOF 18
ENDMDL
MODEL 2
REMARK VINA RESULT:     -13.0      6.579     14.997
REMARK SMILES Cc1nc2sc3c(c2c2nc(CCC(=O)NCCCCCCNC(=O)c4ccc(-c5c6nc(c(-c7cc(S(=O)(=O)[O-])ccc7F)c7ccc([nH]7)c(-c7cc(S(=O)(=O)[O-])ccc7F)c7nc(c(-c8cc(S(=O)(=O)[O-])ccc8F)c8ccc5[nH]8)C=C7)C=C6)cc4)nn12)[C@@H](C)CCC3
REMARK SMILES IDX 20 1 19 2 18 3 17 4 16 5 14 6 15 7 13 9 12 10 11 11 1 12
REMARK SMILES IDX 2 13 3 14 90 15 4 16 9 17 89 18 5 19 8 20 10 21 6 22 7 23
REMARK SMILES IDX 95 24 91 25 94 26 92 27 93 28 21 29 22 30 23 31 24 32 25 34
REMARK SMILES IDX 26 35 27 36 88 37 28 38 87 39 29 40 30 41 31 42 81 43 32 44
REMARK SMILES IDX 86 45 80 46 82 47 33 48 85 49 79 50 78 51 34 53 66 54 46 55
REMARK SMILES IDX 65 56 47 57 50 58 64 59 83 60 48 61 49 62 63 64 84 65 51 66
REMARK SMILES IDX 35 67 36 68 44 69 37 70 43 71 45 72 42 73 38 74 39 75 40 76
REMARK SMILES IDX 41 77 67 78 68 79 76 80 69 81 75 82 77 83 74 84 70 85 71 86
REMARK SMILES IDX 72 87 73 88 52 89 53 90 61 91 54 92 60 93 62 94 59 95 55 96
REMARK SMILES IDX 56 97 57 98 58 99
REMARK H PARENT 16 8 23 33 82 52 50 63
REMARK Flexibility Score: inf
ROOT
ATOM      1  C   UNL A   1      43.851  22.940  33.984  1.00  0.00     0.002 C 
ENDROOT
BRANCH   1   2
ATOM      2  C   UNL A   1      44.473  21.825  34.782  1.00  0.00     0.002 C 
BRANCH   2   3
ATOM      3  C   UNL A   1      45.988  21.906  34.800  1.00  0.00     0.021 C 
BRANCH   3   4
ATOM      4  C   UNL A   1      46.546  20.833  35.702  1.00  0.00     0.116 C 
BRANCH   4   5
ATOM      5  N   UNL A   1      46.592  21.335  37.071  1.00  0.00    -0.356 N 
ATOM      6  C   UNL A   1      46.385  20.614  38.226  1.00  0.00     0.220 C 
ATOM      7  O   UNL A   1      46.048  21.222  39.241  1.00  0.00    -0.275 OA
ATOM      8  H   UNL A   1      46.793  22.293  37.183  1.00  0.00     0.163 HD
BRANCH   6   9
ATOM      9  C   UNL A   1      46.708  19.123  38.243  1.00  0.00     0.108 C 
BRANCH   9  10
ATOM     10  C   UNL A   1      45.597  18.133  38.677  1.00  0.00     0.089 C 
BRANCH  10  11
ATOM     11  C   UNL A   1      45.398  17.886  40.161  1.00  0.00     0.152 A 
ATOM     12  C   UNL A   1      47.986  17.919  43.403  1.00  0.00     0.090 C 
ATOM     13  C   UNL A   1      46.686  17.154  43.326  1.00  0.00     0.131 A 
ATOM     14  N   UNL A   1      46.425  16.244  44.239  1.00  0.00    -0.222 NA
ATOM     15  N   UNL A   1      45.883  17.441  42.178  1.00  0.00    -0.199 N 
ATOM     16  C   UNL A   1      45.312  15.492  43.991  1.00  0.00     0.129 A 
ATOM     17  C   UNL A   1      44.649  16.859  41.865  1.00  0.00     0.168 A 
ATOM     18  N   UNL A   1      46.365  18.100  41.075  1.00  0.00    -0.150 NA
ATOM     19  S   UNL A   1      44.997  13.511  45.138  1.00  0.00    -0.120 S 
ATOM     20  C   UNL A   1      44.186  15.682  42.703  1.00  0.00     0.060 A 
ATOM     21  N   UNL A   1      44.282  17.233  40.657  1.00  0.00    -0.211 NA
ATOM     22  C   UNL A   1      43.206  12.984  43.713  1.00  0.00     0.011 A 
ATOM     23  C   UNL A   1      42.927  14.251  42.503  1.00  0.00    -0.018 A 
ATOM     24  C   UNL A   1      42.244  11.866  43.989  1.00  0.00     0.047 C 
ATOM     25  C   UNL A   1      41.722  14.009  41.528  1.00  0.00     0.018 C 
ATOM     26  C   UNL A   1      40.883  12.329  43.382  1.00  0.00     0.006 C 
ATOM     27  C   UNL A   1      41.958  13.844  40.012  1.00  0.00     0.013 C 
ATOM     28  C   UNL A   1      41.021  12.647  41.892  1.00  0.00     0.008 C 
ENDBRANCH  10  11
ENDBRANCH   9  10
ENDBRANCH   6   9
ENDBRANCH   4   5
ENDBRANCH   3   4
ENDBRANCH   2   3
ENDBRANCH   1   2
BRANCH   1  29
ATOM     29  C   UNL A   1      42.671  23.902  34.694  1.00  0.00     0.021 C 
BRANCH  29  30
ATOM     30  C   UNL A   1      42.430  26.025  35.272  1.00  0.00     0.116 C 
BRANCH  30  31
ATOM     31  N   UNL A   1      43.703  27.173  35.553  1.00  0.00    -0.352 N 
ATOM     32  C   UNL A   1      45.080  27.103  35.378  1.00  0.00     0.251 C 
ATOM     33  H   UNL A   1      43.389  28.039  35.901  1.00  0.00     0.163 HD
ATOM     34  O   UNL A   1      45.882  27.579  36.170  1.00  0.00    -0.269 OA
BRANCH  32  35
ATOM     35  C   UNL A   1      45.491  26.603  34.074  1.00  0.00     0.039 A 
ATOM     36  C   UNL A   1      46.169  25.416  33.800  1.00  0.00     0.014 A 
ATOM     37  C   UNL A   1      45.118  27.455  33.052  1.00  0.00     0.014 A 
ATOM     38  C   UNL A   1      46.426  25.147  32.456  1.00  0.00     0.010 A 
ATOM     39  C   UNL A   1      44.857  26.845  31.897  1.00  0.00     0.010 A 
ATOM     40  C   UNL A   1      45.790  25.944  31.491  1.00  0.00    -0.014 A 
BRANCH  40  41
ATOM     41  C   UNL A   1      45.691  25.710  30.071  1.00  0.00     0.031 A 
ATOM     42  C   UNL A   1      46.853  26.306  29.398  1.00  0.00     0.074 A 
ATOM     43  C   UNL A   1      44.766  24.882  29.520  1.00  0.00     0.049 A 
ATOM     44  N   UNL A   1      46.882  27.527  28.991  1.00  0.00    -0.248 NA
ATOM     45  C   UNL A   1      48.190  25.695  29.511  1.00  0.00     0.031 C 
ATOM     46  C   UNL A   1      43.692  24.090  30.140  1.00  0.00     0.029 A 
ATOM     47  N   UNL A   1      44.598  24.592  28.199  1.00  0.00    -0.354 N 
ATOM     48  C   UNL A   1      48.128  27.686  28.428  1.00  0.00     0.074 A 
ATOM     49  C   UNL A   1      48.958  26.682  29.034  1.00  0.00     0.031 C 
ATOM     50  C   UNL A   1      43.098  23.290  29.216  1.00  0.00     0.029 A 
ATOM     51  C   UNL A   1      43.647  23.599  27.904  1.00  0.00     0.049 A 
ATOM     52  H   UNL A   1      45.110  25.049  27.495  1.00  0.00     0.167 HD
ATOM     53  C   UNL A   1      48.221  28.383  27.266  1.00  0.00     0.034 A 
ATOM     54  C   UNL A   1      43.193  23.235  26.661  1.00  0.00     0.034 A 
ATOM     55  C   UNL A   1      46.993  29.126  27.025  1.00  0.00     0.049 A 
ATOM     56  C   UNL A   1      43.471  24.414  25.792  1.00  0.00     0.074 A 
ATOM     57  C   UNL A   1      46.307  30.103  27.723  1.00  0.00     0.029 A 
ATOM     58  N   UNL A   1      46.056  28.527  26.207  1.00  0.00    -0.354 N 
ATOM     59  N   UNL A   1      42.844  25.549  25.943  1.00  0.00    -0.248 NA
ATOM     60  C   UNL A   1      44.800  24.497  25.198  1.00  0.00     0.031 C 
ATOM     61  C   UNL A   1      44.931  29.724  27.645  1.00  0.00     0.029 A 
ATOM     62  C   UNL A   1      44.816  28.619  26.801  1.00  0.00     0.049 A 
ATOM     63  H   UNL A   1      46.243  28.102  25.340  1.00  0.00     0.167 HD
ATOM     64  C   UNL A   1      43.839  26.512  25.880  1.00  0.00     0.074 A 
ATOM     65  C   UNL A   1      45.025  25.803  25.383  1.00  0.00     0.031 C 
ATOM     66  C   UNL A   1      43.717  27.700  26.546  1.00  0.00     0.034 A 
BRANCH  53  67
ATOM     67  C   UNL A   1      49.190  28.047  26.169  1.00  0.00     0.023 A 
ATOM     68  C   UNL A   1      48.707  28.122  24.854  1.00  0.00     0.031 A 
ATOM     69  C   UNL A   1      50.447  27.419  26.338  1.00  0.00     0.131 A 
ATOM     70  C   UNL A   1      49.421  27.543  23.794  1.00  0.00     0.055 A 
ATOM     71  C   UNL A   1      51.175  26.885  25.275  1.00  0.00     0.041 A 
ATOM     72  F   UNL A   1      51.000  27.205  27.538  1.00  0.00    -0.206 F 
ATOM     73  C   UNL A   1      50.653  26.925  23.995  1.00  0.00     0.022 A 
BRANCH  70  74
ATOM     74  S   UNL A   1      48.655  27.531  22.158  1.00  0.00     0.124 S 
ATOM     75  O   UNL A   1      48.904  26.163  21.722  1.00  0.00    -0.237 OA
ATOM     76  O   UNL A   1      47.268  27.863  22.475  1.00  0.00    -0.237 OA
ATOM     77  O   UNL A   1      49.389  28.565  21.434  1.00  0.00    -0.744 OA
ENDBRANCH  70  74
ENDBRANCH  53  67
BRANCH  54  78
ATOM     78  C   UNL A   1      43.140  21.852  26.060  1.00  0.00     0.023 A 
ATOM     79  C   UNL A   1      44.286  21.244  25.469  1.00  0.00     0.031 A 
ATOM     80  C   UNL A   1      42.044  21.003  26.300  1.00  0.00     0.131 A 
ATOM     81  C   UNL A   1      44.315  19.852  25.197  1.00  0.00     0.055 A 
ATOM     82  C   UNL A   1      42.085  19.625  26.043  1.00  0.00     0.041 A 
ATOM     83  F   UNL A   1      40.921  21.465  26.870  1.00  0.00    -0.206 F 
ATOM     84  C   UNL A   1      43.225  19.041  25.510  1.00  0.00     0.022 A 
BRANCH  81  85
ATOM     85  S   UNL A   1      45.816  19.035  24.539  1.00  0.00     0.124 S 
ATOM     86  O   UNL A   1      45.910  17.844  25.376  1.00  0.00    -0.237 OA
ATOM     87  O   UNL A   1      45.477  18.816  23.138  1.00  0.00    -0.237 OA
ATOM     88  O   UNL A   1      46.869  20.027  24.764  1.00  0.00    -0.744 OA
ENDBRANCH  81  85
ENDBRANCH  54  78
BRANCH  66  89
ATOM     89  C   UNL A   1      42.359  28.050  27.143  1.00  0.00     0.023 A 
ATOM     90  C   UNL A   1      41.999  28.004  28.516  1.00  0.00     0.031 A 
ATOM     91  C   UNL A   1      41.415  28.571  26.244  1.00  0.00     0.131 A 
ATOM     92  C   UNL A   1      40.729  28.477  28.929  1.00  0.00     0.055 A 
ATOM     93  C   UNL A   1      40.176  29.055  26.658  1.00  0.00     0.041 A 
ATOM     94  F   UNL A   1      41.704  28.655  24.935  1.00  0.00    -0.206 F 
ATOM     95  C   UNL A   1      39.826  29.008  28.001  1.00  0.00     0.022 A 
BRANCH  92  96
ATOM     96  S   UNL A   1      40.212  28.421  30.684  1.00  0.00     0.124 S 
ATOM     97  O   UNL A   1      39.887  29.812  30.982  1.00  0.00    -0.237 OA
ATOM     98  O   UNL A   1      39.083  27.496  30.660  1.00  0.00    -0.237 OA
ATOM     99  O   UNL A   1      41.397  27.912  31.378  1.00  0.00    -0.744 OA
ENDBRANCH  92  96
ENDBRANCH  66  89
ENDBRANCH  40  41
ENDBRANCH  32  35
ENDBRANCH  30  31
ENDBRANCH  29  30
ENDBRANCH   1  29
TORSDOF 18
ENDMDL
MODEL 3
REMARK VINA RESULT:     -12.8      4.014      6.333
REMARK SMILES Cc1nc2sc3c(c2c2nc(CCC(=O)NCCCCCCNC(=O)c4ccc(-c5c6nc(c(-c7cc(S(=O)(=O)[O-])ccc7F)c7ccc([nH]7)c(-c7cc(S(=O)(=O)[O-])ccc7F)c7nc(c(-c8cc(S(=O)(=O)[O-])ccc8F)c8ccc5[nH]8)C=C7)C=C6)cc4)nn12)[C@@H](C)CCC3
REMARK SMILES IDX 20 1 19 2 18 3 17 4 16 5 14 6 15 7 13 9 12 10 11 11 1 12
REMARK SMILES IDX 2 13 3 14 90 15 4 16 9 17 89 18 5 19 8 20 10 21 6 22 7 23
REMARK SMILES IDX 95 24 91 25 94 26 92 27 93 28 21 29 22 30 23 31 24 32 25 34
REMARK SMILES IDX 26 35 27 36 88 37 28 38 87 39 29 40 30 41 31 42 81 43 32 44
REMARK SMILES IDX 86 45 80 46 82 47 33 48 85 49 79 50 78 51 34 53 66 54 46 55
REMARK SMILES IDX 65 56 47 57 50 58 64 59 83 60 48 61 49 62 63 64 84 65 51 66
REMARK SMILES IDX 35 67 36 68 44 69 37 70 43 71 45 72 42 73 38 74 39 75 40 76
REMARK SMILES IDX 41 77 67 78 68 79 76 80 69 81 75 82 77 83 74 84 70 85 71 86
REMARK SMILES IDX 72 87 73 88 52 89 53 90 61 91 54 92 60 93 62 94 59 95 55 96
REMARK SMILES IDX 56 97 57 98 58 99
REMARK H PARENT 16 8 23 33 82 52 50 63
REMARK Flexibility Score: inf
ROOT
ATOM      1  C   UNL A   1      41.331  33.134  30.583  1.00  0.00     0.002 C 
ENDROOT
BRANCH   1   2
ATOM      2  C   UNL A   1      40.059  33.936  30.522  1.00  0.00     0.002 C 
BRANCH   2   3
ATOM      3  C   UNL A   1      38.928  33.173  29.855  1.00  0.00     0.021 C 
BRANCH   3   4
ATOM      4  C   UNL A   1      37.833  34.130  29.454  1.00  0.00     0.116 C 
BRANCH   4   5
ATOM      5  N   UNL A   1      37.070  33.549  28.355  1.00  0.00    -0.356 N 
ATOM      6  C   UNL A   1      35.699  33.515  28.225  1.00  0.00     0.220 C 
ATOM      7  O   UNL A   1      35.204  32.659  27.494  1.00  0.00    -0.275 OA
ATOM      8  H   UNL A   1      37.589  33.138  27.626  1.00  0.00     0.163 HD
BRANCH   6   9
ATOM      9  C   UNL A   1      34.861  34.610  28.877  1.00  0.00     0.108 C 
BRANCH   9  10
ATOM     10  C   UNL A   1      34.012  34.247  30.122  1.00  0.00     0.089 C 
BRANCH  10  11
ATOM     11  C   UNL A   1      34.606  33.292  31.140  1.00  0.00     0.152 A 
ATOM     12  C   UNL A   1      36.216  33.841  34.925  1.00  0.00     0.090 C 
ATOM     13  C   UNL A   1      36.537  32.697  33.992  1.00  0.00     0.131 A 
ATOM     14  N   UNL A   1      37.561  31.917  34.266  1.00  0.00    -0.222 NA
ATOM     15  N   UNL A   1      35.724  32.628  32.817  1.00  0.00    -0.199 N 
ATOM     16  C   UNL A   1      37.873  31.022  33.283  1.00  0.00     0.129 A 
ATOM     17  C   UNL A   1      35.828  31.679  31.794  1.00  0.00     0.168 A 
ATOM     18  N   UNL A   1      34.938  33.669  32.391  1.00  0.00    -0.150 NA
ATOM     19  S   UNL A   1      39.931  29.972  33.310  1.00  0.00    -0.120 S 
ATOM     20  C   UNL A   1      37.020  30.740  31.814  1.00  0.00     0.060 A 
ATOM     21  N   UNL A   1      35.039  32.022  30.796  1.00  0.00    -0.211 NA
ATOM     22  C   UNL A   1      39.513  29.124  31.160  1.00  0.00     0.011 A 
ATOM     23  C   UNL A   1      37.928  29.629  30.544  1.00  0.00    -0.018 A 
ATOM     24  C   UNL A   1      40.353  28.052  30.527  1.00  0.00     0.047 C 
ATOM     25  C   UNL A   1      37.540  29.077  29.128  1.00  0.00     0.018 C 
ATOM     26  C   UNL A   1      39.378  27.248  29.611  1.00  0.00     0.006 C 
ATOM     27  C   UNL A   1      37.324  30.040  27.941  1.00  0.00     0.013 C 
ATOM     28  C   UNL A   1      38.699  28.160  28.588  1.00  0.00     0.008 C 
ENDBRANCH  10  11
ENDBRANCH   9  10
ENDBRANCH   6   9
ENDBRANCH   4   5
ENDBRANCH   3   4
ENDBRANCH   2   3
ENDBRANCH   1   2
BRANCH   1  29
ATOM     29  C   UNL A   1      42.639  33.589  29.632  1.00  0.00     0.021 C 
BRANCH  29  30
ATOM     30  C   UNL A   1      43.090  35.137  28.115  1.00  0.00     0.116 C 
BRANCH  30  31
ATOM     31  N   UNL A   1      43.488  34.865  26.446  1.00  0.00    -0.352 N 
ATOM     32  C   UNL A   1      44.572  34.251  25.831  1.00  0.00     0.251 C 
ATOM     33  H   UNL A   1      42.816  35.213  25.815  1.00  0.00     0.163 HD
ATOM     34  O   UNL A   1      45.099  34.681  24.814  1.00  0.00    -0.269 OA
BRANCH  32  35
ATOM     35  C   UNL A   1      44.900  32.939  26.371  1.00  0.00     0.039 A 
ATOM     36  C   UNL A   1      46.059  32.574  27.054  1.00  0.00     0.014 A 
ATOM     37  C   UNL A   1      43.892  32.022  26.149  1.00  0.00     0.014 A 
ATOM     38  C   UNL A   1      46.123  31.253  27.499  1.00  0.00     0.010 A 
ATOM     39  C   UNL A   1      43.787  31.083  27.089  1.00  0.00     0.010 A 
ATOM     40  C   UNL A   1      44.952  30.480  27.443  1.00  0.00    -0.014 A 
BRANCH  40  41
ATOM     41  C   UNL A   1      44.700  29.203  28.064  1.00  0.00     0.031 A 
ATOM     42  C   UNL A   1      44.502  29.395  29.507  1.00  0.00     0.074 A 
ATOM     43  C   UNL A   1      44.478  28.067  27.354  1.00  0.00     0.049 A 
ATOM     44  N   UNL A   1      45.469  29.390  30.357  1.00  0.00    -0.248 NA
ATOM     45  C   UNL A   1      43.268  30.009  30.028  1.00  0.00     0.031 C 
ATOM     46  C   UNL A   1      44.460  27.827  25.902  1.00  0.00     0.029 A 
ATOM     47  N   UNL A   1      44.225  26.821  27.845  1.00  0.00    -0.354 N 
ATOM     48  C   UNL A   1      44.871  29.602  31.579  1.00  0.00     0.074 A 
ATOM     49  C   UNL A   1      43.628  30.262  31.292  1.00  0.00     0.031 C 
ATOM     50  C   UNL A   1      44.049  26.558  25.636  1.00  0.00     0.029 A 
ATOM     51  C   UNL A   1      43.900  25.839  26.893  1.00  0.00     0.049 A 
ATOM     52  H   UNL A   1      44.267  26.621  28.807  1.00  0.00     0.167 HD
ATOM     53  C   UNL A   1      45.307  28.874  32.639  1.00  0.00     0.034 A 
ATOM     54  C   UNL A   1      43.749  24.493  27.114  1.00  0.00     0.034 A 
ATOM     55  C   UNL A   1      46.581  28.244  32.328  1.00  0.00     0.049 A 
ATOM     56  C   UNL A   1      44.507  24.225  28.369  1.00  0.00     0.074 A 
ATOM     57  C   UNL A   1      47.826  28.722  31.961  1.00  0.00     0.029 A 
ATOM     58  N   UNL A   1      46.534  26.942  31.874  1.00  0.00    -0.354 N 
ATOM     59  N   UNL A   1      45.808  24.323  28.429  1.00  0.00    -0.248 NA
ATOM     60  C   UNL A   1      43.798  24.433  29.626  1.00  0.00     0.031 C 
ATOM     61  C   UNL A   1      48.263  27.861  30.907  1.00  0.00     0.029 A 
ATOM     62  C   UNL A   1      47.341  26.823  30.762  1.00  0.00     0.049 A 
ATOM     63  H   UNL A   1      46.010  26.214  32.278  1.00  0.00     0.167 HD
ATOM     64  C   UNL A   1      46.055  25.027  29.597  1.00  0.00     0.074 A 
ATOM     65  C   UNL A   1      44.774  25.037  30.314  1.00  0.00     0.031 C 
ATOM     66  C   UNL A   1      47.162  25.818  29.725  1.00  0.00     0.034 A 
BRANCH  53  67
ATOM     67  C   UNL A   1      44.407  28.378  33.736  1.00  0.00     0.023 A 
ATOM     68  C   UNL A   1      44.826  28.618  35.052  1.00  0.00     0.031 A 
ATOM     69  C   UNL A   1      43.328  27.477  33.577  1.00  0.00     0.131 A 
ATOM     70  C   UNL A   1      44.231  27.942  36.128  1.00  0.00     0.055 A 
ATOM     71  C   UNL A   1      42.709  26.841  34.653  1.00  0.00     0.041 A 
ATOM     72  F   UNL A   1      42.870  27.091  32.381  1.00  0.00    -0.206 F 
ATOM     73  C   UNL A   1      43.175  27.054  35.938  1.00  0.00     0.022 A 
BRANCH  70  74
ATOM     74  S   UNL A   1      44.937  28.175  37.775  1.00  0.00     0.124 S 
ATOM     75  O   UNL A   1      44.481  29.520  38.107  1.00  0.00    -0.237 OA
ATOM     76  O   UNL A   1      44.318  27.083  38.522  1.00  0.00    -0.237 OA
ATOM     77  O   UNL A   1      46.372  28.036  37.550  1.00  0.00    -0.744 OA
ENDBRANCH  70  74
ENDBRANCH  53  67
BRANCH  54  78
ATOM     78  C   UNL A   1      42.582  23.615  26.738  1.00  0.00     0.023 A 
ATOM     79  C   UNL A   1      42.748  22.233  26.432  1.00  0.00     0.031 A 
ATOM     80  C   UNL A   1      41.258  24.049  26.939  1.00  0.00     0.131 A 
ATOM     81  C   UNL A   1      41.634  21.355  26.392  1.00  0.00     0.055 A 
ATOM     82  C   UNL A   1      40.164  23.173  26.913  1.00  0.00     0.041 A 
ATOM     83  F   UNL A   1      40.988  25.325  27.251  1.00  0.00    -0.206 F 
ATOM     84  C   UNL A   1      40.348  21.822  26.658  1.00  0.00     0.022 A 
BRANCH  81  85
ATOM     85  S   UNL A   1      41.839  19.558  26.107  1.00  0.00     0.124 S 
ATOM     86  O   UNL A   1      40.483  19.143  25.767  1.00  0.00    -0.237 OA
ATOM     87  O   UNL A   1      42.820  19.511  25.030  1.00  0.00    -0.237 OA
ATOM     88  O   UNL A   1      42.326  19.063  27.397  1.00  0.00    -0.744 OA
ENDBRANCH  81  85
ENDBRANCH  54  78
BRANCH  66  89
ATOM     89  C   UNL A   1      48.248  25.709  28.662  1.00  0.00     0.023 A 
ATOM     90  C   UNL A   1      48.165  26.155  27.316  1.00  0.00     0.031 A 
ATOM     91  C   UNL A   1      49.485  25.213  29.103  1.00  0.00     0.131 A 
ATOM     92  C   UNL A   1      49.306  26.091  26.479  1.00  0.00     0.055 A 
ATOM     93  C   UNL A   1      50.610  25.173  28.282  1.00  0.00     0.041 A 
ATOM     94  F   UNL A   1      49.630  24.791  30.369  1.00  0.00    -0.206 F 
ATOM     95  C   UNL A   1      50.525  25.609  26.967  1.00  0.00     0.022 A 
BRANCH  92  96
ATOM     96  S   UNL A   1      49.243  26.637  24.733  1.00  0.00     0.124 S 
ATOM     97  O   UNL A   1      50.626  26.504  24.290  1.00  0.00    -0.237 OA
ATOM     98  O   UNL A   1      48.291  25.705  24.136  1.00  0.00    -0.237 OA
ATOM     99  O   UNL A   1      48.763  28.019  24.819  1.00  0.00    -0.744 OA
ENDBRANCH  92  96
ENDBRANCH  66  89
ENDBRANCH  40  41
ENDBRANCH  32  35
ENDBRANCH  30  31
ENDBRANCH  29  30
ENDBRANCH   1  29
TORSDOF 18
ENDMDL
