MODEL 1
REMARK VINA RESULT:     -12.3      0.000      0.000
REMARK SMILES O=C(NCCCCCCNC(=O)[C@@H]1Cc2ccccc2CN1C(=O)COc1ccccc1)c1ccc(-c2c3nc(c(-c4cc(S(=O)(=O)[O-])ccc4F)c4ccc([nH]4)c(-c4cc(S(=O)(=O)[O-])ccc4F)c4nc(c(-c5cc(S(=O)(=O)[O-])ccc5F)c5ccc2[nH]5)C=C4)C=C3)cc1
REMARK SMILES IDX 7 1 6 2 5 3 4 4 3 5 1 6 2 7 33 9 34 10 95 11 35 12 94 13
REMARK SMILES IDX 36 14 37 15 38 16 88 17 39 18 93 19 87 20 89 21 40 22 92 23
REMARK SMILES IDX 86 24 85 25 41 27 73 28 53 29 72 30 54 31 57 32 71 33 90 34
REMARK SMILES IDX 55 35 56 36 70 38 91 39 58 40 42 41 43 42 51 43 44 44 50 45
REMARK SMILES IDX 52 46 49 47 45 48 46 49 47 50 48 51 74 52 75 53 83 54 76 55
REMARK SMILES IDX 82 56 84 57 81 58 77 59 78 60 79 61 80 62 59 63 60 64 68 65
REMARK SMILES IDX 61 66 67 67 69 68 66 69 62 70 63 71 64 72 65 73 8 74 9 75
REMARK SMILES IDX 10 76 11 77 12 79 13 80 14 81 22 82 15 83 21 84 16 85 20 86
REMARK SMILES IDX 17 87 19 88 18 89 23 90 24 91 25 92 26 93 27 94 28 95 32 96
REMARK SMILES IDX 29 97 31 98 30 99
REMARK H PARENT 3 8 89 26 57 37 10 78
REMARK Flexibility Score: inf
ROOT
ATOM      1  C   UNL A   1      33.531  27.002  22.357  1.00  0.00     0.002 C 
ENDROOT
BRANCH   1   2
ATOM      2  C   UNL A   1      34.027  28.082  23.322  1.00  0.00     0.002 C 
BRANCH   2   3
ATOM      3  C   UNL A   1      32.927  28.891  24.007  1.00  0.00     0.021 C 
BRANCH   3   4
ATOM      4  C   UNL A   1      33.213  29.221  25.466  1.00  0.00     0.116 C 
BRANCH   4   5
ATOM      5  N   UNL A   1      32.652  30.510  25.852  1.00  0.00    -0.352 N 
ATOM      6  O   UNL A   1      32.257  32.243  27.243  1.00  0.00    -0.269 OA
ATOM      7  C   UNL A   1      32.996  31.328  26.903  1.00  0.00     0.251 C 
ATOM      8  H   UNL A   1      31.923  30.842  25.279  1.00  0.00     0.163 HD
BRANCH   7   9
ATOM      9  C   UNL A   1      34.268  31.083  27.613  1.00  0.00     0.039 A 
ATOM     10  C   UNL A   1      34.555  29.799  28.075  1.00  0.00     0.014 A 
ATOM     11  C   UNL A   1      35.173  32.127  27.821  1.00  0.00     0.014 A 
ATOM     12  C   UNL A   1      35.655  29.594  28.891  1.00  0.00     0.010 A 
ATOM     13  C   UNL A   1      36.350  31.886  28.538  1.00  0.00     0.010 A 
ATOM     14  C   UNL A   1      36.591  30.621  29.096  1.00  0.00    -0.014 A 
BRANCH  14  15
ATOM     15  C   UNL A   1      37.846  30.284  29.816  1.00  0.00     0.031 A 
ATOM     16  C   UNL A   1      38.110  30.765  31.214  1.00  0.00     0.074 A 
ATOM     17  C   UNL A   1      38.718  29.459  29.200  1.00  0.00     0.049 A 
ATOM     18  N   UNL A   1      39.129  30.501  31.993  1.00  0.00    -0.248 NA
ATOM     19  C   UNL A   1      37.114  31.663  31.814  1.00  0.00     0.031 C 
ATOM     20  C   UNL A   1      38.560  28.945  27.834  1.00  0.00     0.029 A 
ATOM     21  N   UNL A   1      39.876  28.875  29.637  1.00  0.00    -0.354 N 
ATOM     22  C   UNL A   1      38.900  31.196  33.175  1.00  0.00     0.074 A 
ATOM     23  C   UNL A   1      37.666  31.934  32.989  1.00  0.00     0.031 C 
ATOM     24  C   UNL A   1      39.539  28.069  27.575  1.00  0.00     0.029 A 
ATOM     25  C   UNL A   1      40.449  28.032  28.712  1.00  0.00     0.049 A 
ATOM     26  H   UNL A   1      40.263  29.041  30.528  1.00  0.00     0.167 HD
ATOM     27  C   UNL A   1      39.646  31.203  34.309  1.00  0.00     0.034 A 
ATOM     28  C   UNL A   1      41.595  27.328  28.755  1.00  0.00     0.034 A 
ATOM     29  C   UNL A   1      40.881  30.467  34.462  1.00  0.00     0.049 A 
ATOM     30  C   UNL A   1      42.424  27.396  30.007  1.00  0.00     0.074 A 
ATOM     31  C   UNL A   1      41.718  30.407  35.563  1.00  0.00     0.029 A 
ATOM     32  N   UNL A   1      41.461  29.666  33.485  1.00  0.00    -0.354 N 
ATOM     33  N   UNL A   1      42.187  28.056  31.118  1.00  0.00    -0.248 NA
ATOM     34  C   UNL A   1      43.669  26.623  30.016  1.00  0.00     0.031 C 
ATOM     35  C   UNL A   1      42.833  29.632  35.230  1.00  0.00     0.029 A 
ATOM     36  C   UNL A   1      42.655  29.132  33.950  1.00  0.00     0.049 A 
ATOM     37  H   UNL A   1      41.080  29.500  32.592  1.00  0.00     0.167 HD
ATOM     38  C   UNL A   1      43.250  27.762  31.965  1.00  0.00     0.074 A 
ATOM     39  C   UNL A   1      44.102  26.834  31.248  1.00  0.00     0.031 C 
ATOM     40  C   UNL A   1      43.507  28.224  33.215  1.00  0.00     0.034 A 
BRANCH  27  41
ATOM     41  C   UNL A   1      39.164  32.059  35.458  1.00  0.00     0.023 A 
ATOM     42  C   UNL A   1      39.594  33.387  35.620  1.00  0.00     0.031 A 
ATOM     43  C   UNL A   1      38.258  31.543  36.403  1.00  0.00     0.131 A 
ATOM     44  C   UNL A   1      39.166  34.135  36.729  1.00  0.00     0.055 A 
ATOM     45  C   UNL A   1      37.775  32.316  37.460  1.00  0.00     0.041 A 
ATOM     46  F   UNL A   1      37.828  30.275  36.315  1.00  0.00    -0.206 F 
ATOM     47  C   UNL A   1      38.237  33.617  37.635  1.00  0.00     0.022 A 
BRANCH  44  48
ATOM     48  S   UNL A   1      39.935  35.747  37.040  1.00  0.00     0.124 S 
ATOM     49  O   UNL A   1      39.687  36.441  35.777  1.00  0.00    -0.237 OA
ATOM     50  O   UNL A   1      39.191  36.237  38.194  1.00  0.00    -0.237 OA
ATOM     51  O   UNL A   1      41.335  35.416  37.295  1.00  0.00    -0.744 OA
ENDBRANCH  44  48
ENDBRANCH  27  41
BRANCH  28  52
ATOM     52  C   UNL A   1      42.050  26.553  27.564  1.00  0.00     0.023 A 
ATOM     53  C   UNL A   1      41.834  25.170  27.462  1.00  0.00     0.031 A 
ATOM     54  C   UNL A   1      42.760  27.185  26.524  1.00  0.00     0.131 A 
ATOM     55  C   UNL A   1      42.371  24.457  26.380  1.00  0.00     0.055 A 
ATOM     56  C   UNL A   1      43.226  26.484  25.413  1.00  0.00     0.041 A 
ATOM     57  F   UNL A   1      42.998  28.505  26.568  1.00  0.00    -0.206 F 
ATOM     58  C   UNL A   1      43.049  25.107  25.347  1.00  0.00     0.022 A 
BRANCH  55  59
ATOM     59  S   UNL A   1      42.280  22.646  26.405  1.00  0.00     0.124 S 
ATOM     60  O   UNL A   1      42.647  22.312  25.034  1.00  0.00    -0.237 OA
ATOM     61  O   UNL A   1      43.259  22.309  27.433  1.00  0.00    -0.237 OA
ATOM     62  O   UNL A   1      40.887  22.382  26.762  1.00  0.00    -0.744 OA
ENDBRANCH  55  59
ENDBRANCH  28  52
BRANCH  40  63
ATOM     63  C   UNL A   1      44.751  27.692  33.887  1.00  0.00     0.023 A 
ATOM     64  C   UNL A   1      44.740  26.485  34.608  1.00  0.00     0.031 A 
ATOM     65  C   UNL A   1      45.948  28.429  33.852  1.00  0.00     0.131 A 
ATOM     66  C   UNL A   1      45.873  26.096  35.336  1.00  0.00     0.055 A 
ATOM     67  C   UNL A   1      47.097  27.995  34.514  1.00  0.00     0.041 A 
ATOM     68  F   UNL A   1      46.017  29.592  33.183  1.00  0.00    -0.206 F 
ATOM     69  C   UNL A   1      47.058  26.834  35.278  1.00  0.00     0.022 A 
BRANCH  66  70
ATOM     70  S   UNL A   1      45.731  24.689  36.472  1.00  0.00     0.124 S 
ATOM     71  O   UNL A   1      44.973  23.732  35.674  1.00  0.00    -0.237 OA
ATOM     72  O   UNL A   1      47.128  24.347  36.721  1.00  0.00    -0.237 OA
ATOM     73  O   UNL A   1      45.017  25.247  37.620  1.00  0.00    -0.744 OA
ENDBRANCH  66  70
ENDBRANCH  40  63
ENDBRANCH  14  15
ENDBRANCH   7   9
ENDBRANCH   4   5
ENDBRANCH   3   4
ENDBRANCH   2   3
ENDBRANCH   1   2
BRANCH   1  74
ATOM     74  C   UNL A   1      32.015  26.790  22.347  1.00  0.00     0.021 C 
BRANCH  74  75
ATOM     75  C   UNL A   1      31.541  25.517  23.056  1.00  0.00     0.116 C 
BRANCH  75  76
ATOM     76  N   UNL A   1      31.298  25.759  24.467  1.00  0.00    -0.354 N 
ATOM     77  C   UNL A   1      31.892  25.360  25.619  1.00  0.00     0.243 C 
ATOM     78  H   UNL A   1      30.524  26.348  24.623  1.00  0.00     0.163 HD
ATOM     79  O   UNL A   1      31.419  25.881  26.642  1.00  0.00    -0.273 OA
BRANCH  77  80
ATOM     80  C   UNL A   1      32.965  24.237  25.767  1.00  0.00     0.179 C 
ATOM     81  C   UNL A   1      34.339  24.914  25.476  1.00  0.00     0.071 C 
ATOM     82  N   UNL A   1      32.801  22.942  25.066  1.00  0.00    -0.323 N 
ATOM     83  C   UNL A   1      35.444  23.903  25.319  1.00  0.00    -0.040 A 
ATOM     84  C   UNL A   1      33.757  22.634  23.999  1.00  0.00     0.156 C 
ATOM     85  C   UNL A   1      36.714  24.082  25.873  1.00  0.00     0.004 A 
ATOM     86  C   UNL A   1      35.155  22.753  24.563  1.00  0.00    -0.025 A 
ATOM     87  C   UNL A   1      37.686  23.098  25.702  1.00  0.00     0.000 A 
ATOM     88  C   UNL A   1      36.136  21.774  24.391  1.00  0.00     0.006 A 
ATOM     89  C   UNL A   1      37.397  21.946  24.967  1.00  0.00     0.000 A 
BRANCH  82  90
ATOM     90  C   UNL A   1      32.029  21.888  25.544  1.00  0.00     0.261 C 
ATOM     91  O   UNL A   1      30.881  22.061  25.960  1.00  0.00    -0.271 OA
BRANCH  90  92
ATOM     92  C   UNL A   1      32.643  20.486  25.570  1.00  0.00     0.329 C 
BRANCH  92  93
ATOM     93  O   UNL A   1      31.801  19.493  24.996  1.00  0.00    -0.484 OA
BRANCH  93  94
ATOM     94  C   UNL A   1      32.540  18.401  24.642  1.00  0.00     0.120 A 
ATOM     95  C   UNL A   1      32.899  18.249  23.305  1.00  0.00     0.046 A 
ATOM     96  C   UNL A   1      32.902  17.451  25.593  1.00  0.00     0.046 A 
ATOM     97  C   UNL A   1      33.663  17.147  22.923  1.00  0.00     0.004 A 
ATOM     98  C   UNL A   1      33.669  16.355  25.210  1.00  0.00     0.004 A 
ATOM     99  C   UNL A   1      34.050  16.203  23.877  1.00  0.00     0.000 A 
ENDBRANCH  93  94
ENDBRANCH  92  93
ENDBRANCH  90  92
ENDBRANCH  82  90
ENDBRANCH  77  80
ENDBRANCH  75  76
ENDBRANCH  74  75
ENDBRANCH   1  74
TORSDOF 20
ENDMDL
MODEL 2
REMARK VINA RESULT:     -12.0      1.048      3.012
REMARK SMILES O=C(NCCCCCCNC(=O)[C@@H]1Cc2ccccc2CN1C(=O)COc1ccccc1)c1ccc(-c2c3nc(c(-c4cc(S(=O)(=O)[O-])ccc4F)c4ccc([nH]4)c(-c4cc(S(=O)(=O)[O-])ccc4F)c4nc(c(-c5cc(S(=O)(=O)[O-])ccc5F)c5ccc2[nH]5)C=C4)C=C3)cc1
REMARK SMILES IDX 7 1 6 2 5 3 4 4 3 5 1 6 2 7 33 9 34 10 95 11 35 12 94 13
REMARK SMILES IDX 36 14 37 15 38 16 88 17 39 18 93 19 87 20 89 21 40 22 92 23
REMARK SMILES IDX 86 24 85 25 41 27 73 28 53 29 72 30 54 31 57 32 71 33 90 34
REMARK SMILES IDX 55 35 56 36 70 38 91 39 58 40 42 41 43 42 51 43 44 44 50 45
REMARK SMILES IDX 52 46 49 47 45 48 46 49 47 50 48 51 74 52 75 53 83 54 76 55
REMARK SMILES IDX 82 56 84 57 81 58 77 59 78 60 79 61 80 62 59 63 60 64 68 65
REMARK SMILES IDX 61 66 67 67 69 68 66 69 62 70 63 71 64 72 65 73 8 74 9 75
REMARK SMILES IDX 10 76 11 77 12 79 13 80 14 81 22 82 15 83 21 84 16 85 20 86
REMARK SMILES IDX 17 87 19 88 18 89 23 90 24 91 25 92 26 93 27 94 28 95 32 96
REMARK SMILES IDX 29 97 31 98 30 99
REMARK H PARENT 3 8 89 26 57 37 10 78
REMARK Flexibility Score: inf
ROOT
ATOM      1  C   UNL A   1      33.647  26.671  22.835  1.00  0.00     0.002 C 
ENDROOT
BRANCH   1   2
ATOM      2  C   UNL A   1      33.890  28.170  23.028  1.00  0.00     0.002 C 
BRANCH   2   3
ATOM      3  C   UNL A   1      32.867  28.881  23.914  1.00  0.00     0.021 C 
BRANCH   3   4
ATOM      4  C   UNL A   1      33.406  29.295  25.277  1.00  0.00     0.116 C 
BRANCH   4   5
ATOM      5  N   UNL A   1      32.797  30.534  25.748  1.00  0.00    -0.352 N 
ATOM      6  O   UNL A   1      32.329  32.146  27.257  1.00  0.00    -0.269 OA
ATOM      7  C   UNL A   1      33.101  31.283  26.861  1.00  0.00     0.251 C 
ATOM      8  H   UNL A   1      32.062  30.881  25.192  1.00  0.00     0.163 HD
BRANCH   7   9
ATOM      9  C   UNL A   1      34.375  31.031  27.565  1.00  0.00     0.039 A 
ATOM     10  C   UNL A   1      34.603  29.779  28.135  1.00  0.00     0.014 A 
ATOM     11  C   UNL A   1      35.339  32.037  27.664  1.00  0.00     0.014 A 
ATOM     12  C   UNL A   1      35.708  29.585  28.946  1.00  0.00     0.010 A 
ATOM     13  C   UNL A   1      36.518  31.795  28.378  1.00  0.00     0.010 A 
ATOM     14  C   UNL A   1      36.703  30.573  29.042  1.00  0.00    -0.014 A 
BRANCH  14  15
ATOM     15  C   UNL A   1      37.955  30.231  29.766  1.00  0.00     0.031 A 
ATOM     16  C   UNL A   1      38.225  30.727  31.157  1.00  0.00     0.074 A 
ATOM     17  C   UNL A   1      38.816  29.387  29.161  1.00  0.00     0.049 A 
ATOM     18  N   UNL A   1      39.241  30.462  31.939  1.00  0.00    -0.248 NA
ATOM     19  C   UNL A   1      37.240  31.645  31.745  1.00  0.00     0.031 C 
ATOM     20  C   UNL A   1      38.652  28.856  27.803  1.00  0.00     0.029 A 
ATOM     21  N   UNL A   1      39.968  28.795  29.606  1.00  0.00    -0.354 N 
ATOM     22  C   UNL A   1      39.021  31.176  33.112  1.00  0.00     0.074 A 
ATOM     23  C   UNL A   1      37.796  31.925  32.916  1.00  0.00     0.031 C 
ATOM     24  C   UNL A   1      39.620  27.965  27.555  1.00  0.00     0.029 A 
ATOM     25  C   UNL A   1      40.529  27.933  28.692  1.00  0.00     0.049 A 
ATOM     26  H   UNL A   1      40.357  28.969  30.494  1.00  0.00     0.167 HD
ATOM     27  C   UNL A   1      39.767  31.190  34.245  1.00  0.00     0.034 A 
ATOM     28  C   UNL A   1      41.668  27.216  28.744  1.00  0.00     0.034 A 
ATOM     29  C   UNL A   1      40.993  30.441  34.408  1.00  0.00     0.049 A 
ATOM     30  C   UNL A   1      42.498  27.292  29.995  1.00  0.00     0.074 A 
ATOM     31  C   UNL A   1      41.830  30.386  35.510  1.00  0.00     0.029 A 
ATOM     32  N   UNL A   1      41.564  29.620  33.441  1.00  0.00    -0.354 N 
ATOM     33  N   UNL A   1      42.269  27.969  31.097  1.00  0.00    -0.248 NA
ATOM     34  C   UNL A   1      43.733  26.504  30.014  1.00  0.00     0.031 C 
ATOM     35  C   UNL A   1      42.936  29.593  35.187  1.00  0.00     0.029 A 
ATOM     36  C   UNL A   1      42.751  29.078  33.913  1.00  0.00     0.049 A 
ATOM     37  H   UNL A   1      41.180  29.447  32.551  1.00  0.00     0.167 HD
ATOM     38  C   UNL A   1      43.329  27.674  31.948  1.00  0.00     0.074 A 
ATOM     39  C   UNL A   1      44.169  26.726  31.244  1.00  0.00     0.031 C 
ATOM     40  C   UNL A   1      43.592  28.150  33.191  1.00  0.00     0.034 A 
BRANCH  27  41
ATOM     41  C   UNL A   1      39.296  32.067  35.382  1.00  0.00     0.023 A 
ATOM     42  C   UNL A   1      39.695  33.410  35.493  1.00  0.00     0.031 A 
ATOM     43  C   UNL A   1      38.432  31.556  36.368  1.00  0.00     0.131 A 
ATOM     44  C   UNL A   1      39.279  34.179  36.592  1.00  0.00     0.055 A 
ATOM     45  C   UNL A   1      37.958  32.348  37.416  1.00  0.00     0.041 A 
ATOM     46  F   UNL A   1      38.033  30.275  36.330  1.00  0.00    -0.206 F 
ATOM     47  C   UNL A   1      38.391  33.665  37.539  1.00  0.00     0.022 A 
BRANCH  44  48
ATOM     48  S   UNL A   1      40.013  35.819  36.833  1.00  0.00     0.124 S 
ATOM     49  O   UNL A   1      41.427  35.488  37.003  1.00  0.00    -0.237 OA
ATOM     50  O   UNL A   1      39.663  36.508  35.597  1.00  0.00    -0.237 OA
ATOM     51  O   UNL A   1      39.350  36.320  38.036  1.00  0.00    -0.744 OA
ENDBRANCH  44  48
ENDBRANCH  27  41
BRANCH  28  52
ATOM     52  C   UNL A   1      42.113  26.419  27.563  1.00  0.00     0.023 A 
ATOM     53  C   UNL A   1      41.961  25.025  27.520  1.00  0.00     0.031 A 
ATOM     54  C   UNL A   1      42.749  27.045  26.474  1.00  0.00     0.131 A 
ATOM     55  C   UNL A   1      42.490  24.298  26.443  1.00  0.00     0.055 A 
ATOM     56  C   UNL A   1      43.205  26.326  25.370  1.00  0.00     0.041 A 
ATOM     57  F   UNL A   1      42.923  28.376  26.461  1.00  0.00    -0.206 F 
ATOM     58  C   UNL A   1      43.094  24.941  25.360  1.00  0.00     0.022 A 
BRANCH  55  59
ATOM     59  S   UNL A   1      42.489  22.488  26.536  1.00  0.00     0.124 S 
ATOM     60  O   UNL A   1      43.744  22.156  25.871  1.00  0.00    -0.237 OA
ATOM     61  O   UNL A   1      42.447  22.259  27.977  1.00  0.00    -0.237 OA
ATOM     62  O   UNL A   1      41.278  22.112  25.811  1.00  0.00    -0.744 OA
ENDBRANCH  55  59
ENDBRANCH  28  52
BRANCH  40  63
ATOM     63  C   UNL A   1      44.830  27.613  33.869  1.00  0.00     0.023 A 
ATOM     64  C   UNL A   1      44.786  26.465  34.680  1.00  0.00     0.031 A 
ATOM     65  C   UNL A   1      46.057  28.289  33.749  1.00  0.00     0.131 A 
ATOM     66  C   UNL A   1      45.921  26.079  35.407  1.00  0.00     0.055 A 
ATOM     67  C   UNL A   1      47.204  27.853  34.413  1.00  0.00     0.041 A 
ATOM     68  F   UNL A   1      46.158  29.395  32.993  1.00  0.00    -0.206 F 
ATOM     69  C   UNL A   1      47.136  26.755  35.264  1.00  0.00     0.022 A 
BRANCH  66  70
ATOM     70  S   UNL A   1      45.750  24.769  36.650  1.00  0.00     0.124 S 
ATOM     71  O   UNL A   1      44.400  25.003  37.151  1.00  0.00    -0.237 OA
ATOM     72  O   UNL A   1      45.934  23.559  35.855  1.00  0.00    -0.237 OA
ATOM     73  O   UNL A   1      46.825  25.055  37.599  1.00  0.00    -0.744 OA
ENDBRANCH  66  70
ENDBRANCH  40  63
ENDBRANCH  14  15
ENDBRANCH   7   9
ENDBRANCH   4   5
ENDBRANCH   3   4
ENDBRANCH   2   3
ENDBRANCH   1   2
BRANCH   1  74
ATOM     74  C   UNL A   1      33.852  25.814  24.088  1.00  0.00     0.021 C 
BRANCH  74  75
ATOM     75  C   UNL A   1      34.527  24.462  23.836  1.00  0.00     0.116 C 
BRANCH  75  76
ATOM     76  N   UNL A   1      35.575  24.207  24.808  1.00  0.00    -0.354 N 
ATOM     77  C   UNL A   1      35.933  23.142  25.568  1.00  0.00     0.243 C 
ATOM     78  H   UNL A   1      36.160  24.987  24.948  1.00  0.00     0.163 HD
ATOM     79  O   UNL A   1      36.977  23.309  26.219  1.00  0.00    -0.273 OA
BRANCH  77  80
ATOM     80  C   UNL A   1      35.096  21.846  25.799  1.00  0.00     0.179 C 
ATOM     81  C   UNL A   1      35.646  20.793  24.789  1.00  0.00     0.071 C 
ATOM     82  N   UNL A   1      33.615  21.900  25.824  1.00  0.00    -0.323 N 
ATOM     83  C   UNL A   1      34.763  19.576  24.706  1.00  0.00    -0.040 A 
ATOM     84  C   UNL A   1      32.903  21.230  24.733  1.00  0.00     0.156 C 
ATOM     85  C   UNL A   1      35.274  18.277  24.649  1.00  0.00     0.004 A 
ATOM     86  C   UNL A   1      33.375  19.795  24.667  1.00  0.00    -0.025 A 
ATOM     87  C   UNL A   1      34.400  17.193  24.589  1.00  0.00     0.000 A 
ATOM     88  C   UNL A   1      32.505  18.705  24.600  1.00  0.00     0.006 A 
ATOM     89  C   UNL A   1      33.020  17.406  24.568  1.00  0.00     0.000 A 
BRANCH  82  90
ATOM     90  C   UNL A   1      32.867  22.254  26.942  1.00  0.00     0.261 C 
ATOM     91  O   UNL A   1      33.345  22.227  28.078  1.00  0.00    -0.271 OA
BRANCH  90  92
ATOM     92  C   UNL A   1      31.405  22.663  26.743  1.00  0.00     0.329 C 
BRANCH  92  93
ATOM     93  O   UNL A   1      31.147  24.018  27.091  1.00  0.00    -0.484 OA
BRANCH  93  94
ATOM     94  C   UNL A   1      30.809  24.731  25.976  1.00  0.00     0.120 A 
ATOM     95  C   UNL A   1      30.663  24.048  24.771  1.00  0.00     0.046 A 
ATOM     96  C   UNL A   1      30.640  26.112  26.042  1.00  0.00     0.046 A 
ATOM     97  C   UNL A   1      30.307  24.754  23.624  1.00  0.00     0.004 A 
ATOM     98  C   UNL A   1      30.279  26.813  24.895  1.00  0.00     0.004 A 
ATOM     99  C   UNL A   1      30.112  26.135  23.688  1.00  0.00     0.000 A 
ENDBRANCH  93  94
ENDBRANCH  92  93
ENDBRANCH  90  92
ENDBRANCH  82  90
ENDBRANCH  77  80
ENDBRANCH  75  76
ENDBRANCH  74  75
ENDBRANCH   1  74
TORSDOF 20
ENDMDL
MODEL 3
REMARK VINA RESULT:     -12.0      4.426      9.916
REMARK SMILES O=C(NCCCCCCNC(=O)[C@@H]1Cc2ccccc2CN1C(=O)COc1ccccc1)c1ccc(-c2c3nc(c(-c4cc(S(=O)(=O)[O-])ccc4F)c4ccc([nH]4)c(-c4cc(S(=O)(=O)[O-])ccc4F)c4nc(c(-c5cc(S(=O)(=O)[O-])ccc5F)c5ccc2[nH]5)C=C4)C=C3)cc1
REMARK SMILES IDX 7 1 6 2 5 3 4 4 3 5 1 6 2 7 33 9 34 10 95 11 35 12 94 13
REMARK SMILES IDX 36 14 37 15 38 16 88 17 39 18 93 19 87 20 89 21 40 22 92 23
REMARK SMILES IDX 86 24 85 25 41 27 73 28 53 29 72 30 54 31 57 32 71 33 90 34
REMARK SMILES IDX 55 35 56 36 70 38 91 39 58 40 42 41 43 42 51 43 44 44 50 45
REMARK SMILES IDX 52 46 49 47 45 48 46 49 47 50 48 51 74 52 75 53 83 54 76 55
REMARK SMILES IDX 82 56 84 57 81 58 77 59 78 60 79 61 80 62 59 63 60 64 68 65
REMARK SMILES IDX 61 66 67 67 69 68 66 69 62 70 63 71 64 72 65 73 8 74 9 75
REMARK SMILES IDX 10 76 11 77 12 79 13 80 14 81 22 82 15 83 21 84 16 85 20 86
REMARK SMILES IDX 17 87 19 88 18 89 23 90 24 91 25 92 26 93 27 94 28 95 32 96
REMARK SMILES IDX 29 97 31 98 30 99
REMARK H PARENT 3 8 89 26 57 37 10 78
REMARK Flexibility Score: inf
ROOT
ATOM      1  C   UNL A   1      33.544  21.580  25.014  1.00  0.00     0.002 C 
ENDROOT
BRANCH   1   2
ATOM      2  C   UNL A   1      34.853  21.710  25.797  1.00  0.00     0.002 C 
BRANCH   2   3
ATOM      3  C   UNL A   1      35.195  23.129  26.251  1.00  0.00     0.021 C 
BRANCH   3   4
ATOM      4  C   UNL A   1      36.582  23.599  25.831  1.00  0.00     0.116 C 
BRANCH   4   5
ATOM      5  N   UNL A   1      37.584  22.555  26.005  1.00  0.00    -0.352 N 
ATOM      6  O   UNL A   1      39.678  21.724  26.146  1.00  0.00    -0.269 OA
ATOM      7  C   UNL A   1      38.924  22.677  26.293  1.00  0.00     0.251 C 
ATOM      8  H   UNL A   1      37.256  21.633  25.901  1.00  0.00     0.163 HD
BRANCH   7   9
ATOM      9  C   UNL A   1      39.435  23.973  26.782  1.00  0.00     0.039 A 
ATOM     10  C   UNL A   1      39.343  24.274  28.141  1.00  0.00     0.014 A 
ATOM     11  C   UNL A   1      40.002  24.891  25.894  1.00  0.00     0.014 A 
ATOM     12  C   UNL A   1      39.653  25.548  28.584  1.00  0.00     0.010 A 
ATOM     13  C   UNL A   1      40.436  26.133  26.369  1.00  0.00     0.010 A 
ATOM     14  C   UNL A   1      40.246  26.479  27.715  1.00  0.00    -0.014 A 
BRANCH  14  15
ATOM     15  C   UNL A   1      40.736  27.757  28.295  1.00  0.00     0.031 A 
ATOM     16  C   UNL A   1      42.199  28.087  28.360  1.00  0.00     0.074 A 
ATOM     17  C   UNL A   1      39.813  28.657  28.693  1.00  0.00     0.049 A 
ATOM     18  N   UNL A   1      42.773  29.187  28.779  1.00  0.00    -0.248 NA
ATOM     19  C   UNL A   1      43.141  27.053  27.909  1.00  0.00     0.031 C 
ATOM     20  C   UNL A   1      38.363  28.429  28.683  1.00  0.00     0.029 A 
ATOM     21  N   UNL A   1      39.937  29.945  29.142  1.00  0.00    -0.354 N 
ATOM     22  C   UNL A   1      44.142  28.982  28.642  1.00  0.00     0.074 A 
ATOM     23  C   UNL A   1      44.311  27.630  28.147  1.00  0.00     0.031 C 
ATOM     24  C   UNL A   1      37.734  29.558  29.033  1.00  0.00     0.029 A 
ATOM     25  C   UNL A   1      38.730  30.559  29.388  1.00  0.00     0.049 A 
ATOM     26  H   UNL A   1      40.806  30.389  29.276  1.00  0.00     0.167 HD
ATOM     27  C   UNL A   1      45.155  29.848  28.895  1.00  0.00     0.034 A 
ATOM     28  C   UNL A   1      38.450  31.782  29.876  1.00  0.00     0.034 A 
ATOM     29  C   UNL A   1      44.958  31.188  29.402  1.00  0.00     0.049 A 
ATOM     30  C   UNL A   1      39.597  32.700  30.194  1.00  0.00     0.074 A 
ATOM     31  C   UNL A   1      45.912  32.147  29.699  1.00  0.00     0.029 A 
ATOM     32  N   UNL A   1      43.724  31.760  29.693  1.00  0.00    -0.354 N 
ATOM     33  N   UNL A   1      40.885  32.489  30.052  1.00  0.00    -0.248 NA
ATOM     34  C   UNL A   1      39.254  34.020  30.730  1.00  0.00     0.031 C 
ATOM     35  C   UNL A   1      45.264  33.266  30.232  1.00  0.00     0.029 A 
ATOM     36  C   UNL A   1      43.896  33.045  30.189  1.00  0.00     0.049 A 
ATOM     37  H   UNL A   1      42.854  31.318  29.565  1.00  0.00     0.167 HD
ATOM     38  C   UNL A   1      41.507  33.662  30.469  1.00  0.00     0.074 A 
ATOM     39  C   UNL A   1      40.447  34.584  30.824  1.00  0.00     0.031 C 
ATOM     40  C   UNL A   1      42.831  33.947  30.560  1.00  0.00     0.034 A 
BRANCH  27  41
ATOM     41  C   UNL A   1      46.567  29.362  28.661  1.00  0.00     0.023 A 
ATOM     42  C   UNL A   1      47.261  28.617  29.631  1.00  0.00     0.031 A 
ATOM     43  C   UNL A   1      47.228  29.641  27.452  1.00  0.00     0.131 A 
ATOM     44  C   UNL A   1      48.591  28.226  29.398  1.00  0.00     0.055 A 
ATOM     45  C   UNL A   1      48.522  29.184  27.195  1.00  0.00     0.041 A 
ATOM     46  F   UNL A   1      46.627  30.367  26.496  1.00  0.00    -0.206 F 
ATOM     47  C   UNL A   1      49.216  28.481  28.176  1.00  0.00     0.022 A 
BRANCH  44  48
ATOM     48  S   UNL A   1      49.531  27.492  30.763  1.00  0.00     0.124 S 
ATOM     49  O   UNL A   1      48.861  26.202  30.924  1.00  0.00    -0.237 OA
ATOM     50  O   UNL A   1      50.886  27.445  30.227  1.00  0.00    -0.237 OA
ATOM     51  O   UNL A   1      49.328  28.431  31.865  1.00  0.00    -0.744 OA
ENDBRANCH  44  48
ENDBRANCH  27  41
BRANCH  28  52
ATOM     52  C   UNL A   1      37.037  32.180  30.147  1.00  0.00     0.023 A 
ATOM     53  C   UNL A   1      36.261  32.832  29.176  1.00  0.00     0.031 A 
ATOM     54  C   UNL A   1      36.457  31.957  31.410  1.00  0.00     0.131 A 
ATOM     55  C   UNL A   1      34.976  33.290  29.502  1.00  0.00     0.055 A 
ATOM     56  C   UNL A   1      35.152  32.346  31.705  1.00  0.00     0.041 A 
ATOM     57  F   UNL A   1      37.153  31.339  32.378  1.00  0.00    -0.206 F 
ATOM     58  C   UNL A   1      34.409  33.034  30.753  1.00  0.00     0.022 A 
BRANCH  55  59
ATOM     59  S   UNL A   1      34.099  34.335  28.308  1.00  0.00     0.124 S 
ATOM     60  O   UNL A   1      32.974  33.483  27.939  1.00  0.00    -0.237 OA
ATOM     61  O   UNL A   1      33.779  35.509  29.112  1.00  0.00    -0.237 OA
ATOM     62  O   UNL A   1      35.090  34.552  27.256  1.00  0.00    -0.744 OA
ENDBRANCH  55  59
ENDBRANCH  28  52
BRANCH  40  63
ATOM     63  C   UNL A   1      43.187  35.336  31.037  1.00  0.00     0.023 A 
ATOM     64  C   UNL A   1      43.408  36.390  30.133  1.00  0.00     0.031 A 
ATOM     65  C   UNL A   1      43.364  35.593  32.408  1.00  0.00     0.131 A 
ATOM     66  C   UNL A   1      43.877  37.625  30.602  1.00  0.00     0.055 A 
ATOM     67  C   UNL A   1      43.754  36.849  32.875  1.00  0.00     0.041 A 
ATOM     68  F   UNL A   1      43.173  34.623  33.317  1.00  0.00    -0.206 F 
ATOM     69  C   UNL A   1      44.033  37.868  31.969  1.00  0.00     0.022 A 
BRANCH  66  70
ATOM     70  S   UNL A   1      44.414  38.864  29.391  1.00  0.00     0.124 S 
ATOM     71  O   UNL A   1      45.866  38.808  29.526  1.00  0.00    -0.237 OA
ATOM     72  O   UNL A   1      43.869  38.339  28.144  1.00  0.00    -0.237 OA
ATOM     73  O   UNL A   1      43.793  40.100  29.867  1.00  0.00    -0.744 OA
ENDBRANCH  66  70
ENDBRANCH  40  63
ENDBRANCH  14  15
ENDBRANCH   7   9
ENDBRANCH   4   5
ENDBRANCH   3   4
ENDBRANCH   2   3
ENDBRANCH   1   2
BRANCH   1  74
ATOM     74  C   UNL A   1      32.344  22.304  25.632  1.00  0.00     0.021 C 
BRANCH  74  75
ATOM     75  C   UNL A   1      31.748  23.415  24.762  1.00  0.00     0.116 C 
BRANCH  75  76
ATOM     76  N   UNL A   1      32.637  23.761  23.667  1.00  0.00    -0.354 N 
ATOM     77  C   UNL A   1      33.275  24.893  23.277  1.00  0.00     0.243 C 
ATOM     78  H   UNL A   1      32.818  22.998  23.071  1.00  0.00     0.163 HD
ATOM     79  O   UNL A   1      34.037  24.739  22.309  1.00  0.00    -0.273 OA
BRANCH  77  80
ATOM     80  C   UNL A   1      33.021  26.333  23.819  1.00  0.00     0.179 C 
ATOM     81  C   UNL A   1      33.832  26.442  25.146  1.00  0.00     0.071 C 
ATOM     82  N   UNL A   1      31.640  26.858  23.944  1.00  0.00    -0.323 N 
ATOM     83  C   UNL A   1      33.476  27.680  25.925  1.00  0.00    -0.040 A 
ATOM     84  C   UNL A   1      31.138  27.101  25.299  1.00  0.00     0.156 C 
ATOM     85  C   UNL A   1      34.436  28.474  26.558  1.00  0.00     0.004 A 
ATOM     86  C   UNL A   1      32.112  28.010  26.013  1.00  0.00    -0.025 A 
ATOM     87  C   UNL A   1      34.039  29.617  27.250  1.00  0.00     0.000 A 
ATOM     88  C   UNL A   1      31.721  29.153  26.713  1.00  0.00     0.006 A 
ATOM     89  C   UNL A   1      32.686  29.957  27.324  1.00  0.00     0.000 A 
BRANCH  82  90
ATOM     90  C   UNL A   1      30.923  27.423  22.895  1.00  0.00     0.261 C 
ATOM     91  O   UNL A   1      31.037  27.014  21.737  1.00  0.00    -0.271 OA
BRANCH  90  92
ATOM     92  C   UNL A   1      29.989  28.597  23.198  1.00  0.00     0.329 C 
BRANCH  92  93
ATOM     93  O   UNL A   1      29.114  28.912  22.121  1.00  0.00    -0.484 OA
BRANCH  93  94
ATOM     94  C   UNL A   1      28.823  30.246  22.129  1.00  0.00     0.120 A 
ATOM     95  C   UNL A   1      29.024  30.961  23.307  1.00  0.00     0.046 A 
ATOM     96  C   UNL A   1      28.312  30.868  20.992  1.00  0.00     0.046 A 
ATOM     97  C   UNL A   1      28.744  32.326  23.336  1.00  0.00     0.004 A 
ATOM     98  C   UNL A   1      28.039  32.232  21.022  1.00  0.00     0.004 A 
ATOM     99  C   UNL A   1      28.256  32.960  22.191  1.00  0.00     0.000 A 
ENDBRANCH  93  94
ENDBRANCH  92  93
ENDBRANCH  90  92
ENDBRANCH  82  90
ENDBRANCH  77  80
ENDBRANCH  75  76
ENDBRANCH  74  75
ENDBRANCH   1  74
TORSDOF 20
ENDMDL
