MODEL 1
REMARK VINA RESULT:     -12.2      0.000      0.000
REMARK SMILES C/C(=N\NC(N)=S)c1nnn(-c2ccc(C(=O)NCCCCCCNC(=O)c3ccc(-c4c5nc(c(-c6cc(S(=O)(=O)[O-])ccc6F)c6ccc([nH]6)c(-c6cc(S(=O)(=O)[O-])ccc6F)c6nc(c(-c7cc(S(=O)(=O)[O-])ccc7F)c7ccc4[nH]7)C=C6)C=C5)cc3)cc2)c1C
REMARK SMILES IDX 20 1 19 2 18 3 16 4 17 5 15 7 12 8 13 9 92 10 14 11 91 12
REMARK SMILES IDX 11 13 8 14 9 15 93 16 10 17 94 18 2 19 1 20 3 21 4 22 5 24
REMARK SMILES IDX 7 25 6 26 21 29 22 30 23 31 24 32 25 33 26 34 27 36 28 37
REMARK SMILES IDX 29 38 90 39 30 40 89 41 31 42 32 43 33 44 83 45 34 46 88 47
REMARK SMILES IDX 82 48 84 49 35 50 87 51 81 52 80 53 36 55 68 56 48 57 67 58
REMARK SMILES IDX 49 59 52 60 66 61 85 62 50 63 51 64 65 66 86 67 53 68 37 69
REMARK SMILES IDX 38 70 46 71 39 72 45 73 47 74 44 75 40 76 41 77 42 78 43 79
REMARK SMILES IDX 69 80 70 81 78 82 71 83 77 84 79 85 76 86 72 87 73 88 74 89
REMARK SMILES IDX 75 90 54 91 55 92 63 93 56 94 62 95 64 96 61 97 57 98 58 99
REMARK SMILES IDX 59 100 60 101
REMARK H PARENT 18 6 4 23 6 27 6 28 25 35 84 54 52 65
REMARK Flexibility Score: inf
ROOT
ATOM      1  C   UNL A   1      35.172  21.076  25.826  1.00  0.00     0.021 C 
ENDROOT
BRANCH   1   2
ATOM      2  C   UNL A   1      35.277  19.799  24.990  1.00  0.00     0.116 C 
BRANCH   2   3
ATOM      3  N   UNL A   1      34.013  19.082  24.990  1.00  0.00    -0.352 N 
ATOM      4  C   UNL A   1      32.721  19.466  24.730  1.00  0.00     0.251 C 
ATOM      5  O   UNL A   1      31.849  18.596  24.754  1.00  0.00    -0.269 OA
ATOM      6  H   UNL A   1      34.101  18.130  25.224  1.00  0.00     0.163 HD
BRANCH   4   7
ATOM      7  C   UNL A   1      32.352  20.852  24.322  1.00  0.00     0.039 A 
ATOM      8  C   UNL A   1      32.106  23.506  23.509  1.00  0.00     0.067 A 
ATOM      9  C   UNL A   1      32.425  22.536  22.557  1.00  0.00     0.029 A 
ATOM     10  C   UNL A   1      31.773  23.148  24.815  1.00  0.00     0.029 A 
ATOM     11  C   UNL A   1      32.577  21.213  22.979  1.00  0.00     0.016 A 
ATOM     12  C   UNL A   1      31.836  21.810  25.196  1.00  0.00     0.016 A 
BRANCH   8  13
ATOM     13  N   UNL A   1      32.232  24.867  23.190  1.00  0.00    -0.217 N 
ATOM     14  C   UNL A   1      31.884  26.992  22.900  1.00  0.00     0.132 A 
ATOM     15  N   UNL A   1      33.210  26.724  22.671  1.00  0.00    -0.128 NA
ATOM     16  C   UNL A   1      31.245  25.833  23.293  1.00  0.00     0.071 A 
ATOM     17  N   UNL A   1      33.426  25.444  22.944  1.00  0.00    -0.061 NA
ATOM     18  C   UNL A   1      29.902  25.605  23.876  1.00  0.00     0.069 C 
BRANCH  14  19
ATOM     19  C   UNL A   1      31.379  28.351  22.960  1.00  0.00     0.087 C 
ATOM     20  C   UNL A   1      31.589  29.063  24.268  1.00  0.00     0.071 C 
ATOM     21  N   UNL A   1      30.850  28.805  21.863  1.00  0.00    -0.176 NA
BRANCH  21  22
ATOM     22  N   UNL A   1      30.425  30.095  21.724  1.00  0.00    -0.254 N 
ATOM     23  H   UNL A   1      31.094  30.718  21.358  1.00  0.00     0.193 HD
BRANCH  22  24
ATOM     24  C   UNL A   1      29.199  30.655  22.018  1.00  0.00     0.184 C 
ATOM     25  S   UNL A   1      27.809  29.948  22.593  1.00  0.00    -0.040 S 
BRANCH  24  26
ATOM     26  N   UNL A   1      29.184  32.003  21.779  1.00  0.00    -0.375 N 
ATOM     27  H   UNL A   1      29.001  32.341  20.873  1.00  0.00     0.159 HD
ATOM     28  H   UNL A   1      29.356  32.636  22.515  1.00  0.00     0.159 HD
ENDBRANCH  24  26
ENDBRANCH  22  24
ENDBRANCH  21  22
ENDBRANCH  14  19
ENDBRANCH   8  13
ENDBRANCH   4   7
ENDBRANCH   2   3
ENDBRANCH   1   2
BRANCH   1  29
ATOM     29  C   UNL A   1      35.571  22.343  25.057  1.00  0.00     0.002 C 
BRANCH  29  30
ATOM     30  C   UNL A   1      37.048  22.434  24.632  1.00  0.00     0.002 C 
BRANCH  30  31
ATOM     31  C   UNL A   1      37.791  23.732  24.990  1.00  0.00     0.021 C 
BRANCH  31  32
ATOM     32  C   UNL A   1      38.121  23.854  26.468  1.00  0.00     0.116 C 
BRANCH  32  33
ATOM     33  N   UNL A   1      39.054  22.813  26.938  1.00  0.00    -0.352 N 
ATOM     34  C   UNL A   1      40.329  22.956  27.465  1.00  0.00     0.251 C 
ATOM     35  H   UNL A   1      38.725  21.888  26.868  1.00  0.00     0.163 HD
ATOM     36  O   UNL A   1      41.127  22.008  27.433  1.00  0.00    -0.269 OA
BRANCH  34  37
ATOM     37  C   UNL A   1      40.714  24.240  28.069  1.00  0.00     0.039 A 
ATOM     38  C   UNL A   1      42.012  24.609  28.440  1.00  0.00     0.014 A 
ATOM     39  C   UNL A   1      39.687  25.149  28.202  1.00  0.00     0.014 A 
ATOM     40  C   UNL A   1      42.205  25.898  28.945  1.00  0.00     0.010 A 
ATOM     41  C   UNL A   1      40.002  26.462  28.172  1.00  0.00     0.010 A 
ATOM     42  C   UNL A   1      41.151  26.813  28.835  1.00  0.00    -0.014 A 
BRANCH  42  43
ATOM     43  C   UNL A   1      41.151  28.178  29.328  1.00  0.00     0.031 A 
ATOM     44  C   UNL A   1      42.159  29.034  28.677  1.00  0.00     0.074 A 
ATOM     45  C   UNL A   1      40.115  28.690  30.040  1.00  0.00     0.049 A 
ATOM     46  N   UNL A   1      43.275  29.444  29.171  1.00  0.00    -0.248 NA
ATOM     47  C   UNL A   1      42.010  29.296  27.236  1.00  0.00     0.031 C 
ATOM     48  C   UNL A   1      38.846  28.057  30.434  1.00  0.00     0.029 A 
ATOM     49  N   UNL A   1      39.938  29.965  30.474  1.00  0.00    -0.354 N 
ATOM     50  C   UNL A   1      43.839  30.246  28.188  1.00  0.00     0.074 A 
ATOM     51  C   UNL A   1      43.175  29.888  26.965  1.00  0.00     0.031 C 
ATOM     52  C   UNL A   1      37.966  29.001  30.844  1.00  0.00     0.029 A 
ATOM     53  C   UNL A   1      38.648  30.281  30.896  1.00  0.00     0.049 A 
ATOM     54  H   UNL A   1      40.672  30.621  30.489  1.00  0.00     0.167 HD
ATOM     55  C   UNL A   1      44.594  31.331  28.515  1.00  0.00     0.034 A 
ATOM     56  C   UNL A   1      38.181  31.518  31.228  1.00  0.00     0.034 A 
ATOM     57  C   UNL A   1      44.936  31.312  29.924  1.00  0.00     0.049 A 
ATOM     58  C   UNL A   1      39.383  32.337  31.550  1.00  0.00     0.074 A 
ATOM     59  C   UNL A   1      45.588  30.410  30.745  1.00  0.00     0.029 A 
ATOM     60  N   UNL A   1      44.204  32.115  30.775  1.00  0.00    -0.354 N 
ATOM     61  N   UNL A   1      40.182  32.063  32.550  1.00  0.00    -0.248 NA
ATOM     62  C   UNL A   1      39.995  33.099  30.470  1.00  0.00     0.031 C 
ATOM     63  C   UNL A   1      44.801  30.375  31.938  1.00  0.00     0.029 A 
ATOM     64  C   UNL A   1      43.783  31.326  31.821  1.00  0.00     0.049 A 
ATOM     65  H   UNL A   1      44.017  33.074  30.656  1.00  0.00     0.167 HD
ATOM     66  C   UNL A   1      41.467  32.226  32.048  1.00  0.00     0.074 A 
ATOM     67  C   UNL A   1      41.286  32.945  30.785  1.00  0.00     0.031 C 
ATOM     68  C   UNL A   1      42.525  31.502  32.530  1.00  0.00     0.034 A 
BRANCH  55  69
ATOM     69  C   UNL A   1      44.720  32.583  27.678  1.00  0.00     0.023 A 
ATOM     70  C   UNL A   1      44.093  33.743  28.168  1.00  0.00     0.031 A 
ATOM     71  C   UNL A   1      45.173  32.650  26.339  1.00  0.00     0.131 A 
ATOM     72  C   UNL A   1      43.857  34.846  27.331  1.00  0.00     0.055 A 
ATOM     73  C   UNL A   1      45.000  33.777  25.532  1.00  0.00     0.041 A 
ATOM     74  F   UNL A   1      45.719  31.610  25.701  1.00  0.00    -0.206 F 
ATOM     75  C   UNL A   1      44.308  34.873  26.015  1.00  0.00     0.022 A 
BRANCH  72  76
ATOM     76  S   UNL A   1      42.786  36.171  27.943  1.00  0.00     0.124 S 
ATOM     77  O   UNL A   1      41.637  36.059  27.052  1.00  0.00    -0.237 OA
ATOM     78  O   UNL A   1      42.570  35.764  29.328  1.00  0.00    -0.237 OA
ATOM     79  O   UNL A   1      43.600  37.371  27.765  1.00  0.00    -0.744 OA
ENDBRANCH  72  76
ENDBRANCH  55  69
BRANCH  56  80
ATOM     80  C   UNL A   1      36.843  32.089  30.875  1.00  0.00     0.023 A 
ATOM     81  C   UNL A   1      36.032  32.815  31.778  1.00  0.00     0.031 A 
ATOM     82  C   UNL A   1      36.441  32.113  29.518  1.00  0.00     0.131 A 
ATOM     83  C   UNL A   1      34.883  33.509  31.312  1.00  0.00     0.055 A 
ATOM     84  C   UNL A   1      35.310  32.797  29.066  1.00  0.00     0.041 A 
ATOM     85  F   UNL A   1      37.187  31.533  28.564  1.00  0.00    -0.206 F 
ATOM     86  C   UNL A   1      34.528  33.506  29.961  1.00  0.00     0.022 A 
BRANCH  83  87
ATOM     87  S   UNL A   1      33.859  34.500  32.454  1.00  0.00     0.124 S 
ATOM     88  O   UNL A   1      32.888  35.108  31.554  1.00  0.00    -0.237 OA
ATOM     89  O   UNL A   1      33.349  33.490  33.374  1.00  0.00    -0.237 OA
ATOM     90  O   UNL A   1      34.815  35.438  33.047  1.00  0.00    -0.744 OA
ENDBRANCH  83  87
ENDBRANCH  56  80
BRANCH  68  91
ATOM     91  C   UNL A   1      42.320  30.658  33.780  1.00  0.00     0.023 A 
ATOM     92  C   UNL A   1      42.009  29.275  33.788  1.00  0.00     0.031 A 
ATOM     93  C   UNL A   1      42.601  31.262  35.017  1.00  0.00     0.131 A 
ATOM     94  C   UNL A   1      41.984  28.560  35.006  1.00  0.00     0.055 A 
ATOM     95  C   UNL A   1      42.596  30.546  36.215  1.00  0.00     0.041 A 
ATOM     96  F   UNL A   1      42.933  32.562  35.078  1.00  0.00    -0.206 F 
ATOM     97  C   UNL A   1      42.283  29.193  36.215  1.00  0.00     0.022 A 
BRANCH  94  98
ATOM     98  S   UNL A   1      41.554  26.786  35.040  1.00  0.00     0.124 S 
ATOM     99  O   UNL A   1      42.773  26.132  34.581  1.00  0.00    -0.237 OA
ATOM    100  O   UNL A   1      41.200  26.570  36.440  1.00  0.00    -0.237 OA
ATOM    101  O   UNL A   1      40.426  26.691  34.110  1.00  0.00    -0.744 OA
ENDBRANCH  94  98
ENDBRANCH  68  91
ENDBRANCH  42  43
ENDBRANCH  34  37
ENDBRANCH  32  33
ENDBRANCH  31  32
ENDBRANCH  30  31
ENDBRANCH  29  30
ENDBRANCH   1  29
TORSDOF 21
ENDMDL
MODEL 2
REMARK VINA RESULT:     -12.1      4.001      8.454
REMARK SMILES C/C(=N\NC(N)=S)c1nnn(-c2ccc(C(=O)NCCCCCCNC(=O)c3ccc(-c4c5nc(c(-c6cc(S(=O)(=O)[O-])ccc6F)c6ccc([nH]6)c(-c6cc(S(=O)(=O)[O-])ccc6F)c6nc(c(-c7cc(S(=O)(=O)[O-])ccc7F)c7ccc4[nH]7)C=C6)C=C5)cc3)cc2)c1C
REMARK SMILES IDX 20 1 19 2 18 3 16 4 17 5 15 7 12 8 13 9 92 10 14 11 91 12
REMARK SMILES IDX 11 13 8 14 9 15 93 16 10 17 94 18 2 19 1 20 3 21 4 22 5 24
REMARK SMILES IDX 7 25 6 26 21 29 22 30 23 31 24 32 25 33 26 34 27 36 28 37
REMARK SMILES IDX 29 38 90 39 30 40 89 41 31 42 32 43 33 44 83 45 34 46 88 47
REMARK SMILES IDX 82 48 84 49 35 50 87 51 81 52 80 53 36 55 68 56 48 57 67 58
REMARK SMILES IDX 49 59 52 60 66 61 85 62 50 63 51 64 65 66 86 67 53 68 37 69
REMARK SMILES IDX 38 70 46 71 39 72 45 73 47 74 44 75 40 76 41 77 42 78 43 79
REMARK SMILES IDX 69 80 70 81 78 82 71 83 77 84 79 85 76 86 72 87 73 88 74 89
REMARK SMILES IDX 75 90 54 91 55 92 63 93 56 94 62 95 64 96 61 97 57 98 58 99
REMARK SMILES IDX 59 100 60 101
REMARK H PARENT 18 6 4 23 6 27 6 28 25 35 84 54 52 65
REMARK Flexibility Score: inf
ROOT
ATOM      1  C   UNL A   1      34.815  23.921  25.469  1.00  0.00     0.021 C 
ENDROOT
BRANCH   1   2
ATOM      2  C   UNL A   1      34.208  24.722  24.315  1.00  0.00     0.116 C 
BRANCH   2   3
ATOM      3  N   UNL A   1      32.756  24.693  24.379  1.00  0.00    -0.352 N 
ATOM      4  C   UNL A   1      31.824  25.583  24.852  1.00  0.00     0.251 C 
ATOM      5  O   UNL A   1      30.635  25.294  24.712  1.00  0.00    -0.269 OA
ATOM      6  H   UNL A   1      32.363  23.870  24.010  1.00  0.00     0.163 HD
BRANCH   4   7
ATOM      7  C   UNL A   1      32.186  26.910  25.425  1.00  0.00     0.039 A 
ATOM      8  C   UNL A   1      32.425  29.492  26.446  1.00  0.00     0.067 A 
ATOM      9  C   UNL A   1      31.822  28.510  27.231  1.00  0.00     0.029 A 
ATOM     10  C   UNL A   1      33.031  29.169  25.232  1.00  0.00     0.029 A 
ATOM     11  C   UNL A   1      31.677  27.226  26.699  1.00  0.00     0.016 A 
ATOM     12  C   UNL A   1      32.963  27.860  24.759  1.00  0.00     0.016 A 
BRANCH   8  13
ATOM     13  N   UNL A   1      32.327  30.843  26.815  1.00  0.00    -0.217 N 
ATOM     14  C   UNL A   1      32.704  32.832  27.603  1.00  0.00     0.132 A 
ATOM     15  N   UNL A   1      31.561  32.864  26.845  1.00  0.00    -0.128 NA
ATOM     16  C   UNL A   1      33.250  31.565  27.553  1.00  0.00     0.071 A 
ATOM     17  N   UNL A   1      31.396  31.668  26.295  1.00  0.00    -0.061 NA
ATOM     18  C   UNL A   1      34.571  31.051  27.983  1.00  0.00     0.069 C 
BRANCH  14  19
ATOM     19  C   UNL A   1      33.314  34.045  28.116  1.00  0.00     0.087 C 
ATOM     20  C   UNL A   1      34.778  34.211  27.812  1.00  0.00     0.071 C 
ATOM     21  N   UNL A   1      32.514  34.863  28.733  1.00  0.00    -0.176 NA
BRANCH  21  22
ATOM     22  N   UNL A   1      32.909  36.090  29.180  1.00  0.00    -0.254 N 
ATOM     23  H   UNL A   1      33.015  36.776  28.481  1.00  0.00     0.193 HD
BRANCH  22  24
ATOM     24  C   UNL A   1      33.183  36.513  30.464  1.00  0.00     0.184 C 
ATOM     25  S   UNL A   1      33.340  35.639  31.870  1.00  0.00    -0.040 S 
BRANCH  24  26
ATOM     26  N   UNL A   1      33.339  37.872  30.531  1.00  0.00    -0.375 N 
ATOM     27  H   UNL A   1      32.869  38.454  29.891  1.00  0.00     0.159 HD
ATOM     28  H   UNL A   1      33.921  38.268  31.220  1.00  0.00     0.159 HD
ENDBRANCH  24  26
ENDBRANCH  22  24
ENDBRANCH  21  22
ENDBRANCH  14  19
ENDBRANCH   8  13
ENDBRANCH   4   7
ENDBRANCH   2   3
ENDBRANCH   1   2
BRANCH   1  29
ATOM     29  C   UNL A   1      34.662  22.402  25.304  1.00  0.00     0.002 C 
BRANCH  29  30
ATOM     30  C   UNL A   1      35.780  21.544  25.926  1.00  0.00     0.002 C 
BRANCH  30  31
ATOM     31  C   UNL A   1      36.771  20.890  24.948  1.00  0.00     0.021 C 
BRANCH  31  32
ATOM     32  C   UNL A   1      38.222  21.242  25.229  1.00  0.00     0.116 C 
BRANCH  32  33
ATOM     33  N   UNL A   1      39.055  20.062  25.521  1.00  0.00    -0.352 N 
ATOM     34  C   UNL A   1      40.405  20.001  25.835  1.00  0.00     0.251 C 
ATOM     35  H   UNL A   1      38.589  19.196  25.489  1.00  0.00     0.163 HD
ATOM     36  O   UNL A   1      41.041  18.953  25.656  1.00  0.00    -0.269 OA
BRANCH  34  37
ATOM     37  C   UNL A   1      41.065  21.192  26.392  1.00  0.00     0.039 A 
ATOM     38  C   UNL A   1      41.901  22.065  25.687  1.00  0.00     0.014 A 
ATOM     39  C   UNL A   1      40.751  21.467  27.706  1.00  0.00     0.014 A 
ATOM     40  C   UNL A   1      42.394  23.185  26.363  1.00  0.00     0.010 A 
ATOM     41  C   UNL A   1      40.799  22.756  28.107  1.00  0.00     0.010 A 
ATOM     42  C   UNL A   1      41.847  23.493  27.614  1.00  0.00    -0.014 A 
BRANCH  42  43
ATOM     43  C   UNL A   1      42.250  24.589  28.476  1.00  0.00     0.031 A 
ATOM     44  C   UNL A   1      41.309  25.724  28.456  1.00  0.00     0.074 A 
ATOM     45  C   UNL A   1      43.184  24.439  29.448  1.00  0.00     0.049 A 
ATOM     46  N   UNL A   1      41.465  26.860  27.869  1.00  0.00    -0.248 NA
ATOM     47  C   UNL A   1      39.949  25.497  28.970  1.00  0.00     0.031 C 
ATOM     48  C   UNL A   1      43.936  23.238  29.846  1.00  0.00     0.029 A 
ATOM     49  N   UNL A   1      43.583  25.341  30.382  1.00  0.00    -0.354 N 
ATOM     50  C   UNL A   1      40.326  27.592  28.179  1.00  0.00     0.074 A 
ATOM     51  C   UNL A   1      39.346  26.628  28.597  1.00  0.00     0.031 C 
ATOM     52  C   UNL A   1      44.516  23.436  31.054  1.00  0.00     0.029 A 
ATOM     53  C   UNL A   1      44.317  24.819  31.445  1.00  0.00     0.049 A 
ATOM     54  H   UNL A   1      43.367  26.299  30.312  1.00  0.00     0.167 HD
ATOM     55  C   UNL A   1      40.382  28.943  28.341  1.00  0.00     0.034 A 
ATOM     56  C   UNL A   1      44.697  25.481  32.574  1.00  0.00     0.034 A 
ATOM     57  C   UNL A   1      41.647  29.464  27.861  1.00  0.00     0.049 A 
ATOM     58  C   UNL A   1      44.643  26.932  32.237  1.00  0.00     0.074 A 
ATOM     59  C   UNL A   1      42.311  29.420  26.649  1.00  0.00     0.029 A 
ATOM     60  N   UNL A   1      42.620  29.754  28.796  1.00  0.00    -0.354 N 
ATOM     61  N   UNL A   1      45.406  27.476  31.323  1.00  0.00    -0.248 NA
ATOM     62  C   UNL A   1      43.400  27.644  32.501  1.00  0.00     0.031 C 
ATOM     63  C   UNL A   1      43.671  29.143  26.991  1.00  0.00     0.029 A 
ATOM     64  C   UNL A   1      43.780  29.139  28.384  1.00  0.00     0.049 A 
ATOM     65  H   UNL A   1      42.506  30.299  29.608  1.00  0.00     0.167 HD
ATOM     66  C   UNL A   1      44.571  28.325  30.607  1.00  0.00     0.074 A 
ATOM     67  C   UNL A   1      43.366  28.447  31.431  1.00  0.00     0.031 C 
ATOM     68  C   UNL A   1      44.790  28.600  29.284  1.00  0.00     0.034 A 
BRANCH  55  69
ATOM     69  C   UNL A   1      39.478  29.746  29.247  1.00  0.00     0.023 A 
ATOM     70  C   UNL A   1      39.579  29.500  30.628  1.00  0.00     0.031 A 
ATOM     71  C   UNL A   1      38.366  30.522  28.841  1.00  0.00     0.131 A 
ATOM     72  C   UNL A   1      38.575  29.925  31.514  1.00  0.00     0.055 A 
ATOM     73  C   UNL A   1      37.407  31.004  29.736  1.00  0.00     0.041 A 
ATOM     74  F   UNL A   1      38.085  30.780  27.560  1.00  0.00    -0.206 F 
ATOM     75  C   UNL A   1      37.489  30.678  31.078  1.00  0.00     0.022 A 
BRANCH  72  76
ATOM     76  S   UNL A   1      38.621  29.315  33.217  1.00  0.00     0.124 S 
ATOM     77  O   UNL A   1      39.972  28.773  33.301  1.00  0.00    -0.237 OA
ATOM     78  O   UNL A   1      38.368  30.535  33.977  1.00  0.00    -0.237 OA
ATOM     79  O   UNL A   1      37.548  28.325  33.250  1.00  0.00    -0.744 OA
ENDBRANCH  72  76
ENDBRANCH  55  69
BRANCH  56  80
ATOM     80  C   UNL A   1      44.685  24.941  33.970  1.00  0.00     0.023 A 
ATOM     81  C   UNL A   1      45.852  24.624  34.704  1.00  0.00     0.031 A 
ATOM     82  C   UNL A   1      43.472  24.946  34.700  1.00  0.00     0.131 A 
ATOM     83  C   UNL A   1      45.770  24.326  36.090  1.00  0.00     0.055 A 
ATOM     84  C   UNL A   1      43.397  24.652  36.064  1.00  0.00     0.041 A 
ATOM     85  F   UNL A   1      42.319  25.320  34.124  1.00  0.00    -0.206 F 
ATOM     86  C   UNL A   1      44.549  24.347  36.769  1.00  0.00     0.022 A 
BRANCH  83  87
ATOM     87  S   UNL A   1      47.274  23.973  37.064  1.00  0.00     0.124 S 
ATOM     88  O   UNL A   1      48.285  23.806  36.027  1.00  0.00    -0.237 OA
ATOM     89  O   UNL A   1      47.391  25.161  37.901  1.00  0.00    -0.237 OA
ATOM     90  O   UNL A   1      46.933  22.747  37.789  1.00  0.00    -0.744 OA
ENDBRANCH  83  87
ENDBRANCH  56  80
BRANCH  68  91
ATOM     91  C   UNL A   1      46.091  28.132  28.648  1.00  0.00     0.023 A 
ATOM     92  C   UNL A   1      46.331  26.828  28.147  1.00  0.00     0.031 A 
ATOM     93  C   UNL A   1      47.077  29.104  28.411  1.00  0.00     0.131 A 
ATOM     94  C   UNL A   1      47.525  26.544  27.447  1.00  0.00     0.055 A 
ATOM     95  C   UNL A   1      48.245  28.825  27.700  1.00  0.00     0.041 A 
ATOM     96  F   UNL A   1      46.900  30.368  28.832  1.00  0.00    -0.206 F 
ATOM     97  C   UNL A   1      48.476  27.542  27.219  1.00  0.00     0.022 A 
BRANCH  94  98
ATOM     98  S   UNL A   1      47.867  24.863  26.822  1.00  0.00     0.124 S 
ATOM     99  O   UNL A   1      47.772  25.013  25.375  1.00  0.00    -0.237 OA
ATOM    100  O   UNL A   1      49.200  24.590  27.352  1.00  0.00    -0.237 OA
ATOM    101  O   UNL A   1      46.801  24.055  27.420  1.00  0.00    -0.744 OA
ENDBRANCH  94  98
ENDBRANCH  68  91
ENDBRANCH  42  43
ENDBRANCH  34  37
ENDBRANCH  32  33
ENDBRANCH  31  32
ENDBRANCH  30  31
ENDBRANCH  29  30
ENDBRANCH   1  29
TORSDOF 21
ENDMDL
MODEL 3
REMARK VINA RESULT:     -11.6      5.918     11.715
REMARK SMILES C/C(=N\NC(N)=S)c1nnn(-c2ccc(C(=O)NCCCCCCNC(=O)c3ccc(-c4c5nc(c(-c6cc(S(=O)(=O)[O-])ccc6F)c6ccc([nH]6)c(-c6cc(S(=O)(=O)[O-])ccc6F)c6nc(c(-c7cc(S(=O)(=O)[O-])ccc7F)c7ccc4[nH]7)C=C6)C=C5)cc3)cc2)c1C
REMARK SMILES IDX 20 1 19 2 18 3 16 4 17 5 15 7 12 8 13 9 92 10 14 11 91 12
REMARK SMILES IDX 11 13 8 14 9 15 93 16 10 17 94 18 2 19 1 20 3 21 4 22 5 24
REMARK SMILES IDX 7 25 6 26 21 29 22 30 23 31 24 32 25 33 26 34 27 36 28 37
REMARK SMILES IDX 29 38 90 39 30 40 89 41 31 42 32 43 33 44 83 45 34 46 88 47
REMARK SMILES IDX 82 48 84 49 35 50 87 51 81 52 80 53 36 55 68 56 48 57 67 58
REMARK SMILES IDX 49 59 52 60 66 61 85 62 50 63 51 64 65 66 86 67 53 68 37 69
REMARK SMILES IDX 38 70 46 71 39 72 45 73 47 74 44 75 40 76 41 77 42 78 43 79
REMARK SMILES IDX 69 80 70 81 78 82 71 83 77 84 79 85 76 86 72 87 73 88 74 89
REMARK SMILES IDX 75 90 54 91 55 92 63 93 56 94 62 95 64 96 61 97 57 98 58 99
REMARK SMILES IDX 59 100 60 101
REMARK H PARENT 18 6 4 23 6 27 6 28 25 35 84 54 52 65
REMARK Flexibility Score: inf
ROOT
ATOM      1  C   UNL A   1      33.270  34.583  28.791  1.00  0.00     0.021 C 
ENDROOT
BRANCH   1   2
ATOM      2  C   UNL A   1      33.397  36.047  29.218  1.00  0.00     0.116 C 
BRANCH   2   3
ATOM      3  N   UNL A   1      32.533  36.326  30.353  1.00  0.00    -0.352 N 
ATOM      4  C   UNL A   1      32.614  36.013  31.688  1.00  0.00     0.251 C 
ATOM      5  O   UNL A   1      31.735  36.451  32.431  1.00  0.00    -0.269 OA
ATOM      6  H   UNL A   1      31.729  36.842  30.118  1.00  0.00     0.163 HD
BRANCH   4   7
ATOM      7  C   UNL A   1      33.761  35.267  32.279  1.00  0.00     0.039 A 
ATOM      8  C   UNL A   1      35.639  33.823  33.747  1.00  0.00     0.067 A 
ATOM      9  C   UNL A   1      34.546  33.149  33.202  1.00  0.00     0.029 A 
ATOM     10  C   UNL A   1      35.876  35.165  33.449  1.00  0.00     0.029 A 
ATOM     11  C   UNL A   1      33.592  33.886  32.495  1.00  0.00     0.016 A 
ATOM     12  C   UNL A   1      34.965  35.864  32.660  1.00  0.00     0.016 A 
BRANCH   8  13
ATOM     13  N   UNL A   1      36.451  33.187  34.698  1.00  0.00    -0.217 N 
ATOM     14  C   UNL A   1      38.046  32.113  35.709  1.00  0.00     0.132 A 
ATOM     15  N   UNL A   1      37.189  32.623  36.650  1.00  0.00    -0.128 NA
ATOM     16  C   UNL A   1      37.633  32.508  34.452  1.00  0.00     0.071 A 
ATOM     17  N   UNL A   1      36.276  33.354  36.025  1.00  0.00    -0.061 NA
ATOM     18  C   UNL A   1      38.305  32.440  33.134  1.00  0.00     0.069 C 
BRANCH  14  19
ATOM     19  C   UNL A   1      39.308  31.497  36.078  1.00  0.00     0.087 C 
ATOM     20  C   UNL A   1      40.314  32.415  36.715  1.00  0.00     0.071 C 
ATOM     21  N   UNL A   1      39.397  30.219  35.859  1.00  0.00    -0.176 NA
BRANCH  21  22
ATOM     22  N   UNL A   1      40.474  29.475  36.245  1.00  0.00    -0.254 N 
ATOM     23  H   UNL A   1      40.549  29.319  37.215  1.00  0.00     0.193 HD
BRANCH  22  24
ATOM     24  C   UNL A   1      41.473  28.907  35.481  1.00  0.00     0.184 C 
ATOM     25  S   UNL A   1      42.974  29.495  35.074  1.00  0.00    -0.040 S 
BRANCH  24  26
ATOM     26  N   UNL A   1      41.116  27.671  35.012  1.00  0.00    -0.375 N 
ATOM     27  H   UNL A   1      40.728  27.005  35.624  1.00  0.00     0.159 HD
ATOM     28  H   UNL A   1      41.249  27.448  34.061  1.00  0.00     0.159 HD
ENDBRANCH  24  26
ENDBRANCH  22  24
ENDBRANCH  21  22
ENDBRANCH  14  19
ENDBRANCH   8  13
ENDBRANCH   4   7
ENDBRANCH   2   3
ENDBRANCH   1   2
BRANCH   1  29
ATOM     29  C   UNL A   1      34.592  33.807  28.869  1.00  0.00     0.002 C 
BRANCH  29  30
ATOM     30  C   UNL A   1      34.531  32.331  28.433  1.00  0.00     0.002 C 
BRANCH  30  31
ATOM     31  C   UNL A   1      35.867  31.668  28.058  1.00  0.00     0.021 C 
BRANCH  31  32
ATOM     32  C   UNL A   1      35.965  30.215  28.492  1.00  0.00     0.116 C 
BRANCH  32  33
ATOM     33  N   UNL A   1      36.009  30.052  29.957  1.00  0.00    -0.352 N 
ATOM     34  C   UNL A   1      36.968  29.424  30.738  1.00  0.00     0.251 C 
ATOM     35  H   UNL A   1      35.252  30.445  30.449  1.00  0.00     0.163 HD
ATOM     36  O   UNL A   1      36.680  29.017  31.873  1.00  0.00    -0.269 OA
BRANCH  34  37
ATOM     37  C   UNL A   1      38.329  29.258  30.206  1.00  0.00     0.039 A 
ATOM     38  C   UNL A   1      39.088  30.254  29.583  1.00  0.00     0.014 A 
ATOM     39  C   UNL A   1      38.886  28.015  30.419  1.00  0.00     0.014 A 
ATOM     40  C   UNL A   1      40.391  29.934  29.192  1.00  0.00     0.010 A 
ATOM     41  C   UNL A   1      40.231  27.939  30.519  1.00  0.00     0.010 A 
ATOM     42  C   UNL A   1      40.937  28.729  29.647  1.00  0.00    -0.014 A 
BRANCH  42  43
ATOM     43  C   UNL A   1      42.254  28.211  29.321  1.00  0.00     0.031 A 
ATOM     44  C   UNL A   1      42.214  27.001  28.480  1.00  0.00     0.074 A 
ATOM     45  C   UNL A   1      43.380  28.952  29.473  1.00  0.00     0.049 A 
ATOM     46  N   UNL A   1      42.436  25.786  28.845  1.00  0.00    -0.248 NA
ATOM     47  C   UNL A   1      41.659  27.127  27.122  1.00  0.00     0.031 C 
ATOM     48  C   UNL A   1      43.533  30.339  29.941  1.00  0.00     0.029 A 
ATOM     49  N   UNL A   1      44.653  28.635  29.119  1.00  0.00    -0.354 N 
ATOM     50  C   UNL A   1      42.315  25.028  27.687  1.00  0.00     0.074 A 
ATOM     51  C   UNL A   1      41.578  25.845  26.762  1.00  0.00     0.031 C 
ATOM     52  C   UNL A   1      44.770  30.797  29.634  1.00  0.00     0.029 A 
ATOM     53  C   UNL A   1      45.552  29.699  29.097  1.00  0.00     0.049 A 
ATOM     54  H   UNL A   1      44.922  27.715  28.895  1.00  0.00     0.167 HD
ATOM     55  C   UNL A   1      43.078  23.917  27.494  1.00  0.00     0.034 A 
ATOM     56  C   UNL A   1      46.834  29.671  28.634  1.00  0.00     0.034 A 
ATOM     57  C   UNL A   1      43.736  23.526  28.725  1.00  0.00     0.049 A 
ATOM     58  C   UNL A   1      47.245  28.239  28.649  1.00  0.00     0.074 A 
ATOM     59  C   UNL A   1      43.292  23.196  29.992  1.00  0.00     0.029 A 
ATOM     60  N   UNL A   1      45.062  23.871  28.883  1.00  0.00    -0.354 N 
ATOM     61  N   UNL A   1      47.330  27.537  29.750  1.00  0.00    -0.248 NA
ATOM     62  C   UNL A   1      47.023  27.457  27.440  1.00  0.00     0.031 C 
ATOM     63  C   UNL A   1      44.188  23.875  30.877  1.00  0.00     0.029 A 
ATOM     64  C   UNL A   1      45.181  24.488  30.108  1.00  0.00     0.049 A 
ATOM     65  H   UNL A   1      45.789  23.708  28.240  1.00  0.00     0.167 HD
ATOM     66  C   UNL A   1      46.754  26.310  29.449  1.00  0.00     0.074 A 
ATOM     67  C   UNL A   1      46.658  26.291  27.987  1.00  0.00     0.031 C 
ATOM     68  C   UNL A   1      46.124  25.557  30.403  1.00  0.00     0.034 A 
BRANCH  55  69
ATOM     69  C   UNL A   1      43.525  23.397  26.147  1.00  0.00     0.023 A 
ATOM     70  C   UNL A   1      43.357  22.021  25.907  1.00  0.00     0.031 A 
ATOM     71  C   UNL A   1      44.328  24.089  25.210  1.00  0.00     0.131 A 
ATOM     72  C   UNL A   1      44.034  21.382  24.855  1.00  0.00     0.055 A 
ATOM     73  C   UNL A   1      44.942  23.462  24.123  1.00  0.00     0.041 A 
ATOM     74  F   UNL A   1      44.648  25.381  25.336  1.00  0.00    -0.206 F 
ATOM     75  C   UNL A   1      44.825  22.094  23.958  1.00  0.00     0.022 A 
BRANCH  72  76
ATOM     76  S   UNL A   1      44.008  19.574  24.794  1.00  0.00     0.124 S 
ATOM     77  O   UNL A   1      42.648  19.282  25.231  1.00  0.00    -0.237 OA
ATOM     78  O   UNL A   1      44.302  19.320  23.387  1.00  0.00    -0.237 OA
ATOM     79  O   UNL A   1      45.061  19.190  25.731  1.00  0.00    -0.744 OA
ENDBRANCH  72  76
ENDBRANCH  55  69
BRANCH  56  80
ATOM     80  C   UNL A   1      47.512  30.733  27.824  1.00  0.00     0.023 A 
ATOM     81  C   UNL A   1      46.881  31.924  27.399  1.00  0.00     0.031 A 
ATOM     82  C   UNL A   1      48.916  30.674  27.651  1.00  0.00     0.131 A 
ATOM     83  C   UNL A   1      47.644  32.977  26.826  1.00  0.00     0.055 A 
ATOM     84  C   UNL A   1      49.662  31.712  27.087  1.00  0.00     0.041 A 
ATOM     85  F   UNL A   1      49.627  29.629  28.102  1.00  0.00    -0.206 F 
ATOM     86  C   UNL A   1      49.030  32.874  26.678  1.00  0.00     0.022 A 
BRANCH  83  87
ATOM     87  S   UNL A   1      46.853  34.545  26.326  1.00  0.00     0.124 S 
ATOM     88  O   UNL A   1      45.462  34.326  26.703  1.00  0.00    -0.237 OA
ATOM     89  O   UNL A   1      47.591  35.531  27.106  1.00  0.00    -0.237 OA
ATOM     90  O   UNL A   1      47.093  34.604  24.882  1.00  0.00    -0.744 OA
ENDBRANCH  83  87
ENDBRANCH  56  80
BRANCH  68  91
ATOM     91  C   UNL A   1      46.243  25.980  31.860  1.00  0.00     0.023 A 
ATOM     92  C   UNL A   1      47.391  25.796  32.671  1.00  0.00     0.031 A 
ATOM     93  C   UNL A   1      45.189  26.737  32.399  1.00  0.00     0.131 A 
ATOM     94  C   UNL A   1      47.442  26.356  33.967  1.00  0.00     0.055 A 
ATOM     95  C   UNL A   1      45.253  27.306  33.671  1.00  0.00     0.041 A 
ATOM     96  F   UNL A   1      44.084  26.975  31.672  1.00  0.00    -0.206 F 
ATOM     97  C   UNL A   1      46.378  27.114  34.462  1.00  0.00     0.022 A 
BRANCH  94  98
ATOM     98  S   UNL A   1      48.898  26.103  35.039  1.00  0.00     0.124 S 
ATOM     99  O   UNL A   1      49.062  27.392  35.700  1.00  0.00    -0.237 OA
ATOM    100  O   UNL A   1      48.477  24.995  35.893  1.00  0.00    -0.237 OA
ATOM    101  O   UNL A   1      49.964  25.766  34.092  1.00  0.00    -0.744 OA
ENDBRANCH  94  98
ENDBRANCH  68  91
ENDBRANCH  42  43
ENDBRANCH  34  37
ENDBRANCH  32  33
ENDBRANCH  31  32
ENDBRANCH  30  31
ENDBRANCH  29  30
ENDBRANCH   1  29
TORSDOF 21
ENDMDL
