MODEL 1
REMARK VINA RESULT:      -8.5      0.000      0.000
REMARK SMILES COc1ccc(-c2cccc(/C=C\C(=O)NCCCCCCNC(=O)c3ccc(-c4c5nc(c(-c6cc(S(=O)(=O)[O-])ccc6F)c6ccc([nH]6)c(-c6cc(S(=O)(=O)[O-])ccc6F)c6nc(c(-c7cc(S(=O)(=O)[O-])ccc7F)c7ccc4[nH]7)C=C6)C=C5)cc3)c2)c(Cl)c1OC
REMARK SMILES IDX 19 1 18 2 17 3 16 4 14 5 15 6 13 8 12 9 11 10 7 11 8 12
REMARK SMILES IDX 89 13 9 14 10 15 6 16 3 17 4 18 92 19 5 20 90 21 91 22 2 23
REMARK SMILES IDX 1 24 93 25 94 26 20 27 21 28 22 29 23 30 24 31 25 33 26 34
REMARK SMILES IDX 27 35 88 36 28 37 87 38 29 39 30 40 31 41 81 42 32 43 86 44
REMARK SMILES IDX 80 45 82 46 33 47 85 48 79 49 78 50 34 52 66 53 46 54 65 55
REMARK SMILES IDX 47 56 50 57 64 58 83 59 48 60 49 61 63 63 84 64 51 65 35 66
REMARK SMILES IDX 36 67 44 68 37 69 43 70 45 71 42 72 38 73 39 74 40 75 41 76
REMARK SMILES IDX 67 77 68 78 76 79 69 80 75 81 77 82 74 83 70 84 71 85 72 86
REMARK SMILES IDX 73 87 52 88 53 89 61 90 54 91 60 92 62 93 59 94 55 95 56 96
REMARK SMILES IDX 57 97 58 98
REMARK H PARENT 16 7 23 32 82 51 50 62
REMARK Flexibility Score: inf
ROOT
ATOM      1  C   UNL A   1      44.490  24.881  27.723  1.00  0.00     0.002 C 
ENDROOT
BRANCH   1   2
ATOM      2  C   UNL A   1      43.438  24.396  28.727  1.00  0.00     0.021 C 
BRANCH   2   3
ATOM      3  C   UNL A   1      43.023  22.933  28.637  1.00  0.00     0.116 C 
BRANCH   3   4
ATOM      4  N   UNL A   1      42.884  22.411  27.295  1.00  0.00    -0.353 N 
ATOM      5  C   UNL A   1      41.772  22.251  26.529  1.00  0.00     0.243 C 
ATOM      6  O   UNL A   1      41.905  21.823  25.380  1.00  0.00    -0.270 OA
ATOM      7  H   UNL A   1      43.725  22.128  26.870  1.00  0.00     0.163 HD
BRANCH   5   8
ATOM      8  C   UNL A   1      40.382  22.457  27.031  1.00  0.00     0.072 C 
ATOM      9  C   UNL A   1      39.630  23.541  27.297  1.00  0.00     0.014 C 
BRANCH   9  10
ATOM     10  C   UNL A   1      40.007  24.952  27.209  1.00  0.00    -0.025 A 
ATOM     11  C   UNL A   1      40.227  27.122  28.337  1.00  0.00    -0.016 A 
ATOM     12  C   UNL A   1      41.025  27.533  27.248  1.00  0.00     0.009 A 
ATOM     13  C   UNL A   1      39.717  25.813  28.288  1.00  0.00     0.017 A 
ATOM     14  C   UNL A   1      41.220  26.728  26.126  1.00  0.00     0.001 A 
ATOM     15  C   UNL A   1      40.691  25.445  26.095  1.00  0.00     0.008 A 
BRANCH  11  16
ATOM     16  C   UNL A   1      39.899  28.097  29.416  1.00  0.00     0.004 A 
ATOM     17  C   UNL A   1      39.451  29.794  31.656  1.00  0.00     0.162 A 
ATOM     18  C   UNL A   1      40.216  28.642  31.789  1.00  0.00     0.051 A 
ATOM     19  C   UNL A   1      38.849  30.094  30.416  1.00  0.00     0.180 A 
ATOM     20  C   UNL A   1      40.452  27.830  30.686  1.00  0.00     0.014 A 
ATOM     21  C   UNL A   1      39.059  29.237  29.303  1.00  0.00     0.094 A 
ATOM     22  Cl  UNL A   1      38.174  29.505  27.827  1.00  0.00    -0.079 Cl
BRANCH  17  23
ATOM     23  O   UNL A   1      39.218  30.660  32.696  1.00  0.00    -0.493 OA
ATOM     24  C   UNL A   1      38.523  30.114  33.817  1.00  0.00     0.278 C 
ENDBRANCH  17  23
BRANCH  19  25
ATOM     25  O   UNL A   1      37.955  31.140  30.443  1.00  0.00    -0.491 OA
ATOM     26  C   UNL A   1      38.394  32.385  29.916  1.00  0.00     0.278 C 
ENDBRANCH  19  25
ENDBRANCH  11  16
ENDBRANCH   9  10
ENDBRANCH   5   8
ENDBRANCH   3   4
ENDBRANCH   2   3
ENDBRANCH   1   2
BRANCH   1  27
ATOM     27  C   UNL A   1      45.930  24.371  27.872  1.00  0.00     0.002 C 
BRANCH  27  28
ATOM     28  C   UNL A   1      46.777  24.227  26.605  1.00  0.00     0.021 C 
BRANCH  28  29
ATOM     29  C   UNL A   1      46.122  24.588  25.275  1.00  0.00     0.116 C 
BRANCH  29  30
ATOM     30  N   UNL A   1      46.820  25.641  24.566  1.00  0.00    -0.352 N 
ATOM     31  C   UNL A   1      46.877  26.991  24.819  1.00  0.00     0.251 C 
ATOM     32  H   UNL A   1      47.332  25.344  23.780  1.00  0.00     0.163 HD
ATOM     33  O   UNL A   1      47.423  27.721  23.996  1.00  0.00    -0.269 OA
BRANCH  31  34
ATOM     34  C   UNL A   1      46.273  27.582  26.043  1.00  0.00     0.039 A 
ATOM     35  C   UNL A   1      44.904  27.877  26.027  1.00  0.00     0.014 A 
ATOM     36  C   UNL A   1      47.031  27.911  27.170  1.00  0.00     0.014 A 
ATOM     37  C   UNL A   1      44.293  28.460  27.144  1.00  0.00     0.010 A 
ATOM     38  C   UNL A   1      46.410  28.442  28.306  1.00  0.00     0.010 A 
ATOM     39  C   UNL A   1      45.036  28.732  28.303  1.00  0.00    -0.014 A 
BRANCH  39  40
ATOM     40  C   UNL A   1      44.391  29.345  29.498  1.00  0.00     0.031 A 
ATOM     41  C   UNL A   1      43.970  30.792  29.473  1.00  0.00     0.074 A 
ATOM     42  C   UNL A   1      44.206  28.611  30.614  1.00  0.00     0.049 A 
ATOM     43  N   UNL A   1      43.433  31.517  30.422  1.00  0.00    -0.248 NA
ATOM     44  C   UNL A   1      44.200  31.522  28.219  1.00  0.00     0.031 C 
ATOM     45  C   UNL A   1      44.585  27.205  30.769  1.00  0.00     0.029 A 
ATOM     46  N   UNL A   1      43.659  28.942  31.829  1.00  0.00    -0.354 N 
ATOM     47  C   UNL A   1      43.272  32.791  29.886  1.00  0.00     0.074 A 
ATOM     48  C   UNL A   1      43.814  32.747  28.544  1.00  0.00     0.031 C 
ATOM     49  C   UNL A   1      44.242  26.791  31.999  1.00  0.00     0.029 A 
ATOM     50  C   UNL A   1      43.661  27.908  32.739  1.00  0.00     0.049 A 
ATOM     51  H   UNL A   1      43.299  29.835  32.032  1.00  0.00     0.167 HD
ATOM     52  C   UNL A   1      42.711  33.889  30.453  1.00  0.00     0.034 A 
ATOM     53  C   UNL A   1      43.258  27.867  34.025  1.00  0.00     0.034 A 
ATOM     54  C   UNL A   1      42.172  33.917  31.793  1.00  0.00     0.049 A 
ATOM     55  C   UNL A   1      42.678  29.113  34.648  1.00  0.00     0.074 A 
ATOM     56  C   UNL A   1      41.537  34.959  32.446  1.00  0.00     0.029 A 
ATOM     57  N   UNL A   1      42.216  32.857  32.692  1.00  0.00    -0.354 N 
ATOM     58  N   UNL A   1      42.498  30.299  34.113  1.00  0.00    -0.248 NA
ATOM     59  C   UNL A   1      42.243  29.013  36.048  1.00  0.00     0.031 C 
ATOM     60  C   UNL A   1      41.259  34.554  33.757  1.00  0.00     0.029 A 
ATOM     61  C   UNL A   1      41.649  33.232  33.902  1.00  0.00     0.049 A 
ATOM     62  H   UNL A   1      42.595  31.969  32.498  1.00  0.00     0.167 HD
ATOM     63  C   UNL A   1      41.898  31.075  35.101  1.00  0.00     0.074 A 
ATOM     64  C   UNL A   1      41.738  30.220  36.260  1.00  0.00     0.031 C 
ATOM     65  C   UNL A   1      41.508  32.374  35.055  1.00  0.00     0.034 A 
BRANCH  52  66
ATOM     66  C   UNL A   1      42.685  35.160  29.635  1.00  0.00     0.023 A 
ATOM     67  C   UNL A   1      43.734  36.096  29.687  1.00  0.00     0.031 A 
ATOM     68  C   UNL A   1      41.588  35.451  28.805  1.00  0.00     0.131 A 
ATOM     69  C   UNL A   1      43.629  37.308  28.985  1.00  0.00     0.055 A 
ATOM     70  C   UNL A   1      41.526  36.623  28.047  1.00  0.00     0.041 A 
ATOM     71  F   UNL A   1      40.547  34.606  28.725  1.00  0.00    -0.206 F 
ATOM     72  C   UNL A   1      42.544  37.566  28.146  1.00  0.00     0.022 A 
BRANCH  69  73
ATOM     73  S   UNL A   1      44.864  38.599  29.295  1.00  0.00     0.124 S 
ATOM     74  O   UNL A   1      45.545  38.673  28.005  1.00  0.00    -0.237 OA
ATOM     75  O   UNL A   1      44.039  39.748  29.649  1.00  0.00    -0.237 OA
ATOM     76  O   UNL A   1      45.670  38.049  30.384  1.00  0.00    -0.744 OA
ENDBRANCH  69  73
ENDBRANCH  52  66
BRANCH  53  77
ATOM     77  C   UNL A   1      43.410  26.618  34.828  1.00  0.00     0.023 A 
ATOM     78  C   UNL A   1      44.662  26.201  35.306  1.00  0.00     0.031 A 
ATOM     79  C   UNL A   1      42.302  25.794  35.093  1.00  0.00     0.131 A 
ATOM     80  C   UNL A   1      44.779  24.976  35.983  1.00  0.00     0.055 A 
ATOM     81  C   UNL A   1      42.413  24.601  35.808  1.00  0.00     0.041 A 
ATOM     82  F   UNL A   1      41.083  26.146  34.663  1.00  0.00    -0.206 F 
ATOM     83  C   UNL A   1      43.662  24.179  36.247  1.00  0.00     0.022 A 
BRANCH  80  84
ATOM     84  S   UNL A   1      46.431  24.391  36.447  1.00  0.00     0.124 S 
ATOM     85  O   UNL A   1      46.262  22.943  36.386  1.00  0.00    -0.237 OA
ATOM     86  O   UNL A   1      47.264  24.986  35.407  1.00  0.00    -0.237 OA
ATOM     87  O   UNL A   1      46.622  24.942  37.787  1.00  0.00    -0.744 OA
ENDBRANCH  80  84
ENDBRANCH  53  77
BRANCH  65  88
ATOM     88  C   UNL A   1      40.824  32.931  36.281  1.00  0.00     0.023 A 
ATOM     89  C   UNL A   1      39.543  32.504  36.675  1.00  0.00     0.031 A 
ATOM     90  C   UNL A   1      41.460  33.917  37.057  1.00  0.00     0.131 A 
ATOM     91  C   UNL A   1      38.916  33.103  37.779  1.00  0.00     0.055 A 
ATOM     92  C   UNL A   1      40.856  34.465  38.189  1.00  0.00     0.041 A 
ATOM     93  F   UNL A   1      42.681  34.365  36.726  1.00  0.00    -0.206 F 
ATOM     94  C   UNL A   1      39.571  34.068  38.548  1.00  0.00     0.022 A 
BRANCH  91  95
ATOM     95  S   UNL A   1      37.192  32.670  38.143  1.00  0.00     0.124 S 
ATOM     96  O   UNL A   1      37.056  33.103  39.531  1.00  0.00    -0.237 OA
ATOM     97  O   UNL A   1      36.457  33.453  37.156  1.00  0.00    -0.237 OA
ATOM     98  O   UNL A   1      37.152  31.223  37.939  1.00  0.00    -0.744 OA
ENDBRANCH  91  95
ENDBRANCH  65  88
ENDBRANCH  39  40
ENDBRANCH  31  34
ENDBRANCH  29  30
ENDBRANCH  28  29
ENDBRANCH  27  28
ENDBRANCH   1  27
TORSDOF 20
ENDMDL
MODEL 2
REMARK VINA RESULT:      -8.1      3.986     10.622
REMARK SMILES COc1ccc(-c2cccc(/C=C\C(=O)NCCCCCCNC(=O)c3ccc(-c4c5nc(c(-c6cc(S(=O)(=O)[O-])ccc6F)c6ccc([nH]6)c(-c6cc(S(=O)(=O)[O-])ccc6F)c6nc(c(-c7cc(S(=O)(=O)[O-])ccc7F)c7ccc4[nH]7)C=C6)C=C5)cc3)c2)c(Cl)c1OC
REMARK SMILES IDX 19 1 18 2 17 3 16 4 14 5 15 6 13 8 12 9 11 10 7 11 8 12
REMARK SMILES IDX 89 13 9 14 10 15 6 16 3 17 4 18 92 19 5 20 90 21 91 22 2 23
REMARK SMILES IDX 1 24 93 25 94 26 20 27 21 28 22 29 23 30 24 31 25 33 26 34
REMARK SMILES IDX 27 35 88 36 28 37 87 38 29 39 30 40 31 41 81 42 32 43 86 44
REMARK SMILES IDX 80 45 82 46 33 47 85 48 79 49 78 50 34 52 66 53 46 54 65 55
REMARK SMILES IDX 47 56 50 57 64 58 83 59 48 60 49 61 63 63 84 64 51 65 35 66
REMARK SMILES IDX 36 67 44 68 37 69 43 70 45 71 42 72 38 73 39 74 40 75 41 76
REMARK SMILES IDX 67 77 68 78 76 79 69 80 75 81 77 82 74 83 70 84 71 85 72 86
REMARK SMILES IDX 73 87 52 88 53 89 61 90 54 91 60 92 62 93 59 94 55 95 56 96
REMARK SMILES IDX 57 97 58 98
REMARK H PARENT 16 7 23 32 82 51 50 62
REMARK Flexibility Score: inf
ROOT
ATOM      1  C   UNL A   1      33.049  35.584  30.897  1.00  0.00     0.002 C 
ENDROOT
BRANCH   1   2
ATOM      2  C   UNL A   1      33.556  36.841  31.614  1.00  0.00     0.021 C 
BRANCH   2   3
ATOM      3  C   UNL A   1      34.014  36.674  33.057  1.00  0.00     0.116 C 
BRANCH   3   4
ATOM      4  N   UNL A   1      33.965  35.323  33.569  1.00  0.00    -0.353 N 
ATOM      5  C   UNL A   1      34.964  34.418  33.750  1.00  0.00     0.243 C 
ATOM      6  O   UNL A   1      34.686  33.327  34.253  1.00  0.00    -0.270 OA
ATOM      7  H   UNL A   1      33.068  35.009  33.828  1.00  0.00     0.163 HD
BRANCH   5   8
ATOM      8  C   UNL A   1      36.363  34.621  33.274  1.00  0.00     0.072 C 
ATOM      9  C   UNL A   1      37.572  34.224  33.711  1.00  0.00     0.014 C 
BRANCH   9  10
ATOM     10  C   UNL A   1      37.895  33.451  34.911  1.00  0.00    -0.025 A 
ATOM     11  C   UNL A   1      38.253  33.430  37.340  1.00  0.00    -0.016 A 
ATOM     12  C   UNL A   1      38.142  32.025  37.279  1.00  0.00     0.009 A 
ATOM     13  C   UNL A   1      38.133  34.128  36.126  1.00  0.00     0.017 A 
ATOM     14  C   UNL A   1      38.022  31.343  36.068  1.00  0.00     0.001 A 
ATOM     15  C   UNL A   1      37.923  32.055  34.880  1.00  0.00     0.008 A 
BRANCH  11  16
ATOM     16  C   UNL A   1      38.571  34.085  38.640  1.00  0.00     0.004 A 
ATOM     17  C   UNL A   1      39.035  35.106  41.256  1.00  0.00     0.162 A 
ATOM     18  C   UNL A   1      38.262  33.966  41.074  1.00  0.00     0.051 A 
ATOM     19  C   UNL A   1      39.546  35.791  40.134  1.00  0.00     0.180 A 
ATOM     20  C   UNL A   1      38.060  33.457  39.796  1.00  0.00     0.014 A 
ATOM     21  C   UNL A   1      39.299  35.291  38.828  1.00  0.00     0.094 A 
ATOM     22  Cl  UNL A   1      39.773  36.229  37.440  1.00  0.00    -0.079 Cl
BRANCH  17  23
ATOM     23  O   UNL A   1      39.307  35.633  42.495  1.00  0.00    -0.493 OA
ATOM     24  C   UNL A   1      39.957  34.756  43.415  1.00  0.00     0.278 C 
ENDBRANCH  17  23
BRANCH  19  25
ATOM     25  O   UNL A   1      40.121  37.011  40.411  1.00  0.00    -0.491 OA
ATOM     26  C   UNL A   1      41.485  37.183  40.050  1.00  0.00     0.278 C 
ENDBRANCH  19  25
ENDBRANCH  11  16
ENDBRANCH   9  10
ENDBRANCH   5   8
ENDBRANCH   3   4
ENDBRANCH   2   3
ENDBRANCH   1   2
BRANCH   1  27
ATOM     27  C   UNL A   1      34.074  34.682  30.198  1.00  0.00     0.002 C 
BRANCH  27  28
ATOM     28  C   UNL A   1      33.825  34.310  28.733  1.00  0.00     0.021 C 
BRANCH  28  29
ATOM     29  C   UNL A   1      34.696  33.216  28.126  1.00  0.00     0.116 C 
BRANCH  29  30
ATOM     30  N   UNL A   1      33.934  32.073  27.665  1.00  0.00    -0.352 N 
ATOM     31  C   UNL A   1      34.281  30.745  27.601  1.00  0.00     0.251 C 
ATOM     32  H   UNL A   1      33.026  32.281  27.347  1.00  0.00     0.163 HD
ATOM     33  O   UNL A   1      33.516  29.963  27.040  1.00  0.00    -0.269 OA
BRANCH  31  34
ATOM     34  C   UNL A   1      35.562  30.244  28.166  1.00  0.00     0.039 A 
ATOM     35  C   UNL A   1      36.695  30.254  27.345  1.00  0.00     0.014 A 
ATOM     36  C   UNL A   1      35.655  29.709  29.454  1.00  0.00     0.014 A 
ATOM     37  C   UNL A   1      37.918  29.768  27.821  1.00  0.00     0.010 A 
ATOM     38  C   UNL A   1      36.890  29.275  29.949  1.00  0.00     0.010 A 
ATOM     39  C   UNL A   1      38.033  29.290  29.135  1.00  0.00    -0.014 A 
BRANCH  39  40
ATOM     40  C   UNL A   1      39.334  28.778  29.651  1.00  0.00     0.031 A 
ATOM     41  C   UNL A   1      39.994  29.439  30.834  1.00  0.00     0.074 A 
ATOM     42  C   UNL A   1      39.936  27.736  29.041  1.00  0.00     0.049 A 
ATOM     43  N   UNL A   1      41.142  29.168  31.403  1.00  0.00    -0.248 NA
ATOM     44  C   UNL A   1      39.272  30.563  31.446  1.00  0.00     0.031 C 
ATOM     45  C   UNL A   1      39.408  27.022  27.878  1.00  0.00     0.029 A 
ATOM     46  N   UNL A   1      41.123  27.099  29.310  1.00  0.00    -0.354 N 
ATOM     47  C   UNL A   1      41.287  30.095  32.431  1.00  0.00     0.074 A 
ATOM     48  C   UNL A   1      40.129  30.963  32.373  1.00  0.00     0.031 C 
ATOM     49  C   UNL A   1      40.256  26.035  27.545  1.00  0.00     0.029 A 
ATOM     50  C   UNL A   1      41.410  26.071  28.440  1.00  0.00     0.049 A 
ATOM     51  H   UNL A   1      41.714  27.354  30.055  1.00  0.00     0.167 HD
ATOM     52  C   UNL A   1      42.283  30.202  33.347  1.00  0.00     0.034 A 
ATOM     53  C   UNL A   1      42.486  25.262  28.359  1.00  0.00     0.034 A 
ATOM     54  C   UNL A   1      43.431  29.326  33.394  1.00  0.00     0.049 A 
ATOM     55  C   UNL A   1      43.602  25.428  29.361  1.00  0.00     0.074 A 
ATOM     56  C   UNL A   1      44.469  29.313  34.309  1.00  0.00     0.029 A 
ATOM     57  N   UNL A   1      43.698  28.313  32.480  1.00  0.00    -0.354 N 
ATOM     58  N   UNL A   1      43.704  26.286  30.351  1.00  0.00    -0.248 NA
ATOM     59  C   UNL A   1      44.745  24.514  29.237  1.00  0.00     0.031 C 
ATOM     60  C   UNL A   1      45.397  28.343  33.911  1.00  0.00     0.029 A 
ATOM     61  C   UNL A   1      44.900  27.693  32.792  1.00  0.00     0.049 A 
ATOM     62  H   UNL A   1      43.119  28.071  31.722  1.00  0.00     0.167 HD
ATOM     63  C   UNL A   1      44.907  25.991  30.987  1.00  0.00     0.074 A 
ATOM     64  C   UNL A   1      45.488  24.871  30.276  1.00  0.00     0.031 C 
ATOM     65  C   UNL A   1      45.477  26.586  32.066  1.00  0.00     0.034 A 
BRANCH  52  66
ATOM     66  C   UNL A   1      42.189  31.329  34.350  1.00  0.00     0.023 A 
ATOM     67  C   UNL A   1      42.574  32.643  34.026  1.00  0.00     0.031 A 
ATOM     68  C   UNL A   1      41.728  31.084  35.656  1.00  0.00     0.131 A 
ATOM     69  C   UNL A   1      42.561  33.641  35.014  1.00  0.00     0.055 A 
ATOM     70  C   UNL A   1      41.642  32.100  36.611  1.00  0.00     0.041 A 
ATOM     71  F   UNL A   1      41.363  29.847  36.032  1.00  0.00    -0.206 F 
ATOM     72  C   UNL A   1      42.075  33.384  36.297  1.00  0.00     0.022 A 
BRANCH  69  73
ATOM     73  S   UNL A   1      43.321  35.244  34.635  1.00  0.00     0.124 S 
ATOM     74  O   UNL A   1      44.201  35.432  35.785  1.00  0.00    -0.237 OA
ATOM     75  O   UNL A   1      43.981  34.987  33.360  1.00  0.00    -0.237 OA
ATOM     76  O   UNL A   1      42.182  36.158  34.576  1.00  0.00    -0.744 OA
ENDBRANCH  69  73
ENDBRANCH  52  66
BRANCH  53  77
ATOM     77  C   UNL A   1      42.585  24.238  27.278  1.00  0.00     0.023 A 
ATOM     78  C   UNL A   1      42.012  22.965  27.417  1.00  0.00     0.031 A 
ATOM     79  C   UNL A   1      43.301  24.507  26.098  1.00  0.00     0.131 A 
ATOM     80  C   UNL A   1      42.202  21.999  26.415  1.00  0.00     0.055 A 
ATOM     81  C   UNL A   1      43.447  23.562  25.081  1.00  0.00     0.041 A 
ATOM     82  F   UNL A   1      43.866  25.708  25.911  1.00  0.00    -0.206 F 
ATOM     83  C   UNL A   1      42.905  22.292  25.243  1.00  0.00     0.022 A 
BRANCH  80  84
ATOM     84  S   UNL A   1      41.585  20.318  26.696  1.00  0.00     0.124 S 
ATOM     85  O   UNL A   1      41.822  19.693  25.400  1.00  0.00    -0.237 OA
ATOM     86  O   UNL A   1      42.433  19.865  27.793  1.00  0.00    -0.237 OA
ATOM     87  O   UNL A   1      40.180  20.525  27.042  1.00  0.00    -0.744 OA
ENDBRANCH  80  84
ENDBRANCH  53  77
BRANCH  65  88
ATOM     88  C   UNL A   1      46.775  25.999  32.567  1.00  0.00     0.023 A 
ATOM     89  C   UNL A   1      46.804  24.984  33.541  1.00  0.00     0.031 A 
ATOM     90  C   UNL A   1      48.003  26.479  32.076  1.00  0.00     0.131 A 
ATOM     91  C   UNL A   1      48.036  24.522  34.031  1.00  0.00     0.055 A 
ATOM     92  C   UNL A   1      49.223  25.972  32.524  1.00  0.00     0.041 A 
ATOM     93  F   UNL A   1      48.036  27.450  31.149  1.00  0.00    -0.206 F 
ATOM     94  C   UNL A   1      49.244  24.997  33.517  1.00  0.00     0.022 A 
BRANCH  91  95
ATOM     95  S   UNL A   1      48.037  23.355  35.421  1.00  0.00     0.124 S 
ATOM     96  O   UNL A   1      46.612  23.086  35.593  1.00  0.00    -0.237 OA
ATOM     97  O   UNL A   1      48.836  22.250  34.901  1.00  0.00    -0.237 OA
ATOM     98  O   UNL A   1      48.660  24.113  36.505  1.00  0.00    -0.744 OA
ENDBRANCH  91  95
ENDBRANCH  65  88
ENDBRANCH  39  40
ENDBRANCH  31  34
ENDBRANCH  29  30
ENDBRANCH  28  29
ENDBRANCH  27  28
ENDBRANCH   1  27
TORSDOF 20
ENDMDL
MODEL 3
REMARK VINA RESULT:      -8.1      1.564      7.488
REMARK SMILES COc1ccc(-c2cccc(/C=C\C(=O)NCCCCCCNC(=O)c3ccc(-c4c5nc(c(-c6cc(S(=O)(=O)[O-])ccc6F)c6ccc([nH]6)c(-c6cc(S(=O)(=O)[O-])ccc6F)c6nc(c(-c7cc(S(=O)(=O)[O-])ccc7F)c7ccc4[nH]7)C=C6)C=C5)cc3)c2)c(Cl)c1OC
REMARK SMILES IDX 19 1 18 2 17 3 16 4 14 5 15 6 13 8 12 9 11 10 7 11 8 12
REMARK SMILES IDX 89 13 9 14 10 15 6 16 3 17 4 18 92 19 5 20 90 21 91 22 2 23
REMARK SMILES IDX 1 24 93 25 94 26 20 27 21 28 22 29 23 30 24 31 25 33 26 34
REMARK SMILES IDX 27 35 88 36 28 37 87 38 29 39 30 40 31 41 81 42 32 43 86 44
REMARK SMILES IDX 80 45 82 46 33 47 85 48 79 49 78 50 34 52 66 53 46 54 65 55
REMARK SMILES IDX 47 56 50 57 64 58 83 59 48 60 49 61 63 63 84 64 51 65 35 66
REMARK SMILES IDX 36 67 44 68 37 69 43 70 45 71 42 72 38 73 39 74 40 75 41 76
REMARK SMILES IDX 67 77 68 78 76 79 69 80 75 81 77 82 74 83 70 84 71 85 72 86
REMARK SMILES IDX 73 87 52 88 53 89 61 90 54 91 60 92 62 93 59 94 55 95 56 96
REMARK SMILES IDX 57 97 58 98
REMARK H PARENT 16 7 23 32 82 51 50 62
REMARK Flexibility Score: inf
ROOT
ATOM      1  C   UNL A   1      44.957  24.644  28.685  1.00  0.00     0.002 C 
ENDROOT
BRANCH   1   2
ATOM      2  C   UNL A   1      44.411  23.317  29.224  1.00  0.00     0.021 C 
BRANCH   2   3
ATOM      3  C   UNL A   1      43.010  22.917  28.778  1.00  0.00     0.116 C 
BRANCH   3   4
ATOM      4  N   UNL A   1      42.883  22.559  27.383  1.00  0.00    -0.353 N 
ATOM      5  C   UNL A   1      41.775  22.470  26.599  1.00  0.00     0.243 C 
ATOM      6  O   UNL A   1      41.918  22.187  25.408  1.00  0.00    -0.270 OA
ATOM      7  H   UNL A   1      43.731  22.348  26.929  1.00  0.00     0.163 HD
BRANCH   5   8
ATOM      8  C   UNL A   1      40.382  22.584  27.118  1.00  0.00     0.072 C 
ATOM      9  C   UNL A   1      39.558  23.615  27.381  1.00  0.00     0.014 C 
BRANCH   9  10
ATOM     10  C   UNL A   1      39.831  25.048  27.268  1.00  0.00    -0.025 A 
ATOM     11  C   UNL A   1      39.946  27.238  28.372  1.00  0.00    -0.016 A 
ATOM     12  C   UNL A   1      40.668  27.694  27.249  1.00  0.00     0.009 A 
ATOM     13  C   UNL A   1      39.526  25.897  28.353  1.00  0.00     0.017 A 
ATOM     14  C   UNL A   1      40.873  26.894  26.125  1.00  0.00     0.001 A 
ATOM     15  C   UNL A   1      40.433  25.577  26.124  1.00  0.00     0.008 A 
BRANCH  11  16
ATOM     16  C   UNL A   1      39.595  28.198  29.457  1.00  0.00     0.004 A 
ATOM     17  C   UNL A   1      39.136  29.894  31.696  1.00  0.00     0.162 A 
ATOM     18  C   UNL A   1      40.042  28.844  31.784  1.00  0.00     0.051 A 
ATOM     19  C   UNL A   1      38.401  30.085  30.508  1.00  0.00     0.180 A 
ATOM     20  C   UNL A   1      40.281  28.035  30.680  1.00  0.00     0.014 A 
ATOM     21  C   UNL A   1      38.617  29.227  29.397  1.00  0.00     0.094 A 
ATOM     22  Cl  UNL A   1      37.586  29.347  27.999  1.00  0.00    -0.079 Cl
BRANCH  17  23
ATOM     23  O   UNL A   1      38.889  30.755  32.737  1.00  0.00    -0.493 OA
ATOM     24  C   UNL A   1      38.629  30.146  34.001  1.00  0.00     0.278 C 
ENDBRANCH  17  23
BRANCH  19  25
ATOM     25  O   UNL A   1      37.393  31.018  30.593  1.00  0.00    -0.491 OA
ATOM     26  C   UNL A   1      37.606  32.266  29.947  1.00  0.00     0.278 C 
ENDBRANCH  19  25
ENDBRANCH  11  16
ENDBRANCH   9  10
ENDBRANCH   5   8
ENDBRANCH   3   4
ENDBRANCH   2   3
ENDBRANCH   1   2
BRANCH   1  27
ATOM     27  C   UNL A   1      46.479  24.816  28.580  1.00  0.00     0.002 C 
BRANCH  27  28
ATOM     28  C   UNL A   1      47.162  24.395  27.275  1.00  0.00     0.021 C 
BRANCH  28  29
ATOM     29  C   UNL A   1      46.295  24.307  26.023  1.00  0.00     0.116 C 
BRANCH  29  30
ATOM     30  N   UNL A   1      46.684  25.252  24.996  1.00  0.00    -0.352 N 
ATOM     31  C   UNL A   1      46.484  26.610  24.921  1.00  0.00     0.251 C 
ATOM     32  H   UNL A   1      47.165  24.860  24.232  1.00  0.00     0.163 HD
ATOM     33  O   UNL A   1      46.781  27.192  23.881  1.00  0.00    -0.269 OA
BRANCH  31  34
ATOM     34  C   UNL A   1      45.896  27.376  26.052  1.00  0.00     0.039 A 
ATOM     35  C   UNL A   1      46.769  28.012  26.943  1.00  0.00     0.014 A 
ATOM     36  C   UNL A   1      44.520  27.425  26.291  1.00  0.00     0.014 A 
ATOM     37  C   UNL A   1      46.267  28.721  28.040  1.00  0.00     0.010 A 
ATOM     38  C   UNL A   1      44.016  28.181  27.355  1.00  0.00     0.010 A 
ATOM     39  C   UNL A   1      44.884  28.829  28.248  1.00  0.00    -0.014 A 
BRANCH  39  40
ATOM     40  C   UNL A   1      44.342  29.590  29.409  1.00  0.00     0.031 A 
ATOM     41  C   UNL A   1      44.052  28.884  30.709  1.00  0.00     0.074 A 
ATOM     42  C   UNL A   1      44.086  30.908  29.289  1.00  0.00     0.049 A 
ATOM     43  N   UNL A   1      43.542  29.360  31.817  1.00  0.00    -0.248 NA
ATOM     44  C   UNL A   1      44.364  27.449  30.761  1.00  0.00     0.031 C 
ATOM     45  C   UNL A   1      44.308  31.703  28.080  1.00  0.00     0.029 A 
ATOM     46  N   UNL A   1      43.581  31.813  30.190  1.00  0.00    -0.354 N 
ATOM     47  C   UNL A   1      43.458  28.283  32.694  1.00  0.00     0.074 A 
ATOM     48  C   UNL A   1      43.928  27.121  31.968  1.00  0.00     0.031 C 
ATOM     49  C   UNL A   1      43.959  32.977  28.320  1.00  0.00     0.029 A 
ATOM     50  C   UNL A   1      43.447  33.086  29.683  1.00  0.00     0.049 A 
ATOM     51  H   UNL A   1      43.337  31.574  31.114  1.00  0.00     0.167 HD
ATOM     52  C   UNL A   1      43.045  28.267  33.986  1.00  0.00     0.034 A 
ATOM     53  C   UNL A   1      42.953  34.209  30.243  1.00  0.00     0.034 A 
ATOM     54  C   UNL A   1      42.581  29.436  34.697  1.00  0.00     0.049 A 
ATOM     55  C   UNL A   1      42.457  34.157  31.667  1.00  0.00     0.074 A 
ATOM     56  C   UNL A   1      42.189  29.542  36.021  1.00  0.00     0.029 A 
ATOM     57  N   UNL A   1      42.436  30.702  34.141  1.00  0.00    -0.354 N 
ATOM     58  N   UNL A   1      42.422  33.137  32.495  1.00  0.00    -0.248 NA
ATOM     59  C   UNL A   1      41.939  35.410  32.235  1.00  0.00     0.031 C 
ATOM     60  C   UNL A   1      41.743  30.849  36.246  1.00  0.00     0.029 A 
ATOM     61  C   UNL A   1      41.930  31.584  35.086  1.00  0.00     0.049 A 
ATOM     62  H   UNL A   1      42.659  30.938  33.212  1.00  0.00     0.167 HD
ATOM     63  C   UNL A   1      41.909  33.635  33.690  1.00  0.00     0.074 A 
ATOM     64  C   UNL A   1      41.660  35.046  33.479  1.00  0.00     0.031 C 
ATOM     65  C   UNL A   1      41.672  32.987  34.859  1.00  0.00     0.034 A 
BRANCH  52  66
ATOM     66  C   UNL A   1      43.042  26.936  34.701  1.00  0.00     0.023 A 
ATOM     67  C   UNL A   1      44.223  26.367  35.213  1.00  0.00     0.031 A 
ATOM     68  C   UNL A   1      41.846  26.213  34.858  1.00  0.00     0.131 A 
ATOM     69  C   UNL A   1      44.194  25.086  35.786  1.00  0.00     0.055 A 
ATOM     70  C   UNL A   1      41.811  24.973  35.501  1.00  0.00     0.041 A 
ATOM     71  F   UNL A   1      40.688  26.693  34.376  1.00  0.00    -0.206 F 
ATOM     72  C   UNL A   1      42.993  24.396  35.957  1.00  0.00     0.022 A 
BRANCH  69  73
ATOM     73  S   UNL A   1      45.769  24.276  36.179  1.00  0.00     0.124 S 
ATOM     74  O   UNL A   1      45.851  23.265  35.129  1.00  0.00    -0.237 OA
ATOM     75  O   UNL A   1      46.722  25.376  36.084  1.00  0.00    -0.237 OA
ATOM     76  O   UNL A   1      45.557  23.749  37.526  1.00  0.00    -0.744 OA
ENDBRANCH  69  73
ENDBRANCH  52  66
BRANCH  53  77
ATOM     77  C   UNL A   1      42.868  35.475  29.457  1.00  0.00     0.023 A 
ATOM     78  C   UNL A   1      43.910  36.415  29.464  1.00  0.00     0.031 A 
ATOM     79  C   UNL A   1      41.713  35.786  28.717  1.00  0.00     0.131 A 
ATOM     80  C   UNL A   1      43.757  37.634  28.783  1.00  0.00     0.055 A 
ATOM     81  C   UNL A   1      41.584  36.976  28.001  1.00  0.00     0.041 A 
ATOM     82  F   UNL A   1      40.689  34.923  28.673  1.00  0.00    -0.206 F 
ATOM     83  C   UNL A   1      42.606  37.916  28.042  1.00  0.00     0.022 A 
BRANCH  80  84
ATOM     84  S   UNL A   1      45.055  38.890  28.943  1.00  0.00     0.124 S 
ATOM     85  O   UNL A   1      46.248  38.066  29.100  1.00  0.00    -0.237 OA
ATOM     86  O   UNL A   1      44.933  39.611  27.681  1.00  0.00    -0.237 OA
ATOM     87  O   UNL A   1      44.654  39.642  30.130  1.00  0.00    -0.744 OA
ENDBRANCH  80  84
ENDBRANCH  53  77
BRANCH  65  88
ATOM     88  C   UNL A   1      41.160  33.816  36.012  1.00  0.00     0.023 A 
ATOM     89  C   UNL A   1      42.032  34.496  36.882  1.00  0.00     0.031 A 
ATOM     90  C   UNL A   1      39.778  33.912  36.255  1.00  0.00     0.131 A 
ATOM     91  C   UNL A   1      41.515  35.194  37.985  1.00  0.00     0.055 A 
ATOM     92  C   UNL A   1      39.267  34.657  37.318  1.00  0.00     0.041 A 
ATOM     93  F   UNL A   1      38.900  33.280  35.460  1.00  0.00    -0.206 F 
ATOM     94  C   UNL A   1      40.138  35.293  38.198  1.00  0.00     0.022 A 
BRANCH  91  95
ATOM     95  S   UNL A   1      42.673  35.895  39.194  1.00  0.00     0.124 S 
ATOM     96  O   UNL A   1      41.996  35.619  40.458  1.00  0.00    -0.237 OA
ATOM     97  O   UNL A   1      43.890  35.131  38.941  1.00  0.00    -0.237 OA
ATOM     98  O   UNL A   1      42.741  37.307  38.823  1.00  0.00    -0.744 OA
ENDBRANCH  91  95
ENDBRANCH  65  88
ENDBRANCH  39  40
ENDBRANCH  31  34
ENDBRANCH  29  30
ENDBRANCH  28  29
ENDBRANCH  27  28
ENDBRANCH   1  27
TORSDOF 20
ENDMDL
