MODEL 1
REMARK VINA RESULT:     -11.8      0.000      0.000
REMARK SMILES Cc1c(C(=O)NC(=S)Nc2ccccc2C(=O)NCCCCCCNC(=O)c2ccc(-c3c4nc(c(-c5cc(S(=O)(=O)[O-])ccc5F)c5ccc([nH]5)c(-c5cc(S(=O)(=O)[O-])ccc5F)c5nc(c(-c6cc(S(=O)(=O)[O-])ccc6F)c6ccc3[nH]6)C=C5)C=C4)cc2)cccc1[N+](=O)[O-]
REMARK SMILES IDX 20 1 19 2 18 3 16 4 17 5 15 7 10 8 11 9 12 10 14 11 13 12
REMARK SMILES IDX 9 13 7 15 8 16 6 17 4 18 5 19 3 21 1 22 2 23 94 24 91 25
REMARK SMILES IDX 93 26 92 27 95 28 96 29 97 30 21 31 22 32 23 33 24 34 25 35
REMARK SMILES IDX 26 36 27 38 28 39 29 40 90 41 30 42 89 43 31 44 32 45 33 46
REMARK SMILES IDX 83 47 34 48 88 49 82 50 84 51 35 52 87 53 81 54 80 55 36 57
REMARK SMILES IDX 68 58 48 59 67 60 49 61 52 62 66 63 85 64 50 65 51 66 65 68
REMARK SMILES IDX 86 69 53 70 37 71 38 72 46 73 39 74 45 75 47 76 44 77 40 78
REMARK SMILES IDX 41 79 42 80 43 81 69 82 70 83 78 84 71 85 77 86 79 87 76 88
REMARK SMILES IDX 72 89 73 90 74 91 75 92 54 93 55 94 63 95 56 96 62 97 64 98
REMARK SMILES IDX 61 99 57 100 58 101 59 102 60 103
REMARK H PARENT 18 6 9 14 6 20 25 37 84 56 52 67
REMARK Flexibility Score: inf
ROOT
ATOM      1  C   UNL A   1      37.134  21.911  25.745  1.00  0.00     0.021 C 
ENDROOT
BRANCH   1   2
ATOM      2  C   UNL A   1      35.628  21.661  25.742  1.00  0.00     0.116 C 
BRANCH   2   3
ATOM      3  N   UNL A   1      34.759  22.138  26.841  1.00  0.00    -0.352 N 
ATOM      4  C   UNL A   1      33.368  22.014  27.095  1.00  0.00     0.253 C 
ATOM      5  O   UNL A   1      32.930  22.324  28.201  1.00  0.00    -0.269 OA
ATOM      6  H   UNL A   1      35.242  22.643  27.534  1.00  0.00     0.163 HD
BRANCH   4   7
ATOM      7  C   UNL A   1      32.363  21.604  26.016  1.00  0.00     0.063 A 
ATOM      8  C   UNL A   1      31.642  22.815  24.908  1.00  0.00     0.053 A 
ATOM      9  C   UNL A   1      31.170  22.415  23.175  1.00  0.00     0.027 A 
ATOM     10  C   UNL A   1      31.957  20.876  22.469  1.00  0.00     0.002 A 
ATOM     11  C   UNL A   1      32.723  20.081  25.558  1.00  0.00     0.016 A 
ATOM     12  C   UNL A   1      32.763  19.677  23.893  1.00  0.00     0.001 A 
BRANCH   8  13
ATOM     13  N   UNL A   1      32.518  23.995  24.952  1.00  0.00    -0.332 N 
ATOM     14  H   UNL A   1      32.834  24.245  25.851  1.00  0.00     0.169 HD
BRANCH  13  15
ATOM     15  C   UNL A   1      32.973  24.820  23.911  1.00  0.00     0.177 C 
ATOM     16  S   UNL A   1      34.642  25.016  23.792  1.00  0.00    -0.040 S 
BRANCH  15  17
ATOM     17  N   UNL A   1      32.142  25.658  23.023  1.00  0.00    -0.299 N 
ATOM     18  C   UNL A   1      31.427  27.009  22.681  1.00  0.00     0.257 C 
ATOM     19  O   UNL A   1      31.071  27.238  21.531  1.00  0.00    -0.269 OA
ATOM     20  H   UNL A   1      31.931  25.071  22.262  1.00  0.00     0.172 HD
BRANCH  18  21
ATOM     21  C   UNL A   1      31.267  28.075  23.758  1.00  0.00     0.049 A 
ATOM     22  C   UNL A   1      29.208  27.181  24.134  1.00  0.00     0.053 C 
ATOM     23  C   UNL A   1      29.859  28.775  23.242  1.00  0.00     0.039 A 
ATOM     24  C   UNL A   1      29.268  30.686  23.685  1.00  0.00     0.273 A 
ATOM     25  C   UNL A   1      32.065  28.877  25.073  1.00  0.00     0.014 A 
ATOM     26  C   UNL A   1      30.228  31.469  25.046  1.00  0.00     0.086 A 
ATOM     27  C   UNL A   1      31.580  30.492  25.732  1.00  0.00     0.008 A 
BRANCH  24  28
ATOM     28  N   UNL A   1      28.048  31.573  23.422  1.00  0.00     0.063 N 
ATOM     29  O   UNL A   1      26.950  31.072  23.720  1.00  0.00    -0.258 OA
ATOM     30  O   UNL A   1      28.181  32.728  23.004  1.00  0.00    -0.258 OA
ENDBRANCH  24  28
ENDBRANCH  18  21
ENDBRANCH  15  17
ENDBRANCH  13  15
ENDBRANCH   8  13
ENDBRANCH   4   7
ENDBRANCH   2   3
ENDBRANCH   1   2
BRANCH   1  31
ATOM     31  C   UNL A   1      37.607  23.312  25.398  1.00  0.00     0.002 C 
BRANCH  31  32
ATOM     32  C   UNL A   1      38.383  24.048  26.492  1.00  0.00     0.002 C 
BRANCH  32  33
ATOM     33  C   UNL A   1      39.870  23.731  26.598  1.00  0.00     0.021 C 
BRANCH  33  34
ATOM     34  C   UNL A   1      40.204  22.494  27.409  1.00  0.00     0.116 C 
BRANCH  34  35
ATOM     35  N   UNL A   1      41.083  21.550  26.737  1.00  0.00    -0.352 N 
ATOM     36  C   UNL A   1      42.417  21.677  26.388  1.00  0.00     0.251 C 
ATOM     37  H   UNL A   1      40.668  20.691  26.495  1.00  0.00     0.163 HD
ATOM     38  O   UNL A   1      42.928  20.926  25.561  1.00  0.00    -0.269 OA
BRANCH  36  39
ATOM     39  C   UNL A   1      43.305  22.568  27.187  1.00  0.00     0.039 A 
ATOM     40  C   UNL A   1      43.109  22.523  28.579  1.00  0.00     0.014 A 
ATOM     41  C   UNL A   1      43.894  23.681  26.608  1.00  0.00     0.014 A 
ATOM     42  C   UNL A   1      43.158  23.700  29.305  1.00  0.00     0.010 A 
ATOM     43  C   UNL A   1      43.755  24.870  27.256  1.00  0.00     0.010 A 
ATOM     44  C   UNL A   1      43.335  24.868  28.584  1.00  0.00    -0.014 A 
BRANCH  44  45
ATOM     45  C   UNL A   1      43.277  26.196  29.132  1.00  0.00     0.031 A 
ATOM     46  C   UNL A   1      42.067  26.942  28.767  1.00  0.00     0.074 A 
ATOM     47  C   UNL A   1      44.185  26.481  30.091  1.00  0.00     0.049 A 
ATOM     48  N   UNL A   1      41.958  28.213  28.775  1.00  0.00    -0.248 NA
ATOM     49  C   UNL A   1      40.849  26.284  28.272  1.00  0.00     0.031 C 
ATOM     50  C   UNL A   1      44.222  27.559  31.065  1.00  0.00     0.029 A 
ATOM     51  N   UNL A   1      45.445  25.886  30.208  1.00  0.00    -0.354 N 
ATOM     52  C   UNL A   1      40.607  28.492  28.730  1.00  0.00     0.074 A 
ATOM     53  C   UNL A   1      39.982  27.299  28.238  1.00  0.00     0.031 C 
ATOM     54  C   UNL A   1      45.504  27.774  31.423  1.00  0.00     0.029 A 
ATOM     55  C   UNL A   1      46.332  26.906  30.600  1.00  0.00     0.049 A 
ATOM     56  H   UNL A   1      45.667  24.940  30.047  1.00  0.00     0.167 HD
ATOM     57  C   UNL A   1      40.179  29.632  29.337  1.00  0.00     0.034 A 
ATOM     58  C   UNL A   1      47.270  27.326  29.696  1.00  0.00     0.034 A 
ATOM     59  C   UNL A   1      41.336  30.329  29.896  1.00  0.00     0.049 A 
ATOM     60  C   UNL A   1      46.928  28.722  29.203  1.00  0.00     0.074 A 
ATOM     61  C   UNL A   1      41.887  30.358  31.168  1.00  0.00     0.029 A 
ATOM     62  N   UNL A   1      42.325  30.760  29.026  1.00  0.00    -0.354 N 
ATOM     63  N   UNL A   1      45.714  29.218  29.174  1.00  0.00    -0.248 NA
ATOM     64  C   UNL A   1      47.940  29.711  28.850  1.00  0.00     0.031 C 
ATOM     65  C   UNL A   1      43.254  30.734  31.034  1.00  0.00     0.029 A 
ATOM     66  C   UNL A   1      43.522  30.930  29.688  1.00  0.00     0.049 A 
ATOM     67  H   UNL A   1      42.190  30.924  28.065  1.00  0.00     0.167 HD
ATOM     68  C   UNL A   1      45.772  30.565  28.915  1.00  0.00     0.074 A 
ATOM     69  C   UNL A   1      47.188  30.817  28.696  1.00  0.00     0.031 C 
ATOM     70  C   UNL A   1      44.680  31.394  28.947  1.00  0.00     0.034 A 
BRANCH  57  71
ATOM     71  C   UNL A   1      38.763  29.982  29.707  1.00  0.00     0.023 A 
ATOM     72  C   UNL A   1      38.261  31.219  29.252  1.00  0.00     0.031 A 
ATOM     73  C   UNL A   1      37.866  29.207  30.464  1.00  0.00     0.131 A 
ATOM     74  C   UNL A   1      36.971  31.662  29.577  1.00  0.00     0.055 A 
ATOM     75  C   UNL A   1      36.580  29.656  30.806  1.00  0.00     0.041 A 
ATOM     76  F   UNL A   1      38.163  27.968  30.871  1.00  0.00    -0.206 F 
ATOM     77  C   UNL A   1      36.126  30.890  30.364  1.00  0.00     0.022 A 
BRANCH  74  78
ATOM     78  S   UNL A   1      36.427  33.265  28.934  1.00  0.00     0.124 S 
ATOM     79  O   UNL A   1      37.689  33.987  28.809  1.00  0.00    -0.237 OA
ATOM     80  O   UNL A   1      35.768  32.893  27.687  1.00  0.00    -0.237 OA
ATOM     81  O   UNL A   1      35.533  33.761  29.981  1.00  0.00    -0.744 OA
ENDBRANCH  74  78
ENDBRANCH  57  71
BRANCH  58  82
ATOM     82  C   UNL A   1      47.820  26.154  28.923  1.00  0.00     0.023 A 
ATOM     83  C   UNL A   1      47.358  26.033  27.585  1.00  0.00     0.031 A 
ATOM     84  C   UNL A   1      49.062  25.580  29.225  1.00  0.00     0.131 A 
ATOM     85  C   UNL A   1      48.231  25.612  26.566  1.00  0.00     0.055 A 
ATOM     86  C   UNL A   1      49.886  25.059  28.213  1.00  0.00     0.041 A 
ATOM     87  F   UNL A   1      49.567  25.651  30.466  1.00  0.00    -0.206 F 
ATOM     88  C   UNL A   1      49.504  25.139  26.871  1.00  0.00     0.022 A 
BRANCH  85  89
ATOM     89  S   UNL A   1      47.803  26.010  24.839  1.00  0.00     0.124 S 
ATOM     90  O   UNL A   1      47.047  27.248  24.987  1.00  0.00    -0.237 OA
ATOM     91  O   UNL A   1      49.116  26.137  24.211  1.00  0.00    -0.237 OA
ATOM     92  O   UNL A   1      47.034  24.849  24.388  1.00  0.00    -0.744 OA
ENDBRANCH  85  89
ENDBRANCH  58  82
BRANCH  70  93
ATOM     93  C   UNL A   1      44.593  32.775  28.329  1.00  0.00     0.023 A 
ATOM     94  C   UNL A   1      44.523  33.937  29.096  1.00  0.00     0.031 A 
ATOM     95  C   UNL A   1      44.698  32.981  26.924  1.00  0.00     0.131 A 
ATOM     96  C   UNL A   1      44.451  35.201  28.493  1.00  0.00     0.055 A 
ATOM     97  C   UNL A   1      44.765  34.244  26.337  1.00  0.00     0.041 A 
ATOM     98  F   UNL A   1      44.753  31.967  26.049  1.00  0.00    -0.206 F 
ATOM     99  C   UNL A   1      44.614  35.370  27.123  1.00  0.00     0.022 A 
BRANCH  96 100
ATOM    100  S   UNL A   1      44.017  36.598  29.551  1.00  0.00     0.124 S 
ATOM    101  O   UNL A   1      45.336  37.089  29.945  1.00  0.00    -0.237 OA
ATOM    102  O   UNL A   1      43.268  37.460  28.642  1.00  0.00    -0.237 OA
ATOM    103  O   UNL A   1      43.235  35.987  30.622  1.00  0.00    -0.744 OA
ENDBRANCH  96 100
ENDBRANCH  70  93
ENDBRANCH  44  45
ENDBRANCH  36  39
ENDBRANCH  34  35
ENDBRANCH  33  34
ENDBRANCH  32  33
ENDBRANCH  31  32
ENDBRANCH   1  31
TORSDOF 21
ENDMDL
MODEL 2
REMARK VINA RESULT:     -11.5      2.339      5.265
REMARK SMILES Cc1c(C(=O)NC(=S)Nc2ccccc2C(=O)NCCCCCCNC(=O)c2ccc(-c3c4nc(c(-c5cc(S(=O)(=O)[O-])ccc5F)c5ccc([nH]5)c(-c5cc(S(=O)(=O)[O-])ccc5F)c5nc(c(-c6cc(S(=O)(=O)[O-])ccc6F)c6ccc3[nH]6)C=C5)C=C4)cc2)cccc1[N+](=O)[O-]
REMARK SMILES IDX 20 1 19 2 18 3 16 4 17 5 15 7 10 8 11 9 12 10 14 11 13 12
REMARK SMILES IDX 9 13 7 15 8 16 6 17 4 18 5 19 3 21 1 22 2 23 94 24 91 25
REMARK SMILES IDX 93 26 92 27 95 28 96 29 97 30 21 31 22 32 23 33 24 34 25 35
REMARK SMILES IDX 26 36 27 38 28 39 29 40 90 41 30 42 89 43 31 44 32 45 33 46
REMARK SMILES IDX 83 47 34 48 88 49 82 50 84 51 35 52 87 53 81 54 80 55 36 57
REMARK SMILES IDX 68 58 48 59 67 60 49 61 52 62 66 63 85 64 50 65 51 66 65 68
REMARK SMILES IDX 86 69 53 70 37 71 38 72 46 73 39 74 45 75 47 76 44 77 40 78
REMARK SMILES IDX 41 79 42 80 43 81 69 82 70 83 78 84 71 85 77 86 79 87 76 88
REMARK SMILES IDX 72 89 73 90 74 91 75 92 54 93 55 94 63 95 56 96 62 97 64 98
REMARK SMILES IDX 61 99 57 100 58 101 59 102 60 103
REMARK H PARENT 18 6 9 14 6 20 25 37 84 56 52 67
REMARK Flexibility Score: inf
ROOT
ATOM      1  C   UNL A   1      36.693  23.416  26.104  1.00  0.00     0.021 C 
ENDROOT
BRANCH   1   2
ATOM      2  C   UNL A   1      35.943  24.551  25.413  1.00  0.00     0.116 C 
BRANCH   2   3
ATOM      3  N   UNL A   1      35.006  25.427  26.152  1.00  0.00    -0.352 N 
ATOM      4  C   UNL A   1      33.851  26.153  25.760  1.00  0.00     0.253 C 
ATOM      5  O   UNL A   1      33.125  26.637  26.626  1.00  0.00    -0.269 OA
ATOM      6  H   UNL A   1      35.229  25.526  27.105  1.00  0.00     0.163 HD
BRANCH   4   7
ATOM      7  C   UNL A   1      33.517  26.451  24.296  1.00  0.00     0.063 A 
ATOM      8  C   UNL A   1      32.430  25.382  23.353  1.00  0.00     0.053 A 
ATOM      9  C   UNL A   1      31.332  26.013  22.020  1.00  0.00     0.027 A 
ATOM     10  C   UNL A   1      31.007  27.851  22.057  1.00  0.00     0.002 A 
ATOM     11  C   UNL A   1      33.566  28.069  24.099  1.00  0.00     0.016 A 
ATOM     12  C   UNL A   1      32.318  28.861  23.231  1.00  0.00     0.001 A 
BRANCH   8  13
ATOM     13  N   UNL A   1      31.665  24.596  24.333  1.00  0.00    -0.332 N 
ATOM     14  H   UNL A   1      30.816  25.004  24.622  1.00  0.00     0.169 HD
BRANCH  13  15
ATOM     15  C   UNL A   1      31.958  23.355  24.920  1.00  0.00     0.177 C 
ATOM     16  S   UNL A   1      30.777  22.714  25.937  1.00  0.00    -0.040 S 
BRANCH  15  17
ATOM     17  N   UNL A   1      33.250  22.640  24.873  1.00  0.00    -0.299 N 
ATOM     18  C   UNL A   1      34.121  21.399  24.479  1.00  0.00     0.257 C 
ATOM     19  O   UNL A   1      35.341  21.498  24.439  1.00  0.00    -0.269 OA
ATOM     20  H   UNL A   1      33.883  23.254  25.309  1.00  0.00     0.172 HD
BRANCH  18  21
ATOM     21  C   UNL A   1      33.444  20.104  24.050  1.00  0.00     0.049 A 
ATOM     22  C   UNL A   1      33.003  19.772  26.259  1.00  0.00     0.053 C 
ATOM     23  C   UNL A   1      34.278  19.033  24.998  1.00  0.00     0.039 A 
ATOM     24  C   UNL A   1      34.500  17.037  24.595  1.00  0.00     0.273 A 
ATOM     25  C   UNL A   1      32.370  19.397  22.885  1.00  0.00     0.014 A 
ATOM     26  C   UNL A   1      33.363  16.406  23.293  1.00  0.00     0.086 A 
ATOM     27  C   UNL A   1      32.287  17.626  22.514  1.00  0.00     0.008 A 
BRANCH  24  28
ATOM     28  N   UNL A   1      35.134  15.819  25.273  1.00  0.00     0.063 N 
ATOM     29  O   UNL A   1      34.420  14.804  25.323  1.00  0.00    -0.258 OA
ATOM     30  O   UNL A   1      36.302  15.853  25.674  1.00  0.00    -0.258 OA
ENDBRANCH  24  28
ENDBRANCH  18  21
ENDBRANCH  15  17
ENDBRANCH  13  15
ENDBRANCH   8  13
ENDBRANCH   4   7
ENDBRANCH   2   3
ENDBRANCH   1   2
BRANCH   1  31
ATOM     31  C   UNL A   1      38.176  23.616  26.361  1.00  0.00     0.002 C 
BRANCH  31  32
ATOM     32  C   UNL A   1      39.039  22.353  26.327  1.00  0.00     0.002 C 
BRANCH  32  33
ATOM     33  C   UNL A   1      40.444  22.477  26.906  1.00  0.00     0.021 C 
BRANCH  33  34
ATOM     34  C   UNL A   1      41.520  22.842  25.902  1.00  0.00     0.116 C 
BRANCH  34  35
ATOM     35  N   UNL A   1      42.413  21.750  25.549  1.00  0.00    -0.352 N 
ATOM     36  C   UNL A   1      43.777  21.763  25.312  1.00  0.00     0.251 C 
ATOM     37  H   UNL A   1      41.983  20.868  25.469  1.00  0.00     0.163 HD
ATOM     38  O   UNL A   1      44.326  20.831  24.731  1.00  0.00    -0.269 OA
BRANCH  36  39
ATOM     39  C   UNL A   1      44.629  22.793  25.972  1.00  0.00     0.039 A 
ATOM     40  C   UNL A   1      44.729  22.685  27.370  1.00  0.00     0.014 A 
ATOM     41  C   UNL A   1      44.874  24.008  25.353  1.00  0.00     0.014 A 
ATOM     42  C   UNL A   1      44.706  23.837  28.138  1.00  0.00     0.010 A 
ATOM     43  C   UNL A   1      44.652  25.137  26.081  1.00  0.00     0.010 A 
ATOM     44  C   UNL A   1      44.516  25.031  27.463  1.00  0.00    -0.014 A 
BRANCH  44  45
ATOM     45  C   UNL A   1      44.326  26.312  28.085  1.00  0.00     0.031 A 
ATOM     46  C   UNL A   1      42.953  26.824  27.997  1.00  0.00     0.074 A 
ATOM     47  C   UNL A   1      45.337  26.745  28.870  1.00  0.00     0.049 A 
ATOM     48  N   UNL A   1      42.620  28.052  28.096  1.00  0.00    -0.248 NA
ATOM     49  C   UNL A   1      41.802  25.958  27.704  1.00  0.00     0.031 C 
ATOM     50  C   UNL A   1      45.368  27.791  29.879  1.00  0.00     0.029 A 
ATOM     51  N   UNL A   1      46.682  26.396  28.715  1.00  0.00    -0.354 N 
ATOM     52  C   UNL A   1      41.258  28.071  28.322  1.00  0.00     0.074 A 
ATOM     53  C   UNL A   1      40.776  26.791  27.890  1.00  0.00     0.031 C 
ATOM     54  C   UNL A   1      46.635  28.237  30.001  1.00  0.00     0.029 A 
ATOM     55  C   UNL A   1      47.429  27.557  28.990  1.00  0.00     0.049 A 
ATOM     56  H   UNL A   1      47.036  25.512  28.463  1.00  0.00     0.167 HD
ATOM     57  C   UNL A   1      40.758  29.098  29.062  1.00  0.00     0.034 A 
ATOM     58  C   UNL A   1      48.081  28.164  27.950  1.00  0.00     0.034 A 
ATOM     59  C   UNL A   1      41.856  29.989  29.430  1.00  0.00     0.049 A 
ATOM     60  C   UNL A   1      47.401  29.479  27.609  1.00  0.00     0.074 A 
ATOM     61  C   UNL A   1      42.630  30.097  30.575  1.00  0.00     0.029 A 
ATOM     62  N   UNL A   1      42.561  30.616  28.415  1.00  0.00    -0.354 N 
ATOM     63  N   UNL A   1      46.136  29.738  27.836  1.00  0.00    -0.248 NA
ATOM     64  C   UNL A   1      48.128  30.649  27.127  1.00  0.00     0.031 C 
ATOM     65  C   UNL A   1      43.854  30.726  30.207  1.00  0.00     0.029 A 
ATOM     66  C   UNL A   1      43.813  30.996  28.849  1.00  0.00     0.049 A 
ATOM     67  H   UNL A   1      42.214  30.771  27.507  1.00  0.00     0.167 HD
ATOM     68  C   UNL A   1      45.897  31.077  27.646  1.00  0.00     0.074 A 
ATOM     69  C   UNL A   1      47.174  31.596  27.179  1.00  0.00     0.031 C 
ATOM     70  C   UNL A   1      44.701  31.684  27.930  1.00  0.00     0.034 A 
BRANCH  57  71
ATOM     71  C   UNL A   1      39.402  29.168  29.711  1.00  0.00     0.023 A 
ATOM     72  C   UNL A   1      38.369  29.798  28.987  1.00  0.00     0.031 A 
ATOM     73  C   UNL A   1      39.038  28.667  30.973  1.00  0.00     0.131 A 
ATOM     74  C   UNL A   1      37.080  29.956  29.517  1.00  0.00     0.055 A 
ATOM     75  C   UNL A   1      37.753  28.839  31.515  1.00  0.00     0.041 A 
ATOM     76  F   UNL A   1      39.881  27.951  31.727  1.00  0.00    -0.206 F 
ATOM     77  C   UNL A   1      36.766  29.488  30.787  1.00  0.00     0.022 A 
BRANCH  74  78
ATOM     78  S   UNL A   1      35.829  30.778  28.499  1.00  0.00     0.124 S 
ATOM     79  O   UNL A   1      36.627  31.748  27.758  1.00  0.00    -0.237 OA
ATOM     80  O   UNL A   1      35.278  29.668  27.728  1.00  0.00    -0.237 OA
ATOM     81  O   UNL A   1      34.917  31.354  29.487  1.00  0.00    -0.744 OA
ENDBRANCH  74  78
ENDBRANCH  57  71
BRANCH  58  82
ATOM     82  C   UNL A   1      48.672  27.133  27.023  1.00  0.00     0.023 A 
ATOM     83  C   UNL A   1      48.149  27.126  25.702  1.00  0.00     0.031 A 
ATOM     84  C   UNL A   1      49.967  26.627  27.201  1.00  0.00     0.131 A 
ATOM     85  C   UNL A   1      48.994  26.890  24.603  1.00  0.00     0.055 A 
ATOM     86  C   UNL A   1      50.771  26.288  26.099  1.00  0.00     0.041 A 
ATOM     87  F   UNL A   1      50.531  26.598  28.418  1.00  0.00    -0.206 F 
ATOM     88  C   UNL A   1      50.314  26.487  24.794  1.00  0.00     0.022 A 
BRANCH  85  89
ATOM     89  S   UNL A   1      48.447  27.444  22.954  1.00  0.00     0.124 S 
ATOM     90  O   UNL A   1      48.420  26.194  22.203  1.00  0.00    -0.237 OA
ATOM     91  O   UNL A   1      47.146  28.044  23.240  1.00  0.00    -0.237 OA
ATOM     92  O   UNL A   1      49.472  28.405  22.545  1.00  0.00    -0.744 OA
ENDBRANCH  85  89
ENDBRANCH  58  82
BRANCH  70  93
ATOM     93  C   UNL A   1      44.246  33.036  27.417  1.00  0.00     0.023 A 
ATOM     94  C   UNL A   1      44.172  34.163  28.236  1.00  0.00     0.031 A 
ATOM     95  C   UNL A   1      43.979  33.269  26.038  1.00  0.00     0.131 A 
ATOM     96  C   UNL A   1      43.754  35.402  27.728  1.00  0.00     0.055 A 
ATOM     97  C   UNL A   1      43.698  34.531  25.514  1.00  0.00     0.041 A 
ATOM     98  F   UNL A   1      43.988  32.287  25.126  1.00  0.00    -0.206 F 
ATOM     99  C   UNL A   1      43.557  35.608  26.368  1.00  0.00     0.022 A 
BRANCH  96 100
ATOM    100  S   UNL A   1      43.364  36.696  28.925  1.00  0.00     0.124 S 
ATOM    101  O   UNL A   1      42.236  37.362  28.279  1.00  0.00    -0.237 OA
ATOM    102  O   UNL A   1      43.041  35.928  30.123  1.00  0.00    -0.237 OA
ATOM    103  O   UNL A   1      44.593  37.480  28.995  1.00  0.00    -0.744 OA
ENDBRANCH  96 100
ENDBRANCH  70  93
ENDBRANCH  44  45
ENDBRANCH  36  39
ENDBRANCH  34  35
ENDBRANCH  33  34
ENDBRANCH  32  33
ENDBRANCH  31  32
ENDBRANCH   1  31
TORSDOF 21
ENDMDL
MODEL 3
REMARK VINA RESULT:     -10.9      8.855     16.934
REMARK SMILES Cc1c(C(=O)NC(=S)Nc2ccccc2C(=O)NCCCCCCNC(=O)c2ccc(-c3c4nc(c(-c5cc(S(=O)(=O)[O-])ccc5F)c5ccc([nH]5)c(-c5cc(S(=O)(=O)[O-])ccc5F)c5nc(c(-c6cc(S(=O)(=O)[O-])ccc6F)c6ccc3[nH]6)C=C5)C=C4)cc2)cccc1[N+](=O)[O-]
REMARK SMILES IDX 20 1 19 2 18 3 16 4 17 5 15 7 10 8 11 9 12 10 14 11 13 12
REMARK SMILES IDX 9 13 7 15 8 16 6 17 4 18 5 19 3 21 1 22 2 23 94 24 91 25
REMARK SMILES IDX 93 26 92 27 95 28 96 29 97 30 21 31 22 32 23 33 24 34 25 35
REMARK SMILES IDX 26 36 27 38 28 39 29 40 90 41 30 42 89 43 31 44 32 45 33 46
REMARK SMILES IDX 83 47 34 48 88 49 82 50 84 51 35 52 87 53 81 54 80 55 36 57
REMARK SMILES IDX 68 58 48 59 67 60 49 61 52 62 66 63 85 64 50 65 51 66 65 68
REMARK SMILES IDX 86 69 53 70 37 71 38 72 46 73 39 74 45 75 47 76 44 77 40 78
REMARK SMILES IDX 41 79 42 80 43 81 69 82 70 83 78 84 71 85 77 86 79 87 76 88
REMARK SMILES IDX 72 89 73 90 74 91 75 92 54 93 55 94 63 95 56 96 62 97 64 98
REMARK SMILES IDX 61 99 57 100 58 101 59 102 60 103
REMARK H PARENT 18 6 9 14 6 20 25 37 84 56 52 67
REMARK Flexibility Score: inf
ROOT
ATOM      1  C   UNL A   1      42.795  42.338  20.576  1.00  0.00     0.021 C 
ENDROOT
BRANCH   1   2
ATOM      2  C   UNL A   1      42.092  43.153  19.495  1.00  0.00     0.116 C 
BRANCH   2   3
ATOM      3  N   UNL A   1      42.605  43.210  18.108  1.00  0.00    -0.352 N 
ATOM      4  C   UNL A   1      43.212  44.241  17.344  1.00  0.00     0.253 C 
ATOM      5  O   UNL A   1      43.744  43.959  16.272  1.00  0.00    -0.269 OA
ATOM      6  H   UNL A   1      42.505  42.363  17.616  1.00  0.00     0.163 HD
BRANCH   4   7
ATOM      7  C   UNL A   1      43.148  45.717  17.746  1.00  0.00     0.063 A 
ATOM      8  C   UNL A   1      44.640  46.662  18.054  1.00  0.00     0.053 A 
ATOM      9  C   UNL A   1      44.761  48.463  17.700  1.00  0.00     0.027 A 
ATOM     10  C   UNL A   1      43.473  49.135  16.529  1.00  0.00     0.002 A 
ATOM     11  C   UNL A   1      41.812  46.356  17.065  1.00  0.00     0.016 A 
ATOM     12  C   UNL A   1      41.900  47.878  16.279  1.00  0.00     0.001 A 
BRANCH   8  13
ATOM     13  N   UNL A   1      45.739  45.928  17.412  1.00  0.00    -0.332 N 
ATOM     14  H   UNL A   1      45.460  45.264  16.739  1.00  0.00     0.169 HD
BRANCH  13  15
ATOM     15  C   UNL A   1      47.126  46.026  17.610  1.00  0.00     0.177 C 
ATOM     16  S   UNL A   1      48.094  45.738  16.261  1.00  0.00    -0.040 S 
BRANCH  15  17
ATOM     17  N   UNL A   1      47.823  46.189  18.902  1.00  0.00    -0.299 N 
ATOM     18  C   UNL A   1      48.279  45.640  20.297  1.00  0.00     0.257 C 
ATOM     19  O   UNL A   1      49.184  46.197  20.906  1.00  0.00    -0.269 OA
ATOM     20  H   UNL A   1      48.180  47.105  18.873  1.00  0.00     0.172 HD
BRANCH  18  21
ATOM     21  C   UNL A   1      47.666  44.357  20.844  1.00  0.00     0.049 A 
ATOM     22  C   UNL A   1      45.855  45.624  21.386  1.00  0.00     0.053 C 
ATOM     23  C   UNL A   1      47.327  44.853  22.386  1.00  0.00     0.039 A 
ATOM     24  C   UNL A   1      47.118  43.606  23.998  1.00  0.00     0.273 A 
ATOM     25  C   UNL A   1      47.420  42.669  20.526  1.00  0.00     0.014 A 
ATOM     26  C   UNL A   1      46.936  41.830  23.552  1.00  0.00     0.086 A 
ATOM     27  C   UNL A   1      47.044  41.434  21.796  1.00  0.00     0.008 A 
BRANCH  24  28
ATOM     28  N   UNL A   1      46.761  43.740  25.481  1.00  0.00     0.063 N 
ATOM     29  O   UNL A   1      45.572  44.006  25.723  1.00  0.00    -0.258 OA
ATOM     30  O   UNL A   1      47.605  43.527  26.359  1.00  0.00    -0.258 OA
ENDBRANCH  24  28
ENDBRANCH  18  21
ENDBRANCH  15  17
ENDBRANCH  13  15
ENDBRANCH   8  13
ENDBRANCH   4   7
ENDBRANCH   2   3
ENDBRANCH   1   2
BRANCH   1  31
ATOM     31  C   UNL A   1      43.780  43.071  21.470  1.00  0.00     0.002 C 
BRANCH  31  32
ATOM     32  C   UNL A   1      43.414  43.143  22.954  1.00  0.00     0.002 C 
BRANCH  32  33
ATOM     33  C   UNL A   1      42.304  42.209  23.424  1.00  0.00     0.021 C 
BRANCH  33  34
ATOM     34  C   UNL A   1      42.432  41.737  24.860  1.00  0.00     0.116 C 
BRANCH  34  35
ATOM     35  N   UNL A   1      43.799  41.516  25.303  1.00  0.00    -0.352 N 
ATOM     36  C   UNL A   1      44.279  40.718  26.327  1.00  0.00     0.251 C 
ATOM     37  H   UNL A   1      44.487  42.007  24.798  1.00  0.00     0.163 HD
ATOM     38  O   UNL A   1      45.414  40.874  26.771  1.00  0.00    -0.269 OA
BRANCH  36  39
ATOM     39  C   UNL A   1      43.515  39.506  26.736  1.00  0.00     0.039 A 
ATOM     40  C   UNL A   1      42.522  39.720  27.709  1.00  0.00     0.014 A 
ATOM     41  C   UNL A   1      44.055  38.241  26.567  1.00  0.00     0.014 A 
ATOM     42  C   UNL A   1      42.354  38.788  28.718  1.00  0.00     0.010 A 
ATOM     43  C   UNL A   1      44.050  37.409  27.645  1.00  0.00     0.010 A 
ATOM     44  C   UNL A   1      43.238  37.722  28.733  1.00  0.00    -0.014 A 
BRANCH  44  45
ATOM     45  C   UNL A   1      43.317  36.728  29.767  1.00  0.00     0.031 A 
ATOM     46  C   UNL A   1      42.198  35.779  29.774  1.00  0.00     0.074 A 
ATOM     47  C   UNL A   1      44.501  36.638  30.414  1.00  0.00     0.049 A 
ATOM     48  N   UNL A   1      41.825  35.090  30.781  1.00  0.00    -0.248 NA
ATOM     49  C   UNL A   1      41.323  35.577  28.609  1.00  0.00     0.031 C 
ATOM     50  C   UNL A   1      45.040  35.582  31.253  1.00  0.00     0.029 A 
ATOM     51  N   UNL A   1      45.407  37.689  30.582  1.00  0.00    -0.354 N 
ATOM     52  C   UNL A   1      41.010  34.089  30.292  1.00  0.00     0.074 A 
ATOM     53  C   UNL A   1      40.585  34.535  28.997  1.00  0.00     0.031 C 
ATOM     54  C   UNL A   1      45.949  36.119  32.093  1.00  0.00     0.029 A 
ATOM     55  C   UNL A   1      45.933  37.558  31.881  1.00  0.00     0.049 A 
ATOM     56  H   UNL A   1      45.632  38.385  29.922  1.00  0.00     0.167 HD
ATOM     57  C   UNL A   1      40.992  32.907  30.966  1.00  0.00     0.034 A 
ATOM     58  C   UNL A   1      45.583  38.496  32.815  1.00  0.00     0.034 A 
ATOM     59  C   UNL A   1      41.876  33.013  32.125  1.00  0.00     0.049 A 
ATOM     60  C   UNL A   1      44.649  37.880  33.844  1.00  0.00     0.074 A 
ATOM     61  C   UNL A   1      43.191  32.631  32.337  1.00  0.00     0.029 A 
ATOM     62  N   UNL A   1      41.578  33.959  33.093  1.00  0.00    -0.354 N 
ATOM     63  N   UNL A   1      43.864  36.856  33.609  1.00  0.00    -0.248 NA
ATOM     64  C   UNL A   1      44.641  38.274  35.248  1.00  0.00     0.031 C 
ATOM     65  C   UNL A   1      43.703  33.430  33.399  1.00  0.00     0.029 A 
ATOM     66  C   UNL A   1      42.700  34.286  33.823  1.00  0.00     0.049 A 
ATOM     67  H   UNL A   1      40.683  34.344  33.240  1.00  0.00     0.167 HD
ATOM     68  C   UNL A   1      43.342  36.393  34.793  1.00  0.00     0.074 A 
ATOM     69  C   UNL A   1      43.843  37.334  35.784  1.00  0.00     0.031 C 
ATOM     70  C   UNL A   1      42.587  35.254  34.897  1.00  0.00     0.034 A 
BRANCH  57  71
ATOM     71  C   UNL A   1      40.462  31.590  30.467  1.00  0.00     0.023 A 
ATOM     72  C   UNL A   1      39.066  31.391  30.515  1.00  0.00     0.031 A 
ATOM     73  C   UNL A   1      41.207  30.517  29.945  1.00  0.00     0.131 A 
ATOM     74  C   UNL A   1      38.473  30.185  30.117  1.00  0.00     0.055 A 
ATOM     75  C   UNL A   1      40.618  29.301  29.562  1.00  0.00     0.041 A 
ATOM     76  F   UNL A   1      42.526  30.600  29.737  1.00  0.00    -0.206 F 
ATOM     77  C   UNL A   1      39.244  29.128  29.648  1.00  0.00     0.022 A 
BRANCH  74  78
ATOM     78  S   UNL A   1      36.671  30.041  30.218  1.00  0.00     0.124 S 
ATOM     79  O   UNL A   1      36.495  29.271  31.445  1.00  0.00    -0.237 OA
ATOM     80  O   UNL A   1      36.250  31.437  30.264  1.00  0.00    -0.237 OA
ATOM     81  O   UNL A   1      36.320  29.331  28.988  1.00  0.00    -0.744 OA
ENDBRANCH  74  78
ENDBRANCH  57  71
BRANCH  58  82
ATOM     82  C   UNL A   1      45.539  39.868  32.194  1.00  0.00     0.023 A 
ATOM     83  C   UNL A   1      44.240  40.372  31.914  1.00  0.00     0.031 A 
ATOM     84  C   UNL A   1      46.559  40.808  32.392  1.00  0.00     0.131 A 
ATOM     85  C   UNL A   1      43.946  41.733  32.108  1.00  0.00     0.055 A 
ATOM     86  C   UNL A   1      46.275  42.182  32.477  1.00  0.00     0.041 A 
ATOM     87  F   UNL A   1      47.813  40.412  32.661  1.00  0.00    -0.206 F 
ATOM     88  C   UNL A   1      44.958  42.642  32.408  1.00  0.00     0.022 A 
BRANCH  85  89
ATOM     89  S   UNL A   1      42.201  42.225  32.299  1.00  0.00     0.124 S 
ATOM     90  O   UNL A   1      41.938  41.888  33.694  1.00  0.00    -0.237 OA
ATOM     91  O   UNL A   1      42.240  43.651  31.985  1.00  0.00    -0.237 OA
ATOM     92  O   UNL A   1      41.494  41.413  31.309  1.00  0.00    -0.744 OA
ENDBRANCH  85  89
ENDBRANCH  58  82
BRANCH  70  93
ATOM     93  C   UNL A   1      41.688  34.887  36.062  1.00  0.00     0.023 A 
ATOM     94  C   UNL A   1      42.169  34.258  37.211  1.00  0.00     0.031 A 
ATOM     95  C   UNL A   1      40.318  35.268  36.108  1.00  0.00     0.131 A 
ATOM     96  C   UNL A   1      41.313  33.938  38.274  1.00  0.00     0.055 A 
ATOM     97  C   UNL A   1      39.504  35.071  37.223  1.00  0.00     0.041 A 
ATOM     98  F   UNL A   1      39.700  35.863  35.077  1.00  0.00    -0.206 F 
ATOM     99  C   UNL A   1      39.994  34.376  38.311  1.00  0.00     0.022 A 
BRANCH  96 100
ATOM    100  S   UNL A   1      41.954  32.829  39.546  1.00  0.00     0.124 S 
ATOM    101  O   UNL A   1      42.089  31.578  38.804  1.00  0.00    -0.237 OA
ATOM    102  O   UNL A   1      43.206  33.476  39.925  1.00  0.00    -0.237 OA
ATOM    103  O   UNL A   1      40.910  32.838  40.567  1.00  0.00    -0.744 OA
ENDBRANCH  96 100
ENDBRANCH  70  93
ENDBRANCH  44  45
ENDBRANCH  36  39
ENDBRANCH  34  35
ENDBRANCH  33  34
ENDBRANCH  32  33
ENDBRANCH  31  32
ENDBRANCH   1  31
TORSDOF 21
ENDMDL
