MODEL 1
REMARK VINA RESULT:     -12.0      0.000      0.000
REMARK SMILES CCn1c(=O)n(CC)c2cc(C(=O)NCCCCCCNC(=O)c3ccc(-c4c5nc(c(-c6cc(S(=O)(=O)[O-])ccc6F)c6ccc([nH]6)c(-c6cc(S(=O)(=O)[O-])ccc6F)c6nc(c(-c7cc(S(=O)(=O)[O-])ccc7F)c7ccc4[nH]7)C=C6)C=C5)cc3)ccc21
REMARK SMILES IDX 18 1 17 2 16 3 15 4 14 5 12 6 13 7 11 9 3 10 4 11 89 12 5 13
REMARK SMILES IDX 6 14 9 15 88 16 10 17 87 18 2 19 1 20 7 21 8 22 19 23 20 24
REMARK SMILES IDX 21 25 22 26 23 28 24 29 25 30 86 31 26 32 85 33 27 34 28 35
REMARK SMILES IDX 29 36 79 37 30 38 84 39 78 40 80 41 31 42 83 43 77 44 76 45
REMARK SMILES IDX 32 47 64 48 44 49 63 50 45 51 48 52 62 53 81 54 46 55 47 56
REMARK SMILES IDX 61 58 82 59 49 60 33 61 34 62 42 63 35 64 41 65 43 66 40 67
REMARK SMILES IDX 36 68 37 69 38 70 39 71 65 72 66 73 74 74 67 75 73 76 75 77
REMARK SMILES IDX 72 78 68 79 69 80 70 81 71 82 50 83 51 84 59 85 52 86 58 87
REMARK SMILES IDX 60 88 57 89 53 90 54 91 55 92 56 93
REMARK H PARENT 14 8 21 27 80 46 48 57
REMARK Flexibility Score: inf
ROOT
ATOM      1  C   UNL A   1      33.313  28.898  25.051  1.00  0.00     0.002 C 
ENDROOT
BRANCH   1   2
ATOM      2  C   UNL A   1      32.263  28.623  23.965  1.00  0.00     0.002 C 
BRANCH   2   3
ATOM      3  C   UNL A   1      31.167  27.640  24.390  1.00  0.00     0.021 C 
BRANCH   3   4
ATOM      4  C   UNL A   1      30.631  26.821  23.214  1.00  0.00     0.116 C 
BRANCH   4   5
ATOM      5  N   UNL A   1      31.651  26.724  22.188  1.00  0.00    -0.352 N 
ATOM      6  C   UNL A   1      32.630  25.801  21.934  1.00  0.00     0.251 C 
ATOM      7  O   UNL A   1      33.390  26.027  20.990  1.00  0.00    -0.269 OA
ATOM      8  H   UNL A   1      31.637  27.470  21.547  1.00  0.00     0.163 HD
BRANCH   6   9
ATOM      9  C   UNL A   1      32.784  24.523  22.688  1.00  0.00     0.042 A 
ATOM     10  N   UNL A   1      33.816  20.914  24.512  1.00  0.00    -0.292 N 
ATOM     11  C   UNL A   1      35.210  21.131  24.709  1.00  0.00     0.329 A 
ATOM     12  C   UNL A   1      33.263  22.066  23.932  1.00  0.00     0.069 A 
ATOM     13  O   UNL A   1      35.995  20.382  25.255  1.00  0.00    -0.248 OA
ATOM     14  N   UNL A   1      35.488  22.412  24.181  1.00  0.00    -0.292 N 
ATOM     15  C   UNL A   1      34.303  22.967  23.686  1.00  0.00     0.070 A 
ATOM     16  C   UNL A   1      31.964  22.412  23.639  1.00  0.00     0.029 A 
ATOM     17  C   UNL A   1      34.093  24.184  23.067  1.00  0.00     0.042 A 
ATOM     18  C   UNL A   1      31.729  23.660  23.045  1.00  0.00     0.016 A 
BRANCH  10  19
ATOM     19  C   UNL A   1      33.161  19.723  24.997  1.00  0.00     0.124 C 
ATOM     20  C   UNL A   1      32.642  18.728  23.973  1.00  0.00     0.028 C 
ENDBRANCH  10  19
BRANCH  14  21
ATOM     21  C   UNL A   1      36.761  23.083  24.275  1.00  0.00     0.124 C 
ATOM     22  C   UNL A   1      36.975  23.799  25.597  1.00  0.00     0.028 C 
ENDBRANCH  14  21
ENDBRANCH   6   9
ENDBRANCH   4   5
ENDBRANCH   3   4
ENDBRANCH   2   3
ENDBRANCH   1   2
BRANCH   1  23
ATOM     23  C   UNL A   1      32.862  29.870  26.149  1.00  0.00     0.021 C 
BRANCH  23  24
ATOM     24  C   UNL A   1      33.908  30.072  27.244  1.00  0.00     0.116 C 
BRANCH  24  25
ATOM     25  N   UNL A   1      34.369  31.442  27.338  1.00  0.00    -0.352 N 
ATOM     26  C   UNL A   1      35.533  32.036  27.735  1.00  0.00     0.251 C 
ATOM     27  H   UNL A   1      33.688  32.092  27.050  1.00  0.00     0.163 HD
ATOM     28  O   UNL A   1      35.550  33.269  27.686  1.00  0.00    -0.269 OA
BRANCH  26  29
ATOM     29  C   UNL A   1      36.712  31.313  28.279  1.00  0.00     0.039 A 
ATOM     30  C   UNL A   1      37.709  31.871  29.082  1.00  0.00     0.014 A 
ATOM     31  C   UNL A   1      36.831  29.964  27.896  1.00  0.00     0.014 A 
ATOM     32  C   UNL A   1      38.863  31.158  29.370  1.00  0.00     0.010 A 
ATOM     33  C   UNL A   1      37.965  29.232  28.212  1.00  0.00     0.010 A 
ATOM     34  C   UNL A   1      39.007  29.859  28.888  1.00  0.00    -0.014 A 
BRANCH  34  35
ATOM     35  C   UNL A   1      40.265  29.178  29.150  1.00  0.00     0.031 A 
ATOM     36  C   UNL A   1      40.488  28.782  30.569  1.00  0.00     0.074 A 
ATOM     37  C   UNL A   1      41.101  28.839  28.149  1.00  0.00     0.049 A 
ATOM     38  N   UNL A   1      41.412  29.180  31.382  1.00  0.00    -0.248 NA
ATOM     39  C   UNL A   1      39.462  27.941  31.205  1.00  0.00     0.031 C 
ATOM     40  C   UNL A   1      40.850  28.883  26.705  1.00  0.00     0.029 A 
ATOM     41  N   UNL A   1      42.319  28.247  28.220  1.00  0.00    -0.354 N 
ATOM     42  C   UNL A   1      41.200  28.496  32.583  1.00  0.00     0.074 A 
ATOM     43  C   UNL A   1      39.902  27.880  32.462  1.00  0.00     0.031 C 
ATOM     44  C   UNL A   1      41.742  28.085  26.078  1.00  0.00     0.029 A 
ATOM     45  C   UNL A   1      42.703  27.599  27.056  1.00  0.00     0.049 A 
ATOM     46  H   UNL A   1      42.883  28.275  29.027  1.00  0.00     0.167 HD
ATOM     47  C   UNL A   1      42.186  28.333  33.513  1.00  0.00     0.034 A 
ATOM     48  C   UNL A   1      43.640  26.622  26.960  1.00  0.00     0.034 A 
ATOM     49  C   UNL A   1      43.296  29.207  33.249  1.00  0.00     0.049 A 
ATOM     50  C   UNL A   1      44.492  26.693  28.180  1.00  0.00     0.074 A 
ATOM     51  C   UNL A   1      43.469  30.575  33.215  1.00  0.00     0.029 A 
ATOM     52  N   UNL A   1      44.389  28.673  32.608  1.00  0.00    -0.354 N 
ATOM     53  N   UNL A   1      45.301  27.683  28.445  1.00  0.00    -0.248 NA
ATOM     54  C   UNL A   1      44.070  25.904  29.332  1.00  0.00     0.031 C 
ATOM     55  C   UNL A   1      44.366  30.799  32.134  1.00  0.00     0.029 A 
ATOM     56  C   UNL A   1      44.741  29.555  31.622  1.00  0.00     0.049 A 
ATOM     57  H   UNL A   1      44.834  27.820  32.818  1.00  0.00     0.167 HD
ATOM     58  C   UNL A   1      45.134  27.918  29.801  1.00  0.00     0.074 A 
ATOM     59  C   UNL A   1      44.421  26.744  30.308  1.00  0.00     0.031 C 
ATOM     60  C   UNL A   1      45.306  29.159  30.349  1.00  0.00     0.034 A 
BRANCH  47  61
ATOM     61  C   UNL A   1      42.304  27.160  34.462  1.00  0.00     0.023 A 
ATOM     62  C   UNL A   1      43.042  26.001  34.167  1.00  0.00     0.031 A 
ATOM     63  C   UNL A   1      41.871  27.286  35.801  1.00  0.00     0.131 A 
ATOM     64  C   UNL A   1      43.344  25.051  35.153  1.00  0.00     0.055 A 
ATOM     65  C   UNL A   1      42.228  26.371  36.799  1.00  0.00     0.041 A 
ATOM     66  F   UNL A   1      41.141  28.340  36.199  1.00  0.00    -0.206 F 
ATOM     67  C   UNL A   1      42.976  25.248  36.479  1.00  0.00     0.022 A 
BRANCH  64  68
ATOM     68  S   UNL A   1      44.252  23.542  34.723  1.00  0.00     0.124 S 
ATOM     69  O   UNL A   1      43.288  22.841  33.881  1.00  0.00    -0.237 OA
ATOM     70  O   UNL A   1      45.419  24.086  34.033  1.00  0.00    -0.237 OA
ATOM     71  O   UNL A   1      44.531  22.931  36.020  1.00  0.00    -0.744 OA
ENDBRANCH  64  68
ENDBRANCH  47  61
BRANCH  48  72
ATOM     72  C   UNL A   1      43.439  25.353  26.211  1.00  0.00     0.023 A 
ATOM     73  C   UNL A   1      42.486  24.416  26.661  1.00  0.00     0.031 A 
ATOM     74  C   UNL A   1      44.350  24.917  25.237  1.00  0.00     0.131 A 
ATOM     75  C   UNL A   1      42.481  23.102  26.180  1.00  0.00     0.055 A 
ATOM     76  C   UNL A   1      44.336  23.604  24.743  1.00  0.00     0.041 A 
ATOM     77  F   UNL A   1      45.313  25.739  24.790  1.00  0.00    -0.206 F 
ATOM     78  C   UNL A   1      43.403  22.685  25.223  1.00  0.00     0.022 A 
BRANCH  75  79
ATOM     79  S   UNL A   1      41.305  21.897  26.856  1.00  0.00     0.124 S 
ATOM     80  O   UNL A   1      41.954  20.623  26.551  1.00  0.00    -0.237 OA
ATOM     81  O   UNL A   1      41.277  22.268  28.265  1.00  0.00    -0.237 OA
ATOM     82  O   UNL A   1      40.079  22.157  26.105  1.00  0.00    -0.744 OA
ENDBRANCH  75  79
ENDBRANCH  48  72
BRANCH  60  83
ATOM     83  C   UNL A   1      45.864  30.285  29.509  1.00  0.00     0.023 A 
ATOM     84  C   UNL A   1      44.966  30.940  28.647  1.00  0.00     0.031 A 
ATOM     85  C   UNL A   1      47.238  30.523  29.314  1.00  0.00     0.131 A 
ATOM     86  C   UNL A   1      45.443  31.737  27.600  1.00  0.00     0.055 A 
ATOM     87  C   UNL A   1      47.707  31.382  28.315  1.00  0.00     0.041 A 
ATOM     88  F   UNL A   1      48.170  29.857  30.006  1.00  0.00    -0.206 F 
ATOM     89  C   UNL A   1      46.809  31.977  27.438  1.00  0.00     0.022 A 
BRANCH  86  90
ATOM     90  S   UNL A   1      44.309  32.320  26.315  1.00  0.00     0.124 S 
ATOM     91  O   UNL A   1      45.221  32.631  25.218  1.00  0.00    -0.237 OA
ATOM     92  O   UNL A   1      43.452  31.155  26.106  1.00  0.00    -0.237 OA
ATOM     93  O   UNL A   1      43.645  33.471  26.921  1.00  0.00    -0.744 OA
ENDBRANCH  86  90
ENDBRANCH  60  83
ENDBRANCH  34  35
ENDBRANCH  26  29
ENDBRANCH  24  25
ENDBRANCH  23  24
ENDBRANCH   1  23
TORSDOF 18
ENDMDL
MODEL 2
REMARK VINA RESULT:     -11.8      3.174      8.899
REMARK SMILES CCn1c(=O)n(CC)c2cc(C(=O)NCCCCCCNC(=O)c3ccc(-c4c5nc(c(-c6cc(S(=O)(=O)[O-])ccc6F)c6ccc([nH]6)c(-c6cc(S(=O)(=O)[O-])ccc6F)c6nc(c(-c7cc(S(=O)(=O)[O-])ccc7F)c7ccc4[nH]7)C=C6)C=C5)cc3)ccc21
REMARK SMILES IDX 18 1 17 2 16 3 15 4 14 5 12 6 13 7 11 9 3 10 4 11 89 12 5 13
REMARK SMILES IDX 6 14 9 15 88 16 10 17 87 18 2 19 1 20 7 21 8 22 19 23 20 24
REMARK SMILES IDX 21 25 22 26 23 28 24 29 25 30 86 31 26 32 85 33 27 34 28 35
REMARK SMILES IDX 29 36 79 37 30 38 84 39 78 40 80 41 31 42 83 43 77 44 76 45
REMARK SMILES IDX 32 47 64 48 44 49 63 50 45 51 48 52 62 53 81 54 46 55 47 56
REMARK SMILES IDX 61 58 82 59 49 60 33 61 34 62 42 63 35 64 41 65 43 66 40 67
REMARK SMILES IDX 36 68 37 69 38 70 39 71 65 72 66 73 74 74 67 75 73 76 75 77
REMARK SMILES IDX 72 78 68 79 69 80 70 81 71 82 50 83 51 84 59 85 52 86 58 87
REMARK SMILES IDX 60 88 57 89 53 90 54 91 55 92 56 93
REMARK H PARENT 14 8 21 27 80 46 48 57
REMARK Flexibility Score: inf
ROOT
ATOM      1  C   UNL A   1      35.152  21.260  25.982  1.00  0.00     0.002 C 
ENDROOT
BRANCH   1   2
ATOM      2  C   UNL A   1      33.939  20.589  25.321  1.00  0.00     0.002 C 
BRANCH   2   3
ATOM      3  C   UNL A   1      32.617  21.336  25.535  1.00  0.00     0.021 C 
BRANCH   3   4
ATOM      4  C   UNL A   1      32.035  21.875  24.227  1.00  0.00     0.116 C 
BRANCH   4   5
ATOM      5  N   UNL A   1      33.115  22.272  23.344  1.00  0.00    -0.352 N 
ATOM      6  C   UNL A   1      33.778  23.455  23.160  1.00  0.00     0.251 C 
ATOM      7  O   UNL A   1      34.639  23.491  22.278  1.00  0.00    -0.269 OA
ATOM      8  H   UNL A   1      33.435  21.546  22.762  1.00  0.00     0.163 HD
BRANCH   6   9
ATOM      9  C   UNL A   1      33.561  24.670  23.999  1.00  0.00     0.042 A 
ATOM     10  N   UNL A   1      32.830  28.379  25.769  1.00  0.00    -0.292 N 
ATOM     11  C   UNL A   1      31.807  28.863  24.904  1.00  0.00     0.329 A 
ATOM     12  C   UNL A   1      33.191  27.088  25.352  1.00  0.00     0.069 A 
ATOM     13  O   UNL A   1      31.202  29.911  25.006  1.00  0.00    -0.248 OA
ATOM     14  N   UNL A   1      31.605  27.860  23.930  1.00  0.00    -0.292 N 
ATOM     15  C   UNL A   1      32.470  26.791  24.193  1.00  0.00     0.070 A 
ATOM     16  C   UNL A   1      34.040  26.153  25.897  1.00  0.00     0.029 A 
ATOM     17  C   UNL A   1      32.639  25.606  23.503  1.00  0.00     0.042 A 
ATOM     18  C   UNL A   1      34.195  24.929  25.230  1.00  0.00     0.016 A 
BRANCH  10  19
ATOM     19  C   UNL A   1      33.250  29.121  26.932  1.00  0.00     0.124 C 
ATOM     20  C   UNL A   1      34.737  29.370  27.120  1.00  0.00     0.028 C 
ENDBRANCH  10  19
BRANCH  14  21
ATOM     21  C   UNL A   1      30.575  27.885  22.921  1.00  0.00     0.124 C 
ATOM     22  C   UNL A   1      29.212  27.453  23.434  1.00  0.00     0.028 C 
ENDBRANCH  14  21
ENDBRANCH   6   9
ENDBRANCH   4   5
ENDBRANCH   3   4
ENDBRANCH   2   3
ENDBRANCH   1   2
BRANCH   1  23
ATOM     23  C   UNL A   1      36.318  21.555  25.030  1.00  0.00     0.021 C 
BRANCH  23  24
ATOM     24  C   UNL A   1      37.291  22.601  25.573  1.00  0.00     0.116 C 
BRANCH  24  25
ATOM     25  N   UNL A   1      38.652  22.116  25.656  1.00  0.00    -0.352 N 
ATOM     26  C   UNL A   1      39.782  22.537  26.299  1.00  0.00     0.251 C 
ATOM     27  H   UNL A   1      38.797  21.297  25.130  1.00  0.00     0.163 HD
ATOM     28  O   UNL A   1      40.791  21.850  26.117  1.00  0.00    -0.269 OA
BRANCH  26  29
ATOM     29  C   UNL A   1      39.883  23.776  27.114  1.00  0.00     0.039 A 
ATOM     30  C   UNL A   1      38.946  24.812  27.137  1.00  0.00     0.014 A 
ATOM     31  C   UNL A   1      41.054  23.910  27.880  1.00  0.00     0.014 A 
ATOM     32  C   UNL A   1      39.233  26.007  27.780  1.00  0.00     0.010 A 
ATOM     33  C   UNL A   1      41.332  25.088  28.557  1.00  0.00     0.010 A 
ATOM     34  C   UNL A   1      40.449  26.156  28.443  1.00  0.00    -0.014 A 
BRANCH  34  35
ATOM     35  C   UNL A   1      40.738  27.451  29.037  1.00  0.00     0.031 A 
ATOM     36  C   UNL A   1      41.881  28.188  28.427  1.00  0.00     0.074 A 
ATOM     37  C   UNL A   1      39.946  27.978  29.991  1.00  0.00     0.049 A 
ATOM     38  N   UNL A   1      42.998  28.540  28.976  1.00  0.00    -0.248 NA
ATOM     39  C   UNL A   1      41.828  28.439  26.979  1.00  0.00     0.031 C 
ATOM     40  C   UNL A   1      38.632  27.506  30.440  1.00  0.00     0.029 A 
ATOM     41  N   UNL A   1      40.092  29.140  30.675  1.00  0.00    -0.354 N 
ATOM     42  C   UNL A   1      43.718  29.226  27.994  1.00  0.00     0.074 A 
ATOM     43  C   UNL A   1      43.021  28.989  26.755  1.00  0.00     0.031 C 
ATOM     44  C   UNL A   1      37.998  28.512  31.081  1.00  0.00     0.029 A 
ATOM     45  C   UNL A   1      38.913  29.634  31.211  1.00  0.00     0.049 A 
ATOM     46  H   UNL A   1      40.961  29.593  30.783  1.00  0.00     0.167 HD
ATOM     47  C   UNL A   1      44.729  30.092  28.302  1.00  0.00     0.034 A 
ATOM     48  C   UNL A   1      38.684  30.920  31.581  1.00  0.00     0.034 A 
ATOM     49  C   UNL A   1      45.144  29.937  29.669  1.00  0.00     0.049 A 
ATOM     50  C   UNL A   1      40.007  31.582  31.756  1.00  0.00     0.074 A 
ATOM     51  C   UNL A   1      45.711  28.915  30.403  1.00  0.00     0.029 A 
ATOM     52  N   UNL A   1      44.657  30.836  30.588  1.00  0.00    -0.354 N 
ATOM     53  N   UNL A   1      40.852  31.277  32.704  1.00  0.00    -0.248 NA
ATOM     54  C   UNL A   1      40.587  32.227  30.584  1.00  0.00     0.031 C 
ATOM     55  C   UNL A   1      45.092  29.002  31.680  1.00  0.00     0.029 A 
ATOM     56  C   UNL A   1      44.241  30.110  31.672  1.00  0.00     0.049 A 
ATOM     57  H   UNL A   1      44.615  31.814  30.486  1.00  0.00     0.167 HD
ATOM     58  C   UNL A   1      42.091  31.276  32.080  1.00  0.00     0.074 A 
ATOM     59  C   UNL A   1      41.874  31.941  30.794  1.00  0.00     0.031 C 
ATOM     60  C   UNL A   1      43.116  30.478  32.506  1.00  0.00     0.034 A 
BRANCH  47  61
ATOM     61  C   UNL A   1      45.120  31.302  27.483  1.00  0.00     0.023 A 
ATOM     62  C   UNL A   1      44.315  32.449  27.370  1.00  0.00     0.031 A 
ATOM     63  C   UNL A   1      46.437  31.429  26.989  1.00  0.00     0.131 A 
ATOM     64  C   UNL A   1      44.807  33.643  26.825  1.00  0.00     0.055 A 
ATOM     65  C   UNL A   1      46.949  32.639  26.504  1.00  0.00     0.041 A 
ATOM     66  F   UNL A   1      47.294  30.397  27.023  1.00  0.00    -0.206 F 
ATOM     67  C   UNL A   1      46.133  33.759  26.427  1.00  0.00     0.022 A 
BRANCH  64  68
ATOM     68  S   UNL A   1      43.722  35.085  26.646  1.00  0.00     0.124 S 
ATOM     69  O   UNL A   1      44.683  36.182  26.621  1.00  0.00    -0.237 OA
ATOM     70  O   UNL A   1      43.055  34.797  25.379  1.00  0.00    -0.237 OA
ATOM     71  O   UNL A   1      42.864  35.014  27.825  1.00  0.00    -0.744 OA
ENDBRANCH  64  68
ENDBRANCH  47  61
BRANCH  48  72
ATOM     72  C   UNL A   1      37.463  31.684  31.207  1.00  0.00     0.023 A 
ATOM     73  C   UNL A   1      36.727  32.359  32.202  1.00  0.00     0.031 A 
ATOM     74  C   UNL A   1      36.852  31.532  29.953  1.00  0.00     0.131 A 
ATOM     75  C   UNL A   1      35.430  32.821  31.951  1.00  0.00     0.055 A 
ATOM     76  C   UNL A   1      35.558  32.008  29.697  1.00  0.00     0.041 A 
ATOM     77  F   UNL A   1      37.474  30.863  28.969  1.00  0.00    -0.206 F 
ATOM     78  C   UNL A   1      34.835  32.648  30.704  1.00  0.00     0.022 A 
BRANCH  75  79
ATOM     79  S   UNL A   1      34.474  33.596  33.285  1.00  0.00     0.124 S 
ATOM     80  O   UNL A   1      35.260  33.259  34.469  1.00  0.00    -0.237 OA
ATOM     81  O   UNL A   1      34.499  34.999  32.891  1.00  0.00    -0.237 OA
ATOM     82  O   UNL A   1      33.174  32.935  33.201  1.00  0.00    -0.744 OA
ENDBRANCH  75  79
ENDBRANCH  48  72
BRANCH  60  83
ATOM     83  C   UNL A   1      42.982  29.697  33.793  1.00  0.00     0.023 A 
ATOM     84  C   UNL A   1      43.662  30.201  34.916  1.00  0.00     0.031 A 
ATOM     85  C   UNL A   1      42.484  28.382  33.875  1.00  0.00     0.131 A 
ATOM     86  C   UNL A   1      43.886  29.388  36.033  1.00  0.00     0.055 A 
ATOM     87  C   UNL A   1      42.642  27.600  35.023  1.00  0.00     0.041 A 
ATOM     88  F   UNL A   1      41.927  27.776  32.819  1.00  0.00    -0.206 F 
ATOM     89  C   UNL A   1      43.366  28.094  36.102  1.00  0.00     0.022 A 
BRANCH  86  90
ATOM     90  S   UNL A   1      45.022  29.928  37.336  1.00  0.00     0.124 S 
ATOM     91  O   UNL A   1      44.103  30.342  38.392  1.00  0.00    -0.237 OA
ATOM     92  O   UNL A   1      45.782  28.710  37.609  1.00  0.00    -0.237 OA
ATOM     93  O   UNL A   1      45.788  31.006  36.716  1.00  0.00    -0.744 OA
ENDBRANCH  86  90
ENDBRANCH  60  83
ENDBRANCH  34  35
ENDBRANCH  26  29
ENDBRANCH  24  25
ENDBRANCH  23  24
ENDBRANCH   1  23
TORSDOF 18
ENDMDL
MODEL 3
REMARK VINA RESULT:     -11.5      2.944      8.979
REMARK SMILES CCn1c(=O)n(CC)c2cc(C(=O)NCCCCCCNC(=O)c3ccc(-c4c5nc(c(-c6cc(S(=O)(=O)[O-])ccc6F)c6ccc([nH]6)c(-c6cc(S(=O)(=O)[O-])ccc6F)c6nc(c(-c7cc(S(=O)(=O)[O-])ccc7F)c7ccc4[nH]7)C=C6)C=C5)cc3)ccc21
REMARK SMILES IDX 18 1 17 2 16 3 15 4 14 5 12 6 13 7 11 9 3 10 4 11 89 12 5 13
REMARK SMILES IDX 6 14 9 15 88 16 10 17 87 18 2 19 1 20 7 21 8 22 19 23 20 24
REMARK SMILES IDX 21 25 22 26 23 28 24 29 25 30 86 31 26 32 85 33 27 34 28 35
REMARK SMILES IDX 29 36 79 37 30 38 84 39 78 40 80 41 31 42 83 43 77 44 76 45
REMARK SMILES IDX 32 47 64 48 44 49 63 50 45 51 48 52 62 53 81 54 46 55 47 56
REMARK SMILES IDX 61 58 82 59 49 60 33 61 34 62 42 63 35 64 41 65 43 66 40 67
REMARK SMILES IDX 36 68 37 69 38 70 39 71 65 72 66 73 74 74 67 75 73 76 75 77
REMARK SMILES IDX 72 78 68 79 69 80 70 81 71 82 50 83 51 84 59 85 52 86 58 87
REMARK SMILES IDX 60 88 57 89 53 90 54 91 55 92 56 93
REMARK H PARENT 14 8 21 27 80 46 48 57
REMARK Flexibility Score: inf
ROOT
ATOM      1  C   UNL A   1      36.540  21.610  24.543  1.00  0.00     0.002 C 
ENDROOT
BRANCH   1   2
ATOM      2  C   UNL A   1      35.110  22.170  24.545  1.00  0.00     0.002 C 
BRANCH   2   3
ATOM      3  C   UNL A   1      34.019  21.099  24.654  1.00  0.00     0.021 C 
BRANCH   3   4
ATOM      4  C   UNL A   1      32.622  21.662  24.381  1.00  0.00     0.116 C 
BRANCH   4   5
ATOM      5  N   UNL A   1      31.960  21.944  25.640  1.00  0.00    -0.352 N 
ATOM      6  C   UNL A   1      31.321  23.052  26.127  1.00  0.00     0.251 C 
ATOM      7  O   UNL A   1      30.890  22.998  27.280  1.00  0.00    -0.269 OA
ATOM      8  H   UNL A   1      31.972  21.188  26.270  1.00  0.00     0.163 HD
BRANCH   6   9
ATOM      9  C   UNL A   1      31.066  24.285  25.324  1.00  0.00     0.042 A 
ATOM     10  N   UNL A   1      30.322  28.043  23.670  1.00  0.00    -0.292 N 
ATOM     11  C   UNL A   1      31.036  28.861  24.592  1.00  0.00     0.329 A 
ATOM     12  C   UNL A   1      30.491  26.700  24.041  1.00  0.00     0.069 A 
ATOM     13  O   UNL A   1      31.177  30.066  24.542  1.00  0.00    -0.248 OA
ATOM     14  N   UNL A   1      31.586  27.983  25.554  1.00  0.00    -0.292 N 
ATOM     15  C   UNL A   1      31.229  26.670  25.228  1.00  0.00     0.070 A 
ATOM     16  C   UNL A   1      30.105  25.527  23.436  1.00  0.00     0.029 A 
ATOM     17  C   UNL A   1      31.521  25.490  25.884  1.00  0.00     0.042 A 
ATOM     18  C   UNL A   1      30.426  24.318  24.070  1.00  0.00     0.016 A 
BRANCH  10  19
ATOM     19  C   UNL A   1      29.684  28.602  22.503  1.00  0.00     0.124 C 
ATOM     20  C   UNL A   1      28.237  29.048  22.627  1.00  0.00     0.028 C 
ENDBRANCH  10  19
BRANCH  14  21
ATOM     21  C   UNL A   1      32.484  28.377  26.611  1.00  0.00     0.124 C 
ATOM     22  C   UNL A   1      31.882  28.248  28.000  1.00  0.00     0.028 C 
ENDBRANCH  14  21
ENDBRANCH   6   9
ENDBRANCH   4   5
ENDBRANCH   3   4
ENDBRANCH   2   3
ENDBRANCH   1   2
BRANCH   1  23
ATOM     23  C   UNL A   1      37.620  22.607  24.983  1.00  0.00     0.021 C 
BRANCH  23  24
ATOM     24  C   UNL A   1      38.412  22.139  26.203  1.00  0.00     0.116 C 
BRANCH  24  25
ATOM     25  N   UNL A   1      39.842  22.137  25.980  1.00  0.00    -0.352 N 
ATOM     26  C   UNL A   1      40.876  22.938  26.377  1.00  0.00     0.251 C 
ATOM     27  H   UNL A   1      40.138  21.389  25.411  1.00  0.00     0.163 HD
ATOM     28  O   UNL A   1      41.993  22.617  25.965  1.00  0.00    -0.269 OA
BRANCH  26  29
ATOM     29  C   UNL A   1      40.726  24.176  27.187  1.00  0.00     0.039 A 
ATOM     30  C   UNL A   1      39.677  25.092  27.084  1.00  0.00     0.014 A 
ATOM     31  C   UNL A   1      41.769  24.444  28.092  1.00  0.00     0.014 A 
ATOM     32  C   UNL A   1      39.738  26.309  27.747  1.00  0.00     0.010 A 
ATOM     33  C   UNL A   1      41.818  25.642  28.787  1.00  0.00     0.010 A 
ATOM     34  C   UNL A   1      40.836  26.599  28.554  1.00  0.00    -0.014 A 
BRANCH  34  35
ATOM     35  C   UNL A   1      40.893  27.916  29.168  1.00  0.00     0.031 A 
ATOM     36  C   UNL A   1      41.819  28.881  28.511  1.00  0.00     0.074 A 
ATOM     37  C   UNL A   1      40.074  28.252  30.183  1.00  0.00     0.049 A 
ATOM     38  N   UNL A   1      42.875  29.447  29.002  1.00  0.00    -0.248 NA
ATOM     39  C   UNL A   1      41.622  29.140  27.077  1.00  0.00     0.031 C 
ATOM     40  C   UNL A   1      38.916  27.514  30.696  1.00  0.00     0.029 A 
ATOM     41  N   UNL A   1      40.025  29.408  30.891  1.00  0.00    -0.354 N 
ATOM     42  C   UNL A   1      43.374  30.281  27.999  1.00  0.00     0.074 A 
ATOM     43  C   UNL A   1      42.661  29.927  26.798  1.00  0.00     0.031 C 
ATOM     44  C   UNL A   1      38.133  28.358  31.404  1.00  0.00     0.029 A 
ATOM     45  C   UNL A   1      38.807  29.641  31.511  1.00  0.00     0.049 A 
ATOM     46  H   UNL A   1      40.788  30.028  30.959  1.00  0.00     0.167 HD
ATOM     47  C   UNL A   1      44.206  31.331  28.270  1.00  0.00     0.034 A 
ATOM     48  C   UNL A   1      38.345  30.846  31.932  1.00  0.00     0.034 A 
ATOM     49  C   UNL A   1      44.731  31.242  29.605  1.00  0.00     0.049 A 
ATOM     50  C   UNL A   1      39.514  31.763  32.046  1.00  0.00     0.074 A 
ATOM     51  C   UNL A   1      45.541  30.347  30.273  1.00  0.00     0.029 A 
ATOM     52  N   UNL A   1      44.132  32.007  30.578  1.00  0.00    -0.354 N 
ATOM     53  N   UNL A   1      40.463  31.623  32.932  1.00  0.00    -0.248 NA
ATOM     54  C   UNL A   1      39.872  32.533  30.860  1.00  0.00     0.031 C 
ATOM     55  C   UNL A   1      45.002  30.284  31.587  1.00  0.00     0.029 A 
ATOM     56  C   UNL A   1      43.945  31.194  31.663  1.00  0.00     0.049 A 
ATOM     57  H   UNL A   1      43.885  32.958  30.508  1.00  0.00     0.167 HD
ATOM     58  C   UNL A   1      41.634  31.886  32.234  1.00  0.00     0.074 A 
ATOM     59  C   UNL A   1      41.202  32.514  30.984  1.00  0.00     0.031 C 
ATOM     60  C   UNL A   1      42.825  31.309  32.574  1.00  0.00     0.034 A 
BRANCH  47  61
ATOM     61  C   UNL A   1      44.286  32.609  27.465  1.00  0.00     0.023 A 
ATOM     62  C   UNL A   1      43.616  33.790  27.825  1.00  0.00     0.031 A 
ATOM     63  C   UNL A   1      45.248  32.740  26.438  1.00  0.00     0.131 A 
ATOM     64  C   UNL A   1      43.908  35.018  27.214  1.00  0.00     0.055 A 
ATOM     65  C   UNL A   1      45.586  33.977  25.874  1.00  0.00     0.041 A 
ATOM     66  F   UNL A   1      45.939  31.679  25.994  1.00  0.00    -0.206 F 
ATOM     67  C   UNL A   1      44.919  35.127  26.268  1.00  0.00     0.022 A 
BRANCH  64  68
ATOM     68  S   UNL A   1      42.983  36.511  27.667  1.00  0.00     0.124 S 
ATOM     69  O   UNL A   1      43.257  36.611  29.097  1.00  0.00    -0.237 OA
ATOM     70  O   UNL A   1      43.623  37.520  26.827  1.00  0.00    -0.237 OA
ATOM     71  O   UNL A   1      41.608  36.184  27.301  1.00  0.00    -0.744 OA
ENDBRANCH  64  68
ENDBRANCH  47  61
BRANCH  48  72
ATOM     72  C   UNL A   1      36.973  31.349  31.655  1.00  0.00     0.023 A 
ATOM     73  C   UNL A   1      36.521  31.458  30.324  1.00  0.00     0.031 A 
ATOM     74  C   UNL A   1      36.206  31.985  32.644  1.00  0.00     0.131 A 
ATOM     75  C   UNL A   1      35.378  32.201  30.008  1.00  0.00     0.055 A 
ATOM     76  C   UNL A   1      35.052  32.718  32.329  1.00  0.00     0.041 A 
ATOM     77  F   UNL A   1      36.596  31.962  33.928  1.00  0.00    -0.206 F 
ATOM     78  C   UNL A   1      34.638  32.837  31.002  1.00  0.00     0.022 A 
BRANCH  75  79
ATOM     79  S   UNL A   1      34.883  32.403  28.274  1.00  0.00     0.124 S 
ATOM     80  O   UNL A   1      34.649  31.023  27.853  1.00  0.00    -0.237 OA
ATOM     81  O   UNL A   1      33.690  33.232  28.401  1.00  0.00    -0.237 OA
ATOM     82  O   UNL A   1      36.042  33.045  27.661  1.00  0.00    -0.744 OA
ENDBRANCH  75  79
ENDBRANCH  48  72
BRANCH  60  83
ATOM     83  C   UNL A   1      42.937  30.496  33.843  1.00  0.00     0.023 A 
ATOM     84  C   UNL A   1      42.545  29.147  33.771  1.00  0.00     0.031 A 
ATOM     85  C   UNL A   1      43.117  31.050  35.126  1.00  0.00     0.131 A 
ATOM     86  C   UNL A   1      42.283  28.422  34.939  1.00  0.00     0.055 A 
ATOM     87  C   UNL A   1      42.929  30.298  36.290  1.00  0.00     0.041 A 
ATOM     88  F   UNL A   1      43.374  32.352  35.298  1.00  0.00    -0.206 F 
ATOM     89  C   UNL A   1      42.489  28.984  36.201  1.00  0.00     0.022 A 
BRANCH  86  90
ATOM     90  S   UNL A   1      41.485  26.799  34.840  1.00  0.00     0.124 S 
ATOM     91  O   UNL A   1      41.081  26.571  36.224  1.00  0.00    -0.237 OA
ATOM     92  O   UNL A   1      40.394  27.048  33.901  1.00  0.00    -0.237 OA
ATOM     93  O   UNL A   1      42.536  25.916  34.342  1.00  0.00    -0.744 OA
ENDBRANCH  86  90
ENDBRANCH  60  83
ENDBRANCH  34  35
ENDBRANCH  26  29
ENDBRANCH  24  25
ENDBRANCH  23  24
ENDBRANCH   1  23
TORSDOF 18
ENDMDL
