MODEL 1
REMARK VINA RESULT:     -11.2      0.000      0.000
REMARK SMILES O=C(NCCCCCCNC(=O)c1cnc(OCC2CC2)c(Cl)c1)c1ccc(-c2c3nc(c(-c4cc(S(=O)(=O)[O-])ccc4F)c4ccc([nH]4)c(-c4cc(S(=O)(=O)[O-])ccc4F)c4nc(c(-c5cc(S(=O)(=O)[O-])ccc5F)c5ccc2[nH]5)C=C4)C=C3)cc1
REMARK SMILES IDX 6 1 5 2 4 3 3 4 1 5 2 6 25 8 26 9 87 10 27 11 86 12 28 13
REMARK SMILES IDX 29 14 30 15 80 16 31 17 85 18 79 19 81 20 32 21 84 22 78 23
REMARK SMILES IDX 77 24 33 26 65 27 45 28 64 29 46 30 49 31 63 32 82 33 47 34
REMARK SMILES IDX 48 35 62 37 83 38 50 39 34 40 35 41 43 42 36 43 42 44 44 45
REMARK SMILES IDX 41 46 37 47 38 48 39 49 40 50 66 51 67 52 75 53 68 54 74 55
REMARK SMILES IDX 76 56 73 57 69 58 70 59 71 60 72 61 51 62 52 63 60 64 53 65
REMARK SMILES IDX 59 66 61 67 58 68 54 69 55 70 56 71 57 72 7 73 8 74 9 75
REMARK SMILES IDX 10 76 11 77 12 79 13 80 14 81 24 82 15 83 22 84 16 85 23 86
REMARK SMILES IDX 17 87 18 88 19 89 20 90 21 91
REMARK H PARENT 3 7 81 25 49 36 10 78
REMARK Flexibility Score: inf
ROOT
ATOM      1  C   UNL A   1      31.189  28.910  23.881  1.00  0.00     0.002 C 
ENDROOT
BRANCH   1   2
ATOM      2  C   UNL A   1      32.702  28.715  23.944  1.00  0.00     0.021 C 
BRANCH   2   3
ATOM      3  C   UNL A   1      33.366  29.235  25.213  1.00  0.00     0.116 C 
BRANCH   3   4
ATOM      4  N   UNL A   1      32.714  30.419  25.752  1.00  0.00    -0.352 N 
ATOM      5  O   UNL A   1      32.348  32.074  27.247  1.00  0.00    -0.269 OA
ATOM      6  C   UNL A   1      33.082  31.177  26.841  1.00  0.00     0.251 C 
ATOM      7  H   UNL A   1      31.906  30.717  25.278  1.00  0.00     0.163 HD
BRANCH   6   8
ATOM      8  C   UNL A   1      34.359  30.884  27.533  1.00  0.00     0.039 A 
ATOM      9  C   UNL A   1      34.639  29.589  27.973  1.00  0.00     0.014 A 
ATOM     10  C   UNL A   1      35.274  31.916  27.762  1.00  0.00     0.014 A 
ATOM     11  C   UNL A   1      35.752  29.359  28.770  1.00  0.00     0.010 A 
ATOM     12  C   UNL A   1      36.445  31.660  28.486  1.00  0.00     0.010 A 
ATOM     13  C   UNL A   1      36.680  30.384  29.021  1.00  0.00    -0.014 A 
BRANCH  13  14
ATOM     14  C   UNL A   1      37.913  30.053  29.784  1.00  0.00     0.031 A 
ATOM     15  C   UNL A   1      38.113  30.520  31.200  1.00  0.00     0.074 A 
ATOM     16  C   UNL A   1      38.826  29.255  29.196  1.00  0.00     0.049 A 
ATOM     17  N   UNL A   1      39.097  30.254  32.022  1.00  0.00    -0.248 NA
ATOM     18  C   UNL A   1      37.085  31.406  31.765  1.00  0.00     0.031 C 
ATOM     19  C   UNL A   1      38.742  28.759  27.818  1.00  0.00     0.029 A 
ATOM     20  N   UNL A   1      39.978  28.690  29.678  1.00  0.00    -0.354 N 
ATOM     21  C   UNL A   1      38.813  30.939  33.198  1.00  0.00     0.074 A 
ATOM     22  C   UNL A   1      37.580  31.665  32.968  1.00  0.00     0.031 C 
ATOM     23  C   UNL A   1      39.758  27.917  27.589  1.00  0.00     0.029 A 
ATOM     24  C   UNL A   1      40.607  27.866  28.773  1.00  0.00     0.049 A 
ATOM     25  H   UNL A   1      40.323  28.858  30.585  1.00  0.00     0.167 HD
ATOM     26  C   UNL A   1      39.511  30.951  34.362  1.00  0.00     0.034 A 
ATOM     27  C   UNL A   1      41.747  27.158  28.874  1.00  0.00     0.034 A 
ATOM     28  C   UNL A   1      40.743  30.225  34.571  1.00  0.00     0.049 A 
ATOM     29  C   UNL A   1      42.504  27.200  30.173  1.00  0.00     0.074 A 
ATOM     30  C   UNL A   1      41.532  30.169  35.709  1.00  0.00     0.029 A 
ATOM     31  N   UNL A   1      41.370  29.427  33.620  1.00  0.00    -0.354 N 
ATOM     32  N   UNL A   1      42.213  27.850  31.276  1.00  0.00    -0.248 NA
ATOM     33  C   UNL A   1      43.737  26.408  30.243  1.00  0.00     0.031 C 
ATOM     34  C   UNL A   1      42.658  29.388  35.428  1.00  0.00     0.029 A 
ATOM     35  C   UNL A   1      42.542  28.895  34.139  1.00  0.00     0.049 A 
ATOM     36  H   UNL A   1      41.032  29.265  32.710  1.00  0.00     0.167 HD
ATOM     37  C   UNL A   1      43.230  27.542  32.173  1.00  0.00     0.074 A 
ATOM     38  C   UNL A   1      44.112  26.613  31.496  1.00  0.00     0.031 C 
ATOM     39  C   UNL A   1      43.427  27.994  33.438  1.00  0.00     0.034 A 
BRANCH  26  40
ATOM     40  C   UNL A   1      38.975  31.804  35.489  1.00  0.00     0.023 A 
ATOM     41  C   UNL A   1      38.358  31.235  36.616  1.00  0.00     0.031 A 
ATOM     42  C   UNL A   1      39.086  33.206  35.436  1.00  0.00     0.131 A 
ATOM     43  C   UNL A   1      37.828  32.064  37.618  1.00  0.00     0.055 A 
ATOM     44  C   UNL A   1      38.618  34.021  36.469  1.00  0.00     0.041 A 
ATOM     45  F   UNL A   1      39.649  33.807  34.376  1.00  0.00    -0.206 F 
ATOM     46  C   UNL A   1      37.974  33.451  37.564  1.00  0.00     0.022 A 
BRANCH  43  47
ATOM     47  S   UNL A   1      36.845  31.307  38.942  1.00  0.00     0.124 S 
ATOM     48  O   UNL A   1      37.773  31.363  40.070  1.00  0.00    -0.237 OA
ATOM     49  O   UNL A   1      35.688  32.192  39.025  1.00  0.00    -0.237 OA
ATOM     50  O   UNL A   1      36.568  29.963  38.439  1.00  0.00    -0.744 OA
ENDBRANCH  43  47
ENDBRANCH  26  40
BRANCH  27  51
ATOM     51  C   UNL A   1      42.258  26.386  27.706  1.00  0.00     0.023 A 
ATOM     52  C   UNL A   1      41.873  25.056  27.484  1.00  0.00     0.031 A 
ATOM     53  C   UNL A   1      43.174  26.967  26.809  1.00  0.00     0.131 A 
ATOM     54  C   UNL A   1      42.435  24.336  26.419  1.00  0.00     0.055 A 
ATOM     55  C   UNL A   1      43.684  26.265  25.716  1.00  0.00     0.041 A 
ATOM     56  F   UNL A   1      43.574  28.238  26.973  1.00  0.00    -0.206 F 
ATOM     57  C   UNL A   1      43.326  24.936  25.525  1.00  0.00     0.022 A 
BRANCH  54  58
ATOM     58  S   UNL A   1      42.060  22.568  26.272  1.00  0.00     0.124 S 
ATOM     59  O   UNL A   1      42.681  22.029  27.476  1.00  0.00    -0.237 OA
ATOM     60  O   UNL A   1      40.600  22.571  26.251  1.00  0.00    -0.237 OA
ATOM     61  O   UNL A   1      42.698  22.187  25.015  1.00  0.00    -0.744 OA
ENDBRANCH  54  58
ENDBRANCH  27  51
BRANCH  39  62
ATOM     62  C   UNL A   1      44.644  27.466  34.155  1.00  0.00     0.023 A 
ATOM     63  C   UNL A   1      44.575  26.317  34.963  1.00  0.00     0.031 A 
ATOM     64  C   UNL A   1      45.870  28.150  34.078  1.00  0.00     0.131 A 
ATOM     65  C   UNL A   1      45.689  25.930  35.723  1.00  0.00     0.055 A 
ATOM     66  C   UNL A   1      46.992  27.722  34.787  1.00  0.00     0.041 A 
ATOM     67  F   UNL A   1      45.991  29.254  33.323  1.00  0.00    -0.206 F 
ATOM     68  C   UNL A   1      46.901  26.617  35.629  1.00  0.00     0.022 A 
BRANCH  65  69
ATOM     69  S   UNL A   1      45.491  24.588  36.928  1.00  0.00     0.124 S 
ATOM     70  O   UNL A   1      45.015  25.305  38.107  1.00  0.00    -0.237 OA
ATOM     71  O   UNL A   1      44.518  23.721  36.273  1.00  0.00    -0.237 OA
ATOM     72  O   UNL A   1      46.839  24.032  37.043  1.00  0.00    -0.744 OA
ENDBRANCH  65  69
ENDBRANCH  39  62
ENDBRANCH  13  14
ENDBRANCH   6   8
ENDBRANCH   3   4
ENDBRANCH   2   3
ENDBRANCH   1   2
BRANCH   1  73
ATOM     73  C   UNL A   1      30.352  27.641  24.078  1.00  0.00     0.002 C 
BRANCH  73  74
ATOM     74  C   UNL A   1      31.022  26.526  24.890  1.00  0.00     0.021 C 
BRANCH  74  75
ATOM     75  C   UNL A   1      30.403  25.139  24.712  1.00  0.00     0.116 C 
BRANCH  75  76
ATOM     76  N   UNL A   1      29.910  24.617  25.979  1.00  0.00    -0.352 N 
ATOM     77  C   UNL A   1      30.304  23.489  26.640  1.00  0.00     0.252 C 
ATOM     78  H   UNL A   1      29.204  25.147  26.414  1.00  0.00     0.163 HD
ATOM     79  O   UNL A   1      29.697  23.077  27.629  1.00  0.00    -0.269 OA
BRANCH  77  80
ATOM     80  C   UNL A   1      31.494  22.779  26.180  1.00  0.00     0.059 A 
ATOM     81  C   UNL A   1      32.750  23.174  26.598  1.00  0.00     0.129 A 
ATOM     82  C   UNL A   1      31.378  21.729  25.275  1.00  0.00     0.041 A 
ATOM     83  N   UNL A   1      33.884  22.536  26.220  1.00  0.00    -0.220 NA
ATOM     84  C   UNL A   1      32.536  21.091  24.828  1.00  0.00     0.104 A 
ATOM     85  C   UNL A   1      33.766  21.487  25.364  1.00  0.00     0.232 A 
ATOM     86  Cl  UNL A   1      32.337  19.925  23.574  1.00  0.00    -0.078 Cl
BRANCH  85  87
ATOM     87  O   UNL A   1      34.980  20.967  25.024  1.00  0.00    -0.476 OA
BRANCH  87  88
ATOM     88  C   UNL A   1      36.125  21.444  25.740  1.00  0.00     0.235 C 
BRANCH  88  89
ATOM     89  C   UNL A   1      37.119  22.179  24.893  1.00  0.00     0.027 C 
ATOM     90  C   UNL A   1      36.764  22.882  23.604  1.00  0.00     0.007 C 
ATOM     91  C   UNL A   1      37.029  23.687  24.842  1.00  0.00     0.007 C 
ENDBRANCH  88  89
ENDBRANCH  87  88
ENDBRANCH  85  87
ENDBRANCH  77  80
ENDBRANCH  75  76
ENDBRANCH  74  75
ENDBRANCH  73  74
ENDBRANCH   1  73
TORSDOF 19
ENDMDL
MODEL 2
REMARK VINA RESULT:     -10.8      2.542      3.034
REMARK SMILES O=C(NCCCCCCNC(=O)c1cnc(OCC2CC2)c(Cl)c1)c1ccc(-c2c3nc(c(-c4cc(S(=O)(=O)[O-])ccc4F)c4ccc([nH]4)c(-c4cc(S(=O)(=O)[O-])ccc4F)c4nc(c(-c5cc(S(=O)(=O)[O-])ccc5F)c5ccc2[nH]5)C=C4)C=C3)cc1
REMARK SMILES IDX 6 1 5 2 4 3 3 4 1 5 2 6 25 8 26 9 87 10 27 11 86 12 28 13
REMARK SMILES IDX 29 14 30 15 80 16 31 17 85 18 79 19 81 20 32 21 84 22 78 23
REMARK SMILES IDX 77 24 33 26 65 27 45 28 64 29 46 30 49 31 63 32 82 33 47 34
REMARK SMILES IDX 48 35 62 37 83 38 50 39 34 40 35 41 43 42 36 43 42 44 44 45
REMARK SMILES IDX 41 46 37 47 38 48 39 49 40 50 66 51 67 52 75 53 68 54 74 55
REMARK SMILES IDX 76 56 73 57 69 58 70 59 71 60 72 61 51 62 52 63 60 64 53 65
REMARK SMILES IDX 59 66 61 67 58 68 54 69 55 70 56 71 57 72 7 73 8 74 9 75
REMARK SMILES IDX 10 76 11 77 12 79 13 80 14 81 24 82 15 83 22 84 16 85 23 86
REMARK SMILES IDX 17 87 18 88 19 89 20 90 21 91
REMARK H PARENT 3 7 81 25 49 36 10 78
REMARK Flexibility Score: inf
ROOT
ATOM      1  C   UNL A   1      32.021  27.046  26.087  1.00  0.00     0.002 C 
ENDROOT
BRANCH   1   2
ATOM      2  C   UNL A   1      32.202  28.195  25.095  1.00  0.00     0.021 C 
BRANCH   2   3
ATOM      3  C   UNL A   1      33.267  29.214  25.477  1.00  0.00     0.116 C 
BRANCH   3   4
ATOM      4  N   UNL A   1      32.708  30.466  25.967  1.00  0.00    -0.352 N 
ATOM      5  O   UNL A   1      32.522  32.242  27.351  1.00  0.00    -0.269 OA
ATOM      6  C   UNL A   1      33.185  31.283  26.967  1.00  0.00     0.251 C 
ATOM      7  H   UNL A   1      31.881  30.767  25.526  1.00  0.00     0.163 HD
BRANCH   6   8
ATOM      8  C   UNL A   1      34.493  30.979  27.591  1.00  0.00     0.039 A 
ATOM      9  C   UNL A   1      34.772  29.691  28.050  1.00  0.00     0.014 A 
ATOM     10  C   UNL A   1      35.442  31.997  27.739  1.00  0.00     0.014 A 
ATOM     11  C   UNL A   1      35.924  29.457  28.787  1.00  0.00     0.010 A 
ATOM     12  C   UNL A   1      36.647  31.733  28.400  1.00  0.00     0.010 A 
ATOM     13  C   UNL A   1      36.887  30.467  28.956  1.00  0.00    -0.014 A 
BRANCH  13  14
ATOM     14  C   UNL A   1      38.155  30.129  29.655  1.00  0.00     0.031 A 
ATOM     15  C   UNL A   1      38.454  30.641  31.037  1.00  0.00     0.074 A 
ATOM     16  C   UNL A   1      39.009  29.284  29.043  1.00  0.00     0.049 A 
ATOM     17  N   UNL A   1      39.479  30.376  31.807  1.00  0.00    -0.248 NA
ATOM     18  C   UNL A   1      37.486  31.576  31.629  1.00  0.00     0.031 C 
ATOM     19  C   UNL A   1      38.827  28.742  27.693  1.00  0.00     0.029 A 
ATOM     20  N   UNL A   1      40.174  28.704  29.476  1.00  0.00    -0.354 N 
ATOM     21  C   UNL A   1      39.286  31.111  32.973  1.00  0.00     0.074 A 
ATOM     22  C   UNL A   1      38.061  31.864  32.789  1.00  0.00     0.031 C 
ATOM     23  C   UNL A   1      39.805  27.863  27.435  1.00  0.00     0.029 A 
ATOM     24  C   UNL A   1      40.723  27.831  28.566  1.00  0.00     0.049 A 
ATOM     25  H   UNL A   1      40.577  28.895  30.353  1.00  0.00     0.167 HD
ATOM     26  C   UNL A   1      40.054  31.146  34.091  1.00  0.00     0.034 A 
ATOM     27  C   UNL A   1      41.848  27.095  28.625  1.00  0.00     0.034 A 
ATOM     28  C   UNL A   1      41.277  30.393  34.252  1.00  0.00     0.049 A 
ATOM     29  C   UNL A   1      42.685  27.161  29.873  1.00  0.00     0.074 A 
ATOM     30  C   UNL A   1      42.132  30.355  35.342  1.00  0.00     0.029 A 
ATOM     31  N   UNL A   1      41.824  29.544  33.296  1.00  0.00    -0.354 N 
ATOM     32  N   UNL A   1      42.480  27.859  30.966  1.00  0.00    -0.248 NA
ATOM     33  C   UNL A   1      43.898  26.338  29.898  1.00  0.00     0.031 C 
ATOM     34  C   UNL A   1      43.219  29.532  35.023  1.00  0.00     0.029 A 
ATOM     35  C   UNL A   1      43.011  28.997  33.763  1.00  0.00     0.049 A 
ATOM     36  H   UNL A   1      41.426  29.358  32.415  1.00  0.00     0.167 HD
ATOM     37  C   UNL A   1      43.541  27.555  31.811  1.00  0.00     0.074 A 
ATOM     38  C   UNL A   1      44.355  26.577  31.118  1.00  0.00     0.031 C 
ATOM     39  C   UNL A   1      43.827  28.047  33.044  1.00  0.00     0.034 A 
BRANCH  26  40
ATOM     40  C   UNL A   1      39.611  32.054  35.215  1.00  0.00     0.023 A 
ATOM     41  C   UNL A   1      40.098  33.366  35.339  1.00  0.00     0.031 A 
ATOM     42  C   UNL A   1      38.687  31.602  36.174  1.00  0.00     0.131 A 
ATOM     43  C   UNL A   1      39.701  34.162  36.426  1.00  0.00     0.055 A 
ATOM     44  C   UNL A   1      38.243  32.421  37.213  1.00  0.00     0.041 A 
ATOM     45  F   UNL A   1      38.201  30.351  36.118  1.00  0.00    -0.206 F 
ATOM     46  C   UNL A   1      38.760  33.707  37.351  1.00  0.00     0.022 A 
BRANCH  43  47
ATOM     47  S   UNL A   1      40.519  35.762  36.676  1.00  0.00     0.124 S 
ATOM     48  O   UNL A   1      40.461  35.900  38.130  1.00  0.00    -0.237 OA
ATOM     49  O   UNL A   1      41.844  35.534  36.110  1.00  0.00    -0.237 OA
ATOM     50  O   UNL A   1      39.676  36.698  35.935  1.00  0.00    -0.744 OA
ENDBRANCH  43  47
ENDBRANCH  26  40
BRANCH  27  51
ATOM     51  C   UNL A   1      42.267  26.267  27.458  1.00  0.00     0.023 A 
ATOM     52  C   UNL A   1      41.913  24.914  27.358  1.00  0.00     0.031 A 
ATOM     53  C   UNL A   1      43.062  26.818  26.437  1.00  0.00     0.131 A 
ATOM     54  C   UNL A   1      42.390  24.146  26.285  1.00  0.00     0.055 A 
ATOM     55  C   UNL A   1      43.484  26.066  25.340  1.00  0.00     0.041 A 
ATOM     56  F   UNL A   1      43.427  28.110  26.481  1.00  0.00    -0.206 F 
ATOM     57  C   UNL A   1      43.160  24.716  25.268  1.00  0.00     0.022 A 
BRANCH  54  58
ATOM     58  S   UNL A   1      42.070  22.360  26.285  1.00  0.00     0.124 S 
ATOM     59  O   UNL A   1      42.538  21.972  27.610  1.00  0.00    -0.237 OA
ATOM     60  O   UNL A   1      40.626  22.313  26.075  1.00  0.00    -0.237 OA
ATOM     61  O   UNL A   1      42.876  21.870  25.170  1.00  0.00    -0.744 OA
ENDBRANCH  54  58
ENDBRANCH  27  51
BRANCH  39  62
ATOM     62  C   UNL A   1      45.072  27.510  33.706  1.00  0.00     0.023 A 
ATOM     63  C   UNL A   1      46.321  28.131  33.527  1.00  0.00     0.031 A 
ATOM     64  C   UNL A   1      45.019  26.334  34.474  1.00  0.00     0.131 A 
ATOM     65  C   UNL A   1      47.479  27.531  34.043  1.00  0.00     0.055 A 
ATOM     66  C   UNL A   1      46.167  25.777  35.039  1.00  0.00     0.041 A 
ATOM     67  F   UNL A   1      43.853  25.699  34.675  1.00  0.00    -0.206 F 
ATOM     68  C   UNL A   1      47.408  26.366  34.809  1.00  0.00     0.022 A 
BRANCH  65  69
ATOM     69  S   UNL A   1      49.091  28.231  33.593  1.00  0.00     0.124 S 
ATOM     70  O   UNL A   1      48.914  29.641  33.925  1.00  0.00    -0.237 OA
ATOM     71  O   UNL A   1      50.005  27.483  34.449  1.00  0.00    -0.237 OA
ATOM     72  O   UNL A   1      49.203  27.939  32.164  1.00  0.00    -0.744 OA
ENDBRANCH  65  69
ENDBRANCH  39  62
ENDBRANCH  13  14
ENDBRANCH   6   8
ENDBRANCH   3   4
ENDBRANCH   2   3
ENDBRANCH   1   2
BRANCH   1  73
ATOM     73  C   UNL A   1      30.792  26.162  25.853  1.00  0.00     0.002 C 
BRANCH  73  74
ATOM     74  C   UNL A   1      30.154  26.267  24.462  1.00  0.00     0.021 C 
BRANCH  74  75
ATOM     75  C   UNL A   1      30.521  25.138  23.498  1.00  0.00     0.116 C 
BRANCH  75  76
ATOM     76  N   UNL A   1      31.592  25.544  22.599  1.00  0.00    -0.352 N 
ATOM     77  C   UNL A   1      32.870  25.066  22.536  1.00  0.00     0.252 C 
ATOM     78  H   UNL A   1      31.365  26.251  21.953  1.00  0.00     0.163 HD
ATOM     79  O   UNL A   1      33.724  25.604  21.831  1.00  0.00    -0.269 OA
BRANCH  77  80
ATOM     80  C   UNL A   1      33.216  23.869  23.297  1.00  0.00     0.059 A 
ATOM     81  C   UNL A   1      33.020  22.614  22.756  1.00  0.00     0.129 A 
ATOM     82  C   UNL A   1      33.699  23.980  24.596  1.00  0.00     0.041 A 
ATOM     83  N   UNL A   1      33.345  21.473  23.409  1.00  0.00    -0.220 NA
ATOM     84  C   UNL A   1      33.990  22.818  25.312  1.00  0.00     0.104 A 
ATOM     85  C   UNL A   1      33.851  21.585  24.666  1.00  0.00     0.232 A 
ATOM     86  Cl  UNL A   1      34.409  23.019  26.972  1.00  0.00    -0.078 Cl
BRANCH  85  87
ATOM     87  O   UNL A   1      34.089  20.366  25.230  1.00  0.00    -0.476 OA
BRANCH  87  88
ATOM     88  C   UNL A   1      33.512  19.221  24.592  1.00  0.00     0.235 C 
BRANCH  88  89
ATOM     89  C   UNL A   1      34.492  18.132  24.278  1.00  0.00     0.027 C 
ATOM     90  C   UNL A   1      34.365  16.717  24.794  1.00  0.00     0.007 C 
ATOM     91  C   UNL A   1      34.043  17.018  23.360  1.00  0.00     0.007 C 
ENDBRANCH  88  89
ENDBRANCH  87  88
ENDBRANCH  85  87
ENDBRANCH  77  80
ENDBRANCH  75  76
ENDBRANCH  74  75
ENDBRANCH  73  74
ENDBRANCH   1  73
TORSDOF 19
ENDMDL
MODEL 3
REMARK VINA RESULT:     -10.8      5.173     10.168
REMARK SMILES O=C(NCCCCCCNC(=O)c1cnc(OCC2CC2)c(Cl)c1)c1ccc(-c2c3nc(c(-c4cc(S(=O)(=O)[O-])ccc4F)c4ccc([nH]4)c(-c4cc(S(=O)(=O)[O-])ccc4F)c4nc(c(-c5cc(S(=O)(=O)[O-])ccc5F)c5ccc2[nH]5)C=C4)C=C3)cc1
REMARK SMILES IDX 6 1 5 2 4 3 3 4 1 5 2 6 25 8 26 9 87 10 27 11 86 12 28 13
REMARK SMILES IDX 29 14 30 15 80 16 31 17 85 18 79 19 81 20 32 21 84 22 78 23
REMARK SMILES IDX 77 24 33 26 65 27 45 28 64 29 46 30 49 31 63 32 82 33 47 34
REMARK SMILES IDX 48 35 62 37 83 38 50 39 34 40 35 41 43 42 36 43 42 44 44 45
REMARK SMILES IDX 41 46 37 47 38 48 39 49 40 50 66 51 67 52 75 53 68 54 74 55
REMARK SMILES IDX 76 56 73 57 69 58 70 59 71 60 72 61 51 62 52 63 60 64 53 65
REMARK SMILES IDX 59 66 61 67 58 68 54 69 55 70 56 71 57 72 7 73 8 74 9 75
REMARK SMILES IDX 10 76 11 77 12 79 13 80 14 81 24 82 15 83 22 84 16 85 23 86
REMARK SMILES IDX 17 87 18 88 19 89 20 90 21 91
REMARK H PARENT 3 7 81 25 49 36 10 78
REMARK Flexibility Score: inf
ROOT
ATOM      1  C   UNL A   1      34.435  21.053  25.020  1.00  0.00     0.002 C 
ENDROOT
BRANCH   1   2
ATOM      2  C   UNL A   1      35.012  22.468  25.049  1.00  0.00     0.021 C 
BRANCH   2   3
ATOM      3  C   UNL A   1      36.297  22.623  25.850  1.00  0.00     0.116 C 
BRANCH   3   4
ATOM      4  N   UNL A   1      37.172  21.464  25.755  1.00  0.00    -0.352 N 
ATOM      5  O   UNL A   1      39.145  20.363  25.729  1.00  0.00    -0.269 OA
ATOM      6  C   UNL A   1      38.529  21.394  25.981  1.00  0.00     0.251 C 
ATOM      7  H   UNL A   1      36.738  20.620  25.493  1.00  0.00     0.163 HD
BRANCH   6   8
ATOM      8  C   UNL A   1      39.239  22.582  26.509  1.00  0.00     0.039 A 
ATOM      9  C   UNL A   1      38.897  23.861  26.065  1.00  0.00     0.014 A 
ATOM     10  C   UNL A   1      40.270  22.414  27.438  1.00  0.00     0.014 A 
ATOM     11  C   UNL A   1      39.680  24.947  26.430  1.00  0.00     0.010 A 
ATOM     12  C   UNL A   1      40.998  23.526  27.879  1.00  0.00     0.010 A 
ATOM     13  C   UNL A   1      40.727  24.800  27.356  1.00  0.00    -0.014 A 
BRANCH  13  14
ATOM     14  C   UNL A   1      41.458  26.017  27.799  1.00  0.00     0.031 A 
ATOM     15  C   UNL A   1      42.875  26.284  27.373  1.00  0.00     0.074 A 
ATOM     16  C   UNL A   1      40.789  26.922  28.541  1.00  0.00     0.049 A 
ATOM     17  N   UNL A   1      43.622  27.332  27.613  1.00  0.00    -0.248 NA
ATOM     18  C   UNL A   1      43.546  25.241  26.583  1.00  0.00     0.031 C 
ATOM     19  C   UNL A   1      39.416  26.756  29.028  1.00  0.00     0.029 A 
ATOM     20  N   UNL A   1      41.147  28.168  28.988  1.00  0.00    -0.354 N 
ATOM     21  C   UNL A   1      44.850  27.078  27.012  1.00  0.00     0.074 A 
ATOM     22  C   UNL A   1      44.758  25.755  26.426  1.00  0.00     0.031 C 
ATOM     23  C   UNL A   1      39.027  27.879  29.647  1.00  0.00     0.029 A 
ATOM     24  C   UNL A   1      40.142  28.817  29.667  1.00  0.00     0.049 A 
ATOM     25  H   UNL A   1      42.038  28.559  28.838  1.00  0.00     0.167 HD
ATOM     26  C   UNL A   1      45.945  27.877  26.947  1.00  0.00     0.034 A 
ATOM     27  C   UNL A   1      40.120  30.028  30.255  1.00  0.00     0.034 A 
ATOM     28  C   UNL A   1      46.021  29.191  27.544  1.00  0.00     0.049 A 
ATOM     29  C   UNL A   1      41.352  30.887  30.176  1.00  0.00     0.074 A 
ATOM     30  C   UNL A   1      47.080  30.084  27.540  1.00  0.00     0.029 A 
ATOM     31  N   UNL A   1      44.995  29.805  28.255  1.00  0.00    -0.354 N 
ATOM     32  N   UNL A   1      42.501  30.628  29.596  1.00  0.00    -0.248 NA
ATOM     33  C   UNL A   1      41.282  32.201  30.823  1.00  0.00     0.031 C 
ATOM     34  C   UNL A   1      46.717  31.206  28.292  1.00  0.00     0.029 A 
ATOM     35  C   UNL A   1      45.405  31.050  28.709  1.00  0.00     0.049 A 
ATOM     36  H   UNL A   1      44.107  29.411  28.413  1.00  0.00     0.167 HD
ATOM     37  C   UNL A   1      43.291  31.752  29.808  1.00  0.00     0.074 A 
ATOM     38  C   UNL A   1      42.470  32.705  30.528  1.00  0.00     0.031 C 
ATOM     39  C   UNL A   1      44.582  31.975  29.453  1.00  0.00     0.034 A 
BRANCH  26  40
ATOM     40  C   UNL A   1      47.163  27.336  26.234  1.00  0.00     0.023 A 
ATOM     41  C   UNL A   1      48.144  26.590  26.910  1.00  0.00     0.031 A 
ATOM     42  C   UNL A   1      47.345  27.568  24.859  1.00  0.00     0.131 A 
ATOM     43  C   UNL A   1      49.286  26.148  26.223  1.00  0.00     0.055 A 
ATOM     44  C   UNL A   1      48.449  27.067  24.166  1.00  0.00     0.041 A 
ATOM     45  F   UNL A   1      46.452  28.290  24.164  1.00  0.00    -0.206 F 
ATOM     46  C   UNL A   1      49.435  26.361  24.852  1.00  0.00     0.022 A 
BRANCH  43  47
ATOM     47  S   UNL A   1      50.631  25.386  27.173  1.00  0.00     0.124 S 
ATOM     48  O   UNL A   1      49.922  24.329  27.894  1.00  0.00    -0.237 OA
ATOM     49  O   UNL A   1      51.545  24.940  26.127  1.00  0.00    -0.237 OA
ATOM     50  O   UNL A   1      51.123  26.478  28.010  1.00  0.00    -0.744 OA
ENDBRANCH  43  47
ENDBRANCH  26  40
BRANCH  27  51
ATOM     51  C   UNL A   1      38.910  30.479  30.999  1.00  0.00     0.023 A 
ATOM     52  C   UNL A   1      37.819  31.060  30.336  1.00  0.00     0.031 A 
ATOM     53  C   UNL A   1      38.846  30.365  32.400  1.00  0.00     0.131 A 
ATOM     54  C   UNL A   1      36.730  31.545  31.077  1.00  0.00     0.055 A 
ATOM     55  C   UNL A   1      37.734  30.793  33.127  1.00  0.00     0.041 A 
ATOM     56  F   UNL A   1      39.861  29.813  33.085  1.00  0.00    -0.206 F 
ATOM     57  C   UNL A   1      36.674  31.402  32.466  1.00  0.00     0.022 A 
BRANCH  54  58
ATOM     58  S   UNL A   1      35.426  32.457  30.208  1.00  0.00     0.124 S 
ATOM     59  O   UNL A   1      34.386  32.537  31.227  1.00  0.00    -0.237 OA
ATOM     60  O   UNL A   1      36.100  33.709  29.880  1.00  0.00    -0.237 OA
ATOM     61  O   UNL A   1      35.116  31.601  29.065  1.00  0.00    -0.744 OA
ENDBRANCH  54  58
ENDBRANCH  27  51
BRANCH  39  62
ATOM     62  C   UNL A   1      45.161  33.314  29.840  1.00  0.00     0.023 A 
ATOM     63  C   UNL A   1      45.096  34.417  28.969  1.00  0.00     0.031 A 
ATOM     64  C   UNL A   1      45.834  33.472  31.063  1.00  0.00     0.131 A 
ATOM     65  C   UNL A   1      45.761  35.607  29.300  1.00  0.00     0.055 A 
ATOM     66  C   UNL A   1      46.438  34.680  31.415  1.00  0.00     0.041 A 
ATOM     67  F   UNL A   1      45.927  32.451  31.931  1.00  0.00    -0.206 F 
ATOM     68  C   UNL A   1      46.419  35.750  30.523  1.00  0.00     0.022 A 
BRANCH  65  69
ATOM     69  S   UNL A   1      45.854  36.922  28.054  1.00  0.00     0.124 S 
ATOM     70  O   UNL A   1      46.308  38.060  28.846  1.00  0.00    -0.237 OA
ATOM     71  O   UNL A   1      46.820  36.381  27.102  1.00  0.00    -0.237 OA
ATOM     72  O   UNL A   1      44.483  37.019  27.557  1.00  0.00    -0.744 OA
ENDBRANCH  65  69
ENDBRANCH  39  62
ENDBRANCH  13  14
ENDBRANCH   6   8
ENDBRANCH   3   4
ENDBRANCH   2   3
ENDBRANCH   1   2
BRANCH   1  73
ATOM     73  C   UNL A   1      33.159  20.879  24.190  1.00  0.00     0.002 C 
BRANCH  73  74
ATOM     74  C   UNL A   1      32.703  22.117  23.407  1.00  0.00     0.021 C 
BRANCH  74  75
ATOM     75  C   UNL A   1      31.355  22.692  23.841  1.00  0.00     0.116 C 
BRANCH  75  76
ATOM     76  N   UNL A   1      31.248  22.745  25.292  1.00  0.00    -0.352 N 
ATOM     77  C   UNL A   1      31.304  23.840  26.106  1.00  0.00     0.252 C 
ATOM     78  H   UNL A   1      31.118  21.879  25.744  1.00  0.00     0.163 HD
ATOM     79  O   UNL A   1      31.356  23.730  27.332  1.00  0.00    -0.269 OA
BRANCH  77  80
ATOM     80  C   UNL A   1      31.266  25.170  25.505  1.00  0.00     0.059 A 
ATOM     81  C   UNL A   1      30.060  25.754  25.173  1.00  0.00     0.129 A 
ATOM     82  C   UNL A   1      32.449  25.841  25.212  1.00  0.00     0.041 A 
ATOM     83  N   UNL A   1      29.967  26.994  24.636  1.00  0.00    -0.220 NA
ATOM     84  C   UNL A   1      32.382  27.097  24.607  1.00  0.00     0.104 A 
ATOM     85  C   UNL A   1      31.123  27.664  24.384  1.00  0.00     0.232 A 
ATOM     86  Cl  UNL A   1      33.878  27.792  24.107  1.00  0.00    -0.078 Cl
BRANCH  85  87
ATOM     87  O   UNL A   1      30.894  28.874  23.798  1.00  0.00    -0.476 OA
BRANCH  87  88
ATOM     88  C   UNL A   1      29.950  28.917  22.722  1.00  0.00     0.235 C 
BRANCH  88  89
ATOM     89  C   UNL A   1      29.238  30.227  22.578  1.00  0.00     0.027 C 
ATOM     90  C   UNL A   1      28.070  30.449  21.647  1.00  0.00     0.007 C 
ATOM     91  C   UNL A   1      27.833  30.335  23.124  1.00  0.00     0.007 C 
ENDBRANCH  88  89
ENDBRANCH  87  88
ENDBRANCH  85  87
ENDBRANCH  77  80
ENDBRANCH  75  76
ENDBRANCH  74  75
ENDBRANCH  73  74
ENDBRANCH   1  73
TORSDOF 19
ENDMDL
