MODEL 1
REMARK VINA RESULT:     -11.9      0.000      0.000
REMARK SMILES Cc1c(C[NH2+]Cc2cccc(F)c2)c(C(=O)NCCCCCCNC(=O)c2ccc(-c3c4nc(c(-c5cc(S(=O)(=O)[O-])ccc5F)c5ccc([nH]5)c(-c5cc(S(=O)(=O)[O-])ccc5F)c5nc(c(-c6cc(S(=O)(=O)[O-])ccc6F)c6ccc3[nH]6)C=C5)C=C4)cc2)c(C)n1Cc1c(F)cccc1Cl
REMARK SMILES IDX 20 1 19 2 18 3 17 4 15 5 16 6 14 8 1 9 2 10 3 11 92 12 90 13
REMARK SMILES IDX 91 14 4 15 5 16 6 19 7 20 8 21 13 22 9 23 11 24 10 25 12 26
REMARK SMILES IDX 93 27 94 28 95 29 100 30 96 31 97 32 99 33 101 34 98 35
REMARK SMILES IDX 21 36 22 37 23 38 24 39 25 40 26 42 27 43 28 44 89 45 29 46
REMARK SMILES IDX 88 47 30 48 31 49 32 50 82 51 33 52 87 53 81 54 83 55 34 56
REMARK SMILES IDX 86 57 80 58 79 59 35 61 67 62 47 63 66 64 48 65 51 66 65 67
REMARK SMILES IDX 84 68 49 69 50 70 64 72 85 73 52 74 36 75 37 76 45 77 38 78
REMARK SMILES IDX 44 79 46 80 43 81 39 82 40 83 41 84 42 85 68 86 69 87 77 88
REMARK SMILES IDX 70 89 76 90 78 91 75 92 71 93 72 94 73 95 74 96 53 97 54 98
REMARK SMILES IDX 62 99 55 100 61 101 63 102 60 103 56 104 57 105 58 106
REMARK SMILES IDX 59 107
REMARK H PARENT 17 7 5 17 5 18 24 41 83 60 51 71
REMARK Flexibility Score: inf
ROOT
ATOM      1  C   UNL A   1      31.783  29.894  26.893  1.00  0.00     0.002 C 
ENDROOT
BRANCH   1   2
ATOM      2  C   UNL A   1      32.981  28.967  27.099  1.00  0.00     0.021 C 
BRANCH   2   3
ATOM      3  C   UNL A   1      32.816  27.515  26.688  1.00  0.00     0.116 C 
BRANCH   3   4
ATOM      4  N   UNL A   1      31.498  26.962  26.889  1.00  0.00    -0.352 N 
ATOM      5  C   UNL A   1      30.788  26.086  26.098  1.00  0.00     0.253 C 
ATOM      6  O   UNL A   1      29.639  25.832  26.479  1.00  0.00    -0.269 OA
ATOM      7  H   UNL A   1      31.040  27.255  27.711  1.00  0.00     0.163 HD
BRANCH   5   8
ATOM      8  C   UNL A   1      31.339  25.580  24.823  1.00  0.00     0.069 A 
ATOM      9  C   UNL A   1      32.701  25.826  21.329  1.00  0.00     0.065 C 
ATOM     10  C   UNL A   1      32.250  25.542  22.721  1.00  0.00     0.025 A 
ATOM     11  C   UNL A   1      31.575  26.362  23.627  1.00  0.00     0.040 A 
ATOM     12  N   UNL A   1      32.458  24.325  23.354  1.00  0.00    -0.343 N 
ATOM     13  C   UNL A   1      31.557  24.262  24.406  1.00  0.00     0.028 A 
ATOM     14  C   UNL A   1      30.959  22.982  24.888  1.00  0.00     0.065 C 
BRANCH  11  15
ATOM     15  C   UNL A   1      31.130  27.789  23.403  1.00  0.00     0.300 C 
BRANCH  15  16
ATOM     16  N   UNL A   1      29.884  27.752  22.644  1.00  0.00    -0.339 N 
ATOM     17  H   UNL A   1      29.599  26.777  22.547  1.00  0.00     0.346 HD
ATOM     18  H   UNL A   1      30.076  28.201  21.749  1.00  0.00     0.346 HD
BRANCH  16  19
ATOM     19  C   UNL A   1      28.787  28.488  23.251  1.00  0.00     0.297 C 
BRANCH  19  20
ATOM     20  C   UNL A   1      28.634  29.938  22.832  1.00  0.00     0.009 A 
ATOM     21  C   UNL A   1      28.935  31.023  23.672  1.00  0.00     0.010 A 
ATOM     22  C   UNL A   1      28.215  30.215  21.520  1.00  0.00     0.048 A 
ATOM     23  C   UNL A   1      28.779  32.342  23.234  1.00  0.00     0.004 A 
ATOM     24  C   UNL A   1      28.072  31.532  21.089  1.00  0.00     0.123 A 
ATOM     25  C   UNL A   1      28.342  32.597  21.938  1.00  0.00     0.039 A 
ATOM     26  F   UNL A   1      27.668  31.777  19.836  1.00  0.00    -0.207 F 
ENDBRANCH  19  20
ENDBRANCH  16  19
ENDBRANCH  15  16
ENDBRANCH  11  15
BRANCH  12  27
ATOM     27  C   UNL A   1      33.303  23.218  22.866  1.00  0.00     0.162 C 
BRANCH  27  28
ATOM     28  C   UNL A   1      34.266  22.664  23.900  1.00  0.00     0.026 A 
ATOM     29  C   UNL A   1      35.222  23.505  24.490  1.00  0.00     0.129 A 
ATOM     30  C   UNL A   1      34.217  21.347  24.388  1.00  0.00     0.048 A 
ATOM     31  F   UNL A   1      35.246  24.807  24.191  1.00  0.00    -0.207 F 
ATOM     32  C   UNL A   1      36.135  23.065  25.449  1.00  0.00     0.040 A 
ATOM     33  C   UNL A   1      35.121  20.898  25.369  1.00  0.00     0.021 A 
ATOM     34  Cl  UNL A   1      33.009  20.219  23.880  1.00  0.00    -0.084 Cl
ATOM     35  C   UNL A   1      36.093  21.751  25.886  1.00  0.00     0.005 A 
ENDBRANCH  27  28
ENDBRANCH  12  27
ENDBRANCH   5   8
ENDBRANCH   3   4
ENDBRANCH   2   3
ENDBRANCH   1   2
BRANCH   1  36
ATOM     36  C   UNL A   1      32.033  31.408  26.866  1.00  0.00     0.002 C 
BRANCH  36  37
ATOM     37  C   UNL A   1      33.390  31.965  27.340  1.00  0.00     0.021 C 
BRANCH  37  38
ATOM     38  C   UNL A   1      33.456  33.274  28.154  1.00  0.00     0.116 C 
BRANCH  38  39
ATOM     39  N   UNL A   1      33.563  33.129  29.583  1.00  0.00    -0.352 N 
ATOM     40  C   UNL A   1      34.622  32.605  30.313  1.00  0.00     0.251 C 
ATOM     41  H   UNL A   1      32.789  33.439  30.107  1.00  0.00     0.163 HD
ATOM     42  O   UNL A   1      34.471  32.539  31.533  1.00  0.00    -0.269 OA
BRANCH  40  43
ATOM     43  C   UNL A   1      35.865  32.004  29.672  1.00  0.00     0.039 A 
ATOM     44  C   UNL A   1      35.918  30.625  29.567  1.00  0.00     0.014 A 
ATOM     45  C   UNL A   1      37.073  32.673  29.386  1.00  0.00     0.014 A 
ATOM     46  C   UNL A   1      37.111  29.956  29.133  1.00  0.00     0.010 A 
ATOM     47  C   UNL A   1      38.328  31.968  29.038  1.00  0.00     0.010 A 
ATOM     48  C   UNL A   1      38.408  30.565  28.907  1.00  0.00    -0.014 A 
BRANCH  48  49
ATOM     49  C   UNL A   1      39.723  29.548  29.077  1.00  0.00     0.031 A 
ATOM     50  C   UNL A   1      39.677  29.301  30.550  1.00  0.00     0.074 A 
ATOM     51  C   UNL A   1      40.876  28.999  28.470  1.00  0.00     0.049 A 
ATOM     52  N   UNL A   1      39.666  30.338  31.343  1.00  0.00    -0.248 NA
ATOM     53  C   UNL A   1      39.200  28.066  31.173  1.00  0.00     0.031 C 
ATOM     54  C   UNL A   1      41.461  29.312  27.152  1.00  0.00     0.029 A 
ATOM     55  N   UNL A   1      41.849  28.008  28.899  1.00  0.00    -0.354 N 
ATOM     56  C   UNL A   1      39.533  29.862  32.616  1.00  0.00     0.074 A 
ATOM     57  C   UNL A   1      39.003  28.515  32.421  1.00  0.00     0.031 C 
ATOM     58  C   UNL A   1      42.501  28.478  26.823  1.00  0.00     0.029 A 
ATOM     59  C   UNL A   1      42.803  27.523  27.896  1.00  0.00     0.049 A 
ATOM     60  H   UNL A   1      41.867  27.676  29.827  1.00  0.00     0.167 HD
ATOM     61  C   UNL A   1      40.514  30.274  33.472  1.00  0.00     0.034 A 
ATOM     62  C   UNL A   1      43.812  26.535  27.952  1.00  0.00     0.034 A 
ATOM     63  C   UNL A   1      41.550  29.282  33.597  1.00  0.00     0.049 A 
ATOM     64  C   UNL A   1      44.330  26.632  29.315  1.00  0.00     0.074 A 
ATOM     65  C   UNL A   1      41.523  27.907  33.722  1.00  0.00     0.029 A 
ATOM     66  N   UNL A   1      42.793  29.613  33.102  1.00  0.00    -0.354 N 
ATOM     67  N   UNL A   1      45.095  27.610  29.686  1.00  0.00    -0.248 NA
ATOM     68  C   UNL A   1      44.110  25.576  30.294  1.00  0.00     0.031 C 
ATOM     69  C   UNL A   1      42.500  27.458  32.812  1.00  0.00     0.029 A 
ATOM     70  C   UNL A   1      43.361  28.508  32.511  1.00  0.00     0.049 A 
ATOM     71  H   UNL A   1      43.211  30.503  33.164  1.00  0.00     0.167 HD
ATOM     72  C   UNL A   1      44.981  27.563  31.040  1.00  0.00     0.074 A 
ATOM     73  C   UNL A   1      44.648  26.183  31.352  1.00  0.00     0.031 C 
ATOM     74  C   UNL A   1      44.498  28.685  31.630  1.00  0.00     0.034 A 
BRANCH  61  75
ATOM     75  C   UNL A   1      40.796  31.758  33.435  1.00  0.00     0.023 A 
ATOM     76  C   UNL A   1      40.385  32.551  34.509  1.00  0.00     0.031 A 
ATOM     77  C   UNL A   1      41.415  32.410  32.340  1.00  0.00     0.131 A 
ATOM     78  C   UNL A   1      40.531  33.947  34.442  1.00  0.00     0.055 A 
ATOM     79  C   UNL A   1      41.490  33.797  32.245  1.00  0.00     0.041 A 
ATOM     80  F   UNL A   1      41.996  31.708  31.354  1.00  0.00    -0.206 F 
ATOM     81  C   UNL A   1      41.038  34.577  33.300  1.00  0.00     0.022 A 
BRANCH  78  82
ATOM     82  S   UNL A   1      40.124  34.944  35.899  1.00  0.00     0.124 S 
ATOM     83  O   UNL A   1      39.633  36.190  35.294  1.00  0.00    -0.237 OA
ATOM     84  O   UNL A   1      39.090  34.126  36.549  1.00  0.00    -0.237 OA
ATOM     85  O   UNL A   1      41.369  35.049  36.619  1.00  0.00    -0.744 OA
ENDBRANCH  78  82
ENDBRANCH  61  75
BRANCH  62  86
ATOM     86  C   UNL A   1      44.806  25.564  27.162  1.00  0.00     0.023 A 
ATOM     87  C   UNL A   1      44.388  24.252  26.652  1.00  0.00     0.031 A 
ATOM     88  C   UNL A   1      45.981  26.033  26.561  1.00  0.00     0.131 A 
ATOM     89  C   UNL A   1      45.062  23.554  25.598  1.00  0.00     0.055 A 
ATOM     90  C   UNL A   1      46.660  25.324  25.527  1.00  0.00     0.041 A 
ATOM     91  F   UNL A   1      46.465  27.242  26.880  1.00  0.00    -0.206 F 
ATOM     92  C   UNL A   1      46.196  24.106  25.026  1.00  0.00     0.022 A 
BRANCH  89  93
ATOM     93  S   UNL A   1      44.375  22.033  24.786  1.00  0.00     0.124 S 
ATOM     94  O   UNL A   1      44.543  22.317  23.367  1.00  0.00    -0.237 OA
ATOM     95  O   UNL A   1      45.195  20.959  25.337  1.00  0.00    -0.237 OA
ATOM     96  O   UNL A   1      42.981  22.011  25.240  1.00  0.00    -0.744 OA
ENDBRANCH  89  93
ENDBRANCH  62  86
BRANCH  74  97
ATOM     97  C   UNL A   1      45.077  30.023  31.187  1.00  0.00     0.023 A 
ATOM     98  C   UNL A   1      44.696  30.783  30.049  1.00  0.00     0.031 A 
ATOM     99  C   UNL A   1      46.143  30.531  31.948  1.00  0.00     0.131 A 
ATOM    100  C   UNL A   1      45.379  31.974  29.712  1.00  0.00     0.055 A 
ATOM    101  C   UNL A   1      46.792  31.725  31.639  1.00  0.00     0.041 A 
ATOM    102  F   UNL A   1      46.577  29.859  33.027  1.00  0.00    -0.206 F 
ATOM    103  C   UNL A   1      46.420  32.448  30.512  1.00  0.00     0.022 A 
BRANCH 100 104
ATOM    104  S   UNL A   1      44.946  32.902  28.198  1.00  0.00     0.124 S 
ATOM    105  O   UNL A   1      46.246  33.199  27.606  1.00  0.00    -0.237 OA
ATOM    106  O   UNL A   1      44.114  31.953  27.462  1.00  0.00    -0.237 OA
ATOM    107  O   UNL A   1      44.230  34.073  28.706  1.00  0.00    -0.744 OA
ENDBRANCH 100 104
ENDBRANCH  74  97
ENDBRANCH  48  49
ENDBRANCH  40  43
ENDBRANCH  38  39
ENDBRANCH  37  38
ENDBRANCH  36  37
ENDBRANCH   1  36
TORSDOF 22
ENDMDL
MODEL 2
REMARK VINA RESULT:     -11.8      3.509      8.682
REMARK SMILES Cc1c(C[NH2+]Cc2cccc(F)c2)c(C(=O)NCCCCCCNC(=O)c2ccc(-c3c4nc(c(-c5cc(S(=O)(=O)[O-])ccc5F)c5ccc([nH]5)c(-c5cc(S(=O)(=O)[O-])ccc5F)c5nc(c(-c6cc(S(=O)(=O)[O-])ccc6F)c6ccc3[nH]6)C=C5)C=C4)cc2)c(C)n1Cc1c(F)cccc1Cl
REMARK SMILES IDX 20 1 19 2 18 3 17 4 15 5 16 6 14 8 1 9 2 10 3 11 92 12 90 13
REMARK SMILES IDX 91 14 4 15 5 16 6 19 7 20 8 21 13 22 9 23 11 24 10 25 12 26
REMARK SMILES IDX 93 27 94 28 95 29 100 30 96 31 97 32 99 33 101 34 98 35
REMARK SMILES IDX 21 36 22 37 23 38 24 39 25 40 26 42 27 43 28 44 89 45 29 46
REMARK SMILES IDX 88 47 30 48 31 49 32 50 82 51 33 52 87 53 81 54 83 55 34 56
REMARK SMILES IDX 86 57 80 58 79 59 35 61 67 62 47 63 66 64 48 65 51 66 65 67
REMARK SMILES IDX 84 68 49 69 50 70 64 72 85 73 52 74 36 75 37 76 45 77 38 78
REMARK SMILES IDX 44 79 46 80 43 81 39 82 40 83 41 84 42 85 68 86 69 87 77 88
REMARK SMILES IDX 70 89 76 90 78 91 75 92 71 93 72 94 73 95 74 96 53 97 54 98
REMARK SMILES IDX 62 99 55 100 61 101 63 102 60 103 56 104 57 105 58 106
REMARK SMILES IDX 59 107
REMARK H PARENT 17 7 5 17 5 18 24 41 83 60 51 71
REMARK Flexibility Score: inf
ROOT
ATOM      1  C   UNL A   1      39.135  24.548  27.297  1.00  0.00     0.002 C 
ENDROOT
BRANCH   1   2
ATOM      2  C   UNL A   1      38.171  23.519  26.708  1.00  0.00     0.021 C 
BRANCH   2   3
ATOM      3  C   UNL A   1      37.088  24.032  25.775  1.00  0.00     0.116 C 
BRANCH   3   4
ATOM      4  N   UNL A   1      37.223  23.634  24.394  1.00  0.00    -0.352 N 
ATOM      5  C   UNL A   1      36.270  23.141  23.530  1.00  0.00     0.253 C 
ATOM      6  O   UNL A   1      36.683  22.811  22.411  1.00  0.00    -0.269 OA
ATOM      7  H   UNL A   1      38.127  23.729  24.016  1.00  0.00     0.163 HD
BRANCH   5   8
ATOM      8  C   UNL A   1      34.875  22.924  23.965  1.00  0.00     0.069 A 
ATOM      9  C   UNL A   1      31.175  23.569  24.097  1.00  0.00     0.065 C 
ATOM     10  C   UNL A   1      32.598  23.125  24.120  1.00  0.00     0.025 A 
ATOM     11  C   UNL A   1      33.744  23.776  23.661  1.00  0.00     0.040 A 
ATOM     12  N   UNL A   1      33.006  21.907  24.642  1.00  0.00    -0.343 N 
ATOM     13  C   UNL A   1      34.364  22.017  24.901  1.00  0.00     0.028 A 
ATOM     14  C   UNL A   1      35.038  21.297  26.021  1.00  0.00     0.065 C 
BRANCH  11  15
ATOM     15  C   UNL A   1      33.815  25.134  23.002  1.00  0.00     0.300 C 
BRANCH  15  16
ATOM     16  N   UNL A   1      33.921  26.135  24.058  1.00  0.00    -0.339 N 
ATOM     17  H   UNL A   1      34.646  26.803  23.793  1.00  0.00     0.346 HD
ATOM     18  H   UNL A   1      34.140  25.630  24.916  1.00  0.00     0.346 HD
BRANCH  16  19
ATOM     19  C   UNL A   1      32.695  26.874  24.314  1.00  0.00     0.297 C 
BRANCH  19  20
ATOM     20  C   UNL A   1      32.786  28.004  25.322  1.00  0.00     0.009 A 
ATOM     21  C   UNL A   1      31.836  29.035  25.418  1.00  0.00     0.010 A 
ATOM     22  C   UNL A   1      33.849  27.999  26.240  1.00  0.00     0.048 A 
ATOM     23  C   UNL A   1      31.966  30.052  26.368  1.00  0.00     0.004 A 
ATOM     24  C   UNL A   1      33.966  29.011  27.190  1.00  0.00     0.123 A 
ATOM     25  C   UNL A   1      33.037  30.042  27.256  1.00  0.00     0.039 A 
ATOM     26  F   UNL A   1      34.988  28.991  28.055  1.00  0.00    -0.207 F 
ENDBRANCH  19  20
ENDBRANCH  16  19
ENDBRANCH  15  16
ENDBRANCH  11  15
BRANCH  12  27
ATOM     27  C   UNL A   1      32.129  20.796  25.061  1.00  0.00     0.162 C 
BRANCH  27  28
ATOM     28  C   UNL A   1      32.485  19.454  24.449  1.00  0.00     0.026 A 
ATOM     29  C   UNL A   1      32.805  18.367  25.278  1.00  0.00     0.129 A 
ATOM     30  C   UNL A   1      32.439  19.186  23.070  1.00  0.00     0.048 A 
ATOM     31  F   UNL A   1      32.733  18.492  26.606  1.00  0.00    -0.207 F 
ATOM     32  C   UNL A   1      33.138  17.105  24.784  1.00  0.00     0.040 A 
ATOM     33  C   UNL A   1      32.755  17.912  22.563  1.00  0.00     0.021 A 
ATOM     34  Cl  UNL A   1      31.924  20.368  21.918  1.00  0.00    -0.084 Cl
ATOM     35  C   UNL A   1      33.123  16.876  23.418  1.00  0.00     0.005 A 
ENDBRANCH  27  28
ENDBRANCH  12  27
ENDBRANCH   5   8
ENDBRANCH   3   4
ENDBRANCH   2   3
ENDBRANCH   1   2
BRANCH   1  36
ATOM     36  C   UNL A   1      40.578  24.572  26.777  1.00  0.00     0.002 C 
BRANCH  36  37
ATOM     37  C   UNL A   1      41.404  23.270  26.763  1.00  0.00     0.021 C 
BRANCH  37  38
ATOM     38  C   UNL A   1      42.383  22.979  25.606  1.00  0.00     0.116 C 
BRANCH  38  39
ATOM     39  N   UNL A   1      43.694  22.519  25.984  1.00  0.00    -0.352 N 
ATOM     40  C   UNL A   1      44.673  23.206  26.689  1.00  0.00     0.251 C 
ATOM     41  H   UNL A   1      43.926  21.602  25.707  1.00  0.00     0.163 HD
ATOM     42  O   UNL A   1      45.743  22.623  26.858  1.00  0.00    -0.269 OA
BRANCH  40  43
ATOM     43  C   UNL A   1      44.525  24.657  27.126  1.00  0.00     0.039 A 
ATOM     44  C   UNL A   1      43.985  24.888  28.380  1.00  0.00     0.014 A 
ATOM     45  C   UNL A   1      44.653  25.801  26.311  1.00  0.00     0.014 A 
ATOM     46  C   UNL A   1      43.652  26.213  28.816  1.00  0.00     0.010 A 
ATOM     47  C   UNL A   1      44.211  27.150  26.731  1.00  0.00     0.010 A 
ATOM     48  C   UNL A   1      43.674  27.418  28.008  1.00  0.00    -0.014 A 
BRANCH  48  49
ATOM     49  C   UNL A   1      42.643  28.637  28.501  1.00  0.00     0.031 A 
ATOM     50  C   UNL A   1      43.607  29.778  28.583  1.00  0.00     0.074 A 
ATOM     51  C   UNL A   1      41.362  28.972  28.994  1.00  0.00     0.049 A 
ATOM     52  N   UNL A   1      44.677  29.622  29.313  1.00  0.00    -0.248 NA
ATOM     53  C   UNL A   1      43.704  30.858  27.600  1.00  0.00     0.031 C 
ATOM     54  C   UNL A   1      40.269  28.070  29.407  1.00  0.00     0.029 A 
ATOM     55  N   UNL A   1      40.704  30.238  29.275  1.00  0.00    -0.354 N 
ATOM     56  C   UNL A   1      45.430  30.750  29.159  1.00  0.00     0.074 A 
ATOM     57  C   UNL A   1      44.914  31.336  27.924  1.00  0.00     0.031 C 
ATOM     58  C   UNL A   1      39.108  28.743  29.696  1.00  0.00     0.029 A 
ATOM     59  C   UNL A   1      39.269  30.197  29.577  1.00  0.00     0.049 A 
ATOM     60  H   UNL A   1      41.201  31.088  29.263  1.00  0.00     0.167 HD
ATOM     61  C   UNL A   1      45.745  31.376  30.331  1.00  0.00     0.034 A 
ATOM     62  C   UNL A   1      38.325  31.221  29.821  1.00  0.00     0.034 A 
ATOM     63  C   UNL A   1      44.836  32.458  30.606  1.00  0.00     0.049 A 
ATOM     64  C   UNL A   1      39.089  32.245  30.532  1.00  0.00     0.074 A 
ATOM     65  C   UNL A   1      44.282  33.444  29.813  1.00  0.00     0.029 A 
ATOM     66  N   UNL A   1      44.010  32.315  31.700  1.00  0.00    -0.354 N 
ATOM     67  N   UNL A   1      39.435  32.100  31.773  1.00  0.00    -0.248 NA
ATOM     68  C   UNL A   1      39.398  33.532  29.922  1.00  0.00     0.031 C 
ATOM     69  C   UNL A   1      42.919  33.450  30.172  1.00  0.00     0.029 A 
ATOM     70  C   UNL A   1      42.769  32.836  31.411  1.00  0.00     0.049 A 
ATOM     71  H   UNL A   1      44.269  31.905  32.558  1.00  0.00     0.167 HD
ATOM     72  C   UNL A   1      40.443  33.005  31.895  1.00  0.00     0.074 A 
ATOM     73  C   UNL A   1      40.175  34.018  30.889  1.00  0.00     0.031 C 
ATOM     74  C   UNL A   1      41.647  32.500  32.262  1.00  0.00     0.034 A 
BRANCH  61  75
ATOM     75  C   UNL A   1      46.285  30.462  31.405  1.00  0.00     0.023 A 
ATOM     76  C   UNL A   1      46.220  29.080  31.212  1.00  0.00     0.031 A 
ATOM     77  C   UNL A   1      46.814  30.926  32.635  1.00  0.00     0.131 A 
ATOM     78  C   UNL A   1      46.607  28.211  32.246  1.00  0.00     0.055 A 
ATOM     79  C   UNL A   1      47.126  30.065  33.683  1.00  0.00     0.041 A 
ATOM     80  F   UNL A   1      47.076  32.228  32.829  1.00  0.00    -0.206 F 
ATOM     81  C   UNL A   1      47.016  28.694  33.495  1.00  0.00     0.022 A 
BRANCH  78  82
ATOM     82  S   UNL A   1      46.650  26.429  31.927  1.00  0.00     0.124 S 
ATOM     83  O   UNL A   1      47.042  25.889  33.236  1.00  0.00    -0.237 OA
ATOM     84  O   UNL A   1      45.259  26.154  31.540  1.00  0.00    -0.237 OA
ATOM     85  O   UNL A   1      47.623  26.278  30.873  1.00  0.00    -0.744 OA
ENDBRANCH  78  82
ENDBRANCH  61  75
BRANCH  62  86
ATOM     86  C   UNL A   1      36.791  31.659  29.913  1.00  0.00     0.023 A 
ATOM     87  C   UNL A   1      36.190  32.175  31.150  1.00  0.00     0.031 A 
ATOM     88  C   UNL A   1      36.035  31.959  28.774  1.00  0.00     0.131 A 
ATOM     89  C   UNL A   1      34.999  32.968  31.188  1.00  0.00     0.055 A 
ATOM     90  C   UNL A   1      34.837  32.732  28.820  1.00  0.00     0.041 A 
ATOM     91  F   UNL A   1      36.475  31.603  27.559  1.00  0.00    -0.206 F 
ATOM     92  C   UNL A   1      34.331  33.257  30.010  1.00  0.00     0.022 A 
BRANCH  89  93
ATOM     93  S   UNL A   1      34.401  33.831  32.718  1.00  0.00     0.124 S 
ATOM     94  O   UNL A   1      33.332  32.960  33.187  1.00  0.00    -0.237 OA
ATOM     95  O   UNL A   1      35.596  33.904  33.552  1.00  0.00    -0.237 OA
ATOM     96  O   UNL A   1      33.947  35.131  32.214  1.00  0.00    -0.744 OA
ENDBRANCH  89  93
ENDBRANCH  62  86
BRANCH  74  97
ATOM     97  C   UNL A   1      41.675  31.506  33.417  1.00  0.00     0.023 A 
ATOM     98  C   UNL A   1      41.933  30.112  33.337  1.00  0.00     0.031 A 
ATOM     99  C   UNL A   1      41.353  32.009  34.689  1.00  0.00     0.131 A 
ATOM    100  C   UNL A   1      41.846  29.293  34.486  1.00  0.00     0.055 A 
ATOM    101  C   UNL A   1      41.304  31.209  35.829  1.00  0.00     0.041 A 
ATOM    102  F   UNL A   1      41.074  33.315  34.843  1.00  0.00    -0.206 F 
ATOM    103  C   UNL A   1      41.541  29.844  35.731  1.00  0.00     0.022 A 
BRANCH 100 104
ATOM    104  S   UNL A   1      42.089  27.486  34.364  1.00  0.00     0.124 S 
ATOM    105  O   UNL A   1      40.736  26.957  34.503  1.00  0.00    -0.237 OA
ATOM    106  O   UNL A   1      42.702  27.328  33.048  1.00  0.00    -0.237 OA
ATOM    107  O   UNL A   1      42.976  27.182  35.489  1.00  0.00    -0.744 OA
ENDBRANCH 100 104
ENDBRANCH  74  97
ENDBRANCH  48  49
ENDBRANCH  40  43
ENDBRANCH  38  39
ENDBRANCH  37  38
ENDBRANCH  36  37
ENDBRANCH   1  36
TORSDOF 22
ENDMDL
MODEL 3
REMARK VINA RESULT:     -11.0      1.922      2.181
REMARK SMILES Cc1c(C[NH2+]Cc2cccc(F)c2)c(C(=O)NCCCCCCNC(=O)c2ccc(-c3c4nc(c(-c5cc(S(=O)(=O)[O-])ccc5F)c5ccc([nH]5)c(-c5cc(S(=O)(=O)[O-])ccc5F)c5nc(c(-c6cc(S(=O)(=O)[O-])ccc6F)c6ccc3[nH]6)C=C5)C=C4)cc2)c(C)n1Cc1c(F)cccc1Cl
REMARK SMILES IDX 20 1 19 2 18 3 17 4 15 5 16 6 14 8 1 9 2 10 3 11 92 12 90 13
REMARK SMILES IDX 91 14 4 15 5 16 6 19 7 20 8 21 13 22 9 23 11 24 10 25 12 26
REMARK SMILES IDX 93 27 94 28 95 29 100 30 96 31 97 32 99 33 101 34 98 35
REMARK SMILES IDX 21 36 22 37 23 38 24 39 25 40 26 42 27 43 28 44 89 45 29 46
REMARK SMILES IDX 88 47 30 48 31 49 32 50 82 51 33 52 87 53 81 54 83 55 34 56
REMARK SMILES IDX 86 57 80 58 79 59 35 61 67 62 47 63 66 64 48 65 51 66 65 67
REMARK SMILES IDX 84 68 49 69 50 70 64 72 85 73 52 74 36 75 37 76 45 77 38 78
REMARK SMILES IDX 44 79 46 80 43 81 39 82 40 83 41 84 42 85 68 86 69 87 77 88
REMARK SMILES IDX 70 89 76 90 78 91 75 92 71 93 72 94 73 95 74 96 53 97 54 98
REMARK SMILES IDX 62 99 55 100 61 101 63 102 60 103 56 104 57 105 58 106
REMARK SMILES IDX 59 107
REMARK H PARENT 17 7 5 17 5 18 24 41 83 60 51 71
REMARK Flexibility Score: inf
ROOT
ATOM      1  C   UNL A   1      31.838  29.923  26.780  1.00  0.00     0.002 C 
ENDROOT
BRANCH   1   2
ATOM      2  C   UNL A   1      32.878  28.899  27.235  1.00  0.00     0.021 C 
BRANCH   2   3
ATOM      3  C   UNL A   1      32.724  27.477  26.726  1.00  0.00     0.116 C 
BRANCH   3   4
ATOM      4  N   UNL A   1      31.411  26.901  26.891  1.00  0.00    -0.352 N 
ATOM      5  C   UNL A   1      30.734  26.021  26.075  1.00  0.00     0.253 C 
ATOM      6  O   UNL A   1      29.580  25.745  26.426  1.00  0.00    -0.269 OA
ATOM      7  H   UNL A   1      30.929  27.177  27.704  1.00  0.00     0.163 HD
BRANCH   5   8
ATOM      8  C   UNL A   1      31.322  25.538  24.808  1.00  0.00     0.069 A 
ATOM      9  C   UNL A   1      32.803  25.847  21.367  1.00  0.00     0.065 C 
ATOM     10  C   UNL A   1      32.302  25.536  22.737  1.00  0.00     0.025 A 
ATOM     11  C   UNL A   1      31.606  26.344  23.638  1.00  0.00     0.040 A 
ATOM     12  N   UNL A   1      32.477  24.304  23.349  1.00  0.00    -0.343 N 
ATOM     13  C   UNL A   1      31.540  24.228  24.369  1.00  0.00     0.028 A 
ATOM     14  C   UNL A   1      30.914  22.944  24.802  1.00  0.00     0.065 C 
BRANCH  11  15
ATOM     15  C   UNL A   1      31.183  27.780  23.432  1.00  0.00     0.300 C 
BRANCH  15  16
ATOM     16  N   UNL A   1      30.039  27.780  22.525  1.00  0.00    -0.339 N 
ATOM     17  H   UNL A   1      29.809  26.811  22.302  1.00  0.00     0.346 HD
ATOM     18  H   UNL A   1      30.317  28.322  21.707  1.00  0.00     0.346 HD
BRANCH  16  19
ATOM     19  C   UNL A   1      28.847  28.418  23.059  1.00  0.00     0.297 C 
BRANCH  19  20
ATOM     20  C   UNL A   1      28.671  29.891  22.742  1.00  0.00     0.009 A 
ATOM     21  C   UNL A   1      28.968  30.921  23.650  1.00  0.00     0.010 A 
ATOM     22  C   UNL A   1      28.231  30.251  21.457  1.00  0.00     0.048 A 
ATOM     23  C   UNL A   1      28.790  32.264  23.305  1.00  0.00     0.004 A 
ATOM     24  C   UNL A   1      28.066  31.592  21.118  1.00  0.00     0.123 A 
ATOM     25  C   UNL A   1      28.334  32.601  22.035  1.00  0.00     0.039 A 
ATOM     26  F   UNL A   1      27.644  31.917  19.889  1.00  0.00    -0.207 F 
ENDBRANCH  19  20
ENDBRANCH  16  19
ENDBRANCH  15  16
ENDBRANCH  11  15
BRANCH  12  27
ATOM     27  C   UNL A   1      33.327  23.198  22.865  1.00  0.00     0.162 C 
BRANCH  27  28
ATOM     28  C   UNL A   1      34.285  22.646  23.903  1.00  0.00     0.026 A 
ATOM     29  C   UNL A   1      35.252  23.484  24.481  1.00  0.00     0.129 A 
ATOM     30  C   UNL A   1      34.222  21.336  24.407  1.00  0.00     0.048 A 
ATOM     31  F   UNL A   1      35.290  24.781  24.168  1.00  0.00    -0.207 F 
ATOM     32  C   UNL A   1      36.163  23.044  25.444  1.00  0.00     0.040 A 
ATOM     33  C   UNL A   1      35.123  20.888  25.391  1.00  0.00     0.021 A 
ATOM     34  Cl  UNL A   1      33.001  20.216  23.914  1.00  0.00    -0.084 Cl
ATOM     35  C   UNL A   1      36.106  21.736  25.896  1.00  0.00     0.005 A 
ENDBRANCH  27  28
ENDBRANCH  12  27
ENDBRANCH   5   8
ENDBRANCH   3   4
ENDBRANCH   2   3
ENDBRANCH   1   2
BRANCH   1  36
ATOM     36  C   UNL A   1      32.200  31.412  26.866  1.00  0.00     0.002 C 
BRANCH  36  37
ATOM     37  C   UNL A   1      33.536  31.836  27.508  1.00  0.00     0.021 C 
BRANCH  37  38
ATOM     38  C   UNL A   1      33.635  33.153  28.306  1.00  0.00     0.116 C 
BRANCH  38  39
ATOM     39  N   UNL A   1      33.705  33.024  29.739  1.00  0.00    -0.352 N 
ATOM     40  C   UNL A   1      34.767  32.567  30.507  1.00  0.00     0.251 C 
ATOM     41  H   UNL A   1      32.898  33.294  30.235  1.00  0.00     0.163 HD
ATOM     42  O   UNL A   1      34.581  32.501  31.722  1.00  0.00    -0.269 OA
BRANCH  40  43
ATOM     43  C   UNL A   1      36.062  32.032  29.911  1.00  0.00     0.039 A 
ATOM     44  C   UNL A   1      36.124  30.674  29.649  1.00  0.00     0.014 A 
ATOM     45  C   UNL A   1      37.291  32.717  29.814  1.00  0.00     0.014 A 
ATOM     46  C   UNL A   1      37.350  30.048  29.245  1.00  0.00     0.010 A 
ATOM     47  C   UNL A   1      38.571  32.044  29.498  1.00  0.00     0.010 A 
ATOM     48  C   UNL A   1      38.662  30.665  29.209  1.00  0.00    -0.014 A 
BRANCH  48  49
ATOM     49  C   UNL A   1      39.957  29.621  29.372  1.00  0.00     0.031 A 
ATOM     50  C   UNL A   1      39.816  29.252  30.814  1.00  0.00     0.074 A 
ATOM     51  C   UNL A   1      41.140  29.110  28.793  1.00  0.00     0.049 A 
ATOM     52  N   UNL A   1      39.764  30.218  31.690  1.00  0.00    -0.248 NA
ATOM     53  C   UNL A   1      39.292  27.974  31.298  1.00  0.00     0.031 C 
ATOM     54  C   UNL A   1      41.809  29.526  27.544  1.00  0.00     0.029 A 
ATOM     55  N   UNL A   1      42.077  28.074  29.196  1.00  0.00    -0.354 N 
ATOM     56  C   UNL A   1      39.549  29.638  32.907  1.00  0.00     0.074 A 
ATOM     57  C   UNL A   1      39.021  28.319  32.566  1.00  0.00     0.031 C 
ATOM     58  C   UNL A   1      42.861  28.709  27.210  1.00  0.00     0.029 A 
ATOM     59  C   UNL A   1      43.089  27.664  28.215  1.00  0.00     0.049 A 
ATOM     60  H   UNL A   1      42.036  27.666  30.091  1.00  0.00     0.167 HD
ATOM     61  C   UNL A   1      40.478  29.964  33.853  1.00  0.00     0.034 A 
ATOM     62  C   UNL A   1      44.085  26.661  28.249  1.00  0.00     0.034 A 
ATOM     63  C   UNL A   1      41.496  28.952  33.957  1.00  0.00     0.049 A 
ATOM     64  C   UNL A   1      44.517  26.637  29.645  1.00  0.00     0.074 A 
ATOM     65  C   UNL A   1      41.451  27.572  33.964  1.00  0.00     0.029 A 
ATOM     66  N   UNL A   1      42.770  29.308  33.570  1.00  0.00    -0.354 N 
ATOM     67  N   UNL A   1      45.266  27.571  30.144  1.00  0.00    -0.248 NA
ATOM     68  C   UNL A   1      44.229  25.505  30.516  1.00  0.00     0.031 C 
ATOM     69  C   UNL A   1      42.480  27.189  33.080  1.00  0.00     0.029 A 
ATOM     70  C   UNL A   1      43.366  28.249  32.922  1.00  0.00     0.049 A 
ATOM     71  H   UNL A   1      43.190  30.184  33.732  1.00  0.00     0.167 HD
ATOM     72  C   UNL A   1      45.067  27.411  31.480  1.00  0.00     0.074 A 
ATOM     73  C   UNL A   1      44.704  26.014  31.652  1.00  0.00     0.031 C 
ATOM     74  C   UNL A   1      44.556  28.486  32.132  1.00  0.00     0.034 A 
BRANCH  61  75
ATOM     75  C   UNL A   1      40.772  31.442  33.960  1.00  0.00     0.023 A 
ATOM     76  C   UNL A   1      41.499  32.062  32.939  1.00  0.00     0.031 A 
ATOM     77  C   UNL A   1      40.397  32.237  35.070  1.00  0.00     0.131 A 
ATOM     78  C   UNL A   1      41.885  33.406  33.074  1.00  0.00     0.055 A 
ATOM     79  C   UNL A   1      40.844  33.545  35.234  1.00  0.00     0.041 A 
ATOM     80  F   UNL A   1      39.551  31.770  36.002  1.00  0.00    -0.206 F 
ATOM     81  C   UNL A   1      41.602  34.137  34.234  1.00  0.00     0.022 A 
BRANCH  78  82
ATOM     82  S   UNL A   1      42.701  34.230  31.683  1.00  0.00     0.124 S 
ATOM     83  O   UNL A   1      44.024  34.543  32.241  1.00  0.00    -0.237 OA
ATOM     84  O   UNL A   1      42.699  33.175  30.660  1.00  0.00    -0.237 OA
ATOM     85  O   UNL A   1      41.860  35.366  31.397  1.00  0.00    -0.744 OA
ENDBRANCH  78  82
ENDBRANCH  61  75
BRANCH  62  86
ATOM     86  C   UNL A   1      45.119  25.749  27.442  1.00  0.00     0.023 A 
ATOM     87  C   UNL A   1      46.538  26.097  27.303  1.00  0.00     0.031 A 
ATOM     88  C   UNL A   1      44.859  24.401  27.163  1.00  0.00     0.131 A 
ATOM     89  C   UNL A   1      47.566  25.150  26.991  1.00  0.00     0.055 A 
ATOM     90  C   UNL A   1      45.884  23.466  26.831  1.00  0.00     0.041 A 
ATOM     91  F   UNL A   1      43.618  23.912  27.295  1.00  0.00    -0.206 F 
ATOM     92  C   UNL A   1      47.232  23.825  26.770  1.00  0.00     0.022 A 
BRANCH  89  93
ATOM     93  S   UNL A   1      49.376  25.549  27.080  1.00  0.00     0.124 S 
ATOM     94  O   UNL A   1      49.403  26.764  27.884  1.00  0.00    -0.237 OA
ATOM     95  O   UNL A   1      49.954  24.354  27.686  1.00  0.00    -0.237 OA
ATOM     96  O   UNL A   1      49.747  25.742  25.675  1.00  0.00    -0.744 OA
ENDBRANCH  89  93
ENDBRANCH  62  86
BRANCH  74  97
ATOM     97  C   UNL A   1      45.172  29.848  31.840  1.00  0.00     0.023 A 
ATOM     98  C   UNL A   1      45.122  30.562  30.613  1.00  0.00     0.031 A 
ATOM     99  C   UNL A   1      45.920  30.436  32.874  1.00  0.00     0.131 A 
ATOM    100  C   UNL A   1      45.811  31.787  30.460  1.00  0.00     0.055 A 
ATOM    101  C   UNL A   1      46.568  31.662  32.736  1.00  0.00     0.041 A 
ATOM    102  F   UNL A   1      46.034  29.811  34.058  1.00  0.00    -0.206 F 
ATOM    103  C   UNL A   1      46.525  32.339  31.524  1.00  0.00     0.022 A 
BRANCH 100 104
ATOM    104  S   UNL A   1      45.820  32.658  28.854  1.00  0.00     0.124 S 
ATOM    105  O   UNL A   1      45.423  34.016  29.208  1.00  0.00    -0.237 OA
ATOM    106  O   UNL A   1      47.201  32.496  28.404  1.00  0.00    -0.237 OA
ATOM    107  O   UNL A   1      44.832  31.926  28.060  1.00  0.00    -0.744 OA
ENDBRANCH 100 104
ENDBRANCH  74  97
ENDBRANCH  48  49
ENDBRANCH  40  43
ENDBRANCH  38  39
ENDBRANCH  37  38
ENDBRANCH  36  37
ENDBRANCH   1  36
TORSDOF 22
ENDMDL
