MODEL 1
REMARK VINA RESULT:     -11.7      0.000      0.000
REMARK SMILES Cc1cc(C)cc(OCC(=O)Nc2ccc(O)cc2C(=O)NCCCCCCNC(=O)c2ccc(-c3c4nc(c(-c5cc(S(=O)(=O)[O-])ccc5F)c5ccc([nH]5)c(-c5cc(S(=O)(=O)[O-])ccc5F)c5nc(c(-c6cc(S(=O)(=O)[O-])ccc6F)c6ccc3[nH]6)C=C5)C=C4)cc2)c1
REMARK SMILES IDX 25 1 24 2 23 3 22 4 20 5 21 6 19 8 13 9 14 10 15 11 18 12
REMARK SMILES IDX 16 13 12 14 10 15 11 16 9 18 8 19 7 20 1 21 2 22 3 23 95 24
REMARK SMILES IDX 4 25 5 26 6 27 17 28 26 30 27 31 28 32 29 33 30 34 31 36
REMARK SMILES IDX 32 37 33 38 94 39 34 40 93 41 35 42 36 43 37 44 87 45 38 46
REMARK SMILES IDX 92 47 86 48 88 49 39 50 91 51 85 52 84 53 40 55 72 56 52 57
REMARK SMILES IDX 71 58 53 59 56 60 70 61 89 62 54 63 55 64 69 66 90 67 57 68
REMARK SMILES IDX 41 69 42 70 50 71 43 72 49 73 51 74 48 75 44 76 45 77 46 78
REMARK SMILES IDX 47 79 73 80 74 81 82 82 75 83 81 84 83 85 80 86 76 87 77 88
REMARK SMILES IDX 78 89 79 90 58 91 59 92 67 93 60 94 66 95 68 96 65 97 61 98
REMARK SMILES IDX 62 99 63 100 64 101
REMARK H PARENT 22 7 12 17 17 29 29 35 88 54 56 65
REMARK Flexibility Score: inf
ROOT
ATOM      1  C   UNL A   1      35.145  23.790  23.512  1.00  0.00     0.002 C 
ENDROOT
BRANCH   1   2
ATOM      2  C   UNL A   1      34.876  24.454  24.862  1.00  0.00     0.021 C 
BRANCH   2   3
ATOM      3  C   UNL A   1      33.989  25.689  24.869  1.00  0.00     0.116 C 
BRANCH   3   4
ATOM      4  N   UNL A   1      34.032  26.556  23.719  1.00  0.00    -0.352 N 
ATOM      5  C   UNL A   1      33.745  27.900  23.592  1.00  0.00     0.253 C 
ATOM      6  O   UNL A   1      33.970  28.406  22.488  1.00  0.00    -0.269 OA
ATOM      7  H   UNL A   1      34.314  26.117  22.884  1.00  0.00     0.163 HD
BRANCH   5   8
ATOM      8  C   UNL A   1      33.123  28.773  24.651  1.00  0.00     0.067 A 
ATOM      9  C   UNL A   1      31.916  29.498  24.594  1.00  0.00     0.054 A 
ATOM     10  C   UNL A   1      31.492  30.251  25.703  1.00  0.00     0.031 A 
ATOM     11  C   UNL A   1      32.242  30.303  26.874  1.00  0.00     0.048 A 
ATOM     12  C   UNL A   1      33.866  28.839  25.850  1.00  0.00     0.062 A 
ATOM     13  C   UNL A   1      33.425  29.590  26.939  1.00  0.00     0.116 A 
BRANCH   9  14
ATOM     14  N   UNL A   1      31.030  29.398  23.519  1.00  0.00    -0.322 N 
ATOM     15  C   UNL A   1      30.161  28.371  23.242  1.00  0.00     0.262 C 
ATOM     16  O   UNL A   1      29.311  28.571  22.367  1.00  0.00    -0.271 OA
ATOM     17  H   UNL A   1      31.028  30.152  22.885  1.00  0.00     0.170 HD
BRANCH  15  18
ATOM     18  C   UNL A   1      30.111  27.092  24.121  1.00  0.00     0.329 C 
BRANCH  18  19
ATOM     19  O   UNL A   1      29.797  25.838  23.530  1.00  0.00    -0.484 OA
BRANCH  19  20
ATOM     20  C   UNL A   1      30.540  24.799  24.022  1.00  0.00     0.120 A 
ATOM     21  C   UNL A   1      31.241  22.954  27.256  1.00  0.00     0.044 C 
ATOM     22  C   UNL A   1      31.234  23.315  25.799  1.00  0.00    -0.047 A 
ATOM     23  C   UNL A   1      31.749  22.435  24.839  1.00  0.00     0.007 A 
ATOM     24  C   UNL A   1      30.688  24.530  25.381  1.00  0.00     0.049 A 
ATOM     25  C   UNL A   1      31.698  22.751  23.474  1.00  0.00    -0.047 A 
ATOM     26  C   UNL A   1      32.267  21.806  22.461  1.00  0.00     0.044 C 
ATOM     27  C   UNL A   1      31.096  23.947  23.073  1.00  0.00     0.049 A 
ENDBRANCH  19  20
ENDBRANCH  18  19
ENDBRANCH  15  18
ENDBRANCH   9  14
BRANCH  13  28
ATOM     28  O   UNL A   1      34.181  29.587  28.072  1.00  0.00    -0.508 OA
ATOM     29  H   UNL A   1      34.011  28.962  28.748  1.00  0.00     0.293 HD
ENDBRANCH  13  28
ENDBRANCH   5   8
ENDBRANCH   3   4
ENDBRANCH   2   3
ENDBRANCH   1   2
BRANCH   1  30
ATOM     30  C   UNL A   1      36.371  22.879  23.387  1.00  0.00     0.002 C 
BRANCH  30  31
ATOM     31  C   UNL A   1      36.548  21.764  24.421  1.00  0.00     0.021 C 
BRANCH  31  32
ATOM     32  C   UNL A   1      37.282  22.125  25.707  1.00  0.00     0.116 C 
BRANCH  32  33
ATOM     33  N   UNL A   1      38.388  21.231  26.002  1.00  0.00    -0.352 N 
ATOM     34  C   UNL A   1      39.653  21.513  26.458  1.00  0.00     0.251 C 
ATOM     35  H   UNL A   1      38.204  20.277  25.850  1.00  0.00     0.163 HD
ATOM     36  O   UNL A   1      40.489  20.610  26.501  1.00  0.00    -0.269 OA
BRANCH  34  37
ATOM     37  C   UNL A   1      40.027  22.887  26.866  1.00  0.00     0.039 A 
ATOM     38  C   UNL A   1      40.843  23.055  27.988  1.00  0.00     0.014 A 
ATOM     39  C   UNL A   1      39.565  24.008  26.170  1.00  0.00     0.014 A 
ATOM     40  C   UNL A   1      41.242  24.337  28.376  1.00  0.00     0.010 A 
ATOM     41  C   UNL A   1      40.029  25.279  26.510  1.00  0.00     0.010 A 
ATOM     42  C   UNL A   1      40.868  25.460  27.620  1.00  0.00    -0.014 A 
BRANCH  42  43
ATOM     43  C   UNL A   1      41.341  26.823  27.983  1.00  0.00     0.031 A 
ATOM     44  C   UNL A   1      42.759  27.238  27.701  1.00  0.00     0.074 A 
ATOM     45  C   UNL A   1      40.505  27.676  28.606  1.00  0.00     0.049 A 
ATOM     46  N   UNL A   1      43.362  28.371  27.965  1.00  0.00    -0.248 NA
ATOM     47  C   UNL A   1      43.621  26.234  27.065  1.00  0.00     0.031 C 
ATOM     48  C   UNL A   1      39.115  27.383  28.964  1.00  0.00     0.029 A 
ATOM     49  N   UNL A   1      40.695  28.963  29.043  1.00  0.00    -0.354 N 
ATOM     50  C   UNL A   1      44.674  28.213  27.532  1.00  0.00     0.074 A 
ATOM     51  C   UNL A   1      44.794  26.845  27.069  1.00  0.00     0.031 C 
ATOM     52  C   UNL A   1      38.566  28.474  29.520  1.00  0.00     0.029 A 
ATOM     53  C   UNL A   1      39.574  29.527  29.608  1.00  0.00     0.049 A 
ATOM     54  H   UNL A   1      41.553  29.438  28.961  1.00  0.00     0.167 HD
ATOM     55  C   UNL A   1      45.677  29.128  27.493  1.00  0.00     0.034 A 
ATOM     56  C   UNL A   1      39.379  30.752  30.135  1.00  0.00     0.034 A 
ATOM     57  C   UNL A   1      45.541  30.484  27.971  1.00  0.00     0.049 A 
ATOM     58  C   UNL A   1      40.523  31.733  30.147  1.00  0.00     0.074 A 
ATOM     59  C   UNL A   1      46.474  31.506  27.947  1.00  0.00     0.029 A 
ATOM     60  N   UNL A   1      44.405  31.005  28.579  1.00  0.00    -0.354 N 
ATOM     61  N   UNL A   1      41.745  31.587  29.688  1.00  0.00    -0.248 NA
ATOM     62  C   UNL A   1      40.256  33.047  30.744  1.00  0.00     0.031 C 
ATOM     63  C   UNL A   1      45.933  32.613  28.611  1.00  0.00     0.029 A 
ATOM     64  C   UNL A   1      44.628  32.317  28.971  1.00  0.00     0.049 A 
ATOM     65  H   UNL A   1      43.562  30.514  28.712  1.00  0.00     0.167 HD
ATOM     66  C   UNL A   1      42.381  32.804  29.911  1.00  0.00     0.074 A 
ATOM     67  C   UNL A   1      41.404  33.674  30.534  1.00  0.00     0.031 C 
ATOM     68  C   UNL A   1      43.655  33.173  29.614  1.00  0.00     0.034 A 
BRANCH  55  69
ATOM     69  C   UNL A   1      47.010  28.664  26.945  1.00  0.00     0.023 A 
ATOM     70  C   UNL A   1      47.233  28.539  25.561  1.00  0.00     0.031 A 
ATOM     71  C   UNL A   1      48.046  28.270  27.809  1.00  0.00     0.131 A 
ATOM     72  C   UNL A   1      48.402  27.925  25.089  1.00  0.00     0.055 A 
ATOM     73  C   UNL A   1      49.255  27.759  27.328  1.00  0.00     0.041 A 
ATOM     74  F   UNL A   1      47.894  28.345  29.141  1.00  0.00    -0.206 F 
ATOM     75  C   UNL A   1      49.428  27.560  25.961  1.00  0.00     0.022 A 
BRANCH  72  76
ATOM     76  S   UNL A   1      48.466  27.419  23.348  1.00  0.00     0.124 S 
ATOM     77  O   UNL A   1      48.234  25.980  23.450  1.00  0.00    -0.237 OA
ATOM     78  O   UNL A   1      47.388  28.200  22.753  1.00  0.00    -0.237 OA
ATOM     79  O   UNL A   1      49.814  27.796  22.930  1.00  0.00    -0.744 OA
ENDBRANCH  72  76
ENDBRANCH  55  69
BRANCH  56  80
ATOM     80  C   UNL A   1      38.043  31.129  30.678  1.00  0.00     0.023 A 
ATOM     81  C   UNL A   1      37.139  31.873  29.904  1.00  0.00     0.031 A 
ATOM     82  C   UNL A   1      37.656  30.766  31.979  1.00  0.00     0.131 A 
ATOM     83  C   UNL A   1      35.906  32.262  30.448  1.00  0.00     0.055 A 
ATOM     84  C   UNL A   1      36.406  31.111  32.499  1.00  0.00     0.041 A 
ATOM     85  F   UNL A   1      38.480  30.051  32.761  1.00  0.00    -0.206 F 
ATOM     86  C   UNL A   1      35.527  31.872  31.734  1.00  0.00     0.022 A 
BRANCH  83  87
ATOM     87  S   UNL A   1      34.825  33.341  29.470  1.00  0.00     0.124 S 
ATOM     88  O   UNL A   1      34.554  32.509  28.304  1.00  0.00    -0.237 OA
ATOM     89  O   UNL A   1      33.707  33.556  30.381  1.00  0.00    -0.237 OA
ATOM     90  O   UNL A   1      35.656  34.516  29.219  1.00  0.00    -0.744 OA
ENDBRANCH  83  87
ENDBRANCH  56  80
BRANCH  68  91
ATOM     91  C   UNL A   1      44.049  34.598  29.929  1.00  0.00     0.023 A 
ATOM     92  C   UNL A   1      43.789  35.655  29.040  1.00  0.00     0.031 A 
ATOM     93  C   UNL A   1      44.708  34.898  31.136  1.00  0.00     0.131 A 
ATOM     94  C   UNL A   1      44.238  36.951  29.342  1.00  0.00     0.055 A 
ATOM     95  C   UNL A   1      45.090  36.200  31.462  1.00  0.00     0.041 A 
ATOM     96  F   UNL A   1      44.988  33.929  32.022  1.00  0.00    -0.206 F 
ATOM     97  C   UNL A   1      44.869  37.233  30.556  1.00  0.00     0.022 A 
BRANCH  94  98
ATOM     98  S   UNL A   1      44.080  38.245  28.080  1.00  0.00     0.124 S 
ATOM     99  O   UNL A   1      43.005  39.068  28.623  1.00  0.00    -0.237 OA
ATOM    100  O   UNL A   1      45.409  38.849  28.083  1.00  0.00    -0.237 OA
ATOM    101  O   UNL A   1      43.741  37.503  26.867  1.00  0.00    -0.744 OA
ENDBRANCH  94  98
ENDBRANCH  68  91
ENDBRANCH  42  43
ENDBRANCH  34  37
ENDBRANCH  32  33
ENDBRANCH  31  32
ENDBRANCH  30  31
ENDBRANCH   1  30
TORSDOF 21
ENDMDL
MODEL 2
REMARK VINA RESULT:     -11.6      1.672      2.174
REMARK SMILES Cc1cc(C)cc(OCC(=O)Nc2ccc(O)cc2C(=O)NCCCCCCNC(=O)c2ccc(-c3c4nc(c(-c5cc(S(=O)(=O)[O-])ccc5F)c5ccc([nH]5)c(-c5cc(S(=O)(=O)[O-])ccc5F)c5nc(c(-c6cc(S(=O)(=O)[O-])ccc6F)c6ccc3[nH]6)C=C5)C=C4)cc2)c1
REMARK SMILES IDX 25 1 24 2 23 3 22 4 20 5 21 6 19 8 13 9 14 10 15 11 18 12
REMARK SMILES IDX 16 13 12 14 10 15 11 16 9 18 8 19 7 20 1 21 2 22 3 23 95 24
REMARK SMILES IDX 4 25 5 26 6 27 17 28 26 30 27 31 28 32 29 33 30 34 31 36
REMARK SMILES IDX 32 37 33 38 94 39 34 40 93 41 35 42 36 43 37 44 87 45 38 46
REMARK SMILES IDX 92 47 86 48 88 49 39 50 91 51 85 52 84 53 40 55 72 56 52 57
REMARK SMILES IDX 71 58 53 59 56 60 70 61 89 62 54 63 55 64 69 66 90 67 57 68
REMARK SMILES IDX 41 69 42 70 50 71 43 72 49 73 51 74 48 75 44 76 45 77 46 78
REMARK SMILES IDX 47 79 73 80 74 81 82 82 75 83 81 84 83 85 80 86 76 87 77 88
REMARK SMILES IDX 78 89 79 90 58 91 59 92 67 93 60 94 66 95 68 96 65 97 61 98
REMARK SMILES IDX 62 99 63 100 64 101
REMARK H PARENT 22 7 12 17 17 29 29 35 88 54 56 65
REMARK Flexibility Score: inf
ROOT
ATOM      1  C   UNL A   1      35.651  24.416  24.961  1.00  0.00     0.002 C 
ENDROOT
BRANCH   1   2
ATOM      2  C   UNL A   1      34.329  25.148  25.186  1.00  0.00     0.021 C 
BRANCH   2   3
ATOM      3  C   UNL A   1      33.525  25.531  23.953  1.00  0.00     0.116 C 
BRANCH   3   4
ATOM      4  N   UNL A   1      33.894  26.735  23.254  1.00  0.00    -0.352 N 
ATOM      5  C   UNL A   1      33.886  28.054  23.663  1.00  0.00     0.253 C 
ATOM      6  O   UNL A   1      34.357  28.875  22.870  1.00  0.00    -0.269 OA
ATOM      7  H   UNL A   1      34.204  26.595  22.330  1.00  0.00     0.163 HD
BRANCH   5   8
ATOM      8  C   UNL A   1      33.295  28.575  24.947  1.00  0.00     0.067 A 
ATOM      9  C   UNL A   1      31.938  28.654  25.320  1.00  0.00     0.054 A 
ATOM     10  C   UNL A   1      31.582  29.164  26.581  1.00  0.00     0.031 A 
ATOM     11  C   UNL A   1      32.545  29.598  27.486  1.00  0.00     0.048 A 
ATOM     12  C   UNL A   1      34.254  29.021  25.882  1.00  0.00     0.062 A 
ATOM     13  C   UNL A   1      33.878  29.519  27.128  1.00  0.00     0.116 A 
BRANCH   9  14
ATOM     14  N   UNL A   1      30.912  28.117  24.539  1.00  0.00    -0.322 N 
ATOM     15  C   UNL A   1      30.237  26.938  24.740  1.00  0.00     0.262 C 
ATOM     16  O   UNL A   1      29.219  26.747  24.064  1.00  0.00    -0.271 OA
ATOM     17  H   UNL A   1      30.641  28.645  23.753  1.00  0.00     0.170 HD
BRANCH  15  18
ATOM     18  C   UNL A   1      30.610  25.978  25.902  1.00  0.00     0.329 C 
BRANCH  18  19
ATOM     19  O   UNL A   1      29.983  24.705  25.999  1.00  0.00    -0.484 OA
BRANCH  19  20
ATOM     20  C   UNL A   1      30.834  23.657  25.779  1.00  0.00     0.120 A 
ATOM     21  C   UNL A   1      32.270  21.570  22.962  1.00  0.00     0.044 C 
ATOM     22  C   UNL A   1      32.031  22.136  24.331  1.00  0.00    -0.047 A 
ATOM     23  C   UNL A   1      32.881  21.817  25.398  1.00  0.00     0.007 A 
ATOM     24  C   UNL A   1      30.966  23.012  24.551  1.00  0.00     0.049 A 
ATOM     25  C   UNL A   1      32.687  22.384  26.666  1.00  0.00    -0.047 A 
ATOM     26  C   UNL A   1      33.595  22.020  27.800  1.00  0.00     0.044 C 
ATOM     27  C   UNL A   1      31.649  23.301  26.850  1.00  0.00     0.049 A 
ENDBRANCH  19  20
ENDBRANCH  18  19
ENDBRANCH  15  18
ENDBRANCH   9  14
BRANCH  13  28
ATOM     28  O   UNL A   1      34.860  29.908  27.990  1.00  0.00    -0.508 OA
ATOM     29  H   UNL A   1      35.401  29.266  28.405  1.00  0.00     0.293 HD
ENDBRANCH  13  28
ENDBRANCH   5   8
ENDBRANCH   3   4
ENDBRANCH   2   3
ENDBRANCH   1   2
BRANCH   1  30
ATOM     30  C   UNL A   1      35.735  23.417  23.800  1.00  0.00     0.002 C 
BRANCH  30  31
ATOM     31  C   UNL A   1      36.344  22.041  24.079  1.00  0.00     0.021 C 
BRANCH  31  32
ATOM     32  C   UNL A   1      36.650  21.701  25.534  1.00  0.00     0.116 C 
BRANCH  32  33
ATOM     33  N   UNL A   1      37.677  20.685  25.677  1.00  0.00    -0.352 N 
ATOM     34  C   UNL A   1      39.003  20.811  26.008  1.00  0.00     0.251 C 
ATOM     35  H   UNL A   1      37.376  19.763  25.510  1.00  0.00     0.163 HD
ATOM     36  O   UNL A   1      39.737  19.825  25.930  1.00  0.00    -0.269 OA
BRANCH  34  37
ATOM     37  C   UNL A   1      39.563  22.118  26.425  1.00  0.00     0.039 A 
ATOM     38  C   UNL A   1      40.555  22.140  27.409  1.00  0.00     0.014 A 
ATOM     39  C   UNL A   1      39.107  23.319  25.874  1.00  0.00     0.014 A 
ATOM     40  C   UNL A   1      41.128  23.355  27.797  1.00  0.00     0.010 A 
ATOM     41  C   UNL A   1      39.734  24.520  26.203  1.00  0.00     0.010 A 
ATOM     42  C   UNL A   1      40.748  24.554  27.173  1.00  0.00    -0.014 A 
BRANCH  42  43
ATOM     43  C   UNL A   1      41.397  25.845  27.529  1.00  0.00     0.031 A 
ATOM     44  C   UNL A   1      42.817  26.122  27.119  1.00  0.00     0.074 A 
ATOM     45  C   UNL A   1      40.721  26.753  28.259  1.00  0.00     0.049 A 
ATOM     46  N   UNL A   1      43.560  27.175  27.357  1.00  0.00    -0.248 NA
ATOM     47  C   UNL A   1      43.502  25.060  26.370  1.00  0.00     0.031 C 
ATOM     48  C   UNL A   1      39.348  26.591  28.745  1.00  0.00     0.029 A 
ATOM     49  N   UNL A   1      41.089  27.994  28.714  1.00  0.00    -0.354 N 
ATOM     50  C   UNL A   1      44.801  26.899  26.790  1.00  0.00     0.074 A 
ATOM     51  C   UNL A   1      44.728  25.546  26.276  1.00  0.00     0.031 C 
ATOM     52  C   UNL A   1      38.975  27.709  29.386  1.00  0.00     0.029 A 
ATOM     53  C   UNL A   1      40.094  28.647  29.405  1.00  0.00     0.049 A 
ATOM     54  H   UNL A   1      41.981  28.381  28.561  1.00  0.00     0.167 HD
ATOM     55  C   UNL A   1      45.888  27.706  26.680  1.00  0.00     0.034 A 
ATOM     56  C   UNL A   1      40.083  29.863  29.986  1.00  0.00     0.034 A 
ATOM     57  C   UNL A   1      45.945  29.048  27.211  1.00  0.00     0.049 A 
ATOM     58  C   UNL A   1      41.321  30.719  29.915  1.00  0.00     0.074 A 
ATOM     59  C   UNL A   1      46.975  29.968  27.125  1.00  0.00     0.029 A 
ATOM     60  N   UNL A   1      44.934  29.658  27.945  1.00  0.00    -0.354 N 
ATOM     61  N   UNL A   1      42.470  30.466  29.332  1.00  0.00    -0.248 NA
ATOM     62  C   UNL A   1      41.255  32.028  30.575  1.00  0.00     0.031 C 
ATOM     63  C   UNL A   1      46.622  31.097  27.874  1.00  0.00     0.029 A 
ATOM     64  C   UNL A   1      45.333  30.923  28.353  1.00  0.00     0.049 A 
ATOM     65  H   UNL A   1      44.060  29.252  28.146  1.00  0.00     0.167 HD
ATOM     66  C   UNL A   1      43.252  31.601  29.527  1.00  0.00     0.074 A 
ATOM     67  C   UNL A   1      42.438  32.541  30.271  1.00  0.00     0.031 C 
ATOM     68  C   UNL A   1      44.524  31.847  29.117  1.00  0.00     0.034 A 
BRANCH  55  69
ATOM     69  C   UNL A   1      47.104  27.129  25.987  1.00  0.00     0.023 A 
ATOM     70  C   UNL A   1      48.057  26.367  26.687  1.00  0.00     0.031 A 
ATOM     71  C   UNL A   1      47.358  27.402  24.631  1.00  0.00     0.131 A 
ATOM     72  C   UNL A   1      49.265  26.012  26.070  1.00  0.00     0.055 A 
ATOM     73  C   UNL A   1      48.516  26.952  23.992  1.00  0.00     0.041 A 
ATOM     74  F   UNL A   1      46.499  28.139  23.908  1.00  0.00    -0.206 F 
ATOM     75  C   UNL A   1      49.490  26.274  24.718  1.00  0.00     0.022 A 
BRANCH  72  76
ATOM     76  S   UNL A   1      50.617  25.399  27.114  1.00  0.00     0.124 S 
ATOM     77  O   UNL A   1      51.040  26.620  27.797  1.00  0.00    -0.237 OA
ATOM     78  O   UNL A   1      49.949  24.402  27.942  1.00  0.00    -0.237 OA
ATOM     79  O   UNL A   1      51.580  24.869  26.152  1.00  0.00    -0.744 OA
ENDBRANCH  72  76
ENDBRANCH  55  69
BRANCH  56  80
ATOM     80  C   UNL A   1      38.853  30.353  30.671  1.00  0.00     0.023 A 
ATOM     81  C   UNL A   1      37.978  31.240  30.024  1.00  0.00     0.031 A 
ATOM     82  C   UNL A   1      38.543  29.959  31.984  1.00  0.00     0.131 A 
ATOM     83  C   UNL A   1      36.851  31.730  30.701  1.00  0.00     0.055 A 
ATOM     84  C   UNL A   1      37.393  30.409  32.636  1.00  0.00     0.041 A 
ATOM     85  F   UNL A   1      39.344  29.110  32.648  1.00  0.00    -0.206 F 
ATOM     86  C   UNL A   1      36.545  31.308  31.997  1.00  0.00     0.022 A 
BRANCH  83  87
ATOM     87  S   UNL A   1      35.822  32.980  29.885  1.00  0.00     0.124 S 
ATOM     88  O   UNL A   1      36.624  33.302  28.711  1.00  0.00    -0.237 OA
ATOM     89  O   UNL A   1      34.588  32.243  29.639  1.00  0.00    -0.237 OA
ATOM     90  O   UNL A   1      35.723  34.043  30.883  1.00  0.00    -0.744 OA
ENDBRANCH  83  87
ENDBRANCH  56  80
BRANCH  68  91
ATOM     91  C   UNL A   1      45.097  33.210  29.434  1.00  0.00     0.023 A 
ATOM     92  C   UNL A   1      44.872  34.323  28.606  1.00  0.00     0.031 A 
ATOM     93  C   UNL A   1      45.892  33.392  30.581  1.00  0.00     0.131 A 
ATOM     94  C   UNL A   1      45.484  35.551  28.901  1.00  0.00     0.055 A 
ATOM     95  C   UNL A   1      46.441  34.633  30.907  1.00  0.00     0.041 A 
ATOM     96  F   UNL A   1      46.146  32.364  31.407  1.00  0.00    -0.206 F 
ATOM     97  C   UNL A   1      46.250  35.718  30.058  1.00  0.00     0.022 A 
BRANCH  94  98
ATOM     98  S   UNL A   1      45.352  36.904  27.699  1.00  0.00     0.124 S 
ATOM     99  O   UNL A   1      44.000  36.720  27.184  1.00  0.00    -0.237 OA
ATOM    100  O   UNL A   1      45.563  38.084  28.532  1.00  0.00    -0.237 OA
ATOM    101  O   UNL A   1      46.423  36.621  26.745  1.00  0.00    -0.744 OA
ENDBRANCH  94  98
ENDBRANCH  68  91
ENDBRANCH  42  43
ENDBRANCH  34  37
ENDBRANCH  32  33
ENDBRANCH  31  32
ENDBRANCH  30  31
ENDBRANCH   1  30
TORSDOF 21
ENDMDL
MODEL 3
REMARK VINA RESULT:     -11.6      4.659      9.502
REMARK SMILES Cc1cc(C)cc(OCC(=O)Nc2ccc(O)cc2C(=O)NCCCCCCNC(=O)c2ccc(-c3c4nc(c(-c5cc(S(=O)(=O)[O-])ccc5F)c5ccc([nH]5)c(-c5cc(S(=O)(=O)[O-])ccc5F)c5nc(c(-c6cc(S(=O)(=O)[O-])ccc6F)c6ccc3[nH]6)C=C5)C=C4)cc2)c1
REMARK SMILES IDX 25 1 24 2 23 3 22 4 20 5 21 6 19 8 13 9 14 10 15 11 18 12
REMARK SMILES IDX 16 13 12 14 10 15 11 16 9 18 8 19 7 20 1 21 2 22 3 23 95 24
REMARK SMILES IDX 4 25 5 26 6 27 17 28 26 30 27 31 28 32 29 33 30 34 31 36
REMARK SMILES IDX 32 37 33 38 94 39 34 40 93 41 35 42 36 43 37 44 87 45 38 46
REMARK SMILES IDX 92 47 86 48 88 49 39 50 91 51 85 52 84 53 40 55 72 56 52 57
REMARK SMILES IDX 71 58 53 59 56 60 70 61 89 62 54 63 55 64 69 66 90 67 57 68
REMARK SMILES IDX 41 69 42 70 50 71 43 72 49 73 51 74 48 75 44 76 45 77 46 78
REMARK SMILES IDX 47 79 73 80 74 81 82 82 75 83 81 84 83 85 80 86 76 87 77 88
REMARK SMILES IDX 78 89 79 90 58 91 59 92 67 93 60 94 66 95 68 96 65 97 61 98
REMARK SMILES IDX 62 99 63 100 64 101
REMARK H PARENT 22 7 12 17 17 29 29 35 88 54 56 65
REMARK Flexibility Score: inf
ROOT
ATOM      1  C   UNL A   1      33.653  27.324  22.454  1.00  0.00     0.002 C 
ENDROOT
BRANCH   1   2
ATOM      2  C   UNL A   1      32.688  26.512  21.590  1.00  0.00     0.021 C 
BRANCH   2   3
ATOM      3  C   UNL A   1      31.569  25.770  22.304  1.00  0.00     0.116 C 
BRANCH   3   4
ATOM      4  N   UNL A   1      31.573  24.330  22.252  1.00  0.00    -0.352 N 
ATOM      5  C   UNL A   1      32.359  23.407  22.912  1.00  0.00     0.253 C 
ATOM      6  O   UNL A   1      32.066  22.219  22.744  1.00  0.00    -0.269 OA
ATOM      7  H   UNL A   1      30.904  23.940  21.646  1.00  0.00     0.163 HD
BRANCH   5   8
ATOM      8  C   UNL A   1      33.569  23.720  23.753  1.00  0.00     0.067 A 
ATOM      9  C   UNL A   1      33.628  24.382  24.995  1.00  0.00     0.054 A 
ATOM     10  C   UNL A   1      34.864  24.569  25.639  1.00  0.00     0.031 A 
ATOM     11  C   UNL A   1      36.051  24.112  25.075  1.00  0.00     0.048 A 
ATOM     12  C   UNL A   1      34.787  23.263  23.201  1.00  0.00     0.062 A 
ATOM     13  C   UNL A   1      36.001  23.456  23.858  1.00  0.00     0.116 A 
BRANCH   9  14
ATOM     14  N   UNL A   1      32.482  24.753  25.703  1.00  0.00    -0.322 N 
ATOM     15  C   UNL A   1      31.664  23.945  26.455  1.00  0.00     0.262 C 
ATOM     16  O   UNL A   1      30.829  24.501  27.176  1.00  0.00    -0.271 OA
ATOM     17  H   UNL A   1      32.231  25.704  25.658  1.00  0.00     0.170 HD
BRANCH  15  18
ATOM     18  C   UNL A   1      31.905  22.414  26.555  1.00  0.00     0.329 C 
BRANCH  18  19
ATOM     19  O   UNL A   1      33.177  21.923  26.960  1.00  0.00    -0.484 OA
BRANCH  19  20
ATOM     20  C   UNL A   1      33.646  20.905  26.175  1.00  0.00     0.120 A 
ATOM     21  C   UNL A   1      32.456  18.353  23.640  1.00  0.00     0.044 C 
ATOM     22  C   UNL A   1      33.361  19.184  24.502  1.00  0.00    -0.047 A 
ATOM     23  C   UNL A   1      34.750  19.153  24.323  1.00  0.00     0.007 A 
ATOM     24  C   UNL A   1      32.823  20.020  25.481  1.00  0.00     0.049 A 
ATOM     25  C   UNL A   1      35.592  19.966  25.094  1.00  0.00    -0.047 A 
ATOM     26  C   UNL A   1      37.077  19.910  24.901  1.00  0.00     0.044 C 
ATOM     27  C   UNL A   1      35.029  20.837  26.030  1.00  0.00     0.049 A 
ENDBRANCH  19  20
ENDBRANCH  18  19
ENDBRANCH  15  18
ENDBRANCH   9  14
BRANCH  13  28
ATOM     28  O   UNL A   1      37.132  22.967  23.277  1.00  0.00    -0.508 OA
ATOM     29  H   UNL A   1      37.124  22.122  22.873  1.00  0.00     0.293 HD
ENDBRANCH  13  28
ENDBRANCH   5   8
ENDBRANCH   3   4
ENDBRANCH   2   3
ENDBRANCH   1   2
BRANCH   1  30
ATOM     30  C   UNL A   1      33.252  27.618  23.904  1.00  0.00     0.002 C 
BRANCH  30  31
ATOM     31  C   UNL A   1      33.891  28.824  24.596  1.00  0.00     0.021 C 
BRANCH  31  32
ATOM     32  C   UNL A   1      33.732  28.916  26.110  1.00  0.00     0.116 C 
BRANCH  32  33
ATOM     33  N   UNL A   1      33.665  30.284  26.593  1.00  0.00    -0.352 N 
ATOM     34  C   UNL A   1      34.471  30.944  27.488  1.00  0.00     0.251 C 
ATOM     35  H   UNL A   1      32.928  30.821  26.223  1.00  0.00     0.163 HD
ATOM     36  O   UNL A   1      34.145  32.069  27.870  1.00  0.00    -0.269 OA
BRANCH  34  37
ATOM     37  C   UNL A   1      35.701  30.311  28.017  1.00  0.00     0.039 A 
ATOM     38  C   UNL A   1      36.874  30.387  27.262  1.00  0.00     0.014 A 
ATOM     39  C   UNL A   1      35.704  29.625  29.235  1.00  0.00     0.014 A 
ATOM     40  C   UNL A   1      38.059  29.831  27.752  1.00  0.00     0.010 A 
ATOM     41  C   UNL A   1      36.903  29.141  29.759  1.00  0.00     0.010 A 
ATOM     42  C   UNL A   1      38.093  29.232  29.022  1.00  0.00    -0.014 A 
BRANCH  42  43
ATOM     43  C   UNL A   1      39.362  28.695  29.584  1.00  0.00     0.031 A 
ATOM     44  C   UNL A   1      39.966  29.303  30.821  1.00  0.00     0.074 A 
ATOM     45  C   UNL A   1      39.996  27.685  28.957  1.00  0.00     0.049 A 
ATOM     46  N   UNL A   1      41.074  28.991  31.445  1.00  0.00    -0.248 NA
ATOM     47  C   UNL A   1      39.240  30.433  31.415  1.00  0.00     0.031 C 
ATOM     48  C   UNL A   1      39.531  27.030  27.732  1.00  0.00     0.029 A 
ATOM     49  N   UNL A   1      41.160  27.027  29.262  1.00  0.00    -0.354 N 
ATOM     50  C   UNL A   1      41.181  29.889  32.502  1.00  0.00     0.074 A 
ATOM     51  C   UNL A   1      40.068  30.807  32.377  1.00  0.00     0.031 C 
ATOM     52  C   UNL A   1      40.374  26.033  27.421  1.00  0.00     0.029 A 
ATOM     53  C   UNL A   1      41.467  26.010  28.389  1.00  0.00     0.049 A 
ATOM     54  H   UNL A   1      41.724  27.261  30.035  1.00  0.00     0.167 HD
ATOM     55  C   UNL A   1      42.100  29.927  33.501  1.00  0.00     0.034 A 
ATOM     56  C   UNL A   1      42.508  25.154  28.369  1.00  0.00     0.034 A 
ATOM     57  C   UNL A   1      43.211  29.009  33.601  1.00  0.00     0.049 A 
ATOM     58  C   UNL A   1      43.557  25.254  29.445  1.00  0.00     0.074 A 
ATOM     59  C   UNL A   1      44.179  28.928  34.587  1.00  0.00     0.029 A 
ATOM     60  N   UNL A   1      43.515  28.021  32.671  1.00  0.00    -0.354 N 
ATOM     61  N   UNL A   1      43.619  26.076  30.469  1.00  0.00    -0.248 NA
ATOM     62  C   UNL A   1      44.673  24.305  29.367  1.00  0.00     0.031 C 
ATOM     63  C   UNL A   1      45.110  27.952  34.212  1.00  0.00     0.029 A 
ATOM     64  C   UNL A   1      44.677  27.357  33.038  1.00  0.00     0.049 A 
ATOM     65  H   UNL A   1      42.982  27.821  31.868  1.00  0.00     0.167 HD
ATOM     66  C   UNL A   1      44.763  25.718  31.174  1.00  0.00     0.074 A 
ATOM     67  C   UNL A   1      45.354  24.600  30.465  1.00  0.00     0.031 C 
ATOM     68  C   UNL A   1      45.273  26.257  32.312  1.00  0.00     0.034 A 
BRANCH  55  69
ATOM     69  C   UNL A   1      41.947  31.023  34.534  1.00  0.00     0.023 A 
ATOM     70  C   UNL A   1      40.890  31.016  35.462  1.00  0.00     0.031 A 
ATOM     71  C   UNL A   1      42.820  32.125  34.549  1.00  0.00     0.131 A 
ATOM     72  C   UNL A   1      40.661  32.135  36.275  1.00  0.00     0.055 A 
ATOM     73  C   UNL A   1      42.648  33.190  35.438  1.00  0.00     0.041 A 
ATOM     74  F   UNL A   1      43.839  32.205  33.678  1.00  0.00    -0.206 F 
ATOM     75  C   UNL A   1      41.549  33.211  36.290  1.00  0.00     0.022 A 
BRANCH  72  76
ATOM     76  S   UNL A   1      39.075  32.254  37.148  1.00  0.00     0.124 S 
ATOM     77  O   UNL A   1      39.512  32.489  38.523  1.00  0.00    -0.237 OA
ATOM     78  O   UNL A   1      38.430  33.379  36.482  1.00  0.00    -0.237 OA
ATOM     79  O   UNL A   1      38.456  30.951  36.915  1.00  0.00    -0.744 OA
ENDBRANCH  72  76
ENDBRANCH  55  69
BRANCH  56  80
ATOM     80  C   UNL A   1      42.602  24.115  27.304  1.00  0.00     0.023 A 
ATOM     81  C   UNL A   1      41.962  22.875  27.455  1.00  0.00     0.031 A 
ATOM     82  C   UNL A   1      43.344  24.338  26.131  1.00  0.00     0.131 A 
ATOM     83  C   UNL A   1      42.102  21.890  26.465  1.00  0.00     0.055 A 
ATOM     84  C   UNL A   1      43.438  23.374  25.125  1.00  0.00     0.041 A 
ATOM     85  F   UNL A   1      43.973  25.508  25.934  1.00  0.00    -0.206 F 
ATOM     86  C   UNL A   1      42.822  22.137  25.294  1.00  0.00     0.022 A 
BRANCH  83  87
ATOM     87  S   UNL A   1      41.379  20.253  26.759  1.00  0.00     0.124 S 
ATOM     88  O   UNL A   1      42.279  19.710  27.770  1.00  0.00    -0.237 OA
ATOM     89  O   UNL A   1      40.034  20.592  27.211  1.00  0.00    -0.237 OA
ATOM     90  O   UNL A   1      41.451  19.610  25.449  1.00  0.00    -0.744 OA
ENDBRANCH  83  87
ENDBRANCH  56  80
BRANCH  68  91
ATOM     91  C   UNL A   1      46.517  25.612  32.881  1.00  0.00     0.023 A 
ATOM     92  C   UNL A   1      47.798  25.892  32.375  1.00  0.00     0.031 A 
ATOM     93  C   UNL A   1      46.414  24.692  33.940  1.00  0.00     0.131 A 
ATOM     94  C   UNL A   1      48.917  25.215  32.886  1.00  0.00     0.055 A 
ATOM     95  C   UNL A   1      47.537  24.073  34.491  1.00  0.00     0.041 A 
ATOM     96  F   UNL A   1      45.216  24.380  34.461  1.00  0.00    -0.206 F 
ATOM     97  C   UNL A   1      48.796  24.323  33.955  1.00  0.00     0.022 A 
BRANCH  94  98
ATOM     98  S   UNL A   1      50.520  25.436  32.067  1.00  0.00     0.124 S 
ATOM     99  O   UNL A   1      50.822  24.081  31.620  1.00  0.00    -0.237 OA
ATOM    100  O   UNL A   1      50.205  26.399  31.017  1.00  0.00    -0.237 OA
ATOM    101  O   UNL A   1      51.383  25.944  33.132  1.00  0.00    -0.744 OA
ENDBRANCH  94  98
ENDBRANCH  68  91
ENDBRANCH  42  43
ENDBRANCH  34  37
ENDBRANCH  32  33
ENDBRANCH  31  32
ENDBRANCH  30  31
ENDBRANCH   1  30
TORSDOF 21
ENDMDL
