MODEL 1
REMARK VINA RESULT:     -11.7      0.000      0.000
REMARK SMILES CC(C)[C@H](NC(=O)[C@H](Cc1ccccc1)n1c(=O)[nH]c2ccccc2c1=O)C(=O)NCCCCCCNC(=O)c1ccc(-c2c3nc(c(-c4cc(S(=O)(=O)[O-])ccc4F)c4ccc([nH]4)c(-c4cc(S(=O)(=O)[O-])ccc4F)c4nc(c(-c5cc(S(=O)(=O)[O-])ccc5F)c5ccc2[nH]5)C=C4)C=C3)cc1
REMARK SMILES IDX 33 1 32 2 31 3 30 4 28 5 29 6 4 8 2 9 1 10 3 11 5 12 6 13
REMARK SMILES IDX 7 15 8 16 16 17 17 18 26 19 18 20 19 21 25 22 27 23 20 24
REMARK SMILES IDX 24 26 21 27 23 28 22 29 9 30 10 31 11 32 15 33 12 34 14 35
REMARK SMILES IDX 13 36 34 37 35 38 36 39 37 40 38 41 39 43 40 44 41 45 102 46
REMARK SMILES IDX 42 47 101 48 43 49 44 50 45 51 95 52 46 53 100 54 94 55
REMARK SMILES IDX 96 56 47 57 99 58 93 59 92 60 48 62 80 63 60 64 79 65 61 66
REMARK SMILES IDX 64 67 78 68 97 69 62 70 63 71 77 73 98 74 65 75 49 76 50 77
REMARK SMILES IDX 58 78 51 79 57 80 59 81 56 82 52 83 53 84 54 85 55 86 81 87
REMARK SMILES IDX 82 88 90 89 83 90 89 91 91 92 88 93 84 94 85 95 86 96 87 97
REMARK SMILES IDX 66 98 67 99 75 100 68 101 74 102 76 103 73 104 69 105 70 106
REMARK SMILES IDX 71 107 72 108
REMARK H PARENT 30 7 5 14 19 25 37 42 96 61 64 72
REMARK Flexibility Score: inf
ROOT
ATOM      1  C   UNL A   1      38.384  23.224  26.795  1.00  0.00     0.002 C 
ENDROOT
BRANCH   1   2
ATOM      2  C   UNL A   1      37.779  24.127  25.712  1.00  0.00     0.021 C 
BRANCH   2   3
ATOM      3  C   UNL A   1      36.278  23.956  25.492  1.00  0.00     0.116 C 
BRANCH   3   4
ATOM      4  N   UNL A   1      35.929  23.539  24.151  1.00  0.00    -0.354 N 
ATOM      5  C   UNL A   1      34.733  23.155  23.628  1.00  0.00     0.242 C 
ATOM      6  O   UNL A   1      34.652  23.089  22.397  1.00  0.00    -0.273 OA
ATOM      7  H   UNL A   1      36.679  23.530  23.514  1.00  0.00     0.163 HD
BRANCH   5   8
ATOM      8  C   UNL A   1      33.471  23.009  24.503  1.00  0.00     0.173 C 
BRANCH   8   9
ATOM      9  C   UNL A   1      33.568  21.573  25.123  1.00  0.00     0.015 C 
ATOM     10  C   UNL A   1      33.714  21.670  26.646  1.00  0.00     0.010 C 
ATOM     11  C   UNL A   1      32.443  20.598  24.777  1.00  0.00     0.010 C 
ENDBRANCH   8   9
BRANCH   8  12
ATOM     12  N   UNL A   1      32.228  23.304  23.784  1.00  0.00    -0.342 N 
ATOM     13  C   UNL A   1      31.540  24.459  23.554  1.00  0.00     0.244 C 
ATOM     14  H   UNL A   1      31.805  22.509  23.388  1.00  0.00     0.164 HD
ATOM     15  O   UNL A   1      30.442  24.290  23.005  1.00  0.00    -0.273 OA
BRANCH  13  16
ATOM     16  C   UNL A   1      31.933  25.850  24.130  1.00  0.00     0.189 C 
BRANCH  16  17
ATOM     17  N   UNL A   1      31.244  27.015  23.555  1.00  0.00    -0.247 N 
ATOM     18  C   UNL A   1      32.013  27.922  22.856  1.00  0.00     0.329 A 
ATOM     19  C   UNL A   1      29.874  27.176  23.733  1.00  0.00     0.264 A 
ATOM     20  O   UNL A   1      33.233  27.997  22.961  1.00  0.00    -0.248 OA
ATOM     21  N   UNL A   1      31.371  28.822  22.069  1.00  0.00    -0.307 N 
ATOM     22  C   UNL A   1      29.249  28.345  23.074  1.00  0.00     0.064 A 
ATOM     23  O   UNL A   1      29.174  26.418  24.403  1.00  0.00    -0.268 OA
ATOM     24  C   UNL A   1      30.015  29.087  22.181  1.00  0.00     0.055 A 
ATOM     25  H   UNL A   1      31.891  29.307  21.388  1.00  0.00     0.171 HD
ATOM     26  C   UNL A   1      27.942  28.742  23.362  1.00  0.00     0.016 A 
ATOM     27  C   UNL A   1      29.471  30.174  21.501  1.00  0.00     0.027 A 
ATOM     28  C   UNL A   1      27.409  29.867  22.726  1.00  0.00     0.001 A 
ATOM     29  C   UNL A   1      28.164  30.567  21.781  1.00  0.00     0.002 A 
ENDBRANCH  16  17
BRANCH  16  30
ATOM     30  C   UNL A   1      32.002  25.844  25.709  1.00  0.00     0.071 C 
BRANCH  30  31
ATOM     31  C   UNL A   1      32.478  27.106  26.405  1.00  0.00    -0.045 A 
ATOM     32  C   UNL A   1      31.559  28.031  26.923  1.00  0.00     0.004 A 
ATOM     33  C   UNL A   1      33.842  27.435  26.417  1.00  0.00     0.004 A 
ATOM     34  C   UNL A   1      31.978  29.309  27.303  1.00  0.00     0.000 A 
ATOM     35  C   UNL A   1      34.263  28.699  26.834  1.00  0.00     0.000 A 
ATOM     36  C   UNL A   1      33.328  29.649  27.242  1.00  0.00     0.000 A 
ENDBRANCH  30  31
ENDBRANCH  16  30
ENDBRANCH  13  16
ENDBRANCH   8  12
ENDBRANCH   5   8
ENDBRANCH   3   4
ENDBRANCH   2   3
ENDBRANCH   1   2
BRANCH   1  37
ATOM     37  C   UNL A   1      39.656  22.475  26.393  1.00  0.00     0.002 C 
BRANCH  37  38
ATOM     38  C   UNL A   1      39.694  21.001  26.792  1.00  0.00     0.021 C 
BRANCH  38  39
ATOM     39  C   UNL A   1      39.978  20.045  25.644  1.00  0.00     0.116 C 
BRANCH  39  40
ATOM     40  N   UNL A   1      41.044  19.115  25.968  1.00  0.00    -0.352 N 
ATOM     41  C   UNL A   1      42.363  19.384  26.239  1.00  0.00     0.251 C 
ATOM     42  H   UNL A   1      40.787  18.166  25.996  1.00  0.00     0.163 HD
ATOM     43  O   UNL A   1      43.177  18.470  26.270  1.00  0.00    -0.269 OA
BRANCH  41  44
ATOM     44  C   UNL A   1      42.790  20.785  26.467  1.00  0.00     0.039 A 
ATOM     45  C   UNL A   1      42.872  21.260  27.777  1.00  0.00     0.014 A 
ATOM     46  C   UNL A   1      43.100  21.627  25.394  1.00  0.00     0.014 A 
ATOM     47  C   UNL A   1      43.298  22.570  28.011  1.00  0.00     0.010 A 
ATOM     48  C   UNL A   1      43.606  22.901  25.634  1.00  0.00     0.010 A 
ATOM     49  C   UNL A   1      43.688  23.395  26.944  1.00  0.00    -0.014 A 
BRANCH  49  50
ATOM     50  C   UNL A   1      44.130  24.796  27.179  1.00  0.00     0.031 A 
ATOM     51  C   UNL A   1      43.144  25.812  27.695  1.00  0.00     0.074 A 
ATOM     52  C   UNL A   1      45.397  25.160  26.903  1.00  0.00     0.049 A 
ATOM     53  N   UNL A   1      43.312  27.090  27.921  1.00  0.00    -0.248 NA
ATOM     54  C   UNL A   1      41.779  25.332  27.964  1.00  0.00     0.031 C 
ATOM     55  C   UNL A   1      46.434  24.273  26.370  1.00  0.00     0.029 A 
ATOM     56  N   UNL A   1      46.033  26.369  27.031  1.00  0.00    -0.354 N 
ATOM     57  C   UNL A   1      42.076  27.565  28.349  1.00  0.00     0.074 A 
ATOM     58  C   UNL A   1      41.153  26.455  28.279  1.00  0.00     0.031 C 
ATOM     59  C   UNL A   1      47.581  24.960  26.250  1.00  0.00     0.029 A 
ATOM     60  C   UNL A   1      47.355  26.345  26.650  1.00  0.00     0.049 A 
ATOM     61  H   UNL A   1      45.584  27.179  27.367  1.00  0.00     0.167 HD
ATOM     62  C   UNL A   1      41.748  28.806  28.790  1.00  0.00     0.034 A 
ATOM     63  C   UNL A   1      48.276  27.328  26.623  1.00  0.00     0.034 A 
ATOM     64  C   UNL A   1      42.685  29.900  28.866  1.00  0.00     0.049 A 
ATOM     65  C   UNL A   1      47.880  28.708  27.091  1.00  0.00     0.074 A 
ATOM     66  C   UNL A   1      42.470  31.188  29.324  1.00  0.00     0.029 A 
ATOM     67  N   UNL A   1      44.015  29.838  28.470  1.00  0.00    -0.354 N 
ATOM     68  N   UNL A   1      46.716  29.132  27.529  1.00  0.00    -0.248 NA
ATOM     69  C   UNL A   1      48.927  29.737  27.077  1.00  0.00     0.031 C 
ATOM     70  C   UNL A   1      43.648  31.921  29.144  1.00  0.00     0.029 A 
ATOM     71  C   UNL A   1      44.626  31.070  28.654  1.00  0.00     0.049 A 
ATOM     72  H   UNL A   1      44.460  29.036  28.112  1.00  0.00     0.167 HD
ATOM     73  C   UNL A   1      46.907  30.465  27.885  1.00  0.00     0.074 A 
ATOM     74  C   UNL A   1      48.298  30.768  27.622  1.00  0.00     0.031 C 
ATOM     75  C   UNL A   1      46.017  31.357  28.390  1.00  0.00     0.034 A 
BRANCH  62  76
ATOM     76  C   UNL A   1      40.313  29.041  29.201  1.00  0.00     0.023 A 
ATOM     77  C   UNL A   1      39.913  28.988  30.548  1.00  0.00     0.031 A 
ATOM     78  C   UNL A   1      39.325  29.297  28.233  1.00  0.00     0.131 A 
ATOM     79  C   UNL A   1      38.556  29.110  30.882  1.00  0.00     0.055 A 
ATOM     80  C   UNL A   1      37.989  29.506  28.580  1.00  0.00     0.041 A 
ATOM     81  F   UNL A   1      39.640  29.338  26.928  1.00  0.00    -0.206 F 
ATOM     82  C   UNL A   1      37.595  29.397  29.911  1.00  0.00     0.022 A 
BRANCH  79  83
ATOM     83  S   UNL A   1      38.047  28.744  32.584  1.00  0.00     0.124 S 
ATOM     84  O   UNL A   1      38.170  27.289  32.621  1.00  0.00    -0.237 OA
ATOM     85  O   UNL A   1      39.021  29.488  33.373  1.00  0.00    -0.237 OA
ATOM     86  O   UNL A   1      36.676  29.248  32.648  1.00  0.00    -0.744 OA
ENDBRANCH  79  83
ENDBRANCH  62  76
BRANCH  63  87
ATOM     87  C   UNL A   1      49.663  27.061  26.140  1.00  0.00     0.023 A 
ATOM     88  C   UNL A   1      50.710  26.819  27.043  1.00  0.00     0.031 A 
ATOM     89  C   UNL A   1      49.975  27.105  24.769  1.00  0.00     0.131 A 
ATOM     90  C   UNL A   1      52.027  26.693  26.573  1.00  0.00     0.055 A 
ATOM     91  C   UNL A   1      51.276  26.917  24.301  1.00  0.00     0.041 A 
ATOM     92  F   UNL A   1      49.012  27.329  23.860  1.00  0.00    -0.206 F 
ATOM     93  C   UNL A   1      52.315  26.726  25.207  1.00  0.00     0.022 A 
BRANCH  90  94
ATOM     94  S   UNL A   1      53.375  26.596  27.783  1.00  0.00     0.124 S 
ATOM     95  O   UNL A   1      54.208  25.542  27.215  1.00  0.00    -0.237 OA
ATOM     96  O   UNL A   1      53.923  27.947  27.734  1.00  0.00    -0.237 OA
ATOM     97  O   UNL A   1      52.689  26.248  29.027  1.00  0.00    -0.744 OA
ENDBRANCH  90  94
ENDBRANCH  63  87
BRANCH  75  98
ATOM     98  C   UNL A   1      46.543  32.725  28.755  1.00  0.00     0.023 A 
ATOM     99  C   UNL A   1      46.561  33.788  27.836  1.00  0.00     0.031 A 
ATOM    100  C   UNL A   1      47.054  32.958  30.045  1.00  0.00     0.131 A 
ATOM    101  C   UNL A   1      47.140  35.014  28.197  1.00  0.00     0.055 A 
ATOM    102  C   UNL A   1      47.565  34.202  30.420  1.00  0.00     0.041 A 
ATOM    103  F   UNL A   1      47.066  31.979  30.964  1.00  0.00    -0.206 F 
ATOM    104  C   UNL A   1      47.625  35.233  29.489  1.00  0.00     0.022 A 
BRANCH 101 105
ATOM    105  S   UNL A   1      47.354  36.285  26.921  1.00  0.00     0.124 S 
ATOM    106  O   UNL A   1      46.301  35.941  25.971  1.00  0.00    -0.237 OA
ATOM    107  O   UNL A   1      47.154  37.520  27.673  1.00  0.00    -0.237 OA
ATOM    108  O   UNL A   1      48.717  36.065  26.442  1.00  0.00    -0.744 OA
ENDBRANCH 101 105
ENDBRANCH  75  98
ENDBRANCH  49  50
ENDBRANCH  41  44
ENDBRANCH  39  40
ENDBRANCH  38  39
ENDBRANCH  37  38
ENDBRANCH   1  37
TORSDOF 22
ENDMDL
MODEL 2
REMARK VINA RESULT:     -11.6      1.763      2.048
REMARK SMILES CC(C)[C@H](NC(=O)[C@H](Cc1ccccc1)n1c(=O)[nH]c2ccccc2c1=O)C(=O)NCCCCCCNC(=O)c1ccc(-c2c3nc(c(-c4cc(S(=O)(=O)[O-])ccc4F)c4ccc([nH]4)c(-c4cc(S(=O)(=O)[O-])ccc4F)c4nc(c(-c5cc(S(=O)(=O)[O-])ccc5F)c5ccc2[nH]5)C=C4)C=C3)cc1
REMARK SMILES IDX 33 1 32 2 31 3 30 4 28 5 29 6 4 8 2 9 1 10 3 11 5 12 6 13
REMARK SMILES IDX 7 15 8 16 16 17 17 18 26 19 18 20 19 21 25 22 27 23 20 24
REMARK SMILES IDX 24 26 21 27 23 28 22 29 9 30 10 31 11 32 15 33 12 34 14 35
REMARK SMILES IDX 13 36 34 37 35 38 36 39 37 40 38 41 39 43 40 44 41 45 102 46
REMARK SMILES IDX 42 47 101 48 43 49 44 50 45 51 95 52 46 53 100 54 94 55
REMARK SMILES IDX 96 56 47 57 99 58 93 59 92 60 48 62 80 63 60 64 79 65 61 66
REMARK SMILES IDX 64 67 78 68 97 69 62 70 63 71 77 73 98 74 65 75 49 76 50 77
REMARK SMILES IDX 58 78 51 79 57 80 59 81 56 82 52 83 53 84 54 85 55 86 81 87
REMARK SMILES IDX 82 88 90 89 83 90 89 91 91 92 88 93 84 94 85 95 86 96 87 97
REMARK SMILES IDX 66 98 67 99 75 100 68 101 74 102 76 103 73 104 69 105 70 106
REMARK SMILES IDX 71 107 72 108
REMARK H PARENT 30 7 5 14 19 25 37 42 96 61 64 72
REMARK Flexibility Score: inf
ROOT
ATOM      1  C   UNL A   1      38.121  23.405  26.325  1.00  0.00     0.002 C 
ENDROOT
BRANCH   1   2
ATOM      2  C   UNL A   1      37.528  23.608  24.924  1.00  0.00     0.021 C 
BRANCH   2   3
ATOM      3  C   UNL A   1      36.004  23.560  24.853  1.00  0.00     0.116 C 
BRANCH   3   4
ATOM      4  N   UNL A   1      35.489  23.346  23.517  1.00  0.00    -0.354 N 
ATOM      5  C   UNL A   1      34.216  23.152  23.082  1.00  0.00     0.242 C 
ATOM      6  O   UNL A   1      34.015  23.245  21.867  1.00  0.00    -0.273 OA
ATOM      7  H   UNL A   1      36.172  23.340  22.809  1.00  0.00     0.163 HD
BRANCH   5   8
ATOM      8  C   UNL A   1      33.030  23.027  24.062  1.00  0.00     0.173 C 
BRANCH   8   9
ATOM      9  C   UNL A   1      33.098  21.558  24.601  1.00  0.00     0.015 C 
ATOM     10  C   UNL A   1      32.327  21.450  25.922  1.00  0.00     0.010 C 
ATOM     11  C   UNL A   1      32.639  20.455  23.648  1.00  0.00     0.010 C 
ENDBRANCH   8   9
BRANCH   8  12
ATOM     12  N   UNL A   1      31.747  23.427  23.475  1.00  0.00    -0.342 N 
ATOM     13  C   UNL A   1      31.108  24.628  23.370  1.00  0.00     0.244 C 
ATOM     14  H   UNL A   1      31.247  22.679  23.077  1.00  0.00     0.164 HD
ATOM     15  O   UNL A   1      29.958  24.547  22.914  1.00  0.00    -0.273 OA
BRANCH  13  16
ATOM     16  C   UNL A   1      31.627  25.961  23.981  1.00  0.00     0.189 C 
BRANCH  16  17
ATOM     17  N   UNL A   1      31.040  27.199  23.446  1.00  0.00    -0.247 N 
ATOM     18  C   UNL A   1      31.885  28.065  22.785  1.00  0.00     0.329 A 
ATOM     19  C   UNL A   1      29.686  27.464  23.624  1.00  0.00     0.264 A 
ATOM     20  O   UNL A   1      33.107  28.036  22.898  1.00  0.00    -0.248 OA
ATOM     21  N   UNL A   1      31.325  29.042  22.029  1.00  0.00    -0.307 N 
ATOM     22  C   UNL A   1      29.163  28.703  23.006  1.00  0.00     0.064 A 
ATOM     23  O   UNL A   1      28.922  26.741  24.262  1.00  0.00    -0.268 OA
ATOM     24  C   UNL A   1      29.994  29.413  22.145  1.00  0.00     0.055 A 
ATOM     25  H   UNL A   1      31.887  29.508  21.369  1.00  0.00     0.171 HD
ATOM     26  C   UNL A   1      27.890  29.195  23.302  1.00  0.00     0.016 A 
ATOM     27  C   UNL A   1      29.545  30.564  21.502  1.00  0.00     0.027 A 
ATOM     28  C   UNL A   1      27.456  30.382  22.707  1.00  0.00     0.001 A 
ATOM     29  C   UNL A   1      28.272  31.052  21.792  1.00  0.00     0.002 A 
ENDBRANCH  16  17
BRANCH  16  30
ATOM     30  C   UNL A   1      31.709  25.903  25.557  1.00  0.00     0.071 C 
BRANCH  30  31
ATOM     31  C   UNL A   1      32.314  27.092  26.282  1.00  0.00    -0.045 A 
ATOM     32  C   UNL A   1      31.494  28.071  26.864  1.00  0.00     0.004 A 
ATOM     33  C   UNL A   1      33.700  27.301  26.262  1.00  0.00     0.004 A 
ATOM     34  C   UNL A   1      32.034  29.293  27.275  1.00  0.00     0.000 A 
ATOM     35  C   UNL A   1      34.242  28.507  26.711  1.00  0.00     0.000 A 
ATOM     36  C   UNL A   1      33.406  29.517  27.183  1.00  0.00     0.000 A 
ENDBRANCH  30  31
ENDBRANCH  16  30
ENDBRANCH  13  16
ENDBRANCH   8  12
ENDBRANCH   5   8
ENDBRANCH   3   4
ENDBRANCH   2   3
ENDBRANCH   1   2
BRANCH   1  37
ATOM     37  C   UNL A   1      39.366  22.518  26.392  1.00  0.00     0.002 C 
BRANCH  37  38
ATOM     38  C   UNL A   1      39.090  21.021  26.519  1.00  0.00     0.021 C 
BRANCH  38  39
ATOM     39  C   UNL A   1      39.685  20.174  25.407  1.00  0.00     0.116 C 
BRANCH  39  40
ATOM     40  N   UNL A   1      40.646  19.213  25.916  1.00  0.00    -0.352 N 
ATOM     41  C   UNL A   1      41.932  19.431  26.348  1.00  0.00     0.251 C 
ATOM     42  H   UNL A   1      40.335  18.280  25.956  1.00  0.00     0.163 HD
ATOM     43  O   UNL A   1      42.681  18.482  26.532  1.00  0.00    -0.269 OA
BRANCH  41  44
ATOM     44  C   UNL A   1      42.403  20.820  26.560  1.00  0.00     0.039 A 
ATOM     45  C   UNL A   1      42.511  21.303  27.866  1.00  0.00     0.014 A 
ATOM     46  C   UNL A   1      42.730  21.644  25.479  1.00  0.00     0.014 A 
ATOM     47  C   UNL A   1      42.978  22.600  28.087  1.00  0.00     0.010 A 
ATOM     48  C   UNL A   1      43.276  22.904  25.705  1.00  0.00     0.010 A 
ATOM     49  C   UNL A   1      43.385  23.405  27.010  1.00  0.00    -0.014 A 
BRANCH  49  50
ATOM     50  C   UNL A   1      43.871  24.793  27.230  1.00  0.00     0.031 A 
ATOM     51  C   UNL A   1      42.919  25.846  27.738  1.00  0.00     0.074 A 
ATOM     52  C   UNL A   1      45.148  25.114  26.948  1.00  0.00     0.049 A 
ATOM     53  N   UNL A   1      43.128  27.119  27.951  1.00  0.00    -0.248 NA
ATOM     54  C   UNL A   1      41.541  25.411  28.015  1.00  0.00     0.031 C 
ATOM     55  C   UNL A   1      46.155  24.190  26.422  1.00  0.00     0.029 A 
ATOM     56  N   UNL A   1      45.822  26.304  27.064  1.00  0.00    -0.354 N 
ATOM     57  C   UNL A   1      41.909  27.638  28.378  1.00  0.00     0.074 A 
ATOM     58  C   UNL A   1      40.950  26.556  28.320  1.00  0.00     0.031 C 
ATOM     59  C   UNL A   1      47.323  24.839  26.293  1.00  0.00     0.029 A 
ATOM     60  C   UNL A   1      47.142  26.234  26.680  1.00  0.00     0.049 A 
ATOM     61  H   UNL A   1      45.400  27.131  27.392  1.00  0.00     0.167 HD
ATOM     62  C   UNL A   1      41.621  28.892  28.807  1.00  0.00     0.034 A 
ATOM     63  C   UNL A   1      48.094  27.187  26.642  1.00  0.00     0.034 A 
ATOM     64  C   UNL A   1      42.592  29.957  28.870  1.00  0.00     0.049 A 
ATOM     65  C   UNL A   1      47.743  28.583  27.097  1.00  0.00     0.074 A 
ATOM     66  C   UNL A   1      42.419  31.256  29.316  1.00  0.00     0.029 A 
ATOM     67  N   UNL A   1      43.919  29.849  28.472  1.00  0.00    -0.354 N 
ATOM     68  N   UNL A   1      46.594  29.049  27.533  1.00  0.00    -0.248 NA
ATOM     69  C   UNL A   1      48.822  29.579  27.071  1.00  0.00     0.031 C 
ATOM     70  C   UNL A   1      43.620  31.949  29.126  1.00  0.00     0.029 A 
ATOM     71  C   UNL A   1      44.568  31.062  28.643  1.00  0.00     0.049 A 
ATOM     72  H   UNL A   1      44.337  29.030  28.121  1.00  0.00     0.167 HD
ATOM     73  C   UNL A   1      46.827  30.378  27.875  1.00  0.00     0.074 A 
ATOM     74  C   UNL A   1      48.227  30.635  27.607  1.00  0.00     0.031 C 
ATOM     75  C   UNL A   1      45.967  31.302  28.373  1.00  0.00     0.034 A 
BRANCH  62  76
ATOM     76  C   UNL A   1      40.195  29.177  29.218  1.00  0.00     0.023 A 
ATOM     77  C   UNL A   1      39.807  29.198  30.570  1.00  0.00     0.031 A 
ATOM     78  C   UNL A   1      39.203  29.405  28.248  1.00  0.00     0.131 A 
ATOM     79  C   UNL A   1      38.456  29.364  30.909  1.00  0.00     0.055 A 
ATOM     80  C   UNL A   1      37.875  29.658  28.596  1.00  0.00     0.041 A 
ATOM     81  F   UNL A   1      39.506  29.375  26.940  1.00  0.00    -0.206 F 
ATOM     82  C   UNL A   1      37.492  29.622  29.934  1.00  0.00     0.022 A 
BRANCH  79  83
ATOM     83  S   UNL A   1      37.957  29.093  32.632  1.00  0.00     0.124 S 
ATOM     84  O   UNL A   1      38.988  29.832  33.357  1.00  0.00    -0.237 OA
ATOM     85  O   UNL A   1      36.617  29.665  32.668  1.00  0.00    -0.237 OA
ATOM     86  O   UNL A   1      38.021  27.640  32.783  1.00  0.00    -0.744 OA
ENDBRANCH  79  83
ENDBRANCH  62  76
BRANCH  63  87
ATOM     87  C   UNL A   1      49.471  26.872  26.158  1.00  0.00     0.023 A 
ATOM     88  C   UNL A   1      49.900  27.277  24.885  1.00  0.00     0.031 A 
ATOM     89  C   UNL A   1      50.356  26.105  26.936  1.00  0.00     0.131 A 
ATOM     90  C   UNL A   1      51.152  26.864  24.402  1.00  0.00     0.055 A 
ATOM     91  C   UNL A   1      51.625  25.749  26.477  1.00  0.00     0.041 A 
ATOM     92  F   UNL A   1      49.999  25.693  28.164  1.00  0.00    -0.206 F 
ATOM     93  C   UNL A   1      52.024  26.114  25.196  1.00  0.00     0.022 A 
BRANCH  90  94
ATOM     94  S   UNL A   1      51.581  27.228  22.677  1.00  0.00     0.124 S 
ATOM     95  O   UNL A   1      51.802  28.669  22.725  1.00  0.00    -0.237 OA
ATOM     96  O   UNL A   1      52.766  26.401  22.479  1.00  0.00    -0.237 OA
ATOM     97  O   UNL A   1      50.394  26.802  21.936  1.00  0.00    -0.744 OA
ENDBRANCH  90  94
ENDBRANCH  63  87
BRANCH  75  98
ATOM     98  C   UNL A   1      46.537  32.656  28.724  1.00  0.00     0.023 A 
ATOM     99  C   UNL A   1      47.033  32.949  30.005  1.00  0.00     0.031 A 
ATOM    100  C   UNL A   1      46.565  33.678  27.756  1.00  0.00     0.131 A 
ATOM    101  C   UNL A   1      47.473  34.248  30.306  1.00  0.00     0.055 A 
ATOM    102  C   UNL A   1      47.068  34.948  28.041  1.00  0.00     0.041 A 
ATOM    103  F   UNL A   1      46.102  33.457  26.515  1.00  0.00    -0.206 F 
ATOM    104  C   UNL A   1      47.510  35.243  29.326  1.00  0.00     0.022 A 
BRANCH 101 105
ATOM    105  S   UNL A   1      47.889  34.651  32.024  1.00  0.00     0.124 S 
ATOM    106  O   UNL A   1      48.421  33.383  32.513  1.00  0.00    -0.237 OA
ATOM    107  O   UNL A   1      48.859  35.730  31.866  1.00  0.00    -0.237 OA
ATOM    108  O   UNL A   1      46.608  35.049  32.604  1.00  0.00    -0.744 OA
ENDBRANCH 101 105
ENDBRANCH  75  98
ENDBRANCH  49  50
ENDBRANCH  41  44
ENDBRANCH  39  40
ENDBRANCH  38  39
ENDBRANCH  37  38
ENDBRANCH   1  37
TORSDOF 22
ENDMDL
MODEL 3
REMARK VINA RESULT:     -11.1      4.194      6.677
REMARK SMILES CC(C)[C@H](NC(=O)[C@H](Cc1ccccc1)n1c(=O)[nH]c2ccccc2c1=O)C(=O)NCCCCCCNC(=O)c1ccc(-c2c3nc(c(-c4cc(S(=O)(=O)[O-])ccc4F)c4ccc([nH]4)c(-c4cc(S(=O)(=O)[O-])ccc4F)c4nc(c(-c5cc(S(=O)(=O)[O-])ccc5F)c5ccc2[nH]5)C=C4)C=C3)cc1
REMARK SMILES IDX 33 1 32 2 31 3 30 4 28 5 29 6 4 8 2 9 1 10 3 11 5 12 6 13
REMARK SMILES IDX 7 15 8 16 16 17 17 18 26 19 18 20 19 21 25 22 27 23 20 24
REMARK SMILES IDX 24 26 21 27 23 28 22 29 9 30 10 31 11 32 15 33 12 34 14 35
REMARK SMILES IDX 13 36 34 37 35 38 36 39 37 40 38 41 39 43 40 44 41 45 102 46
REMARK SMILES IDX 42 47 101 48 43 49 44 50 45 51 95 52 46 53 100 54 94 55
REMARK SMILES IDX 96 56 47 57 99 58 93 59 92 60 48 62 80 63 60 64 79 65 61 66
REMARK SMILES IDX 64 67 78 68 97 69 62 70 63 71 77 73 98 74 65 75 49 76 50 77
REMARK SMILES IDX 58 78 51 79 57 80 59 81 56 82 52 83 53 84 54 85 55 86 81 87
REMARK SMILES IDX 82 88 90 89 83 90 89 91 91 92 88 93 84 94 85 95 86 96 87 97
REMARK SMILES IDX 66 98 67 99 75 100 68 101 74 102 76 103 73 104 69 105 70 106
REMARK SMILES IDX 71 107 72 108
REMARK H PARENT 30 7 5 14 19 25 37 42 96 61 64 72
REMARK Flexibility Score: inf
ROOT
ATOM      1  C   UNL A   1      38.939  24.809  27.495  1.00  0.00     0.002 C 
ENDROOT
BRANCH   1   2
ATOM      2  C   UNL A   1      38.596  23.686  26.506  1.00  0.00     0.021 C 
BRANCH   2   3
ATOM      3  C   UNL A   1      37.231  23.810  25.834  1.00  0.00     0.116 C 
BRANCH   3   4
ATOM      4  N   UNL A   1      37.189  23.267  24.494  1.00  0.00    -0.354 N 
ATOM      5  C   UNL A   1      36.157  23.165  23.613  1.00  0.00     0.242 C 
ATOM      6  O   UNL A   1      36.441  22.891  22.443  1.00  0.00    -0.273 OA
ATOM      7  H   UNL A   1      38.046  22.911  24.167  1.00  0.00     0.163 HD
BRANCH   5   8
ATOM      8  C   UNL A   1      34.719  23.575  23.993  1.00  0.00     0.173 C 
BRANCH   8   9
ATOM      9  C   UNL A   1      34.154  22.366  24.815  1.00  0.00     0.015 C 
ATOM     10  C   UNL A   1      33.061  22.852  25.774  1.00  0.00     0.010 C 
ATOM     11  C   UNL A   1      33.640  21.171  24.014  1.00  0.00     0.010 C 
ENDBRANCH   8   9
BRANCH   8  12
ATOM     12  N   UNL A   1      33.910  23.990  22.844  1.00  0.00    -0.342 N 
ATOM     13  C   UNL A   1      33.278  25.157  22.526  1.00  0.00     0.244 C 
ATOM     14  H   UNL A   1      33.801  23.287  22.165  1.00  0.00     0.164 HD
ATOM     15  O   UNL A   1      32.572  25.086  21.510  1.00  0.00    -0.273 OA
BRANCH  13  16
ATOM     16  C   UNL A   1      33.213  26.406  23.451  1.00  0.00     0.189 C 
BRANCH  16  17
ATOM     17  N   UNL A   1      32.168  27.394  23.144  1.00  0.00    -0.247 N 
ATOM     18  C   UNL A   1      32.580  28.633  22.698  1.00  0.00     0.329 A 
ATOM     19  C   UNL A   1      30.826  27.069  23.317  1.00  0.00     0.264 A 
ATOM     20  O   UNL A   1      33.719  29.062  22.852  1.00  0.00    -0.248 OA
ATOM     21  N   UNL A   1      31.652  29.440  22.125  1.00  0.00    -0.307 N 
ATOM     22  C   UNL A   1      29.837  28.100  22.932  1.00  0.00     0.064 A 
ATOM     23  O   UNL A   1      30.432  25.996  23.771  1.00  0.00    -0.268 OA
ATOM     24  C   UNL A   1      30.288  29.231  22.258  1.00  0.00     0.055 A 
ATOM     25  H   UNL A   1      31.961  30.207  21.592  1.00  0.00     0.171 HD
ATOM     26  C   UNL A   1      28.486  27.987  23.267  1.00  0.00     0.016 A 
ATOM     27  C   UNL A   1      29.399  30.216  21.835  1.00  0.00     0.027 A 
ATOM     28  C   UNL A   1      27.598  29.001  22.898  1.00  0.00     0.001 A 
ATOM     29  C   UNL A   1      28.050  30.101  22.164  1.00  0.00     0.002 A 
ENDBRANCH  16  17
BRANCH  16  30
ATOM     30  C   UNL A   1      33.325  26.024  24.980  1.00  0.00     0.071 C 
BRANCH  30  31
ATOM     31  C   UNL A   1      33.159  27.132  26.004  1.00  0.00    -0.045 A 
ATOM     32  C   UNL A   1      31.953  27.290  26.702  1.00  0.00     0.004 A 
ATOM     33  C   UNL A   1      34.162  28.098  26.167  1.00  0.00     0.004 A 
ATOM     34  C   UNL A   1      31.700  28.461  27.423  1.00  0.00     0.000 A 
ATOM     35  C   UNL A   1      33.922  29.249  26.921  1.00  0.00     0.000 A 
ATOM     36  C   UNL A   1      32.679  29.447  27.519  1.00  0.00     0.000 A 
ENDBRANCH  30  31
ENDBRANCH  16  30
ENDBRANCH  13  16
ENDBRANCH   8  12
ENDBRANCH   5   8
ENDBRANCH   3   4
ENDBRANCH   2   3
ENDBRANCH   1   2
BRANCH   1  37
ATOM     37  C   UNL A   1      40.114  25.704  27.094  1.00  0.00     0.002 C 
BRANCH  37  38
ATOM     38  C   UNL A   1      41.029  26.127  28.242  1.00  0.00     0.021 C 
BRANCH  38  39
ATOM     39  C   UNL A   1      42.362  25.399  28.285  1.00  0.00     0.116 C 
BRANCH  39  40
ATOM     40  N   UNL A   1      43.065  25.484  27.019  1.00  0.00    -0.352 N 
ATOM     41  C   UNL A   1      43.572  26.596  26.392  1.00  0.00     0.251 C 
ATOM     42  H   UNL A   1      43.195  24.631  26.545  1.00  0.00     0.163 HD
ATOM     43  O   UNL A   1      43.935  26.525  25.225  1.00  0.00    -0.269 OA
BRANCH  41  44
ATOM     44  C   UNL A   1      43.648  27.878  27.131  1.00  0.00     0.039 A 
ATOM     45  C   UNL A   1      44.552  27.993  28.190  1.00  0.00     0.014 A 
ATOM     46  C   UNL A   1      42.829  28.958  26.789  1.00  0.00     0.014 A 
ATOM     47  C   UNL A   1      44.656  29.202  28.881  1.00  0.00     0.010 A 
ATOM     48  C   UNL A   1      42.996  30.186  27.422  1.00  0.00     0.010 A 
ATOM     49  C   UNL A   1      43.894  30.316  28.491  1.00  0.00    -0.014 A 
BRANCH  49  50
ATOM     50  C   UNL A   1      43.986  31.604  29.228  1.00  0.00     0.031 A 
ATOM     51  C   UNL A   1      43.085  31.853  30.410  1.00  0.00     0.074 A 
ATOM     52  C   UNL A   1      44.849  32.555  28.820  1.00  0.00     0.049 A 
ATOM     53  N   UNL A   1      42.973  32.922  31.156  1.00  0.00    -0.248 NA
ATOM     54  C   UNL A   1      42.169  30.764  30.783  1.00  0.00     0.031 C 
ATOM     55  C   UNL A   1      45.749  32.443  27.671  1.00  0.00     0.029 A 
ATOM     56  N   UNL A   1      45.113  33.804  29.324  1.00  0.00    -0.354 N 
ATOM     57  C   UNL A   1      41.971  32.637  32.079  1.00  0.00     0.074 A 
ATOM     58  C   UNL A   1      41.458  31.326  31.749  1.00  0.00     0.031 C 
ATOM     59  C   UNL A   1      46.488  33.560  27.579  1.00  0.00     0.029 A 
ATOM     60  C   UNL A   1      46.084  34.488  28.631  1.00  0.00     0.049 A 
ATOM     61  H   UNL A   1      44.651  34.175  30.111  1.00  0.00     0.167 HD
ATOM     62  C   UNL A   1      41.538  33.387  33.123  1.00  0.00     0.034 A 
ATOM     63  C   UNL A   1      46.588  35.724  28.819  1.00  0.00     0.034 A 
ATOM     64  C   UNL A   1      42.069  34.689  33.446  1.00  0.00     0.049 A 
ATOM     65  C   UNL A   1      46.070  36.551  29.971  1.00  0.00     0.074 A 
ATOM     66  C   UNL A   1      41.727  35.522  34.497  1.00  0.00     0.029 A 
ATOM     67  N   UNL A   1      43.052  35.350  32.721  1.00  0.00    -0.354 N 
ATOM     68  N   UNL A   1      45.148  36.252  30.858  1.00  0.00    -0.248 NA
ATOM     69  C   UNL A   1      46.675  37.877  30.158  1.00  0.00     0.031 C 
ATOM     70  C   UNL A   1      42.453  36.711  34.369  1.00  0.00     0.029 A 
ATOM     71  C   UNL A   1      43.312  36.588  33.288  1.00  0.00     0.049 A 
ATOM     72  H   UNL A   1      43.499  34.991  31.920  1.00  0.00     0.167 HD
ATOM     73  C   UNL A   1      45.096  37.335  31.733  1.00  0.00     0.074 A 
ATOM     74  C   UNL A   1      46.088  38.285  31.274  1.00  0.00     0.031 C 
ATOM     75  C   UNL A   1      44.308  37.525  32.821  1.00  0.00     0.034 A 
BRANCH  62  76
ATOM     76  C   UNL A   1      40.424  32.819  33.972  1.00  0.00     0.023 A 
ATOM     77  C   UNL A   1      39.090  33.236  33.815  1.00  0.00     0.031 A 
ATOM     78  C   UNL A   1      40.700  31.867  34.970  1.00  0.00     0.131 A 
ATOM     79  C   UNL A   1      38.100  32.764  34.689  1.00  0.00     0.055 A 
ATOM     80  C   UNL A   1      39.694  31.334  35.778  1.00  0.00     0.041 A 
ATOM     81  F   UNL A   1      41.956  31.445  35.184  1.00  0.00    -0.206 F 
ATOM     82  C   UNL A   1      38.386  31.795  35.651  1.00  0.00     0.022 A 
BRANCH  79  83
ATOM     83  S   UNL A   1      36.462  33.544  34.643  1.00  0.00     0.124 S 
ATOM     84  O   UNL A   1      36.111  33.573  36.061  1.00  0.00    -0.237 OA
ATOM     85  O   UNL A   1      36.743  34.835  34.028  1.00  0.00    -0.237 OA
ATOM     86  O   UNL A   1      35.667  32.623  33.831  1.00  0.00    -0.744 OA
ENDBRANCH  79  83
ENDBRANCH  62  76
BRANCH  63  87
ATOM     87  C   UNL A   1      47.638  36.267  27.907  1.00  0.00     0.023 A 
ATOM     88  C   UNL A   1      49.001  36.053  28.165  1.00  0.00     0.031 A 
ATOM     89  C   UNL A   1      47.296  37.062  26.799  1.00  0.00     0.131 A 
ATOM     90  C   UNL A   1      49.973  36.676  27.365  1.00  0.00     0.055 A 
ATOM     91  C   UNL A   1      48.265  37.629  25.969  1.00  0.00     0.041 A 
ATOM     92  F   UNL A   1      46.007  37.298  26.503  1.00  0.00    -0.206 F 
ATOM     93  C   UNL A   1      49.613  37.450  26.260  1.00  0.00     0.022 A 
BRANCH  90  94
ATOM     94  S   UNL A   1      51.714  36.548  27.857  1.00  0.00     0.124 S 
ATOM     95  O   UNL A   1      51.598  36.153  29.257  1.00  0.00    -0.237 OA
ATOM     96  O   UNL A   1      52.212  35.528  26.940  1.00  0.00    -0.237 OA
ATOM     97  O   UNL A   1      52.231  37.896  27.628  1.00  0.00    -0.744 OA
ENDBRANCH  90  94
ENDBRANCH  63  87
BRANCH  75  98
ATOM     98  C   UNL A   1      44.538  38.781  33.628  1.00  0.00     0.023 A 
ATOM     99  C   UNL A   1      43.693  39.899  33.527  1.00  0.00     0.031 A 
ATOM    100  C   UNL A   1      45.639  38.862  34.501  1.00  0.00     0.131 A 
ATOM    101  C   UNL A   1      43.999  41.073  34.232  1.00  0.00     0.055 A 
ATOM    102  C   UNL A   1      45.898  40.008  35.253  1.00  0.00     0.041 A 
ATOM    103  F   UNL A   1      46.482  37.826  34.636  1.00  0.00    -0.206 F 
ATOM    104  C   UNL A   1      45.085  41.128  35.109  1.00  0.00     0.022 A 
BRANCH 101 105
ATOM    105  S   UNL A   1      43.022  42.566  33.904  1.00  0.00     0.124 S 
ATOM    106  O   UNL A   1      43.744  43.160  32.784  1.00  0.00    -0.237 OA
ATOM    107  O   UNL A   1      41.706  42.016  33.594  1.00  0.00    -0.237 OA
ATOM    108  O   UNL A   1      43.102  43.311  35.159  1.00  0.00    -0.744 OA
ENDBRANCH 101 105
ENDBRANCH  75  98
ENDBRANCH  49  50
ENDBRANCH  41  44
ENDBRANCH  39  40
ENDBRANCH  38  39
ENDBRANCH  37  38
ENDBRANCH   1  37
TORSDOF 22
ENDMDL
