MODEL 1
REMARK VINA RESULT:      -7.1      0.000      0.000
REMARK SMILES CCCCCCNC(=O)Oc1cccc(-c2ccc([C@@H](C)C(=O)NCCCCCCNC(=O)c3ccc(-c4c5nc(c(-c6cc(S(=O)(=O)[O-])ccc6F)c6ccc([nH]6)c(-c6cc(S(=O)(=O)[O-])ccc6F)c6nc(c(-c7cc(S(=O)(=O)[O-])ccc7F)c7ccc4[nH]7)C=C6)C=C5)cc3)cc2C(F)(F)F)c1
REMARK SMILES IDX 22 1 23 2 24 3 20 5 21 6 19 7 16 8 17 9 98 10 18 11 97 12
REMARK SMILES IDX 15 13 11 14 12 15 103 16 13 17 14 18 10 19 8 20 7 21 9 23
REMARK SMILES IDX 6 24 5 25 4 26 3 27 2 28 1 29 99 30 100 31 101 32 102 33
REMARK SMILES IDX 25 34 26 35 27 36 28 37 29 38 30 39 31 40 32 41 33 43 34 44
REMARK SMILES IDX 35 45 96 46 36 47 95 48 37 49 38 50 39 51 89 52 40 53 94 54
REMARK SMILES IDX 88 55 90 56 41 57 93 58 87 59 86 60 42 62 74 63 54 64 73 65
REMARK SMILES IDX 55 66 58 67 72 68 91 69 56 70 57 71 71 73 92 74 59 75 43 76
REMARK SMILES IDX 44 77 52 78 45 79 51 80 53 81 50 82 46 83 47 84 48 85 49 86
REMARK SMILES IDX 75 87 76 88 84 89 77 90 83 91 85 92 82 93 78 94 79 95 80 96
REMARK SMILES IDX 81 97 60 98 61 99 69 100 62 101 68 102 70 103 67 104 63 105
REMARK SMILES IDX 64 106 65 107 66 108
REMARK H PARENT 24 4 7 22 31 42 90 61 58 72
REMARK Flexibility Score: inf
ROOT
ATOM      1  C   UNL A   1      48.132  25.407  27.440  1.00  0.00     0.227 C 
ATOM      2  O   UNL A   1      48.735  24.333  27.326  1.00  0.00    -0.274 OA
ATOM      3  N   UNL A   1      47.280  25.730  26.429  1.00  0.00    -0.356 N 
ATOM      4  H   UNL A   1      47.173  25.023  25.752  1.00  0.00     0.163 HD
ENDROOT
BRANCH   1   5
ATOM      5  C   UNL A   1      48.349  26.274  28.688  1.00  0.00     0.105 C 
ATOM      6  C   UNL A   1      49.793  26.308  29.189  1.00  0.00     0.023 C 
BRANCH   5   7
ATOM      7  C   UNL A   1      47.293  26.099  29.770  1.00  0.00    -0.035 A 
ATOM      8  C   UNL A   1      45.323  25.625  31.803  1.00  0.00    -0.006 A 
ATOM      9  C   UNL A   1      46.340  26.589  31.946  1.00  0.00     0.009 A 
ATOM     10  C   UNL A   1      45.257  24.939  30.571  1.00  0.00     0.064 A 
ATOM     11  C   UNL A   1      47.264  26.858  30.934  1.00  0.00     0.005 A 
ATOM     12  C   UNL A   1      46.277  25.146  29.605  1.00  0.00     0.018 A 
BRANCH   8  13
ATOM     13  C   UNL A   1      44.400  25.423  32.940  1.00  0.00    -0.014 A 
ATOM     14  C   UNL A   1      42.580  26.151  34.374  1.00  0.00     0.133 A 
ATOM     15  C   UNL A   1      42.673  24.992  35.140  1.00  0.00     0.047 A 
ATOM     16  C   UNL A   1      43.408  26.361  33.269  1.00  0.00     0.056 A 
ATOM     17  C   UNL A   1      43.612  24.029  34.799  1.00  0.00     0.004 A 
ATOM     18  C   UNL A   1      44.476  24.252  33.723  1.00  0.00     0.009 A 
BRANCH  14  19
ATOM     19  O   UNL A   1      41.752  27.167  34.885  1.00  0.00    -0.410 OA
BRANCH  19  20
ATOM     20  C   UNL A   1      42.194  28.008  35.894  1.00  0.00     0.412 C 
ATOM     21  N   UNL A   1      41.890  29.320  35.655  1.00  0.00    -0.321 N 
ATOM     22  H   UNL A   1      42.242  29.979  36.297  1.00  0.00     0.167 HD
ATOM     23  O   UNL A   1      42.794  27.667  36.904  1.00  0.00    -0.224 OA
BRANCH  21  24
ATOM     24  C   UNL A   1      41.103  29.838  34.553  1.00  0.00     0.119 C 
BRANCH  24  25
ATOM     25  C   UNL A   1      39.932  30.692  35.042  1.00  0.00     0.021 C 
BRANCH  25  26
ATOM     26  C   UNL A   1      40.324  32.065  35.600  1.00  0.00     0.002 C 
BRANCH  26  27
ATOM     27  C   UNL A   1      39.299  32.711  36.540  1.00  0.00    -0.000 C 
BRANCH  27  28
ATOM     28  C   UNL A   1      38.160  31.794  36.992  1.00  0.00    -0.003 C 
ATOM     29  C   UNL A   1      37.343  32.374  38.137  1.00  0.00     0.004 C 
ENDBRANCH  27  28
ENDBRANCH  26  27
ENDBRANCH  25  26
ENDBRANCH  24  25
ENDBRANCH  21  24
ENDBRANCH  19  20
ENDBRANCH  14  19
ENDBRANCH   8  13
BRANCH  10  30
ATOM     30  C   UNL A   1      44.138  24.007  30.156  1.00  0.00     0.417 C 
ATOM     31  F   UNL A   1      44.363  23.476  28.915  1.00  0.00    -0.166 F 
ATOM     32  F   UNL A   1      44.026  22.932  30.988  1.00  0.00    -0.166 F 
ATOM     33  F   UNL A   1      42.895  24.548  30.076  1.00  0.00    -0.166 F 
ENDBRANCH  10  30
ENDBRANCH   5   7
ENDBRANCH   1   5
BRANCH   3  34
ATOM     34  C   UNL A   1      46.504  26.923  26.167  1.00  0.00     0.116 C 
BRANCH  34  35
ATOM     35  C   UNL A   1      45.113  26.838  26.800  1.00  0.00     0.021 C 
BRANCH  35  36
ATOM     36  C   UNL A   1      44.454  25.463  26.656  1.00  0.00     0.002 C 
BRANCH  36  37
ATOM     37  C   UNL A   1      43.831  25.189  25.281  1.00  0.00     0.002 C 
BRANCH  37  38
ATOM     38  C   UNL A   1      43.225  23.792  25.101  1.00  0.00     0.021 C 
BRANCH  38  39
ATOM     39  C   UNL A   1      42.264  23.369  26.209  1.00  0.00     0.116 C 
BRANCH  39  40
ATOM     40  N   UNL A   1      40.877  23.511  25.795  1.00  0.00    -0.352 N 
ATOM     41  C   UNL A   1      39.901  24.346  26.277  1.00  0.00     0.251 C 
ATOM     42  H   UNL A   1      40.596  22.919  25.059  1.00  0.00     0.163 HD
ATOM     43  O   UNL A   1      38.725  24.133  25.993  1.00  0.00    -0.269 OA
BRANCH  41  44
ATOM     44  C   UNL A   1      40.264  25.491  27.141  1.00  0.00     0.039 A 
ATOM     45  C   UNL A   1      40.744  26.663  26.550  1.00  0.00     0.014 A 
ATOM     46  C   UNL A   1      40.160  25.400  28.532  1.00  0.00     0.014 A 
ATOM     47  C   UNL A   1      41.070  27.760  27.350  1.00  0.00     0.010 A 
ATOM     48  C   UNL A   1      40.420  26.517  29.323  1.00  0.00     0.010 A 
ATOM     49  C   UNL A   1      40.882  27.707  28.742  1.00  0.00    -0.014 A 
BRANCH  49  50
ATOM     50  C   UNL A   1      41.173  28.884  29.604  1.00  0.00     0.031 A 
ATOM     51  C   UNL A   1      40.056  29.795  30.038  1.00  0.00     0.074 A 
ATOM     52  C   UNL A   1      42.447  29.163  29.942  1.00  0.00     0.049 A 
ATOM     53  N   UNL A   1      40.115  30.911  30.718  1.00  0.00    -0.248 NA
ATOM     54  C   UNL A   1      38.695  29.413  29.630  1.00  0.00     0.031 C 
ATOM     55  C   UNL A   1      43.617  28.373  29.549  1.00  0.00     0.029 A 
ATOM     56  N   UNL A   1      42.978  30.191  30.681  1.00  0.00    -0.354 N 
ATOM     57  C   UNL A   1      38.806  31.373  30.807  1.00  0.00     0.074 A 
ATOM     58  C   UNL A   1      37.983  30.443  30.063  1.00  0.00     0.031 C 
ATOM     59  C   UNL A   1      44.722  28.934  30.067  1.00  0.00     0.029 A 
ATOM     60  C   UNL A   1      44.350  30.148  30.786  1.00  0.00     0.049 A 
ATOM     61  H   UNL A   1      42.427  30.893  31.098  1.00  0.00     0.167 HD
ATOM     62  C   UNL A   1      38.333  32.460  31.464  1.00  0.00     0.034 A 
ATOM     63  C   UNL A   1      45.211  30.998  31.380  1.00  0.00     0.034 A 
ATOM     64  C   UNL A   1      39.166  33.367  32.216  1.00  0.00     0.049 A 
ATOM     65  C   UNL A   1      44.661  32.212  32.089  1.00  0.00     0.074 A 
ATOM     66  C   UNL A   1      38.785  34.465  32.968  1.00  0.00     0.029 A 
ATOM     67  N   UNL A   1      40.550  33.287  32.307  1.00  0.00    -0.354 N 
ATOM     68  N   UNL A   1      43.413  32.604  32.207  1.00  0.00    -0.248 NA
ATOM     69  C   UNL A   1      45.632  33.090  32.753  1.00  0.00     0.031 C 
ATOM     70  C   UNL A   1      39.939  35.088  33.453  1.00  0.00     0.029 A 
ATOM     71  C   UNL A   1      41.039  34.335  33.074  1.00  0.00     0.049 A 
ATOM     72  H   UNL A   1      41.104  32.590  31.888  1.00  0.00     0.167 HD
ATOM     73  C   UNL A   1      43.450  33.755  32.990  1.00  0.00     0.074 A 
ATOM     74  C   UNL A   1      44.840  33.982  33.328  1.00  0.00     0.031 C 
ATOM     75  C   UNL A   1      42.429  34.551  33.397  1.00  0.00     0.034 A 
BRANCH  62  76
ATOM     76  C   UNL A   1      36.852  32.742  31.379  1.00  0.00     0.023 A 
ATOM     77  C   UNL A   1      36.249  33.185  30.189  1.00  0.00     0.031 A 
ATOM     78  C   UNL A   1      36.029  32.566  32.505  1.00  0.00     0.131 A 
ATOM     79  C   UNL A   1      34.882  33.502  30.170  1.00  0.00     0.055 A 
ATOM     80  C   UNL A   1      34.654  32.806  32.459  1.00  0.00     0.041 A 
ATOM     81  F   UNL A   1      36.549  32.163  33.676  1.00  0.00    -0.206 F 
ATOM     82  C   UNL A   1      34.075  33.290  31.289  1.00  0.00     0.022 A 
BRANCH  79  83
ATOM     83  S   UNL A   1      34.199  34.311  28.699  1.00  0.00     0.124 S 
ATOM     84  O   UNL A   1      34.758  33.492  27.626  1.00  0.00    -0.237 OA
ATOM     85  O   UNL A   1      32.762  34.192  28.910  1.00  0.00    -0.237 OA
ATOM     86  O   UNL A   1      34.732  35.670  28.776  1.00  0.00    -0.744 OA
ENDBRANCH  79  83
ENDBRANCH  62  76
BRANCH  63  87
ATOM     87  C   UNL A   1      46.682  30.756  31.321  1.00  0.00     0.023 A 
ATOM     88  C   UNL A   1      47.422  31.066  30.170  1.00  0.00     0.031 A 
ATOM     89  C   UNL A   1      47.361  30.154  32.396  1.00  0.00     0.131 A 
ATOM     90  C   UNL A   1      48.780  30.721  30.095  1.00  0.00     0.055 A 
ATOM     91  C   UNL A   1      48.726  29.869  32.341  1.00  0.00     0.041 A 
ATOM     92  F   UNL A   1      46.704  29.839  33.524  1.00  0.00    -0.206 F 
ATOM     93  C   UNL A   1      49.440  30.137  31.178  1.00  0.00     0.022 A 
BRANCH  90  94
ATOM     94  S   UNL A   1      49.648  30.949  28.518  1.00  0.00     0.124 S 
ATOM     95  O   UNL A   1      50.389  29.698  28.406  1.00  0.00    -0.237 OA
ATOM     96  O   UNL A   1      48.539  31.125  27.586  1.00  0.00    -0.237 OA
ATOM     97  O   UNL A   1      50.462  32.140  28.748  1.00  0.00    -0.744 OA
ENDBRANCH  90  94
ENDBRANCH  63  87
BRANCH  75  98
ATOM     98  C   UNL A   1      42.780  35.713  34.295  1.00  0.00     0.023 A 
ATOM     99  C   UNL A   1      43.044  36.994  33.783  1.00  0.00     0.031 A 
ATOM    100  C   UNL A   1      42.862  35.528  35.688  1.00  0.00     0.131 A 
ATOM    101  C   UNL A   1      43.433  38.026  34.649  1.00  0.00     0.055 A 
ATOM    102  C   UNL A   1      43.187  36.574  36.550  1.00  0.00     0.041 A 
ATOM    103  F   UNL A   1      42.623  34.323  36.232  1.00  0.00    -0.206 F 
ATOM    104  C   UNL A   1      43.489  37.829  36.032  1.00  0.00     0.022 A 
BRANCH 101 105
ATOM    105  S   UNL A   1      43.957  39.610  33.936  1.00  0.00     0.124 S 
ATOM    106  O   UNL A   1      44.536  40.286  35.092  1.00  0.00    -0.237 OA
ATOM    107  O   UNL A   1      44.900  39.191  32.904  1.00  0.00    -0.237 OA
ATOM    108  O   UNL A   1      42.712  40.191  33.435  1.00  0.00    -0.744 OA
ENDBRANCH 101 105
ENDBRANCH  75  98
ENDBRANCH  49  50
ENDBRANCH  41  44
ENDBRANCH  39  40
ENDBRANCH  38  39
ENDBRANCH  37  38
ENDBRANCH  36  37
ENDBRANCH  35  36
ENDBRANCH  34  35
ENDBRANCH   3  34
TORSDOF 26
ENDMDL
MODEL 2
REMARK VINA RESULT:      -6.8      5.063      8.427
REMARK SMILES CCCCCCNC(=O)Oc1cccc(-c2ccc([C@@H](C)C(=O)NCCCCCCNC(=O)c3ccc(-c4c5nc(c(-c6cc(S(=O)(=O)[O-])ccc6F)c6ccc([nH]6)c(-c6cc(S(=O)(=O)[O-])ccc6F)c6nc(c(-c7cc(S(=O)(=O)[O-])ccc7F)c7ccc4[nH]7)C=C6)C=C5)cc3)cc2C(F)(F)F)c1
REMARK SMILES IDX 22 1 23 2 24 3 20 5 21 6 19 7 16 8 17 9 98 10 18 11 97 12
REMARK SMILES IDX 15 13 11 14 12 15 103 16 13 17 14 18 10 19 8 20 7 21 9 23
REMARK SMILES IDX 6 24 5 25 4 26 3 27 2 28 1 29 99 30 100 31 101 32 102 33
REMARK SMILES IDX 25 34 26 35 27 36 28 37 29 38 30 39 31 40 32 41 33 43 34 44
REMARK SMILES IDX 35 45 96 46 36 47 95 48 37 49 38 50 39 51 89 52 40 53 94 54
REMARK SMILES IDX 88 55 90 56 41 57 93 58 87 59 86 60 42 62 74 63 54 64 73 65
REMARK SMILES IDX 55 66 58 67 72 68 91 69 56 70 57 71 71 73 92 74 59 75 43 76
REMARK SMILES IDX 44 77 52 78 45 79 51 80 53 81 50 82 46 83 47 84 48 85 49 86
REMARK SMILES IDX 75 87 76 88 84 89 77 90 83 91 85 92 82 93 78 94 79 95 80 96
REMARK SMILES IDX 81 97 60 98 61 99 69 100 62 101 68 102 70 103 67 104 63 105
REMARK SMILES IDX 64 106 65 107 66 108
REMARK H PARENT 24 4 7 22 31 42 90 61 58 72
REMARK Flexibility Score: inf
ROOT
ATOM      1  C   UNL A   1      38.566  22.005  25.836  1.00  0.00     0.227 C 
ATOM      2  O   UNL A   1      38.519  23.217  25.592  1.00  0.00    -0.274 OA
ATOM      3  N   UNL A   1      39.766  21.521  26.255  1.00  0.00    -0.356 N 
ATOM      4  H   UNL A   1      40.450  22.213  26.402  1.00  0.00     0.163 HD
ENDROOT
BRANCH   1   5
ATOM      5  C   UNL A   1      37.300  21.148  25.684  1.00  0.00     0.105 C 
ATOM      6  C   UNL A   1      37.455  19.955  24.742  1.00  0.00     0.023 C 
BRANCH   5   7
ATOM      7  C   UNL A   1      36.015  21.945  25.514  1.00  0.00    -0.035 A 
ATOM      8  C   UNL A   1      33.522  23.346  25.272  1.00  0.00    -0.006 A 
ATOM      9  C   UNL A   1      34.714  23.987  25.661  1.00  0.00     0.009 A 
ATOM     10  C   UNL A   1      33.610  21.981  24.926  1.00  0.00     0.064 A 
ATOM     11  C   UNL A   1      35.937  23.317  25.725  1.00  0.00     0.005 A 
ATOM     12  C   UNL A   1      34.840  21.295  25.111  1.00  0.00     0.018 A 
BRANCH   8  13
ATOM     13  C   UNL A   1      32.283  24.154  25.241  1.00  0.00    -0.014 A 
ATOM     14  C   UNL A   1      30.686  25.578  24.093  1.00  0.00     0.133 A 
ATOM     15  C   UNL A   1      29.915  25.703  25.246  1.00  0.00     0.047 A 
ATOM     16  C   UNL A   1      31.841  24.792  24.072  1.00  0.00     0.056 A 
ATOM     17  C   UNL A   1      30.308  25.036  26.399  1.00  0.00     0.004 A 
ATOM     18  C   UNL A   1      31.487  24.286  26.399  1.00  0.00     0.009 A 
BRANCH  14  19
ATOM     19  O   UNL A   1      30.346  26.428  23.026  1.00  0.00    -0.410 OA
BRANCH  19  20
ATOM     20  C   UNL A   1      31.303  26.848  22.116  1.00  0.00     0.412 C 
ATOM     21  N   UNL A   1      31.727  28.127  22.350  1.00  0.00    -0.321 N 
ATOM     22  H   UNL A   1      32.352  28.513  21.694  1.00  0.00     0.167 HD
ATOM     23  O   UNL A   1      31.752  26.189  21.188  1.00  0.00    -0.224 OA
BRANCH  21  24
ATOM     24  C   UNL A   1      31.348  28.972  23.466  1.00  0.00     0.119 C 
BRANCH  24  25
ATOM     25  C   UNL A   1      32.506  29.177  24.443  1.00  0.00     0.021 C 
BRANCH  25  26
ATOM     26  C   UNL A   1      33.413  27.955  24.634  1.00  0.00     0.002 C 
BRANCH  26  27
ATOM     27  C   UNL A   1      33.622  27.511  26.086  1.00  0.00    -0.000 C 
BRANCH  27  28
ATOM     28  C   UNL A   1      33.115  28.490  27.148  1.00  0.00    -0.003 C 
ATOM     29  C   UNL A   1      31.719  28.157  27.653  1.00  0.00     0.004 C 
ENDBRANCH  27  28
ENDBRANCH  26  27
ENDBRANCH  25  26
ENDBRANCH  24  25
ENDBRANCH  21  24
ENDBRANCH  19  20
ENDBRANCH  14  19
ENDBRANCH   8  13
BRANCH  10  30
ATOM     30  C   UNL A   1      32.489  21.167  24.313  1.00  0.00     0.417 C 
ATOM     31  F   UNL A   1      32.894  19.891  24.028  1.00  0.00    -0.166 F 
ATOM     32  F   UNL A   1      31.431  21.024  25.161  1.00  0.00    -0.166 F 
ATOM     33  F   UNL A   1      31.971  21.628  23.145  1.00  0.00    -0.166 F 
ENDBRANCH  10  30
ENDBRANCH   5   7
ENDBRANCH   1   5
BRANCH   3  34
ATOM     34  C   UNL A   1      40.221  20.173  26.524  1.00  0.00     0.116 C 
BRANCH  34  35
ATOM     35  C   UNL A   1      41.567  20.171  27.252  1.00  0.00     0.021 C 
BRANCH  35  36
ATOM     36  C   UNL A   1      42.389  21.444  27.033  1.00  0.00     0.002 C 
BRANCH  36  37
ATOM     37  C   UNL A   1      42.569  22.317  28.282  1.00  0.00     0.002 C 
BRANCH  37  38
ATOM     38  C   UNL A   1      42.134  23.779  28.129  1.00  0.00     0.021 C 
BRANCH  38  39
ATOM     39  C   UNL A   1      41.850  24.210  26.693  1.00  0.00     0.116 C 
BRANCH  39  40
ATOM     40  N   UNL A   1      43.058  24.202  25.883  1.00  0.00    -0.352 N 
ATOM     41  C   UNL A   1      43.946  25.216  25.627  1.00  0.00     0.251 C 
ATOM     42  H   UNL A   1      43.269  23.340  25.455  1.00  0.00     0.163 HD
ATOM     43  O   UNL A   1      44.750  25.099  24.705  1.00  0.00    -0.269 OA
BRANCH  41  44
ATOM     44  C   UNL A   1      43.929  26.444  26.451  1.00  0.00     0.039 A 
ATOM     45  C   UNL A   1      44.521  26.422  27.716  1.00  0.00     0.014 A 
ATOM     46  C   UNL A   1      43.304  27.607  25.990  1.00  0.00     0.014 A 
ATOM     47  C   UNL A   1      44.532  27.580  28.497  1.00  0.00     0.010 A 
ATOM     48  C   UNL A   1      43.376  28.778  26.740  1.00  0.00     0.010 A 
ATOM     49  C   UNL A   1      43.986  28.777  28.004  1.00  0.00    -0.014 A 
BRANCH  49  50
ATOM     50  C   UNL A   1      44.037  30.033  28.798  1.00  0.00     0.031 A 
ATOM     51  C   UNL A   1      42.847  30.457  29.617  1.00  0.00     0.074 A 
ATOM     52  C   UNL A   1      45.130  30.819  28.731  1.00  0.00     0.049 A 
ATOM     53  N   UNL A   1      42.666  31.552  30.308  1.00  0.00    -0.248 NA
ATOM     54  C   UNL A   1      41.699  29.537  29.638  1.00  0.00     0.031 C 
ATOM     55  C   UNL A   1      46.330  30.530  27.942  1.00  0.00     0.029 A 
ATOM     56  N   UNL A   1      45.409  32.025  29.324  1.00  0.00    -0.354 N 
ATOM     57  C   UNL A   1      41.382  31.463  30.834  1.00  0.00     0.074 A 
ATOM     58  C   UNL A   1      40.810  30.230  30.336  1.00  0.00     0.031 C 
ATOM     59  C   UNL A   1      47.221  31.520  28.116  1.00  0.00     0.029 A 
ATOM     60  C   UNL A   1      46.641  32.538  28.986  1.00  0.00     0.049 A 
ATOM     61  H   UNL A   1      44.785  32.480  29.935  1.00  0.00     0.167 HD
ATOM     62  C   UNL A   1      40.746  32.320  31.671  1.00  0.00     0.034 A 
ATOM     63  C   UNL A   1      47.230  33.702  29.326  1.00  0.00     0.034 A 
ATOM     64  C   UNL A   1      41.338  33.536  32.172  1.00  0.00     0.049 A 
ATOM     65  C   UNL A   1      46.494  34.647  30.244  1.00  0.00     0.074 A 
ATOM     66  C   UNL A   1      40.807  34.446  33.071  1.00  0.00     0.029 A 
ATOM     67  N   UNL A   1      42.591  34.019  31.816  1.00  0.00    -0.354 N 
ATOM     68  N   UNL A   1      45.299  34.521  30.774  1.00  0.00    -0.248 NA
ATOM     69  C   UNL A   1      47.189  35.886  30.618  1.00  0.00     0.031 C 
ATOM     70  C   UNL A   1      41.705  35.510  33.202  1.00  0.00     0.029 A 
ATOM     71  C   UNL A   1      42.834  35.229  32.449  1.00  0.00     0.049 A 
ATOM     72  H   UNL A   1      43.215  33.568  31.202  1.00  0.00     0.167 HD
ATOM     73  C   UNL A   1      45.117  35.647  31.572  1.00  0.00     0.074 A 
ATOM     74  C   UNL A   1      46.330  36.431  31.466  1.00  0.00     0.031 C 
ATOM     75  C   UNL A   1      44.047  36.002  32.328  1.00  0.00     0.034 A 
BRANCH  62  76
ATOM     76  C   UNL A   1      39.330  31.983  32.076  1.00  0.00     0.023 A 
ATOM     77  C   UNL A   1      38.222  32.620  31.492  1.00  0.00     0.031 A 
ATOM     78  C   UNL A   1      39.085  31.013  33.063  1.00  0.00     0.131 A 
ATOM     79  C   UNL A   1      36.926  32.329  31.946  1.00  0.00     0.055 A 
ATOM     80  C   UNL A   1      37.789  30.669  33.454  1.00  0.00     0.041 A 
ATOM     81  F   UNL A   1      40.104  30.384  33.672  1.00  0.00    -0.206 F 
ATOM     82  C   UNL A   1      36.700  31.339  32.903  1.00  0.00     0.022 A 
BRANCH  79  83
ATOM     83  S   UNL A   1      35.550  33.350  31.354  1.00  0.00     0.124 S 
ATOM     84  O   UNL A   1      35.481  34.378  32.390  1.00  0.00    -0.237 OA
ATOM     85  O   UNL A   1      36.020  33.791  30.047  1.00  0.00    -0.237 OA
ATOM     86  O   UNL A   1      34.420  32.423  31.332  1.00  0.00    -0.744 OA
ENDBRANCH  79  83
ENDBRANCH  62  76
BRANCH  63  87
ATOM     87  C   UNL A   1      48.576  34.059  28.790  1.00  0.00     0.023 A 
ATOM     88  C   UNL A   1      48.724  34.589  27.500  1.00  0.00     0.031 A 
ATOM     89  C   UNL A   1      49.742  33.819  29.540  1.00  0.00     0.131 A 
ATOM     90  C   UNL A   1      50.008  34.806  26.974  1.00  0.00     0.055 A 
ATOM     91  C   UNL A   1      51.014  34.094  29.037  1.00  0.00     0.041 A 
ATOM     92  F   UNL A   1      49.659  33.316  30.783  1.00  0.00    -0.206 F 
ATOM     93  C   UNL A   1      51.152  34.575  27.739  1.00  0.00     0.022 A 
BRANCH  90  94
ATOM     94  S   UNL A   1      50.162  35.294  25.234  1.00  0.00     0.124 S 
ATOM     95  O   UNL A   1      48.768  35.507  24.862  1.00  0.00    -0.237 OA
ATOM     96  O   UNL A   1      50.991  36.491  25.328  1.00  0.00    -0.237 OA
ATOM     97  O   UNL A   1      50.805  34.139  24.613  1.00  0.00    -0.744 OA
ENDBRANCH  90  94
ENDBRANCH  63  87
BRANCH  75  98
ATOM     98  C   UNL A   1      44.168  37.271  33.137  1.00  0.00     0.023 A 
ATOM     99  C   UNL A   1      44.512  37.253  34.499  1.00  0.00     0.031 A 
ATOM    100  C   UNL A   1      43.923  38.518  32.533  1.00  0.00     0.131 A 
ATOM    101  C   UNL A   1      44.545  38.451  35.227  1.00  0.00     0.055 A 
ATOM    102  C   UNL A   1      44.020  39.712  33.247  1.00  0.00     0.041 A 
ATOM    103  F   UNL A   1      43.587  38.594  31.235  1.00  0.00    -0.206 F 
ATOM    104  C   UNL A   1      44.319  39.683  34.605  1.00  0.00     0.022 A 
BRANCH 101 105
ATOM    105  S   UNL A   1      44.797  38.373  37.022  1.00  0.00     0.124 S 
ATOM    106  O   UNL A   1      43.685  37.529  37.447  1.00  0.00    -0.237 OA
ATOM    107  O   UNL A   1      46.125  37.778  37.126  1.00  0.00    -0.237 OA
ATOM    108  O   UNL A   1      44.712  39.771  37.442  1.00  0.00    -0.744 OA
ENDBRANCH 101 105
ENDBRANCH  75  98
ENDBRANCH  49  50
ENDBRANCH  41  44
ENDBRANCH  39  40
ENDBRANCH  38  39
ENDBRANCH  37  38
ENDBRANCH  36  37
ENDBRANCH  35  36
ENDBRANCH  34  35
ENDBRANCH   3  34
TORSDOF 26
ENDMDL
MODEL 3
REMARK VINA RESULT:      -6.5      4.696     10.871
REMARK SMILES CCCCCCNC(=O)Oc1cccc(-c2ccc([C@@H](C)C(=O)NCCCCCCNC(=O)c3ccc(-c4c5nc(c(-c6cc(S(=O)(=O)[O-])ccc6F)c6ccc([nH]6)c(-c6cc(S(=O)(=O)[O-])ccc6F)c6nc(c(-c7cc(S(=O)(=O)[O-])ccc7F)c7ccc4[nH]7)C=C6)C=C5)cc3)cc2C(F)(F)F)c1
REMARK SMILES IDX 22 1 23 2 24 3 20 5 21 6 19 7 16 8 17 9 98 10 18 11 97 12
REMARK SMILES IDX 15 13 11 14 12 15 103 16 13 17 14 18 10 19 8 20 7 21 9 23
REMARK SMILES IDX 6 24 5 25 4 26 3 27 2 28 1 29 99 30 100 31 101 32 102 33
REMARK SMILES IDX 25 34 26 35 27 36 28 37 29 38 30 39 31 40 32 41 33 43 34 44
REMARK SMILES IDX 35 45 96 46 36 47 95 48 37 49 38 50 39 51 89 52 40 53 94 54
REMARK SMILES IDX 88 55 90 56 41 57 93 58 87 59 86 60 42 62 74 63 54 64 73 65
REMARK SMILES IDX 55 66 58 67 72 68 91 69 56 70 57 71 71 73 92 74 59 75 43 76
REMARK SMILES IDX 44 77 52 78 45 79 51 80 53 81 50 82 46 83 47 84 48 85 49 86
REMARK SMILES IDX 75 87 76 88 84 89 77 90 83 91 85 92 82 93 78 94 79 95 80 96
REMARK SMILES IDX 81 97 60 98 61 99 69 100 62 101 68 102 70 103 67 104 63 105
REMARK SMILES IDX 64 106 65 107 66 108
REMARK H PARENT 24 4 7 22 31 42 90 61 58 72
REMARK Flexibility Score: inf
ROOT
ATOM      1  C   UNL A   1      36.216  33.353  29.527  1.00  0.00     0.227 C 
ATOM      2  O   UNL A   1      35.869  33.696  28.389  1.00  0.00    -0.274 OA
ATOM      3  N   UNL A   1      36.860  34.294  30.268  1.00  0.00    -0.356 N 
ATOM      4  H   UNL A   1      36.904  35.181  29.844  1.00  0.00     0.163 HD
ENDROOT
BRANCH   1   5
ATOM      5  C   UNL A   1      35.884  31.941  30.031  1.00  0.00     0.105 C 
ATOM      6  C   UNL A   1      35.174  31.905  31.384  1.00  0.00     0.023 C 
BRANCH   5   7
ATOM      7  C   UNL A   1      37.009  30.930  29.862  1.00  0.00    -0.035 A 
ATOM      8  C   UNL A   1      39.033  28.916  29.573  1.00  0.00    -0.006 A 
ATOM      9  C   UNL A   1      38.841  29.937  28.621  1.00  0.00     0.009 A 
ATOM     10  C   UNL A   1      38.232  28.961  30.733  1.00  0.00     0.064 A 
ATOM     11  C   UNL A   1      37.893  30.948  28.790  1.00  0.00     0.005 A 
ATOM     12  C   UNL A   1      37.197  29.929  30.826  1.00  0.00     0.018 A 
BRANCH   8  13
ATOM     13  C   UNL A   1      40.066  27.896  29.290  1.00  0.00    -0.014 A 
ATOM     14  C   UNL A   1      40.808  25.838  28.235  1.00  0.00     0.133 A 
ATOM     15  C   UNL A   1      42.074  25.964  28.799  1.00  0.00     0.047 A 
ATOM     16  C   UNL A   1      39.818  26.801  28.447  1.00  0.00     0.056 A 
ATOM     17  C   UNL A   1      42.355  27.068  29.594  1.00  0.00     0.004 A 
ATOM     18  C   UNL A   1      41.357  28.011  29.849  1.00  0.00     0.009 A 
BRANCH  14  19
ATOM     19  O   UNL A   1      40.528  24.610  27.609  1.00  0.00    -0.410 OA
BRANCH  19  20
ATOM     20  C   UNL A   1      41.199  24.226  26.461  1.00  0.00     0.412 C 
ATOM     21  N   UNL A   1      40.971  22.918  26.130  1.00  0.00    -0.321 N 
ATOM     22  H   UNL A   1      41.478  22.560  25.366  1.00  0.00     0.167 HD
ATOM     23  O   UNL A   1      41.929  24.935  25.781  1.00  0.00    -0.224 OA
BRANCH  21  24
ATOM     24  C   UNL A   1      40.058  22.007  26.792  1.00  0.00     0.119 C 
BRANCH  24  25
ATOM     25  C   UNL A   1      39.023  21.435  25.823  1.00  0.00     0.021 C 
BRANCH  25  26
ATOM     26  C   UNL A   1      37.757  22.285  25.655  1.00  0.00     0.002 C 
BRANCH  26  27
ATOM     27  C   UNL A   1      37.058  22.162  24.297  1.00  0.00    -0.000 C 
BRANCH  27  28
ATOM     28  C   UNL A   1      36.124  23.320  23.935  1.00  0.00    -0.003 C 
ATOM     29  C   UNL A   1      35.613  24.080  25.150  1.00  0.00     0.004 C 
ENDBRANCH  27  28
ENDBRANCH  26  27
ENDBRANCH  25  26
ENDBRANCH  24  25
ENDBRANCH  21  24
ENDBRANCH  19  20
ENDBRANCH  14  19
ENDBRANCH   8  13
BRANCH  10  30
ATOM     30  C   UNL A   1      38.410  28.071  31.945  1.00  0.00     0.417 C 
ATOM     31  F   UNL A   1      39.580  28.344  32.601  1.00  0.00    -0.166 F 
ATOM     32  F   UNL A   1      37.430  28.260  32.874  1.00  0.00    -0.166 F 
ATOM     33  F   UNL A   1      38.453  26.732  31.716  1.00  0.00    -0.166 F 
ENDBRANCH  10  30
ENDBRANCH   5   7
ENDBRANCH   1   5
BRANCH   3  34
ATOM     34  C   UNL A   1      37.494  34.228  31.568  1.00  0.00     0.116 C 
BRANCH  34  35
ATOM     35  C   UNL A   1      38.882  33.589  31.482  1.00  0.00     0.021 C 
BRANCH  35  36
ATOM     36  C   UNL A   1      39.086  32.425  32.457  1.00  0.00     0.002 C 
BRANCH  36  37
ATOM     37  C   UNL A   1      38.185  32.459  33.698  1.00  0.00     0.002 C 
BRANCH  37  38
ATOM     38  C   UNL A   1      37.787  31.089  34.259  1.00  0.00     0.021 C 
BRANCH  38  39
ATOM     39  C   UNL A   1      38.686  30.577  35.382  1.00  0.00     0.116 C 
BRANCH  39  40
ATOM     40  N   UNL A   1      38.362  31.205  36.653  1.00  0.00    -0.352 N 
ATOM     41  C   UNL A   1      38.969  32.258  37.288  1.00  0.00     0.251 C 
ATOM     42  H   UNL A   1      37.593  30.814  37.129  1.00  0.00     0.163 HD
ATOM     43  O   UNL A   1      38.731  32.470  38.475  1.00  0.00    -0.269 OA
BRANCH  41  44
ATOM     44  C   UNL A   1      39.910  33.129  36.550  1.00  0.00     0.039 A 
ATOM     45  C   UNL A   1      39.499  34.410  36.175  1.00  0.00     0.014 A 
ATOM     46  C   UNL A   1      41.185  32.672  36.201  1.00  0.00     0.014 A 
ATOM     47  C   UNL A   1      40.383  35.252  35.496  1.00  0.00     0.010 A 
ATOM     48  C   UNL A   1      42.088  33.535  35.586  1.00  0.00     0.010 A 
ATOM     49  C   UNL A   1      41.696  34.833  35.222  1.00  0.00    -0.014 A 
BRANCH  49  50
ATOM     50  C   UNL A   1      42.668  35.734  34.549  1.00  0.00     0.031 A 
ATOM     51  C   UNL A   1      43.447  36.740  35.354  1.00  0.00     0.074 A 
ATOM     52  C   UNL A   1      42.802  35.687  33.209  1.00  0.00     0.049 A 
ATOM     53  N   UNL A   1      44.277  37.665  34.944  1.00  0.00    -0.248 NA
ATOM     54  C   UNL A   1      43.245  36.719  36.811  1.00  0.00     0.031 C 
ATOM     55  C   UNL A   1      42.073  34.780  32.319  1.00  0.00     0.029 A 
ATOM     56  N   UNL A   1      43.586  36.424  32.356  1.00  0.00    -0.354 N 
ATOM     57  C   UNL A   1      44.684  38.345  36.087  1.00  0.00     0.074 A 
ATOM     58  C   UNL A   1      43.967  37.760  37.200  1.00  0.00     0.031 C 
ATOM     59  C   UNL A   1      42.458  35.000  31.052  1.00  0.00     0.029 A 
ATOM     60  C   UNL A   1      43.422  36.096  31.029  1.00  0.00     0.049 A 
ATOM     61  H   UNL A   1      44.207  37.122  32.665  1.00  0.00     0.167 HD
ATOM     62  C   UNL A   1      45.587  39.350  36.198  1.00  0.00     0.034 A 
ATOM     63  C   UNL A   1      43.974  36.627  29.919  1.00  0.00     0.034 A 
ATOM     64  C   UNL A   1      46.306  39.910  35.080  1.00  0.00     0.049 A 
ATOM     65  C   UNL A   1      44.962  37.758  30.070  1.00  0.00     0.074 A 
ATOM     66  C   UNL A   1      47.286  40.888  35.087  1.00  0.00     0.029 A 
ATOM     67  N   UNL A   1      46.121  39.546  33.752  1.00  0.00    -0.354 N 
ATOM     68  N   UNL A   1      45.375  38.354  31.165  1.00  0.00    -0.248 NA
ATOM     69  C   UNL A   1      45.566  38.280  28.837  1.00  0.00     0.031 C 
ATOM     70  C   UNL A   1      47.640  41.165  33.763  1.00  0.00     0.029 A 
ATOM     71  C   UNL A   1      46.943  40.305  32.931  1.00  0.00     0.049 A 
ATOM     72  H   UNL A   1      45.497  38.852  33.439  1.00  0.00     0.167 HD
ATOM     73  C   UNL A   1      46.314  39.296  30.753  1.00  0.00     0.074 A 
ATOM     74  C   UNL A   1      46.417  39.176  29.313  1.00  0.00     0.031 C 
ATOM     75  C   UNL A   1      47.030  40.178  31.496  1.00  0.00     0.034 A 
BRANCH  62  76
ATOM     76  C   UNL A   1      45.829  39.925  37.574  1.00  0.00     0.023 A 
ATOM     77  C   UNL A   1      45.043  40.971  38.088  1.00  0.00     0.031 A 
ATOM     78  C   UNL A   1      46.863  39.422  38.383  1.00  0.00     0.131 A 
ATOM     79  C   UNL A   1      45.344  41.524  39.343  1.00  0.00     0.055 A 
ATOM     80  C   UNL A   1      47.107  39.922  39.664  1.00  0.00     0.041 A 
ATOM     81  F   UNL A   1      47.660  38.436  37.940  1.00  0.00    -0.206 F 
ATOM     82  C   UNL A   1      46.353  40.989  40.145  1.00  0.00     0.022 A 
BRANCH  79  83
ATOM     83  S   UNL A   1      44.478  43.031  39.857  1.00  0.00     0.124 S 
ATOM     84  O   UNL A   1      43.112  42.746  39.427  1.00  0.00    -0.237 OA
ATOM     85  O   UNL A   1      44.703  43.050  41.297  1.00  0.00    -0.237 OA
ATOM     86  O   UNL A   1      45.153  44.088  39.105  1.00  0.00    -0.744 OA
ENDBRANCH  79  83
ENDBRANCH  62  76
BRANCH  63  87
ATOM     87  C   UNL A   1      43.601  36.120  28.566  1.00  0.00     0.023 A 
ATOM     88  C   UNL A   1      44.265  35.022  27.996  1.00  0.00     0.031 A 
ATOM     89  C   UNL A   1      42.614  36.763  27.798  1.00  0.00     0.131 A 
ATOM     90  C   UNL A   1      43.978  34.637  26.677  1.00  0.00     0.055 A 
ATOM     91  C   UNL A   1      42.288  36.338  26.509  1.00  0.00     0.041 A 
ATOM     92  F   UNL A   1      41.945  37.815  28.294  1.00  0.00    -0.206 F 
ATOM     93  C   UNL A   1      42.985  35.279  25.935  1.00  0.00     0.022 A 
BRANCH  90  94
ATOM     94  S   UNL A   1      44.999  33.352  25.907  1.00  0.00     0.124 S 
ATOM     95  O   UNL A   1      46.169  33.343  26.776  1.00  0.00    -0.237 OA
ATOM     96  O   UNL A   1      44.128  32.184  25.990  1.00  0.00    -0.237 OA
ATOM     97  O   UNL A   1      45.227  33.863  24.557  1.00  0.00    -0.744 OA
ENDBRANCH  90  94
ENDBRANCH  63  87
BRANCH  75  98
ATOM     98  C   UNL A   1      48.024  41.046  30.762  1.00  0.00     0.023 A 
ATOM     99  C   UNL A   1      49.332  40.610  30.491  1.00  0.00     0.031 A 
ATOM    100  C   UNL A   1      47.655  42.335  30.337  1.00  0.00     0.131 A 
ATOM    101  C   UNL A   1      50.241  41.476  29.867  1.00  0.00     0.055 A 
ATOM    102  C   UNL A   1      48.545  43.169  29.660  1.00  0.00     0.041 A 
ATOM    103  F   UNL A   1      46.419  42.805  30.572  1.00  0.00    -0.206 F 
ATOM    104  C   UNL A   1      49.851  42.746  29.434  1.00  0.00     0.022 A 
BRANCH 101 105
ATOM    105  S   UNL A   1      51.973  40.956  29.712  1.00  0.00     0.124 S 
ATOM    106  O   UNL A   1      52.356  41.553  28.437  1.00  0.00    -0.237 OA
ATOM    107  O   UNL A   1      52.583  41.544  30.901  1.00  0.00    -0.237 OA
ATOM    108  O   UNL A   1      51.894  39.496  29.716  1.00  0.00    -0.744 OA
ENDBRANCH 101 105
ENDBRANCH  75  98
ENDBRANCH  49  50
ENDBRANCH  41  44
ENDBRANCH  39  40
ENDBRANCH  38  39
ENDBRANCH  37  38
ENDBRANCH  36  37
ENDBRANCH  35  36
ENDBRANCH  34  35
ENDBRANCH   3  34
TORSDOF 26
ENDMDL
