MODEL 1
REMARK VINA RESULT:     -12.0      0.000      0.000
REMARK SMILES O=C(NCCCCCCNC(=O)c1ccncc1-c1ccc(F)cc1F)c1ccc(-c2c3nc(c(-c4cc(S(=O)(=O)[O-])ccc4F)c4ccc([nH]4)c(-c4cc(S(=O)(=O)[O-])ccc4F)c4nc(c(-c5cc(S(=O)(=O)[O-])ccc5F)c5ccc2[nH]5)C=C4)C=C3)cc1
REMARK SMILES IDX 5 1 4 2 3 3 1 4 2 5 27 7 28 8 89 9 29 10 88 11 30 12 31 13
REMARK SMILES IDX 32 14 82 15 33 16 87 17 81 18 83 19 34 20 86 21 80 22 79 23
REMARK SMILES IDX 35 25 67 26 47 27 66 28 48 29 51 30 65 31 84 32 49 33 50 34
REMARK SMILES IDX 64 36 85 37 52 38 36 39 37 40 45 41 38 42 44 43 46 44 43 45
REMARK SMILES IDX 39 46 40 47 41 48 42 49 68 50 69 51 77 52 70 53 76 54 78 55
REMARK SMILES IDX 75 56 71 57 72 58 73 59 74 60 53 61 54 62 62 63 55 64 61 65
REMARK SMILES IDX 63 66 60 67 56 68 57 69 58 70 59 71 6 72 7 73 8 74 9 75
REMARK SMILES IDX 10 76 11 77 12 79 13 80 14 81 18 82 15 83 17 84 16 85 19 86
REMARK SMILES IDX 20 87 25 88 21 89 24 90 26 91 22 92 23 93
REMARK H PARENT 3 6 83 24 51 35 10 78
REMARK Flexibility Score: inf
ROOT
ATOM      1  C   UNL A   1      35.150  21.848  24.452  1.00  0.00     0.021 C 
ENDROOT
BRANCH   1   2
ATOM      2  C   UNL A   1      36.377  22.196  25.286  1.00  0.00     0.116 C 
BRANCH   2   3
ATOM      3  N   UNL A   1      37.337  21.108  25.383  1.00  0.00    -0.352 N 
ATOM      4  O   UNL A   1      39.340  20.127  25.717  1.00  0.00    -0.269 OA
ATOM      5  C   UNL A   1      38.645  21.136  25.809  1.00  0.00     0.251 C 
ATOM      6  H   UNL A   1      37.003  20.225  25.103  1.00  0.00     0.163 HD
BRANCH   5   7
ATOM      7  C   UNL A   1      39.224  22.389  26.348  1.00  0.00     0.039 A 
ATOM      8  C   UNL A   1      38.723  23.635  25.967  1.00  0.00     0.014 A 
ATOM      9  C   UNL A   1      40.300  22.314  27.239  1.00  0.00     0.014 A 
ATOM     10  C   UNL A   1      39.393  24.795  26.341  1.00  0.00     0.010 A 
ATOM     11  C   UNL A   1      40.921  23.487  27.683  1.00  0.00     0.010 A 
ATOM     12  C   UNL A   1      40.503  24.738  27.201  1.00  0.00    -0.014 A 
BRANCH  12  13
ATOM     13  C   UNL A   1      41.200  25.998  27.579  1.00  0.00     0.031 A 
ATOM     14  C   UNL A   1      42.560  26.329  27.021  1.00  0.00     0.074 A 
ATOM     15  C   UNL A   1      40.576  26.871  28.393  1.00  0.00     0.049 A 
ATOM     16  N   UNL A   1      43.288  27.403  27.201  1.00  0.00    -0.248 NA
ATOM     17  C   UNL A   1      43.189  25.319  26.160  1.00  0.00     0.031 C 
ATOM     18  C   UNL A   1      39.262  26.657  29.005  1.00  0.00     0.029 A 
ATOM     19  N   UNL A   1      40.943  28.119  28.827  1.00  0.00    -0.354 N 
ATOM     20  C   UNL A   1      44.468  27.191  26.495  1.00  0.00     0.074 A 
ATOM     21  C   UNL A   1      44.370  25.868  25.913  1.00  0.00     0.031 C 
ATOM     22  C   UNL A   1      38.911  27.757  29.688  1.00  0.00     0.029 A 
ATOM     23  C   UNL A   1      39.995  28.730  29.614  1.00  0.00     0.049 A 
ATOM     24  H   UNL A   1      41.804  28.538  28.596  1.00  0.00     0.167 HD
ATOM     25  C   UNL A   1      45.529  28.024  26.340  1.00  0.00     0.034 A 
ATOM     26  C   UNL A   1      39.997  29.936  30.215  1.00  0.00     0.034 A 
ATOM     27  C   UNL A   1      45.608  29.346  26.917  1.00  0.00     0.049 A 
ATOM     28  C   UNL A   1      41.188  30.838  30.033  1.00  0.00     0.074 A 
ATOM     29  C   UNL A   1      46.621  30.282  26.794  1.00  0.00     0.029 A 
ATOM     30  N   UNL A   1      44.640  29.919  27.733  1.00  0.00    -0.354 N 
ATOM     31  N   UNL A   1      42.285  30.628  29.343  1.00  0.00    -0.248 NA
ATOM     32  C   UNL A   1      41.135  32.141  30.705  1.00  0.00     0.031 C 
ATOM     33  C   UNL A   1      46.293  31.394  27.580  1.00  0.00     0.029 A 
ATOM     34  C   UNL A   1      45.043  31.183  28.138  1.00  0.00     0.049 A 
ATOM     35  H   UNL A   1      43.791  29.490  27.985  1.00  0.00     0.167 HD
ATOM     36  C   UNL A   1      43.043  31.787  29.479  1.00  0.00     0.074 A 
ATOM     37  C   UNL A   1      42.268  32.695  30.300  1.00  0.00     0.031 C 
ATOM     38  C   UNL A   1      44.268  32.075  28.969  1.00  0.00     0.034 A 
BRANCH  25  39
ATOM     39  C   UNL A   1      46.709  27.505  25.550  1.00  0.00     0.023 A 
ATOM     40  C   UNL A   1      46.981  27.949  24.244  1.00  0.00     0.031 A 
ATOM     41  C   UNL A   1      47.560  26.532  26.103  1.00  0.00     0.131 A 
ATOM     42  C   UNL A   1      48.028  27.369  23.509  1.00  0.00     0.055 A 
ATOM     43  C   UNL A   1      48.648  26.014  25.396  1.00  0.00     0.041 A 
ATOM     44  F   UNL A   1      47.341  26.056  27.339  1.00  0.00    -0.206 F 
ATOM     45  C   UNL A   1      48.878  26.421  24.085  1.00  0.00     0.022 A 
BRANCH  42  46
ATOM     46  S   UNL A   1      48.174  27.766  21.745  1.00  0.00     0.124 S 
ATOM     47  O   UNL A   1      46.880  28.387  21.472  1.00  0.00    -0.237 OA
ATOM     48  O   UNL A   1      49.328  28.658  21.716  1.00  0.00    -0.237 OA
ATOM     49  O   UNL A   1      48.376  26.463  21.115  1.00  0.00    -0.744 OA
ENDBRANCH  42  46
ENDBRANCH  25  39
BRANCH  26  50
ATOM     50  C   UNL A   1      38.839  30.358  31.051  1.00  0.00     0.023 A 
ATOM     51  C   UNL A   1      37.803  31.137  30.513  1.00  0.00     0.031 A 
ATOM     52  C   UNL A   1      38.765  30.006  32.410  1.00  0.00     0.131 A 
ATOM     53  C   UNL A   1      36.756  31.572  31.341  1.00  0.00     0.055 A 
ATOM     54  C   UNL A   1      37.697  30.398  33.216  1.00  0.00     0.041 A 
ATOM     55  F   UNL A   1      39.727  29.255  32.970  1.00  0.00    -0.206 F 
ATOM     56  C   UNL A   1      36.689  31.197  32.685  1.00  0.00     0.022 A 
BRANCH  53  57
ATOM     57  S   UNL A   1      35.514  32.697  30.649  1.00  0.00     0.124 S 
ATOM     58  O   UNL A   1      36.129  33.999  30.880  1.00  0.00    -0.237 OA
ATOM     59  O   UNL A   1      35.448  32.256  29.259  1.00  0.00    -0.237 OA
ATOM     60  O   UNL A   1      34.321  32.418  31.444  1.00  0.00    -0.744 OA
ENDBRANCH  53  57
ENDBRANCH  26  50
BRANCH  38  61
ATOM     61  C   UNL A   1      44.813  33.452  29.255  1.00  0.00     0.023 A 
ATOM     62  C   UNL A   1      44.619  34.524  28.366  1.00  0.00     0.031 A 
ATOM     63  C   UNL A   1      45.570  33.684  30.417  1.00  0.00     0.131 A 
ATOM     64  C   UNL A   1      45.232  35.761  28.619  1.00  0.00     0.055 A 
ATOM     65  C   UNL A   1      46.127  34.933  30.693  1.00  0.00     0.041 A 
ATOM     66  F   UNL A   1      45.787  32.696  31.299  1.00  0.00    -0.206 F 
ATOM     67  C   UNL A   1      45.972  35.976  29.783  1.00  0.00     0.022 A 
BRANCH  64  68
ATOM     68  S   UNL A   1      45.137  37.055  27.352  1.00  0.00     0.124 S 
ATOM     69  O   UNL A   1      45.507  38.249  28.106  1.00  0.00    -0.237 OA
ATOM     70  O   UNL A   1      46.111  36.597  26.366  1.00  0.00    -0.237 OA
ATOM     71  O   UNL A   1      43.743  37.006  26.914  1.00  0.00    -0.744 OA
ENDBRANCH  64  68
ENDBRANCH  38  61
ENDBRANCH  12  13
ENDBRANCH   5   7
ENDBRANCH   2   3
ENDBRANCH   1   2
BRANCH   1  72
ATOM     72  C   UNL A   1      34.350  23.035  23.916  1.00  0.00     0.002 C 
BRANCH  72  73
ATOM     73  C   UNL A   1      33.978  22.982  22.432  1.00  0.00     0.002 C 
BRANCH  73  74
ATOM     74  C   UNL A   1      33.092  24.118  21.911  1.00  0.00     0.021 C 
BRANCH  74  75
ATOM     75  C   UNL A   1      33.199  25.444  22.661  1.00  0.00     0.116 C 
BRANCH  75  76
ATOM     76  N   UNL A   1      31.908  26.088  22.838  1.00  0.00    -0.352 N 
ATOM     77  C   UNL A   1      30.930  25.849  23.770  1.00  0.00     0.252 C 
ATOM     78  H   UNL A   1      31.705  26.804  22.193  1.00  0.00     0.163 HD
ATOM     79  O   UNL A   1      29.873  26.473  23.731  1.00  0.00    -0.269 OA
BRANCH  77  80
ATOM     80  C   UNL A   1      31.152  24.839  24.828  1.00  0.00     0.050 A 
ATOM     81  C   UNL A   1      30.801  23.512  24.552  1.00  0.00     0.034 A 
ATOM     82  C   UNL A   1      31.767  25.184  26.043  1.00  0.00     0.016 A 
ATOM     83  C   UNL A   1      31.016  22.564  25.531  1.00  0.00     0.112 A 
ATOM     84  C   UNL A   1      31.937  24.134  26.945  1.00  0.00     0.120 A 
ATOM     85  N   UNL A   1      31.567  22.847  26.726  1.00  0.00    -0.264 NA
BRANCH  82  86
ATOM     86  C   UNL A   1      32.230  26.537  26.389  1.00  0.00     0.020 A 
ATOM     87  C   UNL A   1      31.366  27.489  26.958  1.00  0.00     0.015 A 
ATOM     88  C   UNL A   1      33.566  26.916  26.167  1.00  0.00     0.134 A 
ATOM     89  C   UNL A   1      31.830  28.770  27.279  1.00  0.00     0.040 A 
ATOM     90  C   UNL A   1      34.035  28.188  26.483  1.00  0.00     0.079 A 
ATOM     91  F   UNL A   1      34.434  26.038  25.640  1.00  0.00    -0.206 F 
ATOM     92  C   UNL A   1      33.158  29.105  27.037  1.00  0.00     0.126 A 
ATOM     93  F   UNL A   1      33.597  30.332  27.349  1.00  0.00    -0.207 F 
ENDBRANCH  82  86
ENDBRANCH  77  80
ENDBRANCH  75  76
ENDBRANCH  74  75
ENDBRANCH  73  74
ENDBRANCH  72  73
ENDBRANCH   1  72
TORSDOF 17
ENDMDL
MODEL 2
REMARK VINA RESULT:     -11.9      5.045     10.155
REMARK SMILES O=C(NCCCCCCNC(=O)c1ccncc1-c1ccc(F)cc1F)c1ccc(-c2c3nc(c(-c4cc(S(=O)(=O)[O-])ccc4F)c4ccc([nH]4)c(-c4cc(S(=O)(=O)[O-])ccc4F)c4nc(c(-c5cc(S(=O)(=O)[O-])ccc5F)c5ccc2[nH]5)C=C4)C=C3)cc1
REMARK SMILES IDX 5 1 4 2 3 3 1 4 2 5 27 7 28 8 89 9 29 10 88 11 30 12 31 13
REMARK SMILES IDX 32 14 82 15 33 16 87 17 81 18 83 19 34 20 86 21 80 22 79 23
REMARK SMILES IDX 35 25 67 26 47 27 66 28 48 29 51 30 65 31 84 32 49 33 50 34
REMARK SMILES IDX 64 36 85 37 52 38 36 39 37 40 45 41 38 42 44 43 46 44 43 45
REMARK SMILES IDX 39 46 40 47 41 48 42 49 68 50 69 51 77 52 70 53 76 54 78 55
REMARK SMILES IDX 75 56 71 57 72 58 73 59 74 60 53 61 54 62 62 63 55 64 61 65
REMARK SMILES IDX 63 66 60 67 56 68 57 69 58 70 59 71 6 72 7 73 8 74 9 75
REMARK SMILES IDX 10 76 11 77 12 79 13 80 14 81 18 82 15 83 17 84 16 85 19 86
REMARK SMILES IDX 20 87 25 88 21 89 24 90 26 91 22 92 23 93
REMARK H PARENT 3 6 83 24 51 35 10 78
REMARK Flexibility Score: inf
ROOT
ATOM      1  C   UNL A   1      31.759  28.738  26.597  1.00  0.00     0.021 C 
ENDROOT
BRANCH   1   2
ATOM      2  C   UNL A   1      32.703  29.771  25.992  1.00  0.00     0.116 C 
BRANCH   2   3
ATOM      3  N   UNL A   1      32.414  31.132  26.414  1.00  0.00    -0.352 N 
ATOM      4  O   UNL A   1      32.668  33.044  27.583  1.00  0.00    -0.269 OA
ATOM      5  C   UNL A   1      33.129  31.954  27.254  1.00  0.00     0.251 C 
ATOM      6  H   UNL A   1      31.588  31.521  26.045  1.00  0.00     0.163 HD
BRANCH   5   7
ATOM      7  C   UNL A   1      34.439  31.511  27.789  1.00  0.00     0.039 A 
ATOM      8  C   UNL A   1      34.672  30.170  28.098  1.00  0.00     0.014 A 
ATOM      9  C   UNL A   1      35.445  32.460  27.997  1.00  0.00     0.014 A 
ATOM     10  C   UNL A   1      35.839  29.807  28.763  1.00  0.00     0.010 A 
ATOM     11  C   UNL A   1      36.653  32.077  28.590  1.00  0.00     0.010 A 
ATOM     12  C   UNL A   1      36.844  30.755  29.023  1.00  0.00    -0.014 A 
BRANCH  12  13
ATOM     13  C   UNL A   1      38.078  30.333  29.740  1.00  0.00     0.031 A 
ATOM     14  C   UNL A   1      38.337  30.769  31.159  1.00  0.00     0.074 A 
ATOM     15  C   UNL A   1      38.945  29.509  29.121  1.00  0.00     0.049 A 
ATOM     16  N   UNL A   1      39.331  30.455  31.952  1.00  0.00    -0.248 NA
ATOM     17  C   UNL A   1      37.360  31.687  31.761  1.00  0.00     0.031 C 
ATOM     18  C   UNL A   1      38.809  29.028  27.744  1.00  0.00     0.029 A 
ATOM     19  N   UNL A   1      40.096  28.911  29.567  1.00  0.00    -0.354 N 
ATOM     20  C   UNL A   1      39.113  31.150  33.137  1.00  0.00     0.074 A 
ATOM     21  C   UNL A   1      37.908  31.931  32.943  1.00  0.00     0.031 C 
ATOM     22  C   UNL A   1      39.803  28.167  27.479  1.00  0.00     0.029 A 
ATOM     23  C   UNL A   1      40.680  28.079  28.641  1.00  0.00     0.049 A 
ATOM     24  H   UNL A   1      40.467  29.062  30.467  1.00  0.00     0.167 HD
ATOM     25  C   UNL A   1      39.843  31.133  34.282  1.00  0.00     0.034 A 
ATOM     26  C   UNL A   1      41.799  27.333  28.713  1.00  0.00     0.034 A 
ATOM     27  C   UNL A   1      41.036  30.340  34.465  1.00  0.00     0.049 A 
ATOM     28  C   UNL A   1      42.595  27.336  29.991  1.00  0.00     0.074 A 
ATOM     29  C   UNL A   1      41.831  30.224  35.594  1.00  0.00     0.029 A 
ATOM     30  N   UNL A   1      41.614  29.532  33.493  1.00  0.00    -0.354 N 
ATOM     31  N   UNL A   1      42.359  27.982  31.108  1.00  0.00    -0.248 NA
ATOM     32  C   UNL A   1      43.801  26.502  30.016  1.00  0.00     0.031 C 
ATOM     33  C   UNL A   1      42.917  29.395  35.286  1.00  0.00     0.029 A 
ATOM     34  C   UNL A   1      42.765  28.935  33.989  1.00  0.00     0.049 A 
ATOM     35  H   UNL A   1      41.258  29.401  32.585  1.00  0.00     0.167 HD
ATOM     36  C   UNL A   1      43.378  27.612  31.980  1.00  0.00     0.074 A 
ATOM     37  C   UNL A   1      44.216  26.672  31.262  1.00  0.00     0.031 C 
ATOM     38  C   UNL A   1      43.600  28.011  33.259  1.00  0.00     0.034 A 
BRANCH  25  39
ATOM     39  C   UNL A   1      39.392  32.036  35.408  1.00  0.00     0.023 A 
ATOM     40  C   UNL A   1      38.711  31.537  36.532  1.00  0.00     0.031 A 
ATOM     41  C   UNL A   1      39.624  33.421  35.342  1.00  0.00     0.131 A 
ATOM     42  C   UNL A   1      38.222  32.422  37.506  1.00  0.00     0.055 A 
ATOM     43  C   UNL A   1      39.204  34.289  36.352  1.00  0.00     0.041 A 
ATOM     44  F   UNL A   1      40.253  33.958  34.284  1.00  0.00    -0.206 F 
ATOM     45  C   UNL A   1      38.485  33.793  37.436  1.00  0.00     0.022 A 
BRANCH  42  46
ATOM     46  S   UNL A   1      37.116  31.775  38.791  1.00  0.00     0.124 S 
ATOM     47  O   UNL A   1      36.917  30.397  38.345  1.00  0.00    -0.237 OA
ATOM     48  O   UNL A   1      37.909  31.944  40.004  1.00  0.00    -0.237 OA
ATOM     49  O   UNL A   1      35.936  32.630  38.691  1.00  0.00    -0.744 OA
ENDBRANCH  42  46
ENDBRANCH  25  39
BRANCH  26  50
ATOM     50  C   UNL A   1      42.239  26.528  27.540  1.00  0.00     0.023 A 
ATOM     51  C   UNL A   1      41.945  25.158  27.449  1.00  0.00     0.031 A 
ATOM     52  C   UNL A   1      42.983  27.115  26.502  1.00  0.00     0.131 A 
ATOM     53  C   UNL A   1      42.426  24.412  26.363  1.00  0.00     0.055 A 
ATOM     54  C   UNL A   1      43.416  26.379  25.399  1.00  0.00     0.041 A 
ATOM     55  F   UNL A   1      43.284  28.423  26.537  1.00  0.00    -0.206 F 
ATOM     56  C   UNL A   1      43.149  25.016  25.331  1.00  0.00     0.022 A 
BRANCH  53  57
ATOM     57  S   UNL A   1      42.152  22.620  26.353  1.00  0.00     0.124 S 
ATOM     58  O   UNL A   1      40.722  22.535  26.623  1.00  0.00    -0.237 OA
ATOM     59  O   UNL A   1      42.573  22.258  25.003  1.00  0.00    -0.237 OA
ATOM     60  O   UNL A   1      43.022  22.137  27.423  1.00  0.00    -0.744 OA
ENDBRANCH  53  57
ENDBRANCH  26  50
BRANCH  38  61
ATOM     61  C   UNL A   1      44.776  27.385  33.968  1.00  0.00     0.023 A 
ATOM     62  C   UNL A   1      44.629  26.247  34.781  1.00  0.00     0.031 A 
ATOM     63  C   UNL A   1      46.054  27.960  33.858  1.00  0.00     0.131 A 
ATOM     64  C   UNL A   1      45.728  25.760  35.506  1.00  0.00     0.055 A 
ATOM     65  C   UNL A   1      47.156  27.435  34.534  1.00  0.00     0.041 A 
ATOM     66  F   UNL A   1      46.249  29.048  33.096  1.00  0.00    -0.206 F 
ATOM     67  C   UNL A   1      46.993  26.338  35.376  1.00  0.00     0.022 A 
BRANCH  64  68
ATOM     68  S   UNL A   1      45.459  24.425  36.703  1.00  0.00     0.124 S 
ATOM     69  O   UNL A   1      44.190  24.812  37.312  1.00  0.00    -0.237 OA
ATOM     70  O   UNL A   1      45.420  23.243  35.848  1.00  0.00    -0.237 OA
ATOM     71  O   UNL A   1      46.622  24.514  37.585  1.00  0.00    -0.744 OA
ENDBRANCH  64  68
ENDBRANCH  38  61
ENDBRANCH  12  13
ENDBRANCH   5   7
ENDBRANCH   2   3
ENDBRANCH   1   2
BRANCH   1  72
ATOM     72  C   UNL A   1      32.123  27.275  26.344  1.00  0.00     0.002 C 
BRANCH  72  73
ATOM     73  C   UNL A   1      33.613  26.971  26.169  1.00  0.00     0.002 C 
BRANCH  73  74
ATOM     74  C   UNL A   1      34.029  26.355  24.829  1.00  0.00     0.021 C 
BRANCH  74  75
ATOM     75  C   UNL A   1      32.916  26.186  23.798  1.00  0.00     0.116 C 
BRANCH  75  76
ATOM     76  N   UNL A   1      32.987  24.910  23.105  1.00  0.00    -0.352 N 
ATOM     77  C   UNL A   1      32.733  23.644  23.572  1.00  0.00     0.252 C 
ATOM     78  H   UNL A   1      33.258  24.961  22.161  1.00  0.00     0.163 HD
ATOM     79  O   UNL A   1      32.895  22.672  22.840  1.00  0.00    -0.269 OA
BRANCH  77  80
ATOM     80  C   UNL A   1      32.258  23.453  24.959  1.00  0.00     0.050 A 
ATOM     81  C   UNL A   1      30.922  23.759  25.244  1.00  0.00     0.034 A 
ATOM     82  C   UNL A   1      33.098  22.908  25.945  1.00  0.00     0.016 A 
ATOM     83  C   UNL A   1      30.471  23.572  26.534  1.00  0.00     0.112 A 
ATOM     84  C   UNL A   1      32.520  22.760  27.206  1.00  0.00     0.120 A 
ATOM     85  N   UNL A   1      31.244  23.089  27.525  1.00  0.00    -0.264 NA
BRANCH  82  86
ATOM     86  C   UNL A   1      34.491  22.494  25.717  1.00  0.00     0.020 A 
ATOM     87  C   UNL A   1      35.570  23.353  25.989  1.00  0.00     0.015 A 
ATOM     88  C   UNL A   1      34.787  21.209  25.226  1.00  0.00     0.134 A 
ATOM     89  C   UNL A   1      36.888  22.936  25.765  1.00  0.00     0.040 A 
ATOM     90  C   UNL A   1      36.093  20.787  25.000  1.00  0.00     0.079 A 
ATOM     91  F   UNL A   1      33.792  20.346  24.966  1.00  0.00    -0.206 F 
ATOM     92  C   UNL A   1      37.134  21.659  25.272  1.00  0.00     0.126 A 
ATOM     93  F   UNL A   1      38.397  21.264  25.062  1.00  0.00    -0.207 F 
ENDBRANCH  82  86
ENDBRANCH  77  80
ENDBRANCH  75  76
ENDBRANCH  74  75
ENDBRANCH  73  74
ENDBRANCH  72  73
ENDBRANCH   1  72
TORSDOF 17
ENDMDL
MODEL 3
REMARK VINA RESULT:     -11.9      1.790      2.345
REMARK SMILES O=C(NCCCCCCNC(=O)c1ccncc1-c1ccc(F)cc1F)c1ccc(-c2c3nc(c(-c4cc(S(=O)(=O)[O-])ccc4F)c4ccc([nH]4)c(-c4cc(S(=O)(=O)[O-])ccc4F)c4nc(c(-c5cc(S(=O)(=O)[O-])ccc5F)c5ccc2[nH]5)C=C4)C=C3)cc1
REMARK SMILES IDX 5 1 4 2 3 3 1 4 2 5 27 7 28 8 89 9 29 10 88 11 30 12 31 13
REMARK SMILES IDX 32 14 82 15 33 16 87 17 81 18 83 19 34 20 86 21 80 22 79 23
REMARK SMILES IDX 35 25 67 26 47 27 66 28 48 29 51 30 65 31 84 32 49 33 50 34
REMARK SMILES IDX 64 36 85 37 52 38 36 39 37 40 45 41 38 42 44 43 46 44 43 45
REMARK SMILES IDX 39 46 40 47 41 48 42 49 68 50 69 51 77 52 70 53 76 54 78 55
REMARK SMILES IDX 75 56 71 57 72 58 73 59 74 60 53 61 54 62 62 63 55 64 61 65
REMARK SMILES IDX 63 66 60 67 56 68 57 69 58 70 59 71 6 72 7 73 8 74 9 75
REMARK SMILES IDX 10 76 11 77 12 79 13 80 14 81 18 82 15 83 17 84 16 85 19 86
REMARK SMILES IDX 20 87 25 88 21 89 24 90 26 91 22 92 23 93
REMARK H PARENT 3 6 83 24 51 35 10 78
REMARK Flexibility Score: inf
ROOT
ATOM      1  C   UNL A   1      35.148  21.707  25.552  1.00  0.00     0.021 C 
ENDROOT
BRANCH   1   2
ATOM      2  C   UNL A   1      36.552  21.991  25.032  1.00  0.00     0.116 C 
BRANCH   2   3
ATOM      3  N   UNL A   1      37.464  20.870  25.193  1.00  0.00    -0.352 N 
ATOM      4  O   UNL A   1      39.403  19.819  25.667  1.00  0.00    -0.269 OA
ATOM      5  C   UNL A   1      38.737  20.851  25.715  1.00  0.00     0.251 C 
ATOM      6  H   UNL A   1      37.121  20.000  24.884  1.00  0.00     0.163 HD
BRANCH   5   7
ATOM      7  C   UNL A   1      39.317  22.082  26.302  1.00  0.00     0.039 A 
ATOM      8  C   UNL A   1      38.710  23.324  26.113  1.00  0.00     0.014 A 
ATOM      9  C   UNL A   1      40.500  21.990  27.044  1.00  0.00     0.014 A 
ATOM     10  C   UNL A   1      39.364  24.483  26.518  1.00  0.00     0.010 A 
ATOM     11  C   UNL A   1      41.114  23.152  27.524  1.00  0.00     0.010 A 
ATOM     12  C   UNL A   1      40.577  24.414  27.226  1.00  0.00    -0.014 A 
BRANCH  12  13
ATOM     13  C   UNL A   1      41.252  25.675  27.640  1.00  0.00     0.031 A 
ATOM     14  C   UNL A   1      42.659  25.981  27.200  1.00  0.00     0.074 A 
ATOM     15  C   UNL A   1      40.569  26.570  28.380  1.00  0.00     0.049 A 
ATOM     16  N   UNL A   1      43.382  27.050  27.424  1.00  0.00    -0.248 NA
ATOM     17  C   UNL A   1      43.350  24.948  26.416  1.00  0.00     0.031 C 
ATOM     18  C   UNL A   1      39.203  26.381  28.877  1.00  0.00     0.029 A 
ATOM     19  N   UNL A   1      40.911  27.821  28.822  1.00  0.00    -0.354 N 
ATOM     20  C   UNL A   1      44.617  26.813  26.830  1.00  0.00     0.074 A 
ATOM     21  C   UNL A   1      44.555  25.480  26.265  1.00  0.00     0.031 C 
ATOM     22  C   UNL A   1      38.807  27.497  29.506  1.00  0.00     0.029 A 
ATOM     23  C   UNL A   1      39.905  28.457  29.510  1.00  0.00     0.049 A 
ATOM     24  H   UNL A   1      41.794  28.227  28.661  1.00  0.00     0.167 HD
ATOM     25  C   UNL A   1      45.698  27.631  26.754  1.00  0.00     0.034 A 
ATOM     26  C   UNL A   1      39.868  29.674  30.087  1.00  0.00     0.034 A 
ATOM     27  C   UNL A   1      45.741  28.963  27.311  1.00  0.00     0.049 A 
ATOM     28  C   UNL A   1      41.081  30.560  29.996  1.00  0.00     0.074 A 
ATOM     29  C   UNL A   1      46.772  29.887  27.262  1.00  0.00     0.029 A 
ATOM     30  N   UNL A   1      44.712  29.562  28.028  1.00  0.00    -0.354 N 
ATOM     31  N   UNL A   1      42.232  30.326  29.409  1.00  0.00    -0.248 NA
ATOM     32  C   UNL A   1      40.984  31.876  30.637  1.00  0.00     0.031 C 
ATOM     33  C   UNL A   1      46.389  31.017  27.996  1.00  0.00     0.029 A 
ATOM     34  C   UNL A   1      45.092  30.829  28.444  1.00  0.00     0.049 A 
ATOM     35  H   UNL A   1      43.838  29.146  28.212  1.00  0.00     0.167 HD
ATOM     36  C   UNL A   1      42.989  31.479  29.591  1.00  0.00     0.074 A 
ATOM     37  C   UNL A   1      42.155  32.411  30.324  1.00  0.00     0.031 C 
ATOM     38  C   UNL A   1      44.258  31.744  29.187  1.00  0.00     0.034 A 
BRANCH  25  39
ATOM     39  C   UNL A   1      46.937  27.086  26.081  1.00  0.00     0.023 A 
ATOM     40  C   UNL A   1      47.932  26.399  26.800  1.00  0.00     0.031 A 
ATOM     41  C   UNL A   1      47.138  27.278  24.703  1.00  0.00     0.131 A 
ATOM     42  C   UNL A   1      49.112  25.996  26.154  1.00  0.00     0.055 A 
ATOM     43  C   UNL A   1      48.279  26.806  24.050  1.00  0.00     0.041 A 
ATOM     44  F   UNL A   1      46.232  27.942  23.967  1.00  0.00    -0.206 F 
ATOM     45  C   UNL A   1      49.282  26.174  24.778  1.00  0.00     0.022 A 
BRANCH  42  46
ATOM     46  S   UNL A   1      50.481  25.365  27.163  1.00  0.00     0.124 S 
ATOM     47  O   UNL A   1      50.845  26.547  27.942  1.00  0.00    -0.237 OA
ATOM     48  O   UNL A   1      49.851  24.281  27.908  1.00  0.00    -0.237 OA
ATOM     49  O   UNL A   1      51.474  24.951  26.175  1.00  0.00    -0.744 OA
ENDBRANCH  42  46
ENDBRANCH  25  39
BRANCH  26  50
ATOM     50  C   UNL A   1      38.646  30.124  30.810  1.00  0.00     0.023 A 
ATOM     51  C   UNL A   1      37.653  30.874  30.159  1.00  0.00     0.031 A 
ATOM     52  C   UNL A   1      38.464  29.829  32.172  1.00  0.00     0.131 A 
ATOM     53  C   UNL A   1      36.542  31.337  30.880  1.00  0.00     0.055 A 
ATOM     54  C   UNL A   1      37.334  30.249  32.873  1.00  0.00     0.041 A 
ATOM     55  F   UNL A   1      39.380  29.108  32.839  1.00  0.00    -0.206 F 
ATOM     56  C   UNL A   1      36.370  31.018  32.230  1.00  0.00     0.022 A 
BRANCH  53  57
ATOM     57  S   UNL A   1      35.357  32.424  30.044  1.00  0.00     0.124 S 
ATOM     58  O   UNL A   1      34.395  32.691  31.108  1.00  0.00    -0.237 OA
ATOM     59  O   UNL A   1      36.203  33.545  29.648  1.00  0.00    -0.237 OA
ATOM     60  O   UNL A   1      34.860  31.603  28.943  1.00  0.00    -0.744 OA
ENDBRANCH  53  57
ENDBRANCH  26  50
BRANCH  38  61
ATOM     61  C   UNL A   1      44.792  33.121  29.495  1.00  0.00     0.023 A 
ATOM     62  C   UNL A   1      44.558  34.214  28.641  1.00  0.00     0.031 A 
ATOM     63  C   UNL A   1      45.578  33.333  30.642  1.00  0.00     0.131 A 
ATOM     64  C   UNL A   1      45.161  35.453  28.911  1.00  0.00     0.055 A 
ATOM     65  C   UNL A   1      46.125  34.582  30.936  1.00  0.00     0.041 A 
ATOM     66  F   UNL A   1      45.833  32.324  31.490  1.00  0.00    -0.206 F 
ATOM     67  C   UNL A   1      45.931  35.647  30.060  1.00  0.00     0.022 A 
BRANCH  64  68
ATOM     68  S   UNL A   1      45.012  36.779  27.683  1.00  0.00     0.124 S 
ATOM     69  O   UNL A   1      44.566  37.903  28.500  1.00  0.00    -0.237 OA
ATOM     70  O   UNL A   1      46.371  36.872  27.159  1.00  0.00    -0.237 OA
ATOM     71  O   UNL A   1      44.020  36.265  26.740  1.00  0.00    -0.744 OA
ENDBRANCH  64  68
ENDBRANCH  38  61
ENDBRANCH  12  13
ENDBRANCH   5   7
ENDBRANCH   2   3
ENDBRANCH   1   2
BRANCH   1  72
ATOM     72  C   UNL A   1      34.443  22.877  26.239  1.00  0.00     0.002 C 
BRANCH  72  73
ATOM     73  C   UNL A   1      33.317  22.510  27.210  1.00  0.00     0.002 C 
BRANCH  73  74
ATOM     74  C   UNL A   1      32.086  23.421  27.200  1.00  0.00     0.021 C 
BRANCH  74  75
ATOM     75  C   UNL A   1      30.940  22.984  26.289  1.00  0.00     0.116 C 
BRANCH  75  76
ATOM     76  N   UNL A   1      30.338  24.100  25.578  1.00  0.00    -0.352 N 
ATOM     77  C   UNL A   1      30.767  24.754  24.450  1.00  0.00     0.252 C 
ATOM     78  H   UNL A   1      29.497  24.437  25.963  1.00  0.00     0.163 HD
ATOM     79  O   UNL A   1      30.140  25.717  24.018  1.00  0.00    -0.269 OA
BRANCH  77  80
ATOM     80  C   UNL A   1      31.986  24.293  23.750  1.00  0.00     0.050 A 
ATOM     81  C   UNL A   1      31.915  23.094  23.029  1.00  0.00     0.034 A 
ATOM     82  C   UNL A   1      33.156  25.069  23.745  1.00  0.00     0.016 A 
ATOM     83  C   UNL A   1      33.046  22.665  22.366  1.00  0.00     0.112 A 
ATOM     84  C   UNL A   1      34.226  24.530  23.030  1.00  0.00     0.120 A 
ATOM     85  N   UNL A   1      34.204  23.352  22.359  1.00  0.00    -0.264 NA
BRANCH  82  86
ATOM     86  C   UNL A   1      33.297  26.371  24.416  1.00  0.00     0.020 A 
ATOM     87  C   UNL A   1      33.624  26.466  25.780  1.00  0.00     0.015 A 
ATOM     88  C   UNL A   1      33.116  27.570  23.701  1.00  0.00     0.134 A 
ATOM     89  C   UNL A   1      33.752  27.716  26.396  1.00  0.00     0.040 A 
ATOM     90  C   UNL A   1      33.243  28.816  24.307  1.00  0.00     0.079 A 
ATOM     91  F   UNL A   1      32.819  27.532  22.393  1.00  0.00    -0.206 F 
ATOM     92  C   UNL A   1      33.560  28.876  25.654  1.00  0.00     0.126 A 
ATOM     93  F   UNL A   1      33.687  30.070  26.249  1.00  0.00    -0.207 F 
ENDBRANCH  82  86
ENDBRANCH  77  80
ENDBRANCH  75  76
ENDBRANCH  74  75
ENDBRANCH  73  74
ENDBRANCH  72  73
ENDBRANCH   1  72
TORSDOF 17
ENDMDL
