MODEL 1
REMARK VINA RESULT:     -12.5      0.000      0.000
REMARK SMILES Cc1c(Cl)cc2c(c1C)O[C@H](C(F)(F)F)C(C(=O)NCCCCCCNC(=O)c1ccc(-c3c4nc(c(-c5cc(S(=O)(=O)[O-])ccc5F)c5ccc([nH]5)c(-c5cc(S(=O)(=O)[O-])ccc5F)c5nc(c(-c6cc(S(=O)(=O)[O-])ccc6F)c6ccc3[nH]6)C=C5)C=C4)cc1)=C2
REMARK SMILES IDX 23 1 22 2 21 3 20 4 19 5 17 6 18 7 16 9 1 10 2 11 3 12 8 13
REMARK SMILES IDX 4 14 5 15 7 16 9 17 6 18 10 19 92 20 11 21 12 22 13 23 14 24
REMARK SMILES IDX 15 25 24 26 25 27 26 28 27 29 28 31 29 32 30 33 91 34 31 35
REMARK SMILES IDX 90 36 32 37 33 38 34 39 84 40 35 41 89 42 83 43 85 44 36 45
REMARK SMILES IDX 88 46 82 47 81 48 37 50 69 51 49 52 68 53 50 54 53 55 67 56
REMARK SMILES IDX 86 57 51 58 52 59 66 61 87 62 54 63 38 64 39 65 47 66 40 67
REMARK SMILES IDX 46 68 48 69 45 70 41 71 42 72 43 73 44 74 70 75 71 76 79 77
REMARK SMILES IDX 72 78 78 79 80 80 77 81 73 82 74 83 75 84 76 85 55 86 56 87
REMARK SMILES IDX 64 88 57 89 63 90 65 91 62 92 58 93 59 94 60 95 61 96
REMARK H PARENT 19 8 26 30 85 49 53 60
REMARK Flexibility Score: inf
ROOT
ATOM      1  C   UNL A   1      31.753  30.532  26.100  1.00  0.00     0.002 C 
ENDROOT
BRANCH   1   2
ATOM      2  C   UNL A   1      32.221  29.492  27.126  1.00  0.00     0.002 C 
BRANCH   2   3
ATOM      3  C   UNL A   1      33.390  28.616  26.669  1.00  0.00     0.021 C 
BRANCH   3   4
ATOM      4  C   UNL A   1      33.000  27.597  25.605  1.00  0.00     0.116 C 
BRANCH   4   5
ATOM      5  N   UNL A   1      31.819  26.844  25.987  1.00  0.00    -0.352 N 
ATOM      6  C   UNL A   1      31.465  25.541  26.095  1.00  0.00     0.251 C 
ATOM      7  O   UNL A   1      30.317  25.334  26.501  1.00  0.00    -0.270 OA
ATOM      8  H   UNL A   1      31.076  27.440  26.234  1.00  0.00     0.163 HD
BRANCH   6   9
ATOM      9  C   UNL A   1      32.347  24.383  25.761  1.00  0.00     0.067 C 
ATOM     10  C   UNL A   1      37.195  20.057  25.001  1.00  0.00     0.046 C 
ATOM     11  C   UNL A   1      36.292  21.234  25.263  1.00  0.00    -0.026 A 
ATOM     12  C   UNL A   1      36.795  22.487  25.671  1.00  0.00     0.045 A 
ATOM     13  C   UNL A   1      34.897  21.097  25.081  1.00  0.00    -0.004 A 
ATOM     14  Cl  UNL A   1      38.488  22.777  25.889  1.00  0.00    -0.084 Cl
ATOM     15  C   UNL A   1      35.940  23.568  25.924  1.00  0.00     0.032 A 
ATOM     16  C   UNL A   1      34.059  22.198  25.342  1.00  0.00     0.131 A 
ATOM     17  C   UNL A   1      34.245  19.814  24.620  1.00  0.00     0.049 C 
ATOM     18  C   UNL A   1      34.564  23.425  25.767  1.00  0.00     0.019 A 
ATOM     19  O   UNL A   1      32.719  21.979  25.207  1.00  0.00    -0.475 OA
ATOM     20  C   UNL A   1      33.648  24.517  26.076  1.00  0.00     0.025 C 
ATOM     21  C   UNL A   1      31.861  23.136  25.080  1.00  0.00     0.314 C 
BRANCH  21  22
ATOM     22  C   UNL A   1      31.533  23.359  23.593  1.00  0.00     0.429 C 
ATOM     23  F   UNL A   1      32.395  24.250  23.045  1.00  0.00    -0.167 F 
ATOM     24  F   UNL A   1      31.635  22.226  22.859  1.00  0.00    -0.167 F 
ATOM     25  F   UNL A   1      30.281  23.835  23.407  1.00  0.00    -0.167 F 
ENDBRANCH  21  22
ENDBRANCH   6   9
ENDBRANCH   4   5
ENDBRANCH   3   4
ENDBRANCH   2   3
ENDBRANCH   1   2
BRANCH   1  26
ATOM     26  C   UNL A   1      31.554  31.947  26.651  1.00  0.00     0.021 C 
BRANCH  26  27
ATOM     27  C   UNL A   1      32.800  32.556  27.282  1.00  0.00     0.116 C 
BRANCH  27  28
ATOM     28  N   UNL A   1      32.600  33.956  27.617  1.00  0.00    -0.352 N 
ATOM     29  C   UNL A   1      33.142  34.686  28.642  1.00  0.00     0.251 C 
ATOM     30  H   UNL A   1      31.987  34.449  27.025  1.00  0.00     0.163 HD
ATOM     31  O   UNL A   1      32.671  35.783  28.928  1.00  0.00    -0.269 OA
BRANCH  29  32
ATOM     32  C   UNL A   1      34.282  34.136  29.402  1.00  0.00     0.039 A 
ATOM     33  C   UNL A   1      34.031  33.330  30.514  1.00  0.00     0.014 A 
ATOM     34  C   UNL A   1      35.597  34.423  29.017  1.00  0.00     0.014 A 
ATOM     35  C   UNL A   1      35.102  32.772  31.213  1.00  0.00     0.010 A 
ATOM     36  C   UNL A   1      36.659  33.809  29.671  1.00  0.00     0.010 A 
ATOM     37  C   UNL A   1      36.422  32.985  30.781  1.00  0.00    -0.014 A 
BRANCH  37  38
ATOM     38  C   UNL A   1      37.568  32.379  31.504  1.00  0.00     0.031 A 
ATOM     39  C   UNL A   1      38.336  31.251  30.873  1.00  0.00     0.074 A 
ATOM     40  C   UNL A   1      37.900  32.831  32.729  1.00  0.00     0.049 A 
ATOM     41  N   UNL A   1      39.333  30.560  31.360  1.00  0.00    -0.248 NA
ATOM     42  C   UNL A   1      37.915  30.830  29.526  1.00  0.00     0.031 C 
ATOM     43  C   UNL A   1      37.216  33.912  33.445  1.00  0.00     0.029 A 
ATOM     44  N   UNL A   1      38.898  32.447  33.588  1.00  0.00    -0.354 N 
ATOM     45  C   UNL A   1      39.662  29.629  30.381  1.00  0.00     0.074 A 
ATOM     46  C   UNL A   1      38.717  29.799  29.300  1.00  0.00     0.031 C 
ATOM     47  C   UNL A   1      37.842  34.131  34.612  1.00  0.00     0.029 A 
ATOM     48  C   UNL A   1      38.939  33.178  34.753  1.00  0.00     0.049 A 
ATOM     49  H   UNL A   1      39.528  31.716  33.389  1.00  0.00     0.167 HD
ATOM     50  C   UNL A   1      40.679  28.735  30.374  1.00  0.00     0.034 A 
ATOM     51  C   UNL A   1      39.765  33.088  35.815  1.00  0.00     0.034 A 
ATOM     52  C   UNL A   1      41.626  28.589  31.447  1.00  0.00     0.049 A 
ATOM     53  C   UNL A   1      40.853  32.046  35.804  1.00  0.00     0.074 A 
ATOM     54  C   UNL A   1      42.711  27.734  31.523  1.00  0.00     0.029 A 
ATOM     55  N   UNL A   1      41.606  29.316  32.629  1.00  0.00    -0.354 N 
ATOM     56  N   UNL A   1      41.151  31.177  34.866  1.00  0.00    -0.248 NA
ATOM     57  C   UNL A   1      41.713  31.969  36.992  1.00  0.00     0.031 C 
ATOM     58  C   UNL A   1      43.310  27.899  32.775  1.00  0.00     0.029 A 
ATOM     59  C   UNL A   1      42.642  28.907  33.453  1.00  0.00     0.049 A 
ATOM     60  H   UNL A   1      40.952  30.017  32.850  1.00  0.00     0.167 HD
ATOM     61  C   UNL A   1      42.249  30.467  35.344  1.00  0.00     0.074 A 
ATOM     62  C   UNL A   1      42.564  31.013  36.648  1.00  0.00     0.031 C 
ATOM     63  C   UNL A   1      42.934  29.455  34.754  1.00  0.00     0.034 A 
BRANCH  50  64
ATOM     64  C   UNL A   1      40.821  27.845  29.167  1.00  0.00     0.023 A 
ATOM     65  C   UNL A   1      41.824  28.068  28.209  1.00  0.00     0.031 A 
ATOM     66  C   UNL A   1      39.967  26.742  28.992  1.00  0.00     0.131 A 
ATOM     67  C   UNL A   1      41.927  27.220  27.096  1.00  0.00     0.055 A 
ATOM     68  C   UNL A   1      40.115  25.865  27.915  1.00  0.00     0.041 A 
ATOM     69  F   UNL A   1      38.981  26.496  29.867  1.00  0.00    -0.206 F 
ATOM     70  C   UNL A   1      41.097  26.105  26.958  1.00  0.00     0.022 A 
BRANCH  67  71
ATOM     71  S   UNL A   1      43.119  27.634  25.797  1.00  0.00     0.124 S 
ATOM     72  O   UNL A   1      43.761  28.821  26.354  1.00  0.00    -0.237 OA
ATOM     73  O   UNL A   1      43.946  26.434  25.728  1.00  0.00    -0.237 OA
ATOM     74  O   UNL A   1      42.279  27.877  24.626  1.00  0.00    -0.744 OA
ENDBRANCH  67  71
ENDBRANCH  50  64
BRANCH  51  75
ATOM     75  C   UNL A   1      39.596  34.005  36.976  1.00  0.00     0.023 A 
ATOM     76  C   UNL A   1      39.083  33.536  38.196  1.00  0.00     0.031 A 
ATOM     77  C   UNL A   1      39.935  35.366  36.881  1.00  0.00     0.131 A 
ATOM     78  C   UNL A   1      38.897  34.427  39.264  1.00  0.00     0.055 A 
ATOM     79  C   UNL A   1      39.789  36.240  37.961  1.00  0.00     0.041 A 
ATOM     80  F   UNL A   1      40.436  35.863  35.739  1.00  0.00    -0.206 F 
ATOM     81  C   UNL A   1      39.260  35.772  39.159  1.00  0.00     0.022 A 
BRANCH  78  82
ATOM     82  S   UNL A   1      38.132  33.810  40.788  1.00  0.00     0.124 S 
ATOM     83  O   UNL A   1      38.089  35.017  41.607  1.00  0.00    -0.237 OA
ATOM     84  O   UNL A   1      36.848  33.314  40.306  1.00  0.00    -0.237 OA
ATOM     85  O   UNL A   1      39.062  32.780  41.243  1.00  0.00    -0.744 OA
ENDBRANCH  78  82
ENDBRANCH  51  75
BRANCH  63  86
ATOM     86  C   UNL A   1      44.108  28.883  35.502  1.00  0.00     0.023 A 
ATOM     87  C   UNL A   1      43.952  27.817  36.403  1.00  0.00     0.031 A 
ATOM     88  C   UNL A   1      45.405  29.373  35.268  1.00  0.00     0.131 A 
ATOM     89  C   UNL A   1      45.074  27.291  37.060  1.00  0.00     0.055 A 
ATOM     90  C   UNL A   1      46.523  28.813  35.888  1.00  0.00     0.041 A 
ATOM     91  F   UNL A   1      45.607  30.388  34.412  1.00  0.00    -0.206 F 
ATOM     92  C   UNL A   1      46.360  27.769  36.793  1.00  0.00     0.022 A 
BRANCH  89  93
ATOM     93  S   UNL A   1      44.825  25.990  38.298  1.00  0.00     0.124 S 
ATOM     94  O   UNL A   1      44.030  26.682  39.308  1.00  0.00    -0.237 OA
ATOM     95  O   UNL A   1      44.130  24.957  37.537  1.00  0.00    -0.237 OA
ATOM     96  O   UNL A   1      46.185  25.644  38.709  1.00  0.00    -0.744 OA
ENDBRANCH  89  93
ENDBRANCH  63  86
ENDBRANCH  37  38
ENDBRANCH  29  32
ENDBRANCH  27  28
ENDBRANCH  26  27
ENDBRANCH   1  26
TORSDOF 17
ENDMDL
MODEL 2
REMARK VINA RESULT:     -12.5      5.214      8.581
REMARK SMILES Cc1c(Cl)cc2c(c1C)O[C@H](C(F)(F)F)C(C(=O)NCCCCCCNC(=O)c1ccc(-c3c4nc(c(-c5cc(S(=O)(=O)[O-])ccc5F)c5ccc([nH]5)c(-c5cc(S(=O)(=O)[O-])ccc5F)c5nc(c(-c6cc(S(=O)(=O)[O-])ccc6F)c6ccc3[nH]6)C=C5)C=C4)cc1)=C2
REMARK SMILES IDX 23 1 22 2 21 3 20 4 19 5 17 6 18 7 16 9 1 10 2 11 3 12 8 13
REMARK SMILES IDX 4 14 5 15 7 16 9 17 6 18 10 19 92 20 11 21 12 22 13 23 14 24
REMARK SMILES IDX 15 25 24 26 25 27 26 28 27 29 28 31 29 32 30 33 91 34 31 35
REMARK SMILES IDX 90 36 32 37 33 38 34 39 84 40 35 41 89 42 83 43 85 44 36 45
REMARK SMILES IDX 88 46 82 47 81 48 37 50 69 51 49 52 68 53 50 54 53 55 67 56
REMARK SMILES IDX 86 57 51 58 52 59 66 61 87 62 54 63 38 64 39 65 47 66 40 67
REMARK SMILES IDX 46 68 48 69 45 70 41 71 42 72 43 73 44 74 70 75 71 76 79 77
REMARK SMILES IDX 72 78 78 79 80 80 77 81 73 82 74 83 75 84 76 85 55 86 56 87
REMARK SMILES IDX 64 88 57 89 63 90 65 91 62 92 58 93 59 94 60 95 61 96
REMARK H PARENT 19 8 26 30 85 49 53 60
REMARK Flexibility Score: inf
ROOT
ATOM      1  C   UNL A   1      35.184  21.528  26.174  1.00  0.00     0.002 C 
ENDROOT
BRANCH   1   2
ATOM      2  C   UNL A   1      34.567  20.907  24.913  1.00  0.00     0.002 C 
BRANCH   2   3
ATOM      3  C   UNL A   1      33.051  20.706  24.970  1.00  0.00     0.021 C 
BRANCH   3   4
ATOM      4  C   UNL A   1      32.267  21.847  24.334  1.00  0.00     0.116 C 
BRANCH   4   5
ATOM      5  N   UNL A   1      32.941  22.376  23.160  1.00  0.00    -0.352 N 
ATOM      6  C   UNL A   1      33.204  23.595  22.634  1.00  0.00     0.251 C 
ATOM      7  O   UNL A   1      33.860  23.591  21.586  1.00  0.00    -0.270 OA
ATOM      8  H   UNL A   1      33.305  21.655  22.598  1.00  0.00     0.163 HD
BRANCH   6   9
ATOM      9  C   UNL A   1      32.762  24.896  23.218  1.00  0.00     0.067 C 
ATOM     10  C   UNL A   1      32.126  30.599  26.360  1.00  0.00     0.046 C 
ATOM     11  C   UNL A   1      32.511  29.253  25.803  1.00  0.00    -0.026 A 
ATOM     12  C   UNL A   1      33.617  28.529  26.295  1.00  0.00     0.045 A 
ATOM     13  C   UNL A   1      31.739  28.680  24.768  1.00  0.00    -0.004 A 
ATOM     14  Cl  UNL A   1      34.610  29.119  27.585  1.00  0.00    -0.084 Cl
ATOM     15  C   UNL A   1      33.970  27.285  25.756  1.00  0.00     0.032 A 
ATOM     16  C   UNL A   1      32.114  27.429  24.243  1.00  0.00     0.131 A 
ATOM     17  C   UNL A   1      30.517  29.348  24.181  1.00  0.00     0.049 C 
ATOM     18  C   UNL A   1      33.223  26.731  24.721  1.00  0.00     0.019 A 
ATOM     19  O   UNL A   1      31.364  26.962  23.204  1.00  0.00    -0.475 OA
ATOM     20  C   UNL A   1      33.600  25.464  24.105  1.00  0.00     0.025 C 
ATOM     21  C   UNL A   1      31.451  25.553  22.894  1.00  0.00     0.314 C 
BRANCH  21  22
ATOM     22  C   UNL A   1      30.249  24.824  23.521  1.00  0.00     0.429 C 
ATOM     23  F   UNL A   1      30.511  24.498  24.811  1.00  0.00    -0.167 F 
ATOM     24  F   UNL A   1      29.128  25.581  23.536  1.00  0.00    -0.167 F 
ATOM     25  F   UNL A   1      29.941  23.680  22.866  1.00  0.00    -0.167 F 
ENDBRANCH  21  22
ENDBRANCH   6   9
ENDBRANCH   4   5
ENDBRANCH   3   4
ENDBRANCH   2   3
ENDBRANCH   1   2
BRANCH   1  26
ATOM     26  C   UNL A   1      35.223  23.059  26.193  1.00  0.00     0.021 C 
BRANCH  26  27
ATOM     27  C   UNL A   1      36.612  23.654  25.999  1.00  0.00     0.116 C 
BRANCH  27  28
ATOM     28  N   UNL A   1      37.646  22.639  26.099  1.00  0.00    -0.352 N 
ATOM     29  C   UNL A   1      38.983  22.789  26.359  1.00  0.00     0.251 C 
ATOM     30  H   UNL A   1      37.345  21.712  25.958  1.00  0.00     0.163 HD
ATOM     31  O   UNL A   1      39.755  21.856  26.157  1.00  0.00    -0.269 OA
BRANCH  29  32
ATOM     32  C   UNL A   1      39.484  24.082  26.870  1.00  0.00     0.039 A 
ATOM     33  C   UNL A   1      40.027  25.001  25.972  1.00  0.00     0.014 A 
ATOM     34  C   UNL A   1      39.420  24.377  28.236  1.00  0.00     0.014 A 
ATOM     35  C   UNL A   1      40.464  26.242  26.439  1.00  0.00     0.010 A 
ATOM     36  C   UNL A   1      39.789  25.639  28.688  1.00  0.00     0.010 A 
ATOM     37  C   UNL A   1      40.323  26.580  27.796  1.00  0.00    -0.014 A 
BRANCH  37  38
ATOM     38  C   UNL A   1      40.765  27.904  28.301  1.00  0.00     0.031 A 
ATOM     39  C   UNL A   1      42.224  28.263  28.276  1.00  0.00     0.074 A 
ATOM     40  C   UNL A   1      39.857  28.766  28.796  1.00  0.00     0.049 A 
ATOM     41  N   UNL A   1      42.814  29.345  28.713  1.00  0.00    -0.248 NA
ATOM     42  C   UNL A   1      43.147  27.268  27.703  1.00  0.00     0.031 C 
ATOM     43  C   UNL A   1      38.415  28.518  28.883  1.00  0.00     0.029 A 
ATOM     44  N   UNL A   1      40.006  30.028  29.313  1.00  0.00    -0.354 N 
ATOM     45  C   UNL A   1      44.170  29.165  28.465  1.00  0.00     0.074 A 
ATOM     46  C   UNL A   1      44.324  27.843  27.899  1.00  0.00     0.031 C 
ATOM     47  C   UNL A   1      37.810  29.609  29.380  1.00  0.00     0.029 A 
ATOM     48  C   UNL A   1      38.820  30.616  29.693  1.00  0.00     0.049 A 
ATOM     49  H   UNL A   1      40.879  30.473  29.404  1.00  0.00     0.167 HD
ATOM     50  C   UNL A   1      45.187  30.035  28.662  1.00  0.00     0.034 A 
ATOM     51  C   UNL A   1      38.577  31.825  30.236  1.00  0.00     0.034 A 
ATOM     52  C   UNL A   1      45.018  31.356  29.206  1.00  0.00     0.049 A 
ATOM     53  C   UNL A   1      39.735  32.752  30.497  1.00  0.00     0.074 A 
ATOM     54  C   UNL A   1      45.982  32.327  29.418  1.00  0.00     0.029 A 
ATOM     55  N   UNL A   1      43.810  31.896  29.622  1.00  0.00    -0.354 N 
ATOM     56  N   UNL A   1      41.011  32.564  30.251  1.00  0.00    -0.248 NA
ATOM     57  C   UNL A   1      39.425  34.050  31.111  1.00  0.00     0.031 C 
ATOM     58  C   UNL A   1      45.367  33.428  30.018  1.00  0.00     0.029 A 
ATOM     59  C   UNL A   1      44.008  33.175  30.117  1.00  0.00     0.049 A 
ATOM     60  H   UNL A   1      42.940  31.438  29.572  1.00  0.00     0.167 HD
ATOM     61  C   UNL A   1      41.651  33.731  30.660  1.00  0.00     0.074 A 
ATOM     62  C   UNL A   1      40.621  34.619  31.160  1.00  0.00     0.031 C 
ATOM     63  C   UNL A   1      42.971  34.040  30.621  1.00  0.00     0.034 A 
BRANCH  50  64
ATOM     64  C   UNL A   1      46.576  29.587  28.287  1.00  0.00     0.023 A 
ATOM     65  C   UNL A   1      47.404  28.927  29.211  1.00  0.00     0.031 A 
ATOM     66  C   UNL A   1      47.062  29.790  26.984  1.00  0.00     0.131 A 
ATOM     67  C   UNL A   1      48.692  28.523  28.828  1.00  0.00     0.055 A 
ATOM     68  C   UNL A   1      48.321  29.330  26.592  1.00  0.00     0.041 A 
ATOM     69  F   UNL A   1      46.320  30.432  26.070  1.00  0.00    -0.206 F 
ATOM     70  C   UNL A   1      49.145  28.697  27.518  1.00  0.00     0.022 A 
BRANCH  67  71
ATOM     71  S   UNL A   1      49.793  27.828  30.088  1.00  0.00     0.124 S 
ATOM     72  O   UNL A   1      50.345  26.671  29.389  1.00  0.00    -0.237 OA
ATOM     73  O   UNL A   1      50.721  28.925  30.340  1.00  0.00    -0.237 OA
ATOM     74  O   UNL A   1      48.891  27.511  31.193  1.00  0.00    -0.744 OA
ENDBRANCH  67  71
ENDBRANCH  50  64
BRANCH  51  75
ATOM     75  C   UNL A   1      37.183  32.230  30.571  1.00  0.00     0.023 A 
ATOM     76  C   UNL A   1      36.365  32.853  29.614  1.00  0.00     0.031 A 
ATOM     77  C   UNL A   1      36.652  32.011  31.854  1.00  0.00     0.131 A 
ATOM     78  C   UNL A   1      35.068  33.260  29.964  1.00  0.00     0.055 A 
ATOM     79  C   UNL A   1      35.345  32.378  32.183  1.00  0.00     0.041 A 
ATOM     80  F   UNL A   1      37.391  31.414  32.802  1.00  0.00    -0.206 F 
ATOM     81  C   UNL A   1      34.548  33.014  31.237  1.00  0.00     0.022 A 
BRANCH  78  82
ATOM     82  S   UNL A   1      34.078  34.157  28.738  1.00  0.00     0.124 S 
ATOM     83  O   UNL A   1      33.875  33.135  27.716  1.00  0.00    -0.237 OA
ATOM     84  O   UNL A   1      32.901  34.533  29.513  1.00  0.00    -0.237 OA
ATOM     85  O   UNL A   1      34.943  35.267  28.348  1.00  0.00    -0.744 OA
ENDBRANCH  78  82
ENDBRANCH  51  75
BRANCH  63  86
ATOM     86  C   UNL A   1      43.381  35.402  31.115  1.00  0.00     0.023 A 
ATOM     87  C   UNL A   1      43.513  36.489  30.235  1.00  0.00     0.031 A 
ATOM     88  C   UNL A   1      43.586  35.626  32.487  1.00  0.00     0.131 A 
ATOM     89  C   UNL A   1      43.867  37.750  30.736  1.00  0.00     0.055 A 
ATOM     90  C   UNL A   1      43.891  36.894  32.985  1.00  0.00     0.041 A 
ATOM     91  F   UNL A   1      43.467  34.620  33.369  1.00  0.00    -0.206 F 
ATOM     92  C   UNL A   1      44.037  37.963  32.106  1.00  0.00     0.022 A 
BRANCH  89  93
ATOM     93  S   UNL A   1      44.137  39.106  29.563  1.00  0.00     0.124 S 
ATOM     94  O   UNL A   1      44.137  40.271  30.442  1.00  0.00    -0.237 OA
ATOM     95  O   UNL A   1      45.423  38.757  28.967  1.00  0.00    -0.237 OA
ATOM     96  O   UNL A   1      42.992  39.010  28.659  1.00  0.00    -0.744 OA
ENDBRANCH  89  93
ENDBRANCH  63  86
ENDBRANCH  37  38
ENDBRANCH  29  32
ENDBRANCH  27  28
ENDBRANCH  26  27
ENDBRANCH   1  26
TORSDOF 17
ENDMDL
MODEL 3
REMARK VINA RESULT:     -12.3      5.647      8.629
REMARK SMILES Cc1c(Cl)cc2c(c1C)O[C@H](C(F)(F)F)C(C(=O)NCCCCCCNC(=O)c1ccc(-c3c4nc(c(-c5cc(S(=O)(=O)[O-])ccc5F)c5ccc([nH]5)c(-c5cc(S(=O)(=O)[O-])ccc5F)c5nc(c(-c6cc(S(=O)(=O)[O-])ccc6F)c6ccc3[nH]6)C=C5)C=C4)cc1)=C2
REMARK SMILES IDX 23 1 22 2 21 3 20 4 19 5 17 6 18 7 16 9 1 10 2 11 3 12 8 13
REMARK SMILES IDX 4 14 5 15 7 16 9 17 6 18 10 19 92 20 11 21 12 22 13 23 14 24
REMARK SMILES IDX 15 25 24 26 25 27 26 28 27 29 28 31 29 32 30 33 91 34 31 35
REMARK SMILES IDX 90 36 32 37 33 38 34 39 84 40 35 41 89 42 83 43 85 44 36 45
REMARK SMILES IDX 88 46 82 47 81 48 37 50 69 51 49 52 68 53 50 54 53 55 67 56
REMARK SMILES IDX 86 57 51 58 52 59 66 61 87 62 54 63 38 64 39 65 47 66 40 67
REMARK SMILES IDX 46 68 48 69 45 70 41 71 42 72 43 73 44 74 70 75 71 76 79 77
REMARK SMILES IDX 72 78 78 79 80 80 77 81 73 82 74 83 75 84 76 85 55 86 56 87
REMARK SMILES IDX 64 88 57 89 63 90 65 91 62 92 58 93 59 94 60 95 61 96
REMARK H PARENT 19 8 26 30 85 49 53 60
REMARK Flexibility Score: inf
ROOT
ATOM      1  C   UNL A   1      34.897  21.483  26.278  1.00  0.00     0.002 C 
ENDROOT
BRANCH   1   2
ATOM      2  C   UNL A   1      34.365  20.726  25.054  1.00  0.00     0.002 C 
BRANCH   2   3
ATOM      3  C   UNL A   1      32.840  20.672  24.943  1.00  0.00     0.021 C 
BRANCH   3   4
ATOM      4  C   UNL A   1      32.224  21.978  24.457  1.00  0.00     0.116 C 
BRANCH   4   5
ATOM      5  N   UNL A   1      32.892  22.481  23.269  1.00  0.00    -0.352 N 
ATOM      6  C   UNL A   1      33.173  23.688  22.726  1.00  0.00     0.251 C 
ATOM      7  O   UNL A   1      33.814  23.659  21.669  1.00  0.00    -0.270 OA
ATOM      8  H   UNL A   1      33.232  21.746  22.709  1.00  0.00     0.163 HD
BRANCH   6   9
ATOM      9  C   UNL A   1      32.767  25.004  23.303  1.00  0.00     0.067 C 
ATOM     10  C   UNL A   1      32.286  30.734  26.423  1.00  0.00     0.046 C 
ATOM     11  C   UNL A   1      32.632  29.375  25.873  1.00  0.00    -0.026 A 
ATOM     12  C   UNL A   1      33.711  28.617  26.377  1.00  0.00     0.045 A 
ATOM     13  C   UNL A   1      31.851  28.823  24.833  1.00  0.00    -0.004 A 
ATOM     14  Cl  UNL A   1      34.711  29.180  27.673  1.00  0.00    -0.084 Cl
ATOM     15  C   UNL A   1      34.029  27.361  25.844  1.00  0.00     0.032 A 
ATOM     16  C   UNL A   1      32.192  27.559  24.315  1.00  0.00     0.131 A 
ATOM     17  C   UNL A   1      30.656  29.527  24.233  1.00  0.00     0.049 C 
ATOM     18  C   UNL A   1      33.273  26.828  24.804  1.00  0.00     0.019 A 
ATOM     19  O   UNL A   1      31.436  27.113  23.270  1.00  0.00    -0.475 OA
ATOM     20  C   UNL A   1      33.616  25.548  24.195  1.00  0.00     0.025 C 
ATOM     21  C   UNL A   1      31.481  25.701  22.966  1.00  0.00     0.314 C 
BRANCH  21  22
ATOM     22  C   UNL A   1      30.252  25.012  23.584  1.00  0.00     0.429 C 
ATOM     23  F   UNL A   1      30.498  24.665  24.871  1.00  0.00    -0.167 F 
ATOM     24  F   UNL A   1      29.160  25.811  23.605  1.00  0.00    -0.167 F 
ATOM     25  F   UNL A   1      29.901  23.887  22.918  1.00  0.00    -0.167 F 
ENDBRANCH  21  22
ENDBRANCH   6   9
ENDBRANCH   4   5
ENDBRANCH   3   4
ENDBRANCH   2   3
ENDBRANCH   1   2
BRANCH   1  26
ATOM     26  C   UNL A   1      35.688  22.757  25.964  1.00  0.00     0.021 C 
BRANCH  26  27
ATOM     27  C   UNL A   1      36.894  22.539  25.057  1.00  0.00     0.116 C 
BRANCH  27  28
ATOM     28  N   UNL A   1      37.736  21.458  25.540  1.00  0.00    -0.352 N 
ATOM     29  C   UNL A   1      38.980  21.521  26.113  1.00  0.00     0.251 C 
ATOM     30  H   UNL A   1      37.361  20.552  25.442  1.00  0.00     0.163 HD
ATOM     31  O   UNL A   1      39.652  20.500  26.230  1.00  0.00    -0.269 OA
BRANCH  29  32
ATOM     32  C   UNL A   1      39.503  22.823  26.572  1.00  0.00     0.039 A 
ATOM     33  C   UNL A   1      40.425  22.852  27.620  1.00  0.00     0.014 A 
ATOM     34  C   UNL A   1      39.077  24.012  25.969  1.00  0.00     0.014 A 
ATOM     35  C   UNL A   1      40.957  24.074  28.033  1.00  0.00     0.010 A 
ATOM     36  C   UNL A   1      39.661  25.220  26.334  1.00  0.00     0.010 A 
ATOM     37  C   UNL A   1      40.600  25.264  27.375  1.00  0.00    -0.014 A 
BRANCH  37  38
ATOM     38  C   UNL A   1      41.175  26.567  27.791  1.00  0.00     0.031 A 
ATOM     39  C   UNL A   1      42.618  26.872  27.500  1.00  0.00     0.074 A 
ATOM     40  C   UNL A   1      40.406  27.459  28.445  1.00  0.00     0.049 A 
ATOM     41  N   UNL A   1      43.318  27.929  27.822  1.00  0.00    -0.248 NA
ATOM     42  C   UNL A   1      43.382  25.847  26.768  1.00  0.00     0.031 C 
ATOM     43  C   UNL A   1      38.996  27.263  28.794  1.00  0.00     0.029 A 
ATOM     44  N   UNL A   1      40.695  28.710  28.926  1.00  0.00    -0.354 N 
ATOM     45  C   UNL A   1      44.598  27.700  27.329  1.00  0.00     0.074 A 
ATOM     46  C   UNL A   1      44.596  26.377  26.745  1.00  0.00     0.031 C 
ATOM     47  C   UNL A   1      38.534  28.372  29.394  1.00  0.00     0.029 A 
ATOM     48  C   UNL A   1      39.621  29.338  29.517  1.00  0.00     0.049 A 
ATOM     49  H   UNL A   1      41.586  29.122  28.855  1.00  0.00     0.167 HD
ATOM     50  C   UNL A   1      45.666  28.531  27.337  1.00  0.00     0.034 A 
ATOM     51  C   UNL A   1      39.527  30.552  30.096  1.00  0.00     0.034 A 
ATOM     52  C   UNL A   1      45.650  29.853  27.904  1.00  0.00     0.049 A 
ATOM     53  C   UNL A   1      40.748  31.434  30.140  1.00  0.00     0.074 A 
ATOM     54  C   UNL A   1      46.671  30.786  27.935  1.00  0.00     0.029 A 
ATOM     55  N   UNL A   1      44.558  30.434  28.533  1.00  0.00    -0.354 N 
ATOM     56  N   UNL A   1      41.949  31.201  29.665  1.00  0.00    -0.248 NA
ATOM     57  C   UNL A   1      40.604  32.738  30.801  1.00  0.00     0.031 C 
ATOM     58  C   UNL A   1      46.219  31.906  28.638  1.00  0.00     0.029 A 
ATOM     59  C   UNL A   1      44.892  31.701  28.984  1.00  0.00     0.049 A 
ATOM     60  H   UNL A   1      43.678  30.009  28.644  1.00  0.00     0.167 HD
ATOM     61  C   UNL A   1      42.696  32.341  29.950  1.00  0.00     0.074 A 
ATOM     62  C   UNL A   1      41.809  33.262  30.630  1.00  0.00     0.031 C 
ATOM     63  C   UNL A   1      43.998  32.601  29.670  1.00  0.00     0.034 A 
BRANCH  50  64
ATOM     64  C   UNL A   1      46.945  28.034  26.715  1.00  0.00     0.023 A 
ATOM     65  C   UNL A   1      47.135  28.053  25.323  1.00  0.00     0.031 A 
ATOM     66  C   UNL A   1      47.997  27.571  27.524  1.00  0.00     0.131 A 
ATOM     67  C   UNL A   1      48.338  27.581  24.777  1.00  0.00     0.055 A 
ATOM     68  C   UNL A   1      49.216  27.162  26.977  1.00  0.00     0.041 A 
ATOM     69  F   UNL A   1      47.860  27.514  28.857  1.00  0.00    -0.206 F 
ATOM     70  C   UNL A   1      49.389  27.162  25.596  1.00  0.00     0.022 A 
BRANCH  67  71
ATOM     71  S   UNL A   1      48.485  27.462  22.975  1.00  0.00     0.124 S 
ATOM     72  O   UNL A   1      47.317  28.219  22.534  1.00  0.00    -0.237 OA
ATOM     73  O   UNL A   1      49.781  28.080  22.719  1.00  0.00    -0.237 OA
ATOM     74  O   UNL A   1      48.422  26.024  22.722  1.00  0.00    -0.744 OA
ENDBRANCH  67  71
ENDBRANCH  50  64
BRANCH  51  75
ATOM     75  C   UNL A   1      38.234  31.006  30.679  1.00  0.00     0.023 A 
ATOM     76  C   UNL A   1      37.337  31.781  29.927  1.00  0.00     0.031 A 
ATOM     77  C   UNL A   1      37.881  30.681  32.001  1.00  0.00     0.131 A 
ATOM     78  C   UNL A   1      36.142  32.228  30.511  1.00  0.00     0.055 A 
ATOM     79  C   UNL A   1      36.671  31.092  32.563  1.00  0.00     0.041 A 
ATOM     80  F   UNL A   1      38.702  29.937  32.760  1.00  0.00    -0.206 F 
ATOM     81  C   UNL A   1      35.797  31.878  31.819  1.00  0.00     0.022 A 
BRANCH  78  82
ATOM     82  S   UNL A   1      35.057  33.316  29.548  1.00  0.00     0.124 S 
ATOM     83  O   UNL A   1      35.977  33.838  28.543  1.00  0.00    -0.237 OA
ATOM     84  O   UNL A   1      34.041  32.386  29.068  1.00  0.00    -0.237 OA
ATOM     85  O   UNL A   1      34.590  34.289  30.532  1.00  0.00    -0.744 OA
ENDBRANCH  78  82
ENDBRANCH  51  75
BRANCH  63  86
ATOM     86  C   UNL A   1      44.541  33.943  30.081  1.00  0.00     0.023 A 
ATOM     87  C   UNL A   1      44.451  35.059  29.232  1.00  0.00     0.031 A 
ATOM     88  C   UNL A   1      45.105  34.119  31.357  1.00  0.00     0.131 A 
ATOM     89  C   UNL A   1      44.942  36.301  29.661  1.00  0.00     0.055 A 
ATOM     90  C   UNL A   1      45.548  35.368  31.796  1.00  0.00     0.041 A 
ATOM     91  F   UNL A   1      45.209  33.085  32.205  1.00  0.00    -0.206 F 
ATOM     92  C   UNL A   1      45.471  36.466  30.944  1.00  0.00     0.022 A 
BRANCH  89  93
ATOM     93  S   UNL A   1      44.911  37.694  28.502  1.00  0.00     0.124 S 
ATOM     94  O   UNL A   1      45.213  38.822  29.377  1.00  0.00    -0.237 OA
ATOM     95  O   UNL A   1      45.953  37.333  27.545  1.00  0.00    -0.237 OA
ATOM     96  O   UNL A   1      43.549  37.668  27.971  1.00  0.00    -0.744 OA
ENDBRANCH  89  93
ENDBRANCH  63  86
ENDBRANCH  37  38
ENDBRANCH  29  32
ENDBRANCH  27  28
ENDBRANCH  26  27
ENDBRANCH   1  26
TORSDOF 17
ENDMDL
