MODEL 1
REMARK VINA RESULT:     -11.3      0.000      0.000
REMARK SMILES O=C(Cc1ccccc1-c1ccn(C(F)F)c(=O)c1)NCCCCCCNC(=O)c1ccc(-c2c3nc(c(-c4cc(S(=O)(=O)[O-])ccc4F)c4ccc([nH]4)c(-c4cc(S(=O)(=O)[O-])ccc4F)c4nc(c(-c5cc(S(=O)(=O)[O-])ccc5F)c5ccc2[nH]5)C=C4)C=C3)cc1
REMARK SMILES IDX 23 1 22 2 21 3 20 4 1 5 2 6 3 8 4 9 5 10 9 11 6 12 8 13 7 14
REMARK SMILES IDX 10 15 11 16 19 17 12 18 17 19 13 20 18 21 14 22 15 23 16 24
REMARK SMILES IDX 24 25 25 26 26 27 27 28 28 29 29 31 30 32 31 33 92 34 32 35
REMARK SMILES IDX 91 36 33 37 34 38 35 39 85 40 36 41 90 42 84 43 86 44 37 45
REMARK SMILES IDX 89 46 83 47 82 48 38 50 70 51 50 52 69 53 51 54 54 55 68 56
REMARK SMILES IDX 87 57 52 58 53 59 67 61 88 62 55 63 39 64 40 65 48 66 41 67
REMARK SMILES IDX 47 68 49 69 46 70 42 71 43 72 44 73 45 74 71 75 72 76 80 77
REMARK SMILES IDX 73 78 79 79 81 80 78 81 74 82 75 83 76 84 77 85 56 86 57 87
REMARK SMILES IDX 65 88 58 89 64 90 66 91 63 92 59 93 60 94 61 95 62 96
REMARK H PARENT 20 7 27 30 86 49 54 60
REMARK Flexibility Score: inf
ROOT
ATOM      1  C   UNL A   1      32.686  25.750  26.132  1.00  0.00     0.002 C 
ENDROOT
BRANCH   1   2
ATOM      2  C   UNL A   1      31.280  26.014  25.582  1.00  0.00     0.021 C 
BRANCH   2   3
ATOM      3  C   UNL A   1      30.590  24.783  25.007  1.00  0.00     0.116 C 
BRANCH   3   4
ATOM      4  N   UNL A   1      31.516  23.876  24.358  1.00  0.00    -0.356 N 
ATOM      5  O   UNL A   1      31.321  22.200  25.907  1.00  0.00    -0.275 OA
ATOM      6  C   UNL A   1      31.749  22.601  24.826  1.00  0.00     0.224 C 
ATOM      7  H   UNL A   1      31.994  24.181  23.553  1.00  0.00     0.163 HD
BRANCH   6   8
ATOM      8  C   UNL A   1      32.623  21.720  23.948  1.00  0.00     0.136 C 
BRANCH   8   9
ATOM      9  C   UNL A   1      34.093  21.634  24.328  1.00  0.00    -0.031 A 
ATOM     10  C   UNL A   1      34.838  22.829  24.354  1.00  0.00     0.005 A 
ATOM     11  C   UNL A   1      34.731  20.424  24.691  1.00  0.00    -0.014 A 
ATOM     12  C   UNL A   1      36.184  22.828  24.715  1.00  0.00     0.000 A 
ATOM     13  C   UNL A   1      36.092  20.438  25.036  1.00  0.00     0.009 A 
ATOM     14  C   UNL A   1      36.813  21.633  25.050  1.00  0.00     0.001 A 
BRANCH  11  15
ATOM     15  C   UNL A   1      34.011  19.135  24.743  1.00  0.00    -0.011 A 
ATOM     16  C   UNL A   1      32.943  18.864  25.683  1.00  0.00     0.027 A 
ATOM     17  C   UNL A   1      34.407  18.155  23.913  1.00  0.00     0.080 A 
ATOM     18  C   UNL A   1      32.514  17.614  25.880  1.00  0.00     0.095 A 
ATOM     19  C   UNL A   1      33.838  16.782  24.029  1.00  0.00     0.255 A 
ATOM     20  N   UNL A   1      32.992  16.573  25.107  1.00  0.00    -0.258 N 
ATOM     21  O   UNL A   1      34.178  15.937  23.207  1.00  0.00    -0.269 OA
BRANCH  20  22
ATOM     22  C   UNL A   1      32.555  15.225  25.358  1.00  0.00     0.451 C 
ATOM     23  F   UNL A   1      33.614  14.402  25.550  1.00  0.00    -0.185 F 
ATOM     24  F   UNL A   1      31.769  15.156  26.461  1.00  0.00    -0.185 F 
ENDBRANCH  20  22
ENDBRANCH  11  15
ENDBRANCH   8   9
ENDBRANCH   6   8
ENDBRANCH   3   4
ENDBRANCH   2   3
ENDBRANCH   1   2
BRANCH   1  25
ATOM     25  C   UNL A   1      33.694  26.888  25.939  1.00  0.00     0.002 C 
BRANCH  25  26
ATOM     26  C   UNL A   1      33.292  28.234  26.545  1.00  0.00     0.021 C 
BRANCH  26  27
ATOM     27  C   UNL A   1      33.983  29.451  25.936  1.00  0.00     0.116 C 
BRANCH  27  28
ATOM     28  N   UNL A   1      33.769  30.659  26.714  1.00  0.00    -0.352 N 
ATOM     29  C   UNL A   1      34.453  31.123  27.812  1.00  0.00     0.251 C 
ATOM     30  H   UNL A   1      33.025  31.228  26.412  1.00  0.00     0.163 HD
ATOM     31  O   UNL A   1      34.009  32.080  28.443  1.00  0.00    -0.269 OA
BRANCH  29  32
ATOM     32  C   UNL A   1      35.699  30.453  28.248  1.00  0.00     0.039 A 
ATOM     33  C   UNL A   1      36.908  30.819  27.649  1.00  0.00     0.014 A 
ATOM     34  C   UNL A   1      35.681  29.470  29.241  1.00  0.00     0.014 A 
ATOM     35  C   UNL A   1      38.103  30.247  28.094  1.00  0.00     0.010 A 
ATOM     36  C   UNL A   1      36.879  28.960  29.735  1.00  0.00     0.010 A 
ATOM     37  C   UNL A   1      38.104  29.341  29.167  1.00  0.00    -0.014 A 
BRANCH  37  38
ATOM     38  C   UNL A   1      39.374  28.784  29.705  1.00  0.00     0.031 A 
ATOM     39  C   UNL A   1      40.008  29.388  30.930  1.00  0.00     0.074 A 
ATOM     40  C   UNL A   1      39.986  27.773  29.059  1.00  0.00     0.049 A 
ATOM     41  N   UNL A   1      41.136  29.077  31.519  1.00  0.00    -0.248 NA
ATOM     42  C   UNL A   1      39.292  30.509  31.556  1.00  0.00     0.031 C 
ATOM     43  C   UNL A   1      39.488  27.124  27.843  1.00  0.00     0.029 A 
ATOM     44  N   UNL A   1      41.158  27.111  29.329  1.00  0.00    -0.354 N 
ATOM     45  C   UNL A   1      41.270  29.972  32.576  1.00  0.00     0.074 A 
ATOM     46  C   UNL A   1      40.144  30.877  32.500  1.00  0.00     0.031 C 
ATOM     47  C   UNL A   1      40.327  26.134  27.499  1.00  0.00     0.029 A 
ATOM     48  C   UNL A   1      41.448  26.108  28.433  1.00  0.00     0.049 A 
ATOM     49  H   UNL A   1      41.736  27.333  30.095  1.00  0.00     0.167 HD
ATOM     50  C   UNL A   1      42.232  30.019  33.532  1.00  0.00     0.034 A 
ATOM     51  C   UNL A   1      42.500  25.268  28.366  1.00  0.00     0.034 A 
ATOM     52  C   UNL A   1      43.347  29.103  33.593  1.00  0.00     0.049 A 
ATOM     53  C   UNL A   1      43.583  25.373  29.410  1.00  0.00     0.074 A 
ATOM     54  C   UNL A   1      44.344  29.022  34.550  1.00  0.00     0.029 A 
ATOM     55  N   UNL A   1      43.625  28.121  32.651  1.00  0.00    -0.354 N 
ATOM     56  N   UNL A   1      43.667  26.185  30.439  1.00  0.00    -0.248 NA
ATOM     57  C   UNL A   1      44.709  24.438  29.288  1.00  0.00     0.031 C 
ATOM     58  C   UNL A   1      45.267  28.051  34.143  1.00  0.00     0.029 A 
ATOM     59  C   UNL A   1      44.800  27.460  32.980  1.00  0.00     0.049 A 
ATOM     60  H   UNL A   1      43.068  27.923  31.863  1.00  0.00     0.167 HD
ATOM     61  C   UNL A   1      44.838  25.832  31.106  1.00  0.00     0.074 A 
ATOM     62  C   UNL A   1      45.417  24.727  30.370  1.00  0.00     0.031 C 
ATOM     63  C   UNL A   1      45.379  26.368  32.231  1.00  0.00     0.034 A 
BRANCH  50  64
ATOM     64  C   UNL A   1      42.132  31.122  34.563  1.00  0.00     0.023 A 
ATOM     65  C   UNL A   1      42.804  32.347  34.405  1.00  0.00     0.031 A 
ATOM     66  C   UNL A   1      41.389  30.931  35.742  1.00  0.00     0.131 A 
ATOM     67  C   UNL A   1      42.802  33.289  35.446  1.00  0.00     0.055 A 
ATOM     68  C   UNL A   1      41.312  31.913  36.733  1.00  0.00     0.041 A 
ATOM     69  F   UNL A   1      40.742  29.777  35.964  1.00  0.00    -0.206 F 
ATOM     70  C   UNL A   1      42.038  33.092  36.598  1.00  0.00     0.022 A 
BRANCH  67  71
ATOM     71  S   UNL A   1      43.957  34.685  35.349  1.00  0.00     0.124 S 
ATOM     72  O   UNL A   1      44.594  34.634  36.663  1.00  0.00    -0.237 OA
ATOM     73  O   UNL A   1      44.798  34.319  34.216  1.00  0.00    -0.237 OA
ATOM     74  O   UNL A   1      43.084  35.838  35.133  1.00  0.00    -0.744 OA
ENDBRANCH  67  71
ENDBRANCH  50  64
BRANCH  51  75
ATOM     75  C   UNL A   1      42.589  24.249  27.280  1.00  0.00     0.023 A 
ATOM     76  C   UNL A   1      41.963  23.000  27.416  1.00  0.00     0.031 A 
ATOM     77  C   UNL A   1      43.333  24.490  26.111  1.00  0.00     0.131 A 
ATOM     78  C   UNL A   1      42.131  22.021  26.425  1.00  0.00     0.055 A 
ATOM     79  C   UNL A   1      43.451  23.533  25.102  1.00  0.00     0.041 A 
ATOM     80  F   UNL A   1      43.950  25.668  25.929  1.00  0.00    -0.206 F 
ATOM     81  C   UNL A   1      42.859  22.284  25.262  1.00  0.00     0.022 A 
BRANCH  78  82
ATOM     82  S   UNL A   1      41.456  20.364  26.719  1.00  0.00     0.124 S 
ATOM     83  O   UNL A   1      42.231  19.930  27.876  1.00  0.00    -0.237 OA
ATOM     84  O   UNL A   1      40.046  20.650  26.960  1.00  0.00    -0.237 OA
ATOM     85  O   UNL A   1      41.742  19.655  25.474  1.00  0.00    -0.744 OA
ENDBRANCH  78  82
ENDBRANCH  51  75
BRANCH  63  86
ATOM     86  C   UNL A   1      46.641  25.727  32.758  1.00  0.00     0.023 A 
ATOM     87  C   UNL A   1      47.908  26.030  32.226  1.00  0.00     0.031 A 
ATOM     88  C   UNL A   1      46.573  24.782  33.797  1.00  0.00     0.131 A 
ATOM     89  C   UNL A   1      49.044  25.349  32.693  1.00  0.00     0.055 A 
ATOM     90  C   UNL A   1      47.714  24.159  34.305  1.00  0.00     0.041 A 
ATOM     91  F   UNL A   1      45.392  24.448  34.341  1.00  0.00    -0.206 F 
ATOM     92  C   UNL A   1      48.957  24.431  33.741  1.00  0.00     0.022 A 
BRANCH  89  93
ATOM     93  S   UNL A   1      50.622  25.601  31.835  1.00  0.00     0.124 S 
ATOM     94  O   UNL A   1      50.401  26.875  31.159  1.00  0.00    -0.237 OA
ATOM     95  O   UNL A   1      51.578  25.622  32.938  1.00  0.00    -0.237 OA
ATOM     96  O   UNL A   1      50.722  24.440  30.952  1.00  0.00    -0.744 OA
ENDBRANCH  89  93
ENDBRANCH  63  86
ENDBRANCH  37  38
ENDBRANCH  29  32
ENDBRANCH  27  28
ENDBRANCH  26  27
ENDBRANCH  25  26
ENDBRANCH   1  25
TORSDOF 19
ENDMDL
MODEL 2
REMARK VINA RESULT:     -11.2      4.913      6.830
REMARK SMILES O=C(Cc1ccccc1-c1ccn(C(F)F)c(=O)c1)NCCCCCCNC(=O)c1ccc(-c2c3nc(c(-c4cc(S(=O)(=O)[O-])ccc4F)c4ccc([nH]4)c(-c4cc(S(=O)(=O)[O-])ccc4F)c4nc(c(-c5cc(S(=O)(=O)[O-])ccc5F)c5ccc2[nH]5)C=C4)C=C3)cc1
REMARK SMILES IDX 23 1 22 2 21 3 20 4 1 5 2 6 3 8 4 9 5 10 9 11 6 12 8 13 7 14
REMARK SMILES IDX 10 15 11 16 19 17 12 18 17 19 13 20 18 21 14 22 15 23 16 24
REMARK SMILES IDX 24 25 25 26 26 27 27 28 28 29 29 31 30 32 31 33 92 34 32 35
REMARK SMILES IDX 91 36 33 37 34 38 35 39 85 40 36 41 90 42 84 43 86 44 37 45
REMARK SMILES IDX 89 46 83 47 82 48 38 50 70 51 50 52 69 53 51 54 54 55 68 56
REMARK SMILES IDX 87 57 52 58 53 59 67 61 88 62 55 63 39 64 40 65 48 66 41 67
REMARK SMILES IDX 47 68 49 69 46 70 42 71 43 72 44 73 45 74 71 75 72 76 80 77
REMARK SMILES IDX 73 78 79 79 81 80 78 81 74 82 75 83 76 84 77 85 56 86 57 87
REMARK SMILES IDX 65 88 58 89 64 90 66 91 63 92 59 93 60 94 61 95 62 96
REMARK H PARENT 20 7 27 30 86 49 54 60
REMARK Flexibility Score: inf
ROOT
ATOM      1  C   UNL A   1      35.043  30.833  27.815  1.00  0.00     0.002 C 
ENDROOT
BRANCH   1   2
ATOM      2  C   UNL A   1      33.795  30.137  27.260  1.00  0.00     0.021 C 
BRANCH   2   3
ATOM      3  C   UNL A   1      33.912  28.622  27.161  1.00  0.00     0.116 C 
BRANCH   3   4
ATOM      4  N   UNL A   1      32.911  28.041  26.287  1.00  0.00    -0.356 N 
ATOM      5  O   UNL A   1      31.418  27.538  27.950  1.00  0.00    -0.275 OA
ATOM      6  C   UNL A   1      31.687  27.612  26.752  1.00  0.00     0.224 C 
ATOM      7  H   UNL A   1      33.112  27.952  25.328  1.00  0.00     0.163 HD
BRANCH   6   8
ATOM      8  C   UNL A   1      30.689  27.175  25.692  1.00  0.00     0.136 C 
BRANCH   8   9
ATOM      9  C   UNL A   1      31.266  26.496  24.460  1.00  0.00    -0.031 A 
ATOM     10  C   UNL A   1      32.120  25.392  24.654  1.00  0.00     0.005 A 
ATOM     11  C   UNL A   1      30.956  26.894  23.137  1.00  0.00    -0.014 A 
ATOM     12  C   UNL A   1      32.666  24.707  23.569  1.00  0.00     0.000 A 
ATOM     13  C   UNL A   1      31.527  26.203  22.056  1.00  0.00     0.009 A 
ATOM     14  C   UNL A   1      32.375  25.116  22.272  1.00  0.00     0.001 A 
BRANCH  11  15
ATOM     15  C   UNL A   1      30.027  28.005  22.843  1.00  0.00    -0.011 A 
ATOM     16  C   UNL A   1      30.466  29.286  22.330  1.00  0.00     0.027 A 
ATOM     17  C   UNL A   1      28.724  27.830  23.119  1.00  0.00     0.080 A 
ATOM     18  C   UNL A   1      29.643  30.339  22.341  1.00  0.00     0.095 A 
ATOM     19  C   UNL A   1      27.762  28.964  23.005  1.00  0.00     0.255 A 
ATOM     20  N   UNL A   1      28.323  30.200  22.726  1.00  0.00    -0.258 N 
ATOM     21  O   UNL A   1      26.571  28.741  23.199  1.00  0.00    -0.269 OA
BRANCH  20  22
ATOM     22  C   UNL A   1      27.458  31.349  22.775  1.00  0.00     0.451 C 
ATOM     23  F   UNL A   1      27.216  31.716  24.056  1.00  0.00    -0.185 F 
ATOM     24  F   UNL A   1      28.009  32.411  22.136  1.00  0.00    -0.185 F 
ENDBRANCH  20  22
ENDBRANCH  11  15
ENDBRANCH   8   9
ENDBRANCH   6   8
ENDBRANCH   3   4
ENDBRANCH   2   3
ENDBRANCH   1   2
BRANCH   1  25
ATOM     25  C   UNL A   1      35.031  32.363  27.748  1.00  0.00     0.002 C 
BRANCH  25  26
ATOM     26  C   UNL A   1      33.688  33.026  28.060  1.00  0.00     0.021 C 
BRANCH  26  27
ATOM     27  C   UNL A   1      33.713  34.551  28.108  1.00  0.00     0.116 C 
BRANCH  27  28
ATOM     28  N   UNL A   1      33.139  35.078  29.335  1.00  0.00    -0.352 N 
ATOM     29  C   UNL A   1      33.463  34.797  30.640  1.00  0.00     0.251 C 
ATOM     30  H   UNL A   1      32.413  35.731  29.213  1.00  0.00     0.163 HD
ATOM     31  O   UNL A   1      32.742  35.212  31.546  1.00  0.00    -0.269 OA
BRANCH  29  32
ATOM     32  C   UNL A   1      34.654  33.975  30.950  1.00  0.00     0.039 A 
ATOM     33  C   UNL A   1      35.921  34.477  30.638  1.00  0.00     0.014 A 
ATOM     34  C   UNL A   1      34.528  32.717  31.544  1.00  0.00     0.014 A 
ATOM     35  C   UNL A   1      37.061  33.746  30.984  1.00  0.00     0.010 A 
ATOM     36  C   UNL A   1      35.665  32.027  31.958  1.00  0.00     0.010 A 
ATOM     37  C   UNL A   1      36.945  32.532  31.682  1.00  0.00    -0.014 A 
BRANCH  37  38
ATOM     38  C   UNL A   1      38.149  31.781  32.128  1.00  0.00     0.031 A 
ATOM     39  C   UNL A   1      38.812  32.118  33.438  1.00  0.00     0.074 A 
ATOM     40  C   UNL A   1      38.679  30.834  31.329  1.00  0.00     0.049 A 
ATOM     41  N   UNL A   1      39.895  31.614  33.973  1.00  0.00    -0.248 NA
ATOM     42  C   UNL A   1      38.188  33.185  34.233  1.00  0.00     0.031 C 
ATOM     43  C   UNL A   1      38.148  30.438  30.022  1.00  0.00     0.029 A 
ATOM     44  N   UNL A   1      39.780  30.032  31.494  1.00  0.00    -0.354 N 
ATOM     45  C   UNL A   1      40.090  32.310  35.161  1.00  0.00     0.074 A 
ATOM     46  C   UNL A   1      39.051  33.317  35.228  1.00  0.00     0.031 C 
ATOM     47  C   UNL A   1      38.900  29.443  29.526  1.00  0.00     0.029 A 
ATOM     48  C   UNL A   1      39.996  29.164  30.448  1.00  0.00     0.049 A 
ATOM     49  H   UNL A   1      40.362  30.073  32.287  1.00  0.00     0.167 HD
ATOM     50  C   UNL A   1      41.033  32.114  36.117  1.00  0.00     0.034 A 
ATOM     51  C   UNL A   1      40.968  28.252  30.251  1.00  0.00     0.034 A 
ATOM     52  C   UNL A   1      42.059  31.101  36.034  1.00  0.00     0.049 A 
ATOM     53  C   UNL A   1      42.037  28.086  31.303  1.00  0.00     0.074 A 
ATOM     54  C   UNL A   1      43.026  30.775  36.969  1.00  0.00     0.029 A 
ATOM     55  N   UNL A   1      42.265  30.262  34.945  1.00  0.00    -0.354 N 
ATOM     56  N   UNL A   1      42.174  28.711  32.449  1.00  0.00    -0.248 NA
ATOM     57  C   UNL A   1      43.075  27.084  31.035  1.00  0.00     0.031 C 
ATOM     58  C   UNL A   1      43.865  29.801  36.413  1.00  0.00     0.029 A 
ATOM     59  C   UNL A   1      43.369  29.451  35.168  1.00  0.00     0.049 A 
ATOM     60  H   UNL A   1      41.708  30.245  34.133  1.00  0.00     0.167 HD
ATOM     61  C   UNL A   1      43.295  28.149  33.056  1.00  0.00     0.074 A 
ATOM     62  C   UNL A   1      43.785  27.128  32.153  1.00  0.00     0.031 C 
ATOM     63  C   UNL A   1      43.861  28.445  34.255  1.00  0.00     0.034 A 
BRANCH  50  64
ATOM     64  C   UNL A   1      41.013  33.042  37.313  1.00  0.00     0.023 A 
ATOM     65  C   UNL A   1      40.359  32.694  38.508  1.00  0.00     0.031 A 
ATOM     66  C   UNL A   1      41.619  34.309  37.242  1.00  0.00     0.131 A 
ATOM     67  C   UNL A   1      40.241  33.636  39.543  1.00  0.00     0.055 A 
ATOM     68  C   UNL A   1      41.581  35.205  38.313  1.00  0.00     0.041 A 
ATOM     69  F   UNL A   1      42.241  34.709  36.123  1.00  0.00    -0.206 F 
ATOM     70  C   UNL A   1      40.870  34.880  39.464  1.00  0.00     0.022 A 
BRANCH  67  71
ATOM     71  S   UNL A   1      39.100  33.280  40.908  1.00  0.00     0.124 S 
ATOM     72  O   UNL A   1      37.843  33.813  40.389  1.00  0.00    -0.237 OA
ATOM     73  O   UNL A   1      39.182  31.828  41.015  1.00  0.00    -0.237 OA
ATOM     74  O   UNL A   1      39.667  34.023  42.031  1.00  0.00    -0.744 OA
ENDBRANCH  67  71
ENDBRANCH  50  64
BRANCH  51  75
ATOM     75  C   UNL A   1      40.985  27.417  29.014  1.00  0.00     0.023 A 
ATOM     76  C   UNL A   1      41.951  27.630  28.019  1.00  0.00     0.031 A 
ATOM     77  C   UNL A   1      40.014  26.425  28.789  1.00  0.00     0.131 A 
ATOM     78  C   UNL A   1      41.899  26.898  26.823  1.00  0.00     0.055 A 
ATOM     79  C   UNL A   1      40.001  25.659  27.622  1.00  0.00     0.041 A 
ATOM     80  F   UNL A   1      39.069  26.178  29.709  1.00  0.00    -0.206 F 
ATOM     81  C   UNL A   1      40.939  25.903  26.624  1.00  0.00     0.022 A 
BRANCH  78  82
ATOM     82  S   UNL A   1      43.054  27.325  25.492  1.00  0.00     0.124 S 
ATOM     83  O   UNL A   1      44.132  27.971  26.232  1.00  0.00    -0.237 OA
ATOM     84  O   UNL A   1      43.358  26.017  24.924  1.00  0.00    -0.237 OA
ATOM     85  O   UNL A   1      42.269  28.209  24.633  1.00  0.00    -0.744 OA
ENDBRANCH  78  82
ENDBRANCH  51  75
BRANCH  63  86
ATOM     86  C   UNL A   1      45.049  27.613  34.676  1.00  0.00     0.023 A 
ATOM     87  C   UNL A   1      44.900  26.408  35.386  1.00  0.00     0.031 A 
ATOM     88  C   UNL A   1      46.355  28.044  34.378  1.00  0.00     0.131 A 
ATOM     89  C   UNL A   1      46.036  25.710  35.827  1.00  0.00     0.055 A 
ATOM     90  C   UNL A   1      47.479  27.310  34.759  1.00  0.00     0.041 A 
ATOM     91  F   UNL A   1      46.560  29.189  33.708  1.00  0.00    -0.206 F 
ATOM     92  C   UNL A   1      47.323  26.143  35.501  1.00  0.00     0.022 A 
BRANCH  89  93
ATOM     93  S   UNL A   1      45.809  24.285  36.927  1.00  0.00     0.124 S 
ATOM     94  O   UNL A   1      47.169  24.046  37.399  1.00  0.00    -0.237 OA
ATOM     95  O   UNL A   1      44.871  24.801  37.919  1.00  0.00    -0.237 OA
ATOM     96  O   UNL A   1      45.269  23.253  36.042  1.00  0.00    -0.744 OA
ENDBRANCH  89  93
ENDBRANCH  63  86
ENDBRANCH  37  38
ENDBRANCH  29  32
ENDBRANCH  27  28
ENDBRANCH  26  27
ENDBRANCH  25  26
ENDBRANCH   1  25
TORSDOF 19
ENDMDL
MODEL 3
REMARK VINA RESULT:     -11.0      3.582      5.079
REMARK SMILES O=C(Cc1ccccc1-c1ccn(C(F)F)c(=O)c1)NCCCCCCNC(=O)c1ccc(-c2c3nc(c(-c4cc(S(=O)(=O)[O-])ccc4F)c4ccc([nH]4)c(-c4cc(S(=O)(=O)[O-])ccc4F)c4nc(c(-c5cc(S(=O)(=O)[O-])ccc5F)c5ccc2[nH]5)C=C4)C=C3)cc1
REMARK SMILES IDX 23 1 22 2 21 3 20 4 1 5 2 6 3 8 4 9 5 10 9 11 6 12 8 13 7 14
REMARK SMILES IDX 10 15 11 16 19 17 12 18 17 19 13 20 18 21 14 22 15 23 16 24
REMARK SMILES IDX 24 25 25 26 26 27 27 28 28 29 29 31 30 32 31 33 92 34 32 35
REMARK SMILES IDX 91 36 33 37 34 38 35 39 85 40 36 41 90 42 84 43 86 44 37 45
REMARK SMILES IDX 89 46 83 47 82 48 38 50 70 51 50 52 69 53 51 54 54 55 68 56
REMARK SMILES IDX 87 57 52 58 53 59 67 61 88 62 55 63 39 64 40 65 48 66 41 67
REMARK SMILES IDX 47 68 49 69 46 70 42 71 43 72 44 73 45 74 71 75 72 76 80 77
REMARK SMILES IDX 73 78 79 79 81 80 78 81 74 82 75 83 76 84 77 85 56 86 57 87
REMARK SMILES IDX 65 88 58 89 64 90 66 91 63 92 59 93 60 94 61 95 62 96
REMARK H PARENT 20 7 27 30 86 49 54 60
REMARK Flexibility Score: inf
ROOT
ATOM      1  C   UNL A   1      32.892  29.705  27.469  1.00  0.00     0.002 C 
ENDROOT
BRANCH   1   2
ATOM      2  C   UNL A   1      33.456  28.421  26.850  1.00  0.00     0.021 C 
BRANCH   2   3
ATOM      3  C   UNL A   1      34.261  28.640  25.575  1.00  0.00     0.116 C 
BRANCH   3   4
ATOM      4  N   UNL A   1      33.494  28.363  24.377  1.00  0.00    -0.356 N 
ATOM      5  O   UNL A   1      34.061  26.147  24.246  1.00  0.00    -0.275 OA
ATOM      6  C   UNL A   1      33.389  27.096  23.845  1.00  0.00     0.224 C 
ATOM      7  H   UNL A   1      33.030  29.106  23.927  1.00  0.00     0.163 HD
BRANCH   6   8
ATOM      8  C   UNL A   1      32.423  26.941  22.682  1.00  0.00     0.136 C 
BRANCH   8   9
ATOM      9  C   UNL A   1      30.947  27.128  23.000  1.00  0.00    -0.031 A 
ATOM     10  C   UNL A   1      30.324  28.313  22.562  1.00  0.00     0.005 A 
ATOM     11  C   UNL A   1      30.170  26.157  23.674  1.00  0.00    -0.014 A 
ATOM     12  C   UNL A   1      28.969  28.541  22.799  1.00  0.00     0.000 A 
ATOM     13  C   UNL A   1      28.810  26.409  23.919  1.00  0.00     0.009 A 
ATOM     14  C   UNL A   1      28.214  27.593  23.481  1.00  0.00     0.001 A 
BRANCH  11  15
ATOM     15  C   UNL A   1      30.731  24.864  24.119  1.00  0.00    -0.011 A 
ATOM     16  C   UNL A   1      31.090  24.590  25.494  1.00  0.00     0.027 A 
ATOM     17  C   UNL A   1      30.966  23.924  23.188  1.00  0.00     0.080 A 
ATOM     18  C   UNL A   1      31.840  23.527  25.801  1.00  0.00     0.095 A 
ATOM     19  C   UNL A   1      31.684  22.666  23.541  1.00  0.00     0.255 A 
ATOM     20  N   UNL A   1      32.185  22.603  24.832  1.00  0.00    -0.258 N 
ATOM     21  O   UNL A   1      31.816  21.806  22.676  1.00  0.00    -0.269 OA
BRANCH  20  22
ATOM     22  C   UNL A   1      33.029  21.486  25.165  1.00  0.00     0.451 C 
ATOM     23  F   UNL A   1      34.251  21.619  24.598  1.00  0.00    -0.185 F 
ATOM     24  F   UNL A   1      33.202  21.379  26.506  1.00  0.00    -0.185 F 
ENDBRANCH  20  22
ENDBRANCH  11  15
ENDBRANCH   8   9
ENDBRANCH   6   8
ENDBRANCH   3   4
ENDBRANCH   2   3
ENDBRANCH   1   2
BRANCH   1  25
ATOM     25  C   UNL A   1      31.717  30.339  26.719  1.00  0.00     0.002 C 
BRANCH  25  26
ATOM     26  C   UNL A   1      31.598  31.859  26.843  1.00  0.00     0.021 C 
BRANCH  26  27
ATOM     27  C   UNL A   1      32.908  32.591  27.123  1.00  0.00     0.116 C 
BRANCH  27  28
ATOM     28  N   UNL A   1      32.696  33.913  27.686  1.00  0.00    -0.352 N 
ATOM     29  C   UNL A   1      33.314  34.515  28.755  1.00  0.00     0.251 C 
ATOM     30  H   UNL A   1      32.010  34.457  27.237  1.00  0.00     0.163 HD
ATOM     31  O   UNL A   1      32.873  35.576  29.192  1.00  0.00    -0.269 OA
BRANCH  29  32
ATOM     32  C   UNL A   1      34.484  33.873  29.395  1.00  0.00     0.039 A 
ATOM     33  C   UNL A   1      34.269  32.886  30.362  1.00  0.00     0.014 A 
ATOM     34  C   UNL A   1      35.788  34.238  29.048  1.00  0.00     0.014 A 
ATOM     35  C   UNL A   1      35.360  32.221  30.928  1.00  0.00     0.010 A 
ATOM     36  C   UNL A   1      36.868  33.522  29.556  1.00  0.00     0.010 A 
ATOM     37  C   UNL A   1      36.669  32.506  30.503  1.00  0.00    -0.014 A 
BRANCH  37  38
ATOM     38  C   UNL A   1      37.834  31.752  31.037  1.00  0.00     0.031 A 
ATOM     39  C   UNL A   1      38.366  32.050  32.414  1.00  0.00     0.074 A 
ATOM     40  C   UNL A   1      38.449  30.837  30.261  1.00  0.00     0.049 A 
ATOM     41  N   UNL A   1      39.399  31.539  33.033  1.00  0.00    -0.248 NA
ATOM     42  C   UNL A   1      37.657  33.085  33.181  1.00  0.00     0.031 C 
ATOM     43  C   UNL A   1      38.048  30.480  28.898  1.00  0.00     0.029 A 
ATOM     44  N   UNL A   1      39.539  30.040  30.504  1.00  0.00    -0.354 N 
ATOM     45  C   UNL A   1      39.473  32.196  34.256  1.00  0.00     0.074 A 
ATOM     46  C   UNL A   1      38.421  33.191  34.257  1.00  0.00     0.031 C 
ATOM     47  C   UNL A   1      38.856  29.509  28.443  1.00  0.00     0.029 A 
ATOM     48  C   UNL A   1      39.863  29.209  29.456  1.00  0.00     0.049 A 
ATOM     49  H   UNL A   1      40.043  30.060  31.350  1.00  0.00     0.167 HD
ATOM     50  C   UNL A   1      40.324  31.977  35.290  1.00  0.00     0.034 A 
ATOM     51  C   UNL A   1      40.861  28.313  29.321  1.00  0.00     0.034 A 
ATOM     52  C   UNL A   1      41.366  30.977  35.272  1.00  0.00     0.049 A 
ATOM     53  C   UNL A   1      41.827  28.123  30.464  1.00  0.00     0.074 A 
ATOM     54  C   UNL A   1      42.244  30.628  36.283  1.00  0.00     0.029 A 
ATOM     55  N   UNL A   1      41.684  30.177  34.181  1.00  0.00    -0.354 N 
ATOM     56  N   UNL A   1      41.848  28.710  31.638  1.00  0.00    -0.248 NA
ATOM     57  C   UNL A   1      42.899  27.139  30.264  1.00  0.00     0.031 C 
ATOM     58  C   UNL A   1      43.143  29.682  35.778  1.00  0.00     0.029 A 
ATOM     59  C   UNL A   1      42.772  29.368  34.481  1.00  0.00     0.049 A 
ATOM     60  H   UNL A   1      41.206  30.182  33.320  1.00  0.00     0.167 HD
ATOM     61  C   UNL A   1      42.913  28.138  32.330  1.00  0.00     0.074 A 
ATOM     62  C   UNL A   1      43.499  27.152  31.444  1.00  0.00     0.031 C 
ATOM     63  C   UNL A   1      43.360  28.398  33.586  1.00  0.00     0.034 A 
BRANCH  50  64
ATOM     64  C   UNL A   1      40.180  32.864  36.508  1.00  0.00     0.023 A 
ATOM     65  C   UNL A   1      39.398  32.482  37.613  1.00  0.00     0.031 A 
ATOM     66  C   UNL A   1      40.797  34.126  36.548  1.00  0.00     0.131 A 
ATOM     67  C   UNL A   1      39.173  33.390  38.661  1.00  0.00     0.055 A 
ATOM     68  C   UNL A   1      40.649  34.987  37.638  1.00  0.00     0.041 A 
ATOM     69  F   UNL A   1      41.540  34.558  35.517  1.00  0.00    -0.206 F 
ATOM     70  C   UNL A   1      39.815  34.629  38.694  1.00  0.00     0.022 A 
BRANCH  67  71
ATOM     71  S   UNL A   1      37.888  32.998  39.881  1.00  0.00     0.124 S 
ATOM     72  O   UNL A   1      37.916  34.187  40.729  1.00  0.00    -0.237 OA
ATOM     73  O   UNL A   1      36.703  32.835  39.047  1.00  0.00    -0.237 OA
ATOM     74  O   UNL A   1      38.380  31.777  40.516  1.00  0.00    -0.744 OA
ENDBRANCH  67  71
ENDBRANCH  50  64
BRANCH  51  75
ATOM     75  C   UNL A   1      41.005  27.521  28.066  1.00  0.00     0.023 A 
ATOM     76  C   UNL A   1      40.689  26.154  28.041  1.00  0.00     0.031 A 
ATOM     77  C   UNL A   1      41.500  28.105  26.886  1.00  0.00     0.131 A 
ATOM     78  C   UNL A   1      40.914  25.404  26.877  1.00  0.00     0.055 A 
ATOM     79  C   UNL A   1      41.670  27.367  25.714  1.00  0.00     0.041 A 
ATOM     80  F   UNL A   1      41.817  29.409  26.854  1.00  0.00    -0.206 F 
ATOM     81  C   UNL A   1      41.389  26.004  25.708  1.00  0.00     0.022 A 
BRANCH  78  82
ATOM     82  S   UNL A   1      40.661  23.609  26.938  1.00  0.00     0.124 S 
ATOM     83  O   UNL A   1      41.002  23.310  28.324  1.00  0.00    -0.237 OA
ATOM     84  O   UNL A   1      39.251  23.491  26.582  1.00  0.00    -0.237 OA
ATOM     85  O   UNL A   1      41.599  23.100  25.940  1.00  0.00    -0.744 OA
ENDBRANCH  78  82
ENDBRANCH  51  75
BRANCH  63  86
ATOM     86  C   UNL A   1      44.514  27.564  34.091  1.00  0.00     0.023 A 
ATOM     87  C   UNL A   1      44.325  26.271  34.612  1.00  0.00     0.031 A 
ATOM     88  C   UNL A   1      45.822  28.079  34.067  1.00  0.00     0.131 A 
ATOM     89  C   UNL A   1      45.415  25.565  35.144  1.00  0.00     0.055 A 
ATOM     90  C   UNL A   1      46.913  27.344  34.533  1.00  0.00     0.041 A 
ATOM     91  F   UNL A   1      46.064  29.309  33.586  1.00  0.00    -0.206 F 
ATOM     92  C   UNL A   1      46.710  26.085  35.090  1.00  0.00     0.022 A 
BRANCH  89  93
ATOM     93  S   UNL A   1      45.101  24.000  36.007  1.00  0.00     0.124 S 
ATOM     94  O   UNL A   1      46.191  23.161  35.521  1.00  0.00    -0.237 OA
ATOM     95  O   UNL A   1      45.177  24.395  37.410  1.00  0.00    -0.237 OA
ATOM     96  O   UNL A   1      43.769  23.615  35.543  1.00  0.00    -0.744 OA
ENDBRANCH  89  93
ENDBRANCH  63  86
ENDBRANCH  37  38
ENDBRANCH  29  32
ENDBRANCH  27  28
ENDBRANCH  26  27
ENDBRANCH  25  26
ENDBRANCH   1  25
TORSDOF 19
ENDMDL
