MODEL 1
REMARK VINA RESULT:     -11.8      0.000      0.000
REMARK SMILES NS(=O)(=O)c1ccc(/N=C/c2ccc(O)c(C(=O)NCCCCCCNC(=O)c3ccc(-c4c5nc(c(-c6cc(S(=O)(=O)[O-])ccc6F)c6ccc([nH]6)c(-c6cc(S(=O)(=O)[O-])ccc6F)c6nc(c(-c7cc(S(=O)(=O)[O-])ccc7F)c7ccc4[nH]7)C=C6)C=C5)cc3)c2)cc1
REMARK SMILES IDX 22 1 21 2 20 3 19 4 17 5 18 6 16 8 11 9 12 10 92 11 13 12
REMARK SMILES IDX 14 13 10 14 9 15 8 16 5 17 6 18 94 19 7 20 93 21 2 22 3 23
REMARK SMILES IDX 4 24 1 25 15 28 23 30 24 31 25 32 26 33 27 34 28 36 29 37
REMARK SMILES IDX 30 38 91 39 31 40 90 41 32 42 33 43 34 44 84 45 35 46 89 47
REMARK SMILES IDX 83 48 85 49 36 50 88 51 82 52 81 53 37 55 69 56 49 57 68 58
REMARK SMILES IDX 50 59 53 60 67 61 86 62 51 63 52 64 66 66 87 67 54 68 38 69
REMARK SMILES IDX 39 70 47 71 40 72 46 73 48 74 45 75 41 76 42 77 43 78 44 79
REMARK SMILES IDX 70 80 71 81 79 82 72 83 78 84 80 85 77 86 73 87 74 88 75 89
REMARK SMILES IDX 76 90 55 91 56 92 64 93 57 94 63 95 65 96 62 97 58 98 59 99
REMARK SMILES IDX 60 100 61 101
REMARK H PARENT 19 7 1 26 1 27 15 29 26 35 85 54 53 65
REMARK Flexibility Score: inf
ROOT
ATOM      1  C   UNL A   1      34.170  25.109  25.898  1.00  0.00     0.002 C 
ENDROOT
BRANCH   1   2
ATOM      2  C   UNL A   1      33.351  26.398  25.847  1.00  0.00     0.021 C 
BRANCH   2   3
ATOM      3  C   UNL A   1      31.925  26.326  26.384  1.00  0.00     0.116 C 
BRANCH   3   4
ATOM      4  N   UNL A   1      30.972  27.155  25.660  1.00  0.00    -0.352 N 
ATOM      5  C   UNL A   1      30.661  27.208  24.322  1.00  0.00     0.255 C 
ATOM      6  O   UNL A   1      29.860  28.057  23.924  1.00  0.00    -0.269 OA
ATOM      7  H   UNL A   1      30.465  27.784  26.224  1.00  0.00     0.163 HD
BRANCH   5   8
ATOM      8  C   UNL A   1      31.314  26.339  23.305  1.00  0.00     0.082 A 
ATOM      9  C   UNL A   1      31.953  24.149  22.484  1.00  0.00    -0.006 A 
ATOM     10  C   UNL A   1      32.814  24.724  21.551  1.00  0.00     0.013 A 
ATOM     11  C   UNL A   1      31.148  24.955  23.297  1.00  0.00     0.027 A 
ATOM     12  C   UNL A   1      32.883  26.116  21.455  1.00  0.00     0.047 A 
ATOM     13  C   UNL A   1      32.148  26.915  22.333  1.00  0.00     0.128 A 
BRANCH   9  14
ATOM     14  C   UNL A   1      31.980  22.690  22.727  1.00  0.00     0.119 C 
ATOM     15  N   UNL A   1      32.735  22.213  23.662  1.00  0.00    -0.256 NA
BRANCH  15  16
ATOM     16  C   UNL A   1      32.875  20.830  23.844  1.00  0.00     0.063 A 
ATOM     17  C   UNL A   1      33.443  18.097  24.105  1.00  0.00     0.082 A 
ATOM     18  C   UNL A   1      34.194  19.030  24.821  1.00  0.00     0.024 A 
ATOM     19  C   UNL A   1      32.414  18.513  23.258  1.00  0.00     0.024 A 
ATOM     20  C   UNL A   1      33.902  20.390  24.688  1.00  0.00     0.030 A 
ATOM     21  C   UNL A   1      32.141  19.878  23.123  1.00  0.00     0.030 A 
BRANCH  17  22
ATOM     22  S   UNL A   1      33.884  16.384  24.190  1.00  0.00     0.238 S 
ATOM     23  O   UNL A   1      34.385  15.988  22.899  1.00  0.00    -0.207 OA
ATOM     24  O   UNL A   1      32.832  15.672  24.882  1.00  0.00    -0.207 OA
BRANCH  22  25
ATOM     25  N   UNL A   1      35.193  16.396  25.244  1.00  0.00    -0.225 NA
ATOM     26  H   UNL A   1      35.243  17.300  25.714  1.00  0.00     0.137 HD
ATOM     27  H   UNL A   1      36.053  16.236  24.720  1.00  0.00     0.137 HD
ENDBRANCH  22  25
ENDBRANCH  17  22
ENDBRANCH  15  16
ENDBRANCH   9  14
BRANCH  13  28
ATOM     28  O   UNL A   1      32.302  28.270  22.193  1.00  0.00    -0.507 OA
ATOM     29  H   UNL A   1      31.815  28.731  21.539  1.00  0.00     0.293 HD
ENDBRANCH  13  28
ENDBRANCH   5   8
ENDBRANCH   3   4
ENDBRANCH   2   3
ENDBRANCH   1   2
BRANCH   1  30
ATOM     30  C   UNL A   1      34.793  24.643  24.580  1.00  0.00     0.002 C 
BRANCH  30  31
ATOM     31  C   UNL A   1      36.111  23.872  24.685  1.00  0.00     0.021 C 
BRANCH  31  32
ATOM     32  C   UNL A   1      36.548  23.489  26.095  1.00  0.00     0.116 C 
BRANCH  32  33
ATOM     33  N   UNL A   1      37.596  22.483  26.104  1.00  0.00    -0.352 N 
ATOM     34  C   UNL A   1      38.940  22.623  26.352  1.00  0.00     0.251 C 
ATOM     35  H   UNL A   1      37.299  21.566  25.903  1.00  0.00     0.163 HD
ATOM     36  O   UNL A   1      39.694  21.676  26.150  1.00  0.00    -0.269 OA
BRANCH  34  37
ATOM     37  C   UNL A   1      39.480  23.916  26.830  1.00  0.00     0.039 A 
ATOM     38  C   UNL A   1      40.090  24.773  25.910  1.00  0.00     0.014 A 
ATOM     39  C   UNL A   1      39.395  24.284  28.177  1.00  0.00     0.014 A 
ATOM     40  C   UNL A   1      40.558  26.023  26.327  1.00  0.00     0.010 A 
ATOM     41  C   UNL A   1      39.791  25.559  28.574  1.00  0.00     0.010 A 
ATOM     42  C   UNL A   1      40.381  26.442  27.656  1.00  0.00    -0.014 A 
BRANCH  42  43
ATOM     43  C   UNL A   1      40.812  27.793  28.102  1.00  0.00     0.031 A 
ATOM     44  C   UNL A   1      42.274  28.145  28.143  1.00  0.00     0.074 A 
ATOM     45  C   UNL A   1      39.894  28.679  28.535  1.00  0.00     0.049 A 
ATOM     46  N   UNL A   1      42.855  29.239  28.568  1.00  0.00    -0.248 NA
ATOM     47  C   UNL A   1      43.207  27.113  27.671  1.00  0.00     0.031 C 
ATOM     48  C   UNL A   1      38.452  28.437  28.591  1.00  0.00     0.029 A 
ATOM     49  N   UNL A   1      40.036  29.953  29.026  1.00  0.00    -0.354 N 
ATOM     50  C   UNL A   1      44.222  29.020  28.428  1.00  0.00     0.074 A 
ATOM     51  C   UNL A   1      44.379  27.664  27.948  1.00  0.00     0.031 C 
ATOM     52  C   UNL A   1      37.842  29.528  29.079  1.00  0.00     0.029 A 
ATOM     53  C   UNL A   1      38.850  30.530  29.413  1.00  0.00     0.049 A 
ATOM     54  H   UNL A   1      40.905  30.409  29.094  1.00  0.00     0.167 HD
ATOM     55  C   UNL A   1      45.248  29.880  28.655  1.00  0.00     0.034 A 
ATOM     56  C   UNL A   1      38.600  31.722  29.991  1.00  0.00     0.034 A 
ATOM     57  C   UNL A   1      45.068  31.227  29.145  1.00  0.00     0.049 A 
ATOM     58  C   UNL A   1      39.751  32.655  30.263  1.00  0.00     0.074 A 
ATOM     59  C   UNL A   1      46.026  32.203  29.359  1.00  0.00     0.029 A 
ATOM     60  N   UNL A   1      43.849  31.782  29.519  1.00  0.00    -0.354 N 
ATOM     61  N   UNL A   1      41.034  32.464  30.062  1.00  0.00    -0.248 NA
ATOM     62  C   UNL A   1      39.417  33.971  30.822  1.00  0.00     0.031 C 
ATOM     63  C   UNL A   1      45.398  33.316  29.931  1.00  0.00     0.029 A 
ATOM     64  C   UNL A   1      44.035  33.072  29.996  1.00  0.00     0.049 A 
ATOM     65  H   UNL A   1      42.979  31.326  29.455  1.00  0.00     0.167 HD
ATOM     66  C   UNL A   1      41.661  33.644  30.453  1.00  0.00     0.074 A 
ATOM     67  C   UNL A   1      40.610  34.545  30.884  1.00  0.00     0.031 C 
ATOM     68  C   UNL A   1      42.983  33.955  30.449  1.00  0.00     0.034 A 
BRANCH  55  69
ATOM     69  C   UNL A   1      46.648  29.361  28.406  1.00  0.00     0.023 A 
ATOM     70  C   UNL A   1      47.112  29.086  27.105  1.00  0.00     0.031 A 
ATOM     71  C   UNL A   1      47.509  29.073  29.479  1.00  0.00     0.131 A 
ATOM     72  C   UNL A   1      48.343  28.439  26.919  1.00  0.00     0.055 A 
ATOM     73  C   UNL A   1      48.777  28.520  29.280  1.00  0.00     0.041 A 
ATOM     74  F   UNL A   1      47.124  29.294  30.745  1.00  0.00    -0.206 F 
ATOM     75  C   UNL A   1      49.191  28.176  27.997  1.00  0.00     0.022 A 
BRANCH  72  76
ATOM     76  S   UNL A   1      48.723  27.766  25.277  1.00  0.00     0.124 S 
ATOM     77  O   UNL A   1      47.623  28.299  24.476  1.00  0.00    -0.237 OA
ATOM     78  O   UNL A   1      50.042  28.325  25.006  1.00  0.00    -0.237 OA
ATOM     79  O   UNL A   1      48.687  26.319  25.483  1.00  0.00    -0.744 OA
ENDBRANCH  72  76
ENDBRANCH  55  69
BRANCH  56  80
ATOM     80  C   UNL A   1      37.203  32.084  30.364  1.00  0.00     0.023 A 
ATOM     81  C   UNL A   1      36.351  32.734  29.458  1.00  0.00     0.031 A 
ATOM     82  C   UNL A   1      36.697  31.776  31.641  1.00  0.00     0.131 A 
ATOM     83  C   UNL A   1      35.047  33.076  29.846  1.00  0.00     0.055 A 
ATOM     84  C   UNL A   1      35.384  32.075  32.006  1.00  0.00     0.041 A 
ATOM     85  F   UNL A   1      37.469  31.155  32.547  1.00  0.00    -0.206 F 
ATOM     86  C   UNL A   1      34.553  32.736  31.109  1.00  0.00     0.022 A 
BRANCH  83  87
ATOM     87  S   UNL A   1      34.012  34.022  28.696  1.00  0.00     0.124 S 
ATOM     88  O   UNL A   1      32.938  34.480  29.571  1.00  0.00    -0.237 OA
ATOM     89  O   UNL A   1      34.938  35.047  28.226  1.00  0.00    -0.237 OA
ATOM     90  O   UNL A   1      33.622  33.031  27.696  1.00  0.00    -0.744 OA
ENDBRANCH  83  87
ENDBRANCH  56  80
BRANCH  68  91
ATOM     91  C   UNL A   1      43.363  35.347  30.895  1.00  0.00     0.023 A 
ATOM     92  C   UNL A   1      43.395  36.432  30.000  1.00  0.00     0.031 A 
ATOM     93  C   UNL A   1      43.704  35.591  32.238  1.00  0.00     0.131 A 
ATOM     94  C   UNL A   1      43.812  37.696  30.448  1.00  0.00     0.055 A 
ATOM     95  C   UNL A   1      44.054  36.864  32.691  1.00  0.00     0.041 A 
ATOM     96  F   UNL A   1      43.697  34.592  33.136  1.00  0.00    -0.206 F 
ATOM     97  C   UNL A   1      44.122  37.922  31.791  1.00  0.00     0.022 A 
BRANCH  94  98
ATOM     98  S   UNL A   1      44.036  39.022  29.231  1.00  0.00     0.124 S 
ATOM     99  O   UNL A   1      44.713  38.324  28.142  1.00  0.00    -0.237 OA
ATOM    100  O   UNL A   1      42.663  39.440  28.964  1.00  0.00    -0.237 OA
ATOM    101  O   UNL A   1      44.853  40.005  29.940  1.00  0.00    -0.744 OA
ENDBRANCH  94  98
ENDBRANCH  68  91
ENDBRANCH  42  43
ENDBRANCH  34  37
ENDBRANCH  32  33
ENDBRANCH  31  32
ENDBRANCH  30  31
ENDBRANCH   1  30
TORSDOF 21
ENDMDL
MODEL 2
REMARK VINA RESULT:     -11.7      5.611      8.300
REMARK SMILES NS(=O)(=O)c1ccc(/N=C/c2ccc(O)c(C(=O)NCCCCCCNC(=O)c3ccc(-c4c5nc(c(-c6cc(S(=O)(=O)[O-])ccc6F)c6ccc([nH]6)c(-c6cc(S(=O)(=O)[O-])ccc6F)c6nc(c(-c7cc(S(=O)(=O)[O-])ccc7F)c7ccc4[nH]7)C=C6)C=C5)cc3)c2)cc1
REMARK SMILES IDX 22 1 21 2 20 3 19 4 17 5 18 6 16 8 11 9 12 10 92 11 13 12
REMARK SMILES IDX 14 13 10 14 9 15 8 16 5 17 6 18 94 19 7 20 93 21 2 22 3 23
REMARK SMILES IDX 4 24 1 25 15 28 23 30 24 31 25 32 26 33 27 34 28 36 29 37
REMARK SMILES IDX 30 38 91 39 31 40 90 41 32 42 33 43 34 44 84 45 35 46 89 47
REMARK SMILES IDX 83 48 85 49 36 50 88 51 82 52 81 53 37 55 69 56 49 57 68 58
REMARK SMILES IDX 50 59 53 60 67 61 86 62 51 63 52 64 66 66 87 67 54 68 38 69
REMARK SMILES IDX 39 70 47 71 40 72 46 73 48 74 45 75 41 76 42 77 43 78 44 79
REMARK SMILES IDX 70 80 71 81 79 82 72 83 78 84 80 85 77 86 73 87 74 88 75 89
REMARK SMILES IDX 76 90 55 91 56 92 64 93 57 94 63 95 65 96 62 97 58 98 59 99
REMARK SMILES IDX 60 100 61 101
REMARK H PARENT 19 7 1 26 1 27 15 29 26 35 85 54 53 65
REMARK Flexibility Score: inf
ROOT
ATOM      1  C   UNL A   1      32.712  29.072  25.925  1.00  0.00     0.002 C 
ENDROOT
BRANCH   1   2
ATOM      2  C   UNL A   1      33.229  28.356  24.678  1.00  0.00     0.021 C 
BRANCH   2   3
ATOM      3  C   UNL A   1      32.275  27.375  24.005  1.00  0.00     0.116 C 
BRANCH   3   4
ATOM      4  N   UNL A   1      32.698  26.942  22.681  1.00  0.00    -0.352 N 
ATOM      5  C   UNL A   1      33.028  25.695  22.206  1.00  0.00     0.255 C 
ATOM      6  O   UNL A   1      33.436  25.581  21.048  1.00  0.00    -0.269 OA
ATOM      7  H   UNL A   1      32.759  27.664  22.014  1.00  0.00     0.163 HD
BRANCH   5   8
ATOM      8  C   UNL A   1      32.999  24.472  23.055  1.00  0.00     0.082 A 
ATOM      9  C   UNL A   1      34.135  22.698  24.254  1.00  0.00    -0.006 A 
ATOM     10  C   UNL A   1      32.940  21.993  24.391  1.00  0.00     0.013 A 
ATOM     11  C   UNL A   1      34.146  23.967  23.663  1.00  0.00     0.027 A 
ATOM     12  C   UNL A   1      31.757  22.557  23.907  1.00  0.00     0.047 A 
ATOM     13  C   UNL A   1      31.791  23.781  23.234  1.00  0.00     0.128 A 
BRANCH   9  14
ATOM     14  C   UNL A   1      35.424  22.059  24.602  1.00  0.00     0.119 C 
ATOM     15  N   UNL A   1      36.361  22.768  25.142  1.00  0.00    -0.256 NA
BRANCH  15  16
ATOM     16  C   UNL A   1      37.632  22.225  25.378  1.00  0.00     0.063 A 
ATOM     17  C   UNL A   1      40.031  20.922  26.016  1.00  0.00     0.082 A 
ATOM     18  C   UNL A   1      39.038  20.236  25.316  1.00  0.00     0.024 A 
ATOM     19  C   UNL A   1      39.838  22.249  26.404  1.00  0.00     0.024 A 
ATOM     20  C   UNL A   1      37.846  20.894  24.999  1.00  0.00     0.030 A 
ATOM     21  C   UNL A   1      38.637  22.892  26.092  1.00  0.00     0.030 A 
BRANCH  17  22
ATOM     22  S   UNL A   1      41.494  20.056  26.513  1.00  0.00     0.238 S 
ATOM     23  O   UNL A   1      42.568  21.012  26.607  1.00  0.00    -0.207 OA
ATOM     24  O   UNL A   1      41.588  18.834  25.745  1.00  0.00    -0.207 OA
BRANCH  22  25
ATOM     25  N   UNL A   1      41.121  19.579  28.081  1.00  0.00    -0.225 NA
ATOM     26  H   UNL A   1      41.741  18.819  28.362  1.00  0.00     0.137 HD
ATOM     27  H   UNL A   1      40.153  19.261  28.118  1.00  0.00     0.137 HD
ENDBRANCH  22  25
ENDBRANCH  17  22
ENDBRANCH  15  16
ENDBRANCH   9  14
BRANCH  13  28
ATOM     28  O   UNL A   1      30.591  24.244  22.761  1.00  0.00    -0.507 OA
ATOM     29  H   UNL A   1      30.004  23.661  22.321  1.00  0.00     0.293 HD
ENDBRANCH  13  28
ENDBRANCH   5   8
ENDBRANCH   3   4
ENDBRANCH   2   3
ENDBRANCH   1   2
BRANCH   1  30
ATOM     30  C   UNL A   1      31.891  30.342  25.692  1.00  0.00     0.002 C 
BRANCH  30  31
ATOM     31  C   UNL A   1      31.776  31.305  26.876  1.00  0.00     0.021 C 
BRANCH  31  32
ATOM     32  C   UNL A   1      33.030  32.106  27.209  1.00  0.00     0.116 C 
BRANCH  32  33
ATOM     33  N   UNL A   1      32.741  33.491  27.540  1.00  0.00    -0.352 N 
ATOM     34  C   UNL A   1      33.287  34.288  28.516  1.00  0.00     0.251 C 
ATOM     35  H   UNL A   1      32.052  33.920  26.983  1.00  0.00     0.163 HD
ATOM     36  O   UNL A   1      32.792  35.387  28.748  1.00  0.00    -0.269 OA
BRANCH  34  37
ATOM     37  C   UNL A   1      34.447  33.813  29.306  1.00  0.00     0.039 A 
ATOM     38  C   UNL A   1      34.220  32.963  30.392  1.00  0.00     0.014 A 
ATOM     39  C   UNL A   1      35.751  34.206  28.987  1.00  0.00     0.014 A 
ATOM     40  C   UNL A   1      35.303  32.457  31.118  1.00  0.00     0.010 A 
ATOM     41  C   UNL A   1      36.831  33.640  29.662  1.00  0.00     0.010 A 
ATOM     42  C   UNL A   1      36.620  32.764  30.738  1.00  0.00    -0.014 A 
BRANCH  42  43
ATOM     43  C   UNL A   1      37.784  32.182  31.457  1.00  0.00     0.031 A 
ATOM     44  C   UNL A   1      38.585  31.075  30.828  1.00  0.00     0.074 A 
ATOM     45  C   UNL A   1      38.078  32.602  32.703  1.00  0.00     0.049 A 
ATOM     46  N   UNL A   1      39.585  30.388  31.320  1.00  0.00    -0.248 NA
ATOM     47  C   UNL A   1      38.183  30.666  29.475  1.00  0.00     0.031 C 
ATOM     48  C   UNL A   1      37.345  33.632  33.440  1.00  0.00     0.029 A 
ATOM     49  N   UNL A   1      39.058  32.203  33.577  1.00  0.00    -0.354 N 
ATOM     50  C   UNL A   1      39.923  29.457  30.343  1.00  0.00     0.074 A 
ATOM     51  C   UNL A   1      38.971  29.624  29.264  1.00  0.00     0.031 C 
ATOM     52  C   UNL A   1      37.905  33.791  34.648  1.00  0.00     0.029 A 
ATOM     53  C   UNL A   1      39.007  32.844  34.792  1.00  0.00     0.049 A 
ATOM     54  H   UNL A   1      39.733  31.522  33.355  1.00  0.00     0.167 HD
ATOM     55  C   UNL A   1      40.946  28.565  30.335  1.00  0.00     0.034 A 
ATOM     56  C   UNL A   1      39.748  32.677  35.906  1.00  0.00     0.034 A 
ATOM     57  C   UNL A   1      41.877  28.408  31.429  1.00  0.00     0.049 A 
ATOM     58  C   UNL A   1      40.864  31.664  35.894  1.00  0.00     0.074 A 
ATOM     59  C   UNL A   1      42.982  27.579  31.510  1.00  0.00     0.029 A 
ATOM     60  N   UNL A   1      41.800  29.083  32.642  1.00  0.00    -0.354 N 
ATOM     61  N   UNL A   1      41.216  30.837  34.938  1.00  0.00    -0.248 NA
ATOM     62  C   UNL A   1      41.689  31.575  37.105  1.00  0.00     0.031 C 
ATOM     63  C   UNL A   1      43.525  27.695  32.795  1.00  0.00     0.029 A 
ATOM     64  C   UNL A   1      42.815  28.661  33.491  1.00  0.00     0.049 A 
ATOM     65  H   UNL A   1      41.124  29.761  32.868  1.00  0.00     0.167 HD
ATOM     66  C   UNL A   1      42.320  30.141  35.425  1.00  0.00     0.074 A 
ATOM     67  C   UNL A   1      42.582  30.660  36.752  1.00  0.00     0.031 C 
ATOM     68  C   UNL A   1      43.052  29.167  34.825  1.00  0.00     0.034 A 
BRANCH  55  69
ATOM     69  C   UNL A   1      41.073  27.674  29.118  1.00  0.00     0.023 A 
ATOM     70  C   UNL A   1      42.084  27.875  28.160  1.00  0.00     0.031 A 
ATOM     71  C   UNL A   1      40.137  26.654  28.873  1.00  0.00     0.131 A 
ATOM     72  C   UNL A   1      42.068  27.152  26.957  1.00  0.00     0.055 A 
ATOM     73  C   UNL A   1      40.186  25.869  27.719  1.00  0.00     0.041 A 
ATOM     74  F   UNL A   1      39.137  26.420  29.737  1.00  0.00    -0.206 F 
ATOM     75  C   UNL A   1      41.140  26.132  26.740  1.00  0.00     0.022 A 
BRANCH  72  76
ATOM     76  S   UNL A   1      43.145  27.704  25.605  1.00  0.00     0.124 S 
ATOM     77  O   UNL A   1      43.834  26.465  25.250  1.00  0.00    -0.237 OA
ATOM     78  O   UNL A   1      42.188  28.208  24.626  1.00  0.00    -0.237 OA
ATOM     79  O   UNL A   1      43.991  28.718  26.233  1.00  0.00    -0.744 OA
ENDBRANCH  72  76
ENDBRANCH  55  69
BRANCH  56  80
ATOM     80  C   UNL A   1      39.443  33.479  37.125  1.00  0.00     0.023 A 
ATOM     81  C   UNL A   1      38.838  32.897  38.249  1.00  0.00     0.031 A 
ATOM     82  C   UNL A   1      39.763  34.849  37.182  1.00  0.00     0.131 A 
ATOM     83  C   UNL A   1      38.549  33.685  39.374  1.00  0.00     0.055 A 
ATOM     84  C   UNL A   1      39.519  35.616  38.322  1.00  0.00     0.041 A 
ATOM     85  F   UNL A   1      40.345  35.456  36.135  1.00  0.00    -0.206 F 
ATOM     86  C   UNL A   1      38.900  35.036  39.424  1.00  0.00     0.022 A 
BRANCH  83  87
ATOM     87  S   UNL A   1      37.656  32.932  40.762  1.00  0.00     0.124 S 
ATOM     88  O   UNL A   1      37.910  31.513  40.544  1.00  0.00    -0.237 OA
ATOM     89  O   UNL A   1      38.320  33.534  41.913  1.00  0.00    -0.237 OA
ATOM     90  O   UNL A   1      36.275  33.359  40.549  1.00  0.00    -0.744 OA
ENDBRANCH  83  87
ENDBRANCH  56  80
BRANCH  68  91
ATOM     91  C   UNL A   1      44.234  28.624  35.594  1.00  0.00     0.023 A 
ATOM     92  C   UNL A   1      44.105  27.551  36.493  1.00  0.00     0.031 A 
ATOM     93  C   UNL A   1      45.509  29.195  35.427  1.00  0.00     0.131 A 
ATOM     94  C   UNL A   1      45.220  27.118  37.231  1.00  0.00     0.055 A 
ATOM     95  C   UNL A   1      46.626  28.718  36.114  1.00  0.00     0.041 A 
ATOM     96  F   UNL A   1      45.691  30.226  34.586  1.00  0.00    -0.206 F 
ATOM     97  C   UNL A   1      46.482  27.682  37.032  1.00  0.00     0.022 A 
BRANCH  94  98
ATOM     98  S   UNL A   1      44.978  25.872  38.526  1.00  0.00     0.124 S 
ATOM     99  O   UNL A   1      44.244  24.831  37.813  1.00  0.00    -0.237 OA
ATOM    100  O   UNL A   1      46.348  25.540  38.903  1.00  0.00    -0.237 OA
ATOM    101  O   UNL A   1      44.211  26.582  39.548  1.00  0.00    -0.744 OA
ENDBRANCH  94  98
ENDBRANCH  68  91
ENDBRANCH  42  43
ENDBRANCH  34  37
ENDBRANCH  32  33
ENDBRANCH  31  32
ENDBRANCH  30  31
ENDBRANCH   1  30
TORSDOF 21
ENDMDL
MODEL 3
REMARK VINA RESULT:     -11.5      2.128      7.595
REMARK SMILES NS(=O)(=O)c1ccc(/N=C/c2ccc(O)c(C(=O)NCCCCCCNC(=O)c3ccc(-c4c5nc(c(-c6cc(S(=O)(=O)[O-])ccc6F)c6ccc([nH]6)c(-c6cc(S(=O)(=O)[O-])ccc6F)c6nc(c(-c7cc(S(=O)(=O)[O-])ccc7F)c7ccc4[nH]7)C=C6)C=C5)cc3)c2)cc1
REMARK SMILES IDX 22 1 21 2 20 3 19 4 17 5 18 6 16 8 11 9 12 10 92 11 13 12
REMARK SMILES IDX 14 13 10 14 9 15 8 16 5 17 6 18 94 19 7 20 93 21 2 22 3 23
REMARK SMILES IDX 4 24 1 25 15 28 23 30 24 31 25 32 26 33 27 34 28 36 29 37
REMARK SMILES IDX 30 38 91 39 31 40 90 41 32 42 33 43 34 44 84 45 35 46 89 47
REMARK SMILES IDX 83 48 85 49 36 50 88 51 82 52 81 53 37 55 69 56 49 57 68 58
REMARK SMILES IDX 50 59 53 60 67 61 86 62 51 63 52 64 66 66 87 67 54 68 38 69
REMARK SMILES IDX 39 70 47 71 40 72 46 73 48 74 45 75 41 76 42 77 43 78 44 79
REMARK SMILES IDX 70 80 71 81 79 82 72 83 78 84 80 85 77 86 73 87 74 88 75 89
REMARK SMILES IDX 76 90 55 91 56 92 64 93 57 94 63 95 65 96 62 97 58 98 59 99
REMARK SMILES IDX 60 100 61 101
REMARK H PARENT 19 7 1 26 1 27 15 29 26 35 85 54 53 65
REMARK Flexibility Score: inf
ROOT
ATOM      1  C   UNL A   1      34.365  24.665  25.854  1.00  0.00     0.002 C 
ENDROOT
BRANCH   1   2
ATOM      2  C   UNL A   1      33.513  25.932  25.811  1.00  0.00     0.021 C 
BRANCH   2   3
ATOM      3  C   UNL A   1      32.117  25.840  26.416  1.00  0.00     0.116 C 
BRANCH   3   4
ATOM      4  N   UNL A   1      31.127  26.690  25.768  1.00  0.00    -0.352 N 
ATOM      5  C   UNL A   1      30.826  26.865  24.438  1.00  0.00     0.255 C 
ATOM      6  O   UNL A   1      29.985  27.709  24.119  1.00  0.00    -0.269 OA
ATOM      7  H   UNL A   1      30.584  27.231  26.387  1.00  0.00     0.163 HD
BRANCH   5   8
ATOM      8  C   UNL A   1      31.532  26.141  23.346  1.00  0.00     0.082 A 
ATOM      9  C   UNL A   1      32.346  24.089  22.345  1.00  0.00    -0.006 A 
ATOM     10  C   UNL A   1      33.134  24.810  21.449  1.00  0.00     0.013 A 
ATOM     11  C   UNL A   1      31.490  24.753  23.231  1.00  0.00     0.027 A 
ATOM     12  C   UNL A   1      33.076  26.206  21.463  1.00  0.00     0.047 A 
ATOM     13  C   UNL A   1      32.291  26.864  22.412  1.00  0.00     0.128 A 
BRANCH   9  14
ATOM     14  C   UNL A   1      32.509  22.624  22.471  1.00  0.00     0.119 C 
ATOM     15  N   UNL A   1      32.121  22.030  23.552  1.00  0.00    -0.256 NA
BRANCH  15  16
ATOM     16  C   UNL A   1      32.364  20.664  23.753  1.00  0.00     0.063 A 
ATOM     17  C   UNL A   1      33.149  18.005  24.174  1.00  0.00     0.082 A 
ATOM     18  C   UNL A   1      33.433  18.971  25.141  1.00  0.00     0.024 A 
ATOM     19  C   UNL A   1      32.480  18.353  22.999  1.00  0.00     0.024 A 
ATOM     20  C   UNL A   1      33.036  20.293  24.924  1.00  0.00     0.030 A 
ATOM     21  C   UNL A   1      32.099  19.681  22.789  1.00  0.00     0.030 A 
BRANCH  17  22
ATOM     22  S   UNL A   1      33.749  16.354  24.398  1.00  0.00     0.238 S 
ATOM     23  O   UNL A   1      34.232  15.879  23.127  1.00  0.00    -0.207 OA
ATOM     24  O   UNL A   1      32.796  15.624  25.205  1.00  0.00    -0.207 OA
BRANCH  22  25
ATOM     25  N   UNL A   1      35.093  16.584  25.381  1.00  0.00    -0.225 NA
ATOM     26  H   UNL A   1      35.727  17.250  24.939  1.00  0.00     0.137 HD
ATOM     27  H   UNL A   1      35.572  15.695  25.516  1.00  0.00     0.137 HD
ENDBRANCH  22  25
ENDBRANCH  17  22
ENDBRANCH  15  16
ENDBRANCH   9  14
BRANCH  13  28
ATOM     28  O   UNL A   1      32.321  28.234  22.378  1.00  0.00    -0.507 OA
ATOM     29  H   UNL A   1      32.568  28.716  23.143  1.00  0.00     0.293 HD
ENDBRANCH  13  28
ENDBRANCH   5   8
ENDBRANCH   3   4
ENDBRANCH   2   3
ENDBRANCH   1   2
BRANCH   1  30
ATOM     30  C   UNL A   1      35.127  24.309  24.574  1.00  0.00     0.002 C 
BRANCH  30  31
ATOM     31  C   UNL A   1      35.818  22.944  24.551  1.00  0.00     0.021 C 
BRANCH  31  32
ATOM     32  C   UNL A   1      36.259  22.397  25.904  1.00  0.00     0.116 C 
BRANCH  32  33
ATOM     33  N   UNL A   1      37.257  21.348  25.787  1.00  0.00    -0.352 N 
ATOM     34  C   UNL A   1      38.618  21.415  25.960  1.00  0.00     0.251 C 
ATOM     35  H   UNL A   1      36.907  20.459  25.549  1.00  0.00     0.163 HD
ATOM     36  O   UNL A   1      39.315  20.451  25.655  1.00  0.00    -0.269 OA
BRANCH  34  37
ATOM     37  C   UNL A   1      39.245  22.651  26.482  1.00  0.00     0.039 A 
ATOM     38  C   UNL A   1      40.297  22.540  27.396  1.00  0.00     0.014 A 
ATOM     39  C   UNL A   1      38.799  23.915  26.081  1.00  0.00     0.014 A 
ATOM     40  C   UNL A   1      40.940  23.691  27.859  1.00  0.00     0.010 A 
ATOM     41  C   UNL A   1      39.491  25.055  26.483  1.00  0.00     0.010 A 
ATOM     42  C   UNL A   1      40.566  24.958  27.381  1.00  0.00    -0.014 A 
BRANCH  42  43
ATOM     43  C   UNL A   1      41.284  26.187  27.811  1.00  0.00     0.031 A 
ATOM     44  C   UNL A   1      40.545  27.278  28.538  1.00  0.00     0.074 A 
ATOM     45  C   UNL A   1      42.581  26.352  27.488  1.00  0.00     0.049 A 
ATOM     46  N   UNL A   1      40.970  28.452  28.931  1.00  0.00    -0.248 NA
ATOM     47  C   UNL A   1      39.128  27.022  28.832  1.00  0.00     0.031 C 
ATOM     48  C   UNL A   1      43.392  25.389  26.742  1.00  0.00     0.029 A 
ATOM     49  N   UNL A   1      43.441  27.394  27.729  1.00  0.00    -0.354 N 
ATOM     50  C   UNL A   1      39.870  29.080  29.506  1.00  0.00     0.074 A 
ATOM     51  C   UNL A   1      38.747  28.182  29.342  1.00  0.00     0.031 C 
ATOM     52  C   UNL A   1      44.631  25.880  26.594  1.00  0.00     0.029 A 
ATOM     53  C   UNL A   1      44.694  27.210  27.194  1.00  0.00     0.049 A 
ATOM     54  H   UNL A   1      43.185  28.197  28.238  1.00  0.00     0.167 HD
ATOM     55  C   UNL A   1      39.810  30.283  30.135  1.00  0.00     0.034 A 
ATOM     56  C   UNL A   1      45.767  28.026  27.167  1.00  0.00     0.034 A 
ATOM     57  C   UNL A   1      40.943  31.167  30.276  1.00  0.00     0.049 A 
ATOM     58  C   UNL A   1      45.678  29.368  27.845  1.00  0.00     0.074 A 
ATOM     59  C   UNL A   1      41.014  32.380  30.939  1.00  0.00     0.029 A 
ATOM     60  N   UNL A   1      42.201  30.943  29.728  1.00  0.00    -0.354 N 
ATOM     61  N   UNL A   1      44.651  29.923  28.446  1.00  0.00    -0.248 NA
ATOM     62  C   UNL A   1      46.897  30.186  27.854  1.00  0.00     0.031 C 
ATOM     63  C   UNL A   1      42.287  32.923  30.727  1.00  0.00     0.029 A 
ATOM     64  C   UNL A   1      43.043  32.012  30.006  1.00  0.00     0.049 A 
ATOM     65  H   UNL A   1      42.459  30.143  29.216  1.00  0.00     0.167 HD
ATOM     66  C   UNL A   1      45.107  31.149  28.923  1.00  0.00     0.074 A 
ATOM     67  C   UNL A   1      46.506  31.241  28.554  1.00  0.00     0.031 C 
ATOM     68  C   UNL A   1      44.431  32.106  29.610  1.00  0.00     0.034 A 
BRANCH  55  69
ATOM     69  C   UNL A   1      38.462  30.709  30.675  1.00  0.00     0.023 A 
ATOM     70  C   UNL A   1      37.537  31.410  29.878  1.00  0.00     0.031 A 
ATOM     71  C   UNL A   1      38.120  30.476  32.018  1.00  0.00     0.131 A 
ATOM     72  C   UNL A   1      36.377  31.948  30.455  1.00  0.00     0.055 A 
ATOM     73  C   UNL A   1      36.915  30.928  32.562  1.00  0.00     0.041 A 
ATOM     74  F   UNL A   1      38.963  29.829  32.838  1.00  0.00    -0.206 F 
ATOM     75  C   UNL A   1      36.046  31.690  31.787  1.00  0.00     0.022 A 
BRANCH  72  76
ATOM     76  S   UNL A   1      35.417  33.154  29.497  1.00  0.00     0.124 S 
ATOM     77  O   UNL A   1      35.195  32.429  28.247  1.00  0.00    -0.237 OA
ATOM     78  O   UNL A   1      34.241  33.358  30.336  1.00  0.00    -0.237 OA
ATOM     79  O   UNL A   1      36.316  34.301  29.390  1.00  0.00    -0.744 OA
ENDBRANCH  72  76
ENDBRANCH  55  69
BRANCH  56  80
ATOM     80  C   UNL A   1      47.006  27.595  26.460  1.00  0.00     0.023 A 
ATOM     81  C   UNL A   1      47.182  27.829  25.088  1.00  0.00     0.031 A 
ATOM     82  C   UNL A   1      48.042  26.944  27.158  1.00  0.00     0.131 A 
ATOM     83  C   UNL A   1      48.354  27.395  24.449  1.00  0.00     0.055 A 
ATOM     84  C   UNL A   1      49.226  26.559  26.528  1.00  0.00     0.041 A 
ATOM     85  F   UNL A   1      47.925  26.696  28.472  1.00  0.00    -0.206 F 
ATOM     86  C   UNL A   1      49.384  26.776  25.164  1.00  0.00     0.022 A 
BRANCH  83  87
ATOM     87  S   UNL A   1      48.500  27.603  22.654  1.00  0.00     0.124 S 
ATOM     88  O   UNL A   1      47.262  28.304  22.334  1.00  0.00    -0.237 OA
ATOM     89  O   UNL A   1      49.728  28.381  22.536  1.00  0.00    -0.237 OA
ATOM     90  O   UNL A   1      48.585  26.230  22.159  1.00  0.00    -0.744 OA
ENDBRANCH  83  87
ENDBRANCH  56  80
BRANCH  68  91
ATOM     91  C   UNL A   1      45.213  33.327  30.038  1.00  0.00     0.023 A 
ATOM     92  C   UNL A   1      45.880  33.386  31.275  1.00  0.00     0.031 A 
ATOM     93  C   UNL A   1      45.286  34.451  29.195  1.00  0.00     0.131 A 
ATOM     94  C   UNL A   1      46.544  34.563  31.656  1.00  0.00     0.055 A 
ATOM     95  C   UNL A   1      46.003  35.594  29.551  1.00  0.00     0.041 A 
ATOM     96  F   UNL A   1      44.664  34.453  28.005  1.00  0.00    -0.206 F 
ATOM     97  C   UNL A   1      46.626  35.659  30.793  1.00  0.00     0.022 A 
BRANCH  94  98
ATOM     98  S   UNL A   1      47.220  34.679  33.335  1.00  0.00     0.124 S 
ATOM     99  O   UNL A   1      48.235  33.630  33.327  1.00  0.00    -0.237 OA
ATOM    100  O   UNL A   1      47.721  36.050  33.378  1.00  0.00    -0.237 OA
ATOM    101  O   UNL A   1      46.064  34.417  34.189  1.00  0.00    -0.744 OA
ENDBRANCH  94  98
ENDBRANCH  68  91
ENDBRANCH  42  43
ENDBRANCH  34  37
ENDBRANCH  32  33
ENDBRANCH  31  32
ENDBRANCH  30  31
ENDBRANCH   1  30
TORSDOF 21
ENDMDL
