MODEL 1
REMARK VINA RESULT:     -12.8      0.000      0.000
REMARK SMILES Nc1oc2ccc(F)cc2c(=O)c1[C@@H]1[NH2+][C@H](C(=O)NCCCCCCNC(=O)c2ccc(-c3c4nc(c(-c5cc(S(=O)(=O)[O-])ccc5F)c5ccc([nH]5)c(-c5cc(S(=O)(=O)[O-])ccc5F)c5nc(c(-c6cc(S(=O)(=O)[O-])ccc6F)c6ccc3[nH]6)C=C5)C=C4)cc2)CS1
REMARK SMILES IDX 23 1 22 2 21 3 20 4 19 5 17 6 18 7 16 9 14 10 15 11 93 12
REMARK SMILES IDX 92 15 13 16 2 17 3 18 4 19 11 20 5 21 10 22 12 23 6 24 9 25
REMARK SMILES IDX 7 26 8 27 1 28 24 31 25 32 26 33 27 34 28 36 29 37 30 38
REMARK SMILES IDX 91 39 31 40 90 41 32 42 33 43 34 44 84 45 35 46 89 47 83 48
REMARK SMILES IDX 85 49 36 50 88 51 82 52 81 53 37 55 69 56 49 57 68 58 50 59
REMARK SMILES IDX 53 60 67 61 86 62 51 63 52 64 66 66 87 67 54 68 38 69 39 70
REMARK SMILES IDX 47 71 40 72 46 73 48 74 45 75 41 76 42 77 43 78 44 79 70 80
REMARK SMILES IDX 71 81 79 82 72 83 78 84 80 85 77 86 73 87 74 88 75 89 76 90
REMARK SMILES IDX 55 91 56 92 64 93 57 94 63 95 65 96 62 97 58 98 59 99 60 100
REMARK SMILES IDX 61 101
REMARK H PARENT 19 8 15 13 15 14 1 29 1 30 26 35 85 54 53 65
REMARK Flexibility Score: inf
ROOT
ATOM      1  C   UNL A   1      31.619  30.044  25.327  1.00  0.00     0.002 C 
ENDROOT
BRANCH   1   2
ATOM      2  C   UNL A   1      32.383  28.846  25.896  1.00  0.00     0.002 C 
BRANCH   2   3
ATOM      3  C   UNL A   1      31.526  27.694  26.424  1.00  0.00     0.021 C 
BRANCH   3   4
ATOM      4  C   UNL A   1      32.129  26.299  26.270  1.00  0.00     0.116 C 
BRANCH   4   5
ATOM      5  N   UNL A   1      31.311  25.300  26.934  1.00  0.00    -0.351 N 
ATOM      6  C   UNL A   1      30.851  24.080  26.563  1.00  0.00     0.279 C 
ATOM      7  O   UNL A   1      29.996  23.588  27.315  1.00  0.00    -0.268 OA
ATOM      8  H   UNL A   1      31.035  25.563  27.842  1.00  0.00     0.163 HD
BRANCH   6   9
ATOM      9  C   UNL A   1      31.275  23.285  25.305  1.00  0.00     0.283 C 
ATOM     10  C   UNL A   1      31.480  24.384  23.128  1.00  0.00     0.283 C 
ATOM     11  N   UNL A   1      30.556  23.737  24.083  1.00  0.00    -0.320 N 
ATOM     12  S   UNL A   1      33.188  23.958  23.606  1.00  0.00    -0.087 SA
ATOM     13  H   UNL A   1      30.126  22.930  23.633  1.00  0.00     0.348 HD
ATOM     14  H   UNL A   1      29.849  24.418  24.358  1.00  0.00     0.348 HD
ATOM     15  C   UNL A   1      32.738  22.997  25.057  1.00  0.00     0.151 C 
BRANCH  10  16
ATOM     16  C   UNL A   1      31.316  25.879  22.953  1.00  0.00     0.128 A 
ATOM     17  C   UNL A   1      32.234  26.779  22.539  1.00  0.00     0.205 A 
ATOM     18  O   UNL A   1      31.956  28.117  22.301  1.00  0.00    -0.440 OA
ATOM     19  C   UNL A   1      30.668  28.561  22.406  1.00  0.00     0.140 A 
ATOM     20  C   UNL A   1      30.008  26.433  23.413  1.00  0.00     0.205 A 
ATOM     21  C   UNL A   1      30.388  29.849  21.947  1.00  0.00     0.051 A 
ATOM     22  C   UNL A   1      29.668  27.793  22.985  1.00  0.00     0.068 A 
ATOM     23  O   UNL A   1      29.250  25.805  24.142  1.00  0.00    -0.288 OA
ATOM     24  C   UNL A   1      29.104  30.370  22.102  1.00  0.00     0.043 A 
ATOM     25  C   UNL A   1      28.383  28.311  23.159  1.00  0.00     0.055 A 
ATOM     26  C   UNL A   1      28.118  29.602  22.715  1.00  0.00     0.124 A 
ATOM     27  F   UNL A   1      26.894  30.118  22.875  1.00  0.00    -0.207 F 
BRANCH  17  28
ATOM     28  N   UNL A   1      33.536  26.475  22.285  1.00  0.00    -0.369 N 
ATOM     29  H   UNL A   1      34.202  27.194  22.202  1.00  0.00     0.159 HD
ATOM     30  H   UNL A   1      33.810  25.534  22.184  1.00  0.00     0.159 HD
ENDBRANCH  17  28
ENDBRANCH  10  16
ENDBRANCH   6   9
ENDBRANCH   4   5
ENDBRANCH   3   4
ENDBRANCH   2   3
ENDBRANCH   1   2
BRANCH   1  31
ATOM     31  C   UNL A   1      31.375  31.206  26.294  1.00  0.00     0.021 C 
BRANCH  31  32
ATOM     32  C   UNL A   1      32.520  31.512  27.256  1.00  0.00     0.116 C 
BRANCH  32  33
ATOM     33  N   UNL A   1      32.755  32.938  27.429  1.00  0.00    -0.352 N 
ATOM     34  C   UNL A   1      33.885  33.586  27.876  1.00  0.00     0.251 C 
ATOM     35  H   UNL A   1      32.000  33.522  27.192  1.00  0.00     0.163 HD
ATOM     36  O   UNL A   1      33.869  34.798  28.069  1.00  0.00    -0.269 OA
BRANCH  34  37
ATOM     37  C   UNL A   1      35.100  32.797  28.163  1.00  0.00     0.039 A 
ATOM     38  C   UNL A   1      35.011  31.422  28.390  1.00  0.00     0.014 A 
ATOM     39  C   UNL A   1      36.322  33.459  28.290  1.00  0.00     0.014 A 
ATOM     40  C   UNL A   1      36.099  30.743  28.931  1.00  0.00     0.010 A 
ATOM     41  C   UNL A   1      37.434  32.758  28.764  1.00  0.00     0.010 A 
ATOM     42  C   UNL A   1      37.313  31.413  29.154  1.00  0.00    -0.014 A 
BRANCH  42  43
ATOM     43  C   UNL A   1      38.430  30.731  29.859  1.00  0.00     0.031 A 
ATOM     44  C   UNL A   1      38.731  31.073  31.296  1.00  0.00     0.074 A 
ATOM     45  C   UNL A   1      39.155  29.791  29.226  1.00  0.00     0.049 A 
ATOM     46  N   UNL A   1      39.706  30.650  32.059  1.00  0.00    -0.248 NA
ATOM     47  C   UNL A   1      37.819  32.017  31.963  1.00  0.00     0.031 C 
ATOM     48  C   UNL A   1      38.928  29.346  27.852  1.00  0.00     0.029 A 
ATOM     49  N   UNL A   1      40.222  29.037  29.650  1.00  0.00    -0.354 N 
ATOM     50  C   UNL A   1      39.540  31.292  33.282  1.00  0.00     0.074 A 
ATOM     51  C   UNL A   1      38.390  32.157  33.151  1.00  0.00     0.031 C 
ATOM     52  C   UNL A   1      39.807  28.378  27.555  1.00  0.00     0.029 A 
ATOM     53  C   UNL A   1      40.709  28.184  28.688  1.00  0.00     0.049 A 
ATOM     54  H   UNL A   1      40.601  29.101  30.556  1.00  0.00     0.167 HD
ATOM     55  C   UNL A   1      40.275  31.159  34.412  1.00  0.00     0.034 A 
ATOM     56  C   UNL A   1      41.776  27.358  28.702  1.00  0.00     0.034 A 
ATOM     57  C   UNL A   1      41.399  30.268  34.536  1.00  0.00     0.049 A 
ATOM     58  C   UNL A   1      42.611  27.264  29.955  1.00  0.00     0.074 A 
ATOM     59  C   UNL A   1      42.197  30.051  35.645  1.00  0.00     0.029 A 
ATOM     60  N   UNL A   1      41.878  29.441  33.531  1.00  0.00    -0.354 N 
ATOM     61  N   UNL A   1      42.437  27.872  31.105  1.00  0.00    -0.248 NA
ATOM     62  C   UNL A   1      43.786  26.383  29.917  1.00  0.00     0.031 C 
ATOM     63  C   UNL A   1      43.191  29.139  35.295  1.00  0.00     0.029 A 
ATOM     64  C   UNL A   1      42.974  28.729  33.988  1.00  0.00     0.049 A 
ATOM     65  H   UNL A   1      41.495  29.370  32.626  1.00  0.00     0.167 HD
ATOM     66  C   UNL A   1      43.462  27.426  31.935  1.00  0.00     0.074 A 
ATOM     67  C   UNL A   1      44.243  26.485  31.159  1.00  0.00     0.031 C 
ATOM     68  C   UNL A   1      43.730  27.769  33.220  1.00  0.00     0.034 A 
BRANCH  55  69
ATOM     69  C   UNL A   1      39.900  31.980  35.622  1.00  0.00     0.023 A 
ATOM     70  C   UNL A   1      38.963  31.480  36.547  1.00  0.00     0.031 A 
ATOM     71  C   UNL A   1      40.362  33.297  35.790  1.00  0.00     0.131 A 
ATOM     72  C   UNL A   1      38.492  32.304  37.577  1.00  0.00     0.055 A 
ATOM     73  C   UNL A   1      39.918  34.101  36.842  1.00  0.00     0.041 A 
ATOM     74  F   UNL A   1      41.257  33.820  34.937  1.00  0.00    -0.206 F 
ATOM     75  C   UNL A   1      38.969  33.609  37.733  1.00  0.00     0.022 A 
BRANCH  72  76
ATOM     76  S   UNL A   1      37.196  31.739  38.714  1.00  0.00     0.124 S 
ATOM     77  O   UNL A   1      36.120  32.687  38.435  1.00  0.00    -0.237 OA
ATOM     78  O   UNL A   1      36.960  30.374  38.254  1.00  0.00    -0.237 OA
ATOM     79  O   UNL A   1      37.807  31.864  40.032  1.00  0.00    -0.744 OA
ENDBRANCH  72  76
ENDBRANCH  55  69
BRANCH  56  80
ATOM     80  C   UNL A   1      42.075  26.540  27.489  1.00  0.00     0.023 A 
ATOM     81  C   UNL A   1      41.683  25.191  27.413  1.00  0.00     0.031 A 
ATOM     82  C   UNL A   1      42.860  27.059  26.447  1.00  0.00     0.131 A 
ATOM     83  C   UNL A   1      42.142  24.388  26.360  1.00  0.00     0.055 A 
ATOM     84  C   UNL A   1      43.253  26.275  25.361  1.00  0.00     0.041 A 
ATOM     85  F   UNL A   1      43.267  28.338  26.479  1.00  0.00    -0.206 F 
ATOM     86  C   UNL A   1      42.912  24.926  25.325  1.00  0.00     0.022 A 
BRANCH  83  87
ATOM     87  S   UNL A   1      41.878  22.593  26.376  1.00  0.00     0.124 S 
ATOM     88  O   UNL A   1      42.579  22.192  27.591  1.00  0.00    -0.237 OA
ATOM     89  O   UNL A   1      40.420  22.506  26.430  1.00  0.00    -0.237 OA
ATOM     90  O   UNL A   1      42.477  22.145  25.123  1.00  0.00    -0.744 OA
ENDBRANCH  83  87
ENDBRANCH  56  80
BRANCH  68  91
ATOM     91  C   UNL A   1      44.905  27.130  33.918  1.00  0.00     0.023 A 
ATOM     92  C   UNL A   1      44.723  25.933  34.639  1.00  0.00     0.031 A 
ATOM     93  C   UNL A   1      46.136  27.796  34.033  1.00  0.00     0.131 A 
ATOM     94  C   UNL A   1      45.734  25.470  35.487  1.00  0.00     0.055 A 
ATOM     95  C   UNL A   1      47.160  27.303  34.844  1.00  0.00     0.041 A 
ATOM     96  F   UNL A   1      46.353  28.946  33.375  1.00  0.00    -0.206 F 
ATOM     97  C   UNL A   1      46.955  26.144  35.590  1.00  0.00     0.022 A 
BRANCH  94  98
ATOM     98  S   UNL A   1      45.468  24.034  36.565  1.00  0.00     0.124 S 
ATOM     99  O   UNL A   1      46.833  23.557  36.778  1.00  0.00    -0.237 OA
ATOM    100  O   UNL A   1      44.829  24.639  37.730  1.00  0.00    -0.237 OA
ATOM    101  O   UNL A   1      44.620  23.150  35.772  1.00  0.00    -0.744 OA
ENDBRANCH  94  98
ENDBRANCH  68  91
ENDBRANCH  42  43
ENDBRANCH  34  37
ENDBRANCH  32  33
ENDBRANCH  31  32
ENDBRANCH   1  31
TORSDOF 18
ENDMDL
MODEL 2
REMARK VINA RESULT:     -12.8      4.885     10.055
REMARK SMILES Nc1oc2ccc(F)cc2c(=O)c1[C@@H]1[NH2+][C@H](C(=O)NCCCCCCNC(=O)c2ccc(-c3c4nc(c(-c5cc(S(=O)(=O)[O-])ccc5F)c5ccc([nH]5)c(-c5cc(S(=O)(=O)[O-])ccc5F)c5nc(c(-c6cc(S(=O)(=O)[O-])ccc6F)c6ccc3[nH]6)C=C5)C=C4)cc2)CS1
REMARK SMILES IDX 23 1 22 2 21 3 20 4 19 5 17 6 18 7 16 9 14 10 15 11 93 12
REMARK SMILES IDX 92 15 13 16 2 17 3 18 4 19 11 20 5 21 10 22 12 23 6 24 9 25
REMARK SMILES IDX 7 26 8 27 1 28 24 31 25 32 26 33 27 34 28 36 29 37 30 38
REMARK SMILES IDX 91 39 31 40 90 41 32 42 33 43 34 44 84 45 35 46 89 47 83 48
REMARK SMILES IDX 85 49 36 50 88 51 82 52 81 53 37 55 69 56 49 57 68 58 50 59
REMARK SMILES IDX 53 60 67 61 86 62 51 63 52 64 66 66 87 67 54 68 38 69 39 70
REMARK SMILES IDX 47 71 40 72 46 73 48 74 45 75 41 76 42 77 43 78 44 79 70 80
REMARK SMILES IDX 71 81 79 82 72 83 78 84 80 85 77 86 73 87 74 88 75 89 76 90
REMARK SMILES IDX 55 91 56 92 64 93 57 94 63 95 65 96 62 97 58 98 59 99 60 100
REMARK SMILES IDX 61 101
REMARK H PARENT 19 8 15 13 15 14 1 29 1 30 26 35 85 54 53 65
REMARK Flexibility Score: inf
ROOT
ATOM      1  C   UNL A   1      35.316  21.218  24.978  1.00  0.00     0.002 C 
ENDROOT
BRANCH   1   2
ATOM      2  C   UNL A   1      34.145  20.673  25.799  1.00  0.00     0.002 C 
BRANCH   2   3
ATOM      3  C   UNL A   1      32.825  20.497  25.045  1.00  0.00     0.021 C 
BRANCH   3   4
ATOM      4  C   UNL A   1      32.871  20.816  23.552  1.00  0.00     0.116 C 
BRANCH   4   5
ATOM      5  N   UNL A   1      31.835  21.766  23.188  1.00  0.00    -0.351 N 
ATOM      6  C   UNL A   1      31.623  23.071  23.488  1.00  0.00     0.279 C 
ATOM      7  O   UNL A   1      30.509  23.511  23.168  1.00  0.00    -0.268 OA
ATOM      8  H   UNL A   1      31.143  21.382  22.602  1.00  0.00     0.163 HD
BRANCH   6   9
ATOM      9  C   UNL A   1      32.619  24.021  24.196  1.00  0.00     0.283 C 
ATOM     10  C   UNL A   1      32.171  26.421  24.360  1.00  0.00     0.283 C 
ATOM     11  N   UNL A   1      32.720  25.341  23.515  1.00  0.00    -0.320 N 
ATOM     12  S   UNL A   1      32.023  25.793  26.066  1.00  0.00    -0.087 SA
ATOM     13  H   UNL A   1      33.700  25.539  23.317  1.00  0.00     0.348 HD
ATOM     14  H   UNL A   1      32.178  25.301  22.652  1.00  0.00     0.348 HD
ATOM     15  C   UNL A   1      32.608  24.133  25.702  1.00  0.00     0.151 C 
BRANCH  10  16
ATOM     16  C   UNL A   1      30.873  27.040  23.889  1.00  0.00     0.128 A 
ATOM     17  C   UNL A   1      29.609  26.640  24.153  1.00  0.00     0.205 A 
ATOM     18  O   UNL A   1      28.477  27.341  23.766  1.00  0.00    -0.440 OA
ATOM     19  C   UNL A   1      28.619  28.553  23.152  1.00  0.00     0.140 A 
ATOM     20  C   UNL A   1      31.020  28.160  22.912  1.00  0.00     0.205 A 
ATOM     21  C   UNL A   1      27.471  29.329  22.979  1.00  0.00     0.051 A 
ATOM     22  C   UNL A   1      29.841  28.997  22.668  1.00  0.00     0.068 A 
ATOM     23  O   UNL A   1      32.065  28.370  22.309  1.00  0.00    -0.288 OA
ATOM     24  C   UNL A   1      27.557  30.539  22.290  1.00  0.00     0.043 A 
ATOM     25  C   UNL A   1      29.935  30.198  21.964  1.00  0.00     0.055 A 
ATOM     26  C   UNL A   1      28.784  30.956  21.781  1.00  0.00     0.124 A 
ATOM     27  F   UNL A   1      28.851  32.110  21.106  1.00  0.00    -0.207 F 
BRANCH  17  28
ATOM     28  N   UNL A   1      29.300  25.512  24.850  1.00  0.00    -0.369 N 
ATOM     29  H   UNL A   1      29.077  24.683  24.369  1.00  0.00     0.159 HD
ATOM     30  H   UNL A   1      29.299  25.528  25.834  1.00  0.00     0.159 HD
ENDBRANCH  17  28
ENDBRANCH  10  16
ENDBRANCH   6   9
ENDBRANCH   4   5
ENDBRANCH   3   4
ENDBRANCH   2   3
ENDBRANCH   1   2
BRANCH   1  31
ATOM     31  C   UNL A   1      36.583  20.359  24.964  1.00  0.00     0.021 C 
BRANCH  31  32
ATOM     32  C   UNL A   1      37.885  21.100  25.261  1.00  0.00     0.116 C 
BRANCH  32  33
ATOM     33  N   UNL A   1      38.973  20.214  25.645  1.00  0.00    -0.352 N 
ATOM     34  C   UNL A   1      40.120  20.499  26.351  1.00  0.00     0.251 C 
ATOM     35  H   UNL A   1      38.875  19.277  25.361  1.00  0.00     0.163 HD
ATOM     36  O   UNL A   1      40.992  19.646  26.487  1.00  0.00    -0.269 OA
BRANCH  34  37
ATOM     37  C   UNL A   1      40.307  21.857  26.901  1.00  0.00     0.039 A 
ATOM     38  C   UNL A   1      39.614  22.940  26.357  1.00  0.00     0.014 A 
ATOM     39  C   UNL A   1      41.249  22.054  27.911  1.00  0.00     0.014 A 
ATOM     40  C   UNL A   1      39.999  24.237  26.684  1.00  0.00     0.010 A 
ATOM     41  C   UNL A   1      41.582  23.356  28.292  1.00  0.00     0.010 A 
ATOM     42  C   UNL A   1      41.011  24.457  27.633  1.00  0.00    -0.014 A 
BRANCH  42  43
ATOM     43  C   UNL A   1      41.523  25.831  27.882  1.00  0.00     0.031 A 
ATOM     44  C   UNL A   1      42.895  26.222  27.397  1.00  0.00     0.074 A 
ATOM     45  C   UNL A   1      40.751  26.734  28.515  1.00  0.00     0.049 A 
ATOM     46  N   UNL A   1      43.550  27.339  27.581  1.00  0.00    -0.248 NA
ATOM     47  C   UNL A   1      43.631  25.224  26.602  1.00  0.00     0.031 C 
ATOM     48  C   UNL A   1      39.391  26.485  28.990  1.00  0.00     0.029 A 
ATOM     49  N   UNL A   1      40.994  28.040  28.864  1.00  0.00    -0.354 N 
ATOM     50  C   UNL A   1      44.778  27.170  26.951  1.00  0.00     0.074 A 
ATOM     51  C   UNL A   1      44.792  25.832  26.404  1.00  0.00     0.031 C 
ATOM     52  C   UNL A   1      38.908  27.607  29.541  1.00  0.00     0.029 A 
ATOM     53  C   UNL A   1      39.947  28.635  29.529  1.00  0.00     0.049 A 
ATOM     54  H   UNL A   1      41.836  28.506  28.657  1.00  0.00     0.167 HD
ATOM     55  C   UNL A   1      45.795  28.058  26.830  1.00  0.00     0.034 A 
ATOM     56  C   UNL A   1      39.841  29.857  30.090  1.00  0.00     0.034 A 
ATOM     57  C   UNL A   1      45.752  29.399  27.353  1.00  0.00     0.049 A 
ATOM     58  C   UNL A   1      41.004  30.811  29.988  1.00  0.00     0.074 A 
ATOM     59  C   UNL A   1      46.725  30.378  27.268  1.00  0.00     0.029 A 
ATOM     60  N   UNL A   1      44.685  29.954  28.044  1.00  0.00    -0.354 N 
ATOM     61  N   UNL A   1      42.156  30.641  29.382  1.00  0.00    -0.248 NA
ATOM     62  C   UNL A   1      40.864  32.119  30.644  1.00  0.00     0.031 C 
ATOM     63  C   UNL A   1      46.272  31.504  27.954  1.00  0.00     0.029 A 
ATOM     64  C   UNL A   1      44.986  31.256  28.409  1.00  0.00     0.049 A 
ATOM     65  H   UNL A   1      43.839  29.492  28.245  1.00  0.00     0.167 HD
ATOM     66  C   UNL A   1      42.865  31.826  29.561  1.00  0.00     0.074 A 
ATOM     67  C   UNL A   1      42.005  32.712  30.318  1.00  0.00     0.031 C 
ATOM     68  C   UNL A   1      44.113  32.145  29.137  1.00  0.00     0.034 A 
BRANCH  55  69
ATOM     69  C   UNL A   1      47.046  27.634  26.101  1.00  0.00     0.023 A 
ATOM     70  C   UNL A   1      47.181  27.902  24.725  1.00  0.00     0.031 A 
ATOM     71  C   UNL A   1      48.035  26.855  26.727  1.00  0.00     0.131 A 
ATOM     72  C   UNL A   1      48.262  27.367  24.013  1.00  0.00     0.055 A 
ATOM     73  C   UNL A   1      49.132  26.357  26.021  1.00  0.00     0.041 A 
ATOM     74  F   UNL A   1      47.953  26.574  28.038  1.00  0.00    -0.206 F 
ATOM     75  C   UNL A   1      49.241  26.601  24.656  1.00  0.00     0.022 A 
BRANCH  72  76
ATOM     76  S   UNL A   1      48.409  27.587  22.219  1.00  0.00     0.124 S 
ATOM     77  O   UNL A   1      48.573  26.210  21.762  1.00  0.00    -0.237 OA
ATOM     78  O   UNL A   1      47.130  28.207  21.882  1.00  0.00    -0.237 OA
ATOM     79  O   UNL A   1      49.583  28.438  22.064  1.00  0.00    -0.744 OA
ENDBRANCH  72  76
ENDBRANCH  55  69
BRANCH  56  80
ATOM     80  C   UNL A   1      38.564  30.236  30.764  1.00  0.00     0.023 A 
ATOM     81  C   UNL A   1      37.540  30.893  30.055  1.00  0.00     0.031 A 
ATOM     82  C   UNL A   1      38.399  30.059  32.147  1.00  0.00     0.131 A 
ATOM     83  C   UNL A   1      36.438  31.415  30.744  1.00  0.00     0.055 A 
ATOM     84  C   UNL A   1      37.264  30.515  32.819  1.00  0.00     0.041 A 
ATOM     85  F   UNL A   1      39.353  29.447  32.868  1.00  0.00    -0.206 F 
ATOM     86  C   UNL A   1      36.285  31.217  32.120  1.00  0.00     0.022 A 
BRANCH  83  87
ATOM     87  S   UNL A   1      35.243  32.492  29.906  1.00  0.00     0.124 S 
ATOM     88  O   UNL A   1      36.098  33.554  29.387  1.00  0.00    -0.237 OA
ATOM     89  O   UNL A   1      34.678  31.590  28.904  1.00  0.00    -0.237 OA
ATOM     90  O   UNL A   1      34.325  32.885  30.971  1.00  0.00    -0.744 OA
ENDBRANCH  83  87
ENDBRANCH  56  80
BRANCH  68  91
ATOM     91  C   UNL A   1      44.663  33.516  29.448  1.00  0.00     0.023 A 
ATOM     92  C   UNL A   1      44.494  34.562  28.519  1.00  0.00     0.031 A 
ATOM     93  C   UNL A   1      45.507  33.732  30.549  1.00  0.00     0.131 A 
ATOM     94  C   UNL A   1      45.207  35.756  28.679  1.00  0.00     0.055 A 
ATOM     95  C   UNL A   1      46.177  34.943  30.730  1.00  0.00     0.041 A 
ATOM     96  F   UNL A   1      45.708  32.761  31.454  1.00  0.00    -0.206 F 
ATOM     97  C   UNL A   1      46.042  35.956  29.782  1.00  0.00     0.022 A 
BRANCH  94  98
ATOM     98  S   UNL A   1      45.154  37.055  27.412  1.00  0.00     0.124 S 
ATOM     99  O   UNL A   1      46.220  36.637  26.504  1.00  0.00    -0.237 OA
ATOM    100  O   UNL A   1      43.797  36.916  26.888  1.00  0.00    -0.237 OA
ATOM    101  O   UNL A   1      45.418  38.283  28.154  1.00  0.00    -0.744 OA
ENDBRANCH  94  98
ENDBRANCH  68  91
ENDBRANCH  42  43
ENDBRANCH  34  37
ENDBRANCH  32  33
ENDBRANCH  31  32
ENDBRANCH   1  31
TORSDOF 18
ENDMDL
MODEL 3
REMARK VINA RESULT:     -12.7      4.866      7.739
REMARK SMILES Nc1oc2ccc(F)cc2c(=O)c1[C@@H]1[NH2+][C@H](C(=O)NCCCCCCNC(=O)c2ccc(-c3c4nc(c(-c5cc(S(=O)(=O)[O-])ccc5F)c5ccc([nH]5)c(-c5cc(S(=O)(=O)[O-])ccc5F)c5nc(c(-c6cc(S(=O)(=O)[O-])ccc6F)c6ccc3[nH]6)C=C5)C=C4)cc2)CS1
REMARK SMILES IDX 23 1 22 2 21 3 20 4 19 5 17 6 18 7 16 9 14 10 15 11 93 12
REMARK SMILES IDX 92 15 13 16 2 17 3 18 4 19 11 20 5 21 10 22 12 23 6 24 9 25
REMARK SMILES IDX 7 26 8 27 1 28 24 31 25 32 26 33 27 34 28 36 29 37 30 38
REMARK SMILES IDX 91 39 31 40 90 41 32 42 33 43 34 44 84 45 35 46 89 47 83 48
REMARK SMILES IDX 85 49 36 50 88 51 82 52 81 53 37 55 69 56 49 57 68 58 50 59
REMARK SMILES IDX 53 60 67 61 86 62 51 63 52 64 66 66 87 67 54 68 38 69 39 70
REMARK SMILES IDX 47 71 40 72 46 73 48 74 45 75 41 76 42 77 43 78 44 79 70 80
REMARK SMILES IDX 71 81 79 82 72 83 78 84 80 85 77 86 73 87 74 88 75 89 76 90
REMARK SMILES IDX 55 91 56 92 64 93 57 94 63 95 65 96 62 97 58 98 59 99 60 100
REMARK SMILES IDX 61 101
REMARK H PARENT 19 8 15 13 15 14 1 29 1 30 26 35 85 54 53 65
REMARK Flexibility Score: inf
ROOT
ATOM      1  C   UNL A   1      34.675  21.521  25.291  1.00  0.00     0.002 C 
ENDROOT
BRANCH   1   2
ATOM      2  C   UNL A   1      33.392  21.147  26.037  1.00  0.00     0.002 C 
BRANCH   2   3
ATOM      3  C   UNL A   1      32.271  22.189  26.005  1.00  0.00     0.021 C 
BRANCH   3   4
ATOM      4  C   UNL A   1      32.167  23.083  27.239  1.00  0.00     0.116 C 
BRANCH   4   5
ATOM      5  N   UNL A   1      31.319  24.233  26.981  1.00  0.00    -0.351 N 
ATOM      6  C   UNL A   1      31.439  25.313  26.172  1.00  0.00     0.279 C 
ATOM      7  O   UNL A   1      30.605  26.212  26.365  1.00  0.00    -0.268 OA
ATOM      8  H   UNL A   1      30.483  24.225  27.501  1.00  0.00     0.163 HD
BRANCH   6   9
ATOM      9  C   UNL A   1      32.511  25.522  25.075  1.00  0.00     0.283 C 
ATOM     10  C   UNL A   1      32.415  27.448  23.569  1.00  0.00     0.283 C 
ATOM     11  N   UNL A   1      31.933  26.074  23.820  1.00  0.00    -0.320 N 
ATOM     12  S   UNL A   1      33.871  27.746  24.626  1.00  0.00    -0.087 SA
ATOM     13  H   UNL A   1      32.206  25.479  23.038  1.00  0.00     0.348 HD
ATOM     14  H   UNL A   1      30.919  26.102  23.916  1.00  0.00     0.348 HD
ATOM     15  C   UNL A   1      33.842  26.141  25.435  1.00  0.00     0.151 C 
BRANCH  10  16
ATOM     16  C   UNL A   1      31.390  28.551  23.723  1.00  0.00     0.128 A 
ATOM     17  C   UNL A   1      31.151  29.328  24.802  1.00  0.00     0.205 A 
ATOM     18  O   UNL A   1      30.263  30.392  24.810  1.00  0.00    -0.440 OA
ATOM     19  C   UNL A   1      29.638  30.750  23.649  1.00  0.00     0.140 A 
ATOM     20  C   UNL A   1      30.449  28.710  22.574  1.00  0.00     0.205 A 
ATOM     21  C   UNL A   1      28.929  31.953  23.640  1.00  0.00     0.051 A 
ATOM     22  C   UNL A   1      29.657  29.942  22.522  1.00  0.00     0.068 A 
ATOM     23  O   UNL A   1      30.310  27.847  21.717  1.00  0.00    -0.288 OA
ATOM     24  C   UNL A   1      28.214  32.321  22.500  1.00  0.00     0.043 A 
ATOM     25  C   UNL A   1      28.932  30.294  21.381  1.00  0.00     0.055 A 
ATOM     26  C   UNL A   1      28.214  31.484  21.387  1.00  0.00     0.124 A 
ATOM     27  F   UNL A   1      27.511  31.838  20.305  1.00  0.00    -0.207 F 
BRANCH  17  28
ATOM     28  N   UNL A   1      31.772  29.171  26.003  1.00  0.00    -0.369 N 
ATOM     29  H   UNL A   1      31.470  28.471  26.625  1.00  0.00     0.159 HD
ATOM     30  H   UNL A   1      32.523  29.759  26.248  1.00  0.00     0.159 HD
ENDBRANCH  17  28
ENDBRANCH  10  16
ENDBRANCH   6   9
ENDBRANCH   4   5
ENDBRANCH   3   4
ENDBRANCH   2   3
ENDBRANCH   1   2
BRANCH   1  31
ATOM     31  C   UNL A   1      35.782  20.463  25.288  1.00  0.00     0.021 C 
BRANCH  31  32
ATOM     32  C   UNL A   1      37.181  20.974  24.954  1.00  0.00     0.116 C 
BRANCH  32  33
ATOM     33  N   UNL A   1      38.221  19.983  25.181  1.00  0.00    -0.352 N 
ATOM     34  C   UNL A   1      39.443  20.128  25.800  1.00  0.00     0.251 C 
ATOM     35  H   UNL A   1      38.024  19.080  24.846  1.00  0.00     0.163 HD
ATOM     36  O   UNL A   1      40.251  19.205  25.801  1.00  0.00    -0.269 OA
BRANCH  34  37
ATOM     37  C   UNL A   1      39.785  21.425  26.420  1.00  0.00     0.039 A 
ATOM     38  C   UNL A   1      39.181  22.602  25.972  1.00  0.00     0.014 A 
ATOM     39  C   UNL A   1      40.782  21.466  27.395  1.00  0.00     0.014 A 
ATOM     40  C   UNL A   1      39.705  23.833  26.357  1.00  0.00     0.010 A 
ATOM     41  C   UNL A   1      41.257  22.703  27.836  1.00  0.00     0.010 A 
ATOM     42  C   UNL A   1      40.771  23.894  27.269  1.00  0.00    -0.014 A 
BRANCH  42  43
ATOM     43  C   UNL A   1      41.426  25.194  27.575  1.00  0.00     0.031 A 
ATOM     44  C   UNL A   1      40.679  26.246  28.354  1.00  0.00     0.074 A 
ATOM     45  C   UNL A   1      42.692  25.422  27.180  1.00  0.00     0.049 A 
ATOM     46  N   UNL A   1      41.042  27.466  28.654  1.00  0.00    -0.248 NA
ATOM     47  C   UNL A   1      39.346  25.880  28.861  1.00  0.00     0.031 C 
ATOM     48  C   UNL A   1      43.528  24.464  26.460  1.00  0.00     0.029 A 
ATOM     49  N   UNL A   1      43.499  26.523  27.331  1.00  0.00    -0.354 N 
ATOM     50  C   UNL A   1      39.979  28.020  29.358  1.00  0.00     0.074 A 
ATOM     51  C   UNL A   1      38.943  27.014  29.417  1.00  0.00     0.031 C 
ATOM     52  C   UNL A   1      44.738  25.004  26.257  1.00  0.00     0.029 A 
ATOM     53  C   UNL A   1      44.743  26.375  26.764  1.00  0.00     0.049 A 
ATOM     54  H   UNL A   1      43.214  27.340  27.802  1.00  0.00     0.167 HD
ATOM     55  C   UNL A   1      39.885  29.251  29.916  1.00  0.00     0.034 A 
ATOM     56  C   UNL A   1      45.764  27.248  26.640  1.00  0.00     0.034 A 
ATOM     57  C   UNL A   1      40.939  30.230  29.877  1.00  0.00     0.049 A 
ATOM     58  C   UNL A   1      45.617  28.631  27.224  1.00  0.00     0.074 A 
ATOM     59  C   UNL A   1      40.945  31.500  30.426  1.00  0.00     0.029 A 
ATOM     60  N   UNL A   1      42.174  30.052  29.269  1.00  0.00    -0.354 N 
ATOM     61  N   UNL A   1      44.609  29.137  27.895  1.00  0.00    -0.248 NA
ATOM     62  C   UNL A   1      46.736  29.565  27.034  1.00  0.00     0.031 C 
ATOM     63  C   UNL A   1      42.157  32.109  30.103  1.00  0.00     0.029 A 
ATOM     64  C   UNL A   1      42.939  31.197  29.412  1.00  0.00     0.049 A 
ATOM     65  H   UNL A   1      42.462  29.233  28.805  1.00  0.00     0.167 HD
ATOM     66  C   UNL A   1      44.982  30.436  28.230  1.00  0.00     0.074 A 
ATOM     67  C   UNL A   1      46.317  30.633  27.702  1.00  0.00     0.031 C 
ATOM     68  C   UNL A   1      44.281  31.376  28.911  1.00  0.00     0.034 A 
BRANCH  55  69
ATOM     69  C   UNL A   1      38.610  29.629  30.631  1.00  0.00     0.023 A 
ATOM     70  C   UNL A   1      37.679  30.478  30.004  1.00  0.00     0.031 A 
ATOM     71  C   UNL A   1      38.380  29.264  31.969  1.00  0.00     0.131 A 
ATOM     72  C   UNL A   1      36.580  30.962  30.725  1.00  0.00     0.055 A 
ATOM     73  C   UNL A   1      37.262  29.717  32.671  1.00  0.00     0.041 A 
ATOM     74  F   UNL A   1      39.238  28.454  32.612  1.00  0.00    -0.206 F 
ATOM     75  C   UNL A   1      36.363  30.580  32.053  1.00  0.00     0.022 A 
BRANCH  72  76
ATOM     76  S   UNL A   1      35.424  32.152  29.992  1.00  0.00     0.124 S 
ATOM     77  O   UNL A   1      34.519  32.416  31.108  1.00  0.00    -0.237 OA
ATOM     78  O   UNL A   1      36.310  33.256  29.633  1.00  0.00    -0.237 OA
ATOM     79  O   UNL A   1      34.835  31.427  28.872  1.00  0.00    -0.744 OA
ENDBRANCH  72  76
ENDBRANCH  55  69
BRANCH  56  80
ATOM     80  C   UNL A   1      47.016  26.806  25.958  1.00  0.00     0.023 A 
ATOM     81  C   UNL A   1      48.040  26.159  26.676  1.00  0.00     0.031 A 
ATOM     82  C   UNL A   1      47.258  27.132  24.614  1.00  0.00     0.131 A 
ATOM     83  C   UNL A   1      49.282  25.930  26.069  1.00  0.00     0.055 A 
ATOM     84  C   UNL A   1      48.471  26.835  23.991  1.00  0.00     0.041 A 
ATOM     85  F   UNL A   1      46.316  27.759  23.891  1.00  0.00    -0.206 F 
ATOM     86  C   UNL A   1      49.499  26.250  24.725  1.00  0.00     0.022 A 
BRANCH  83  87
ATOM     87  S   UNL A   1      50.698  25.347  27.041  1.00  0.00     0.124 S 
ATOM     88  O   UNL A   1      51.597  24.852  26.005  1.00  0.00    -0.237 OA
ATOM     89  O   UNL A   1      51.124  26.572  27.714  1.00  0.00    -0.237 OA
ATOM     90  O   UNL A   1      50.122  24.330  27.915  1.00  0.00    -0.744 OA
ENDBRANCH  83  87
ENDBRANCH  56  80
BRANCH  68  91
ATOM     91  C   UNL A   1      44.915  32.722  29.164  1.00  0.00     0.023 A 
ATOM     92  C   UNL A   1      44.916  33.696  28.146  1.00  0.00     0.031 A 
ATOM     93  C   UNL A   1      45.676  32.964  30.319  1.00  0.00     0.131 A 
ATOM     94  C   UNL A   1      45.710  34.841  28.278  1.00  0.00     0.055 A 
ATOM     95  C   UNL A   1      46.428  34.131  30.466  1.00  0.00     0.041 A 
ATOM     96  F   UNL A   1      45.717  32.061  31.311  1.00  0.00    -0.206 F 
ATOM     97  C   UNL A   1      46.461  35.068  29.435  1.00  0.00     0.022 A 
BRANCH  94  98
ATOM     98  S   UNL A   1      45.875  36.028  26.915  1.00  0.00     0.124 S 
ATOM     99  O   UNL A   1      44.487  36.422  26.686  1.00  0.00    -0.237 OA
ATOM    100  O   UNL A   1      46.726  37.057  27.507  1.00  0.00    -0.237 OA
ATOM    101  O   UNL A   1      46.485  35.250  25.842  1.00  0.00    -0.744 OA
ENDBRANCH  94  98
ENDBRANCH  68  91
ENDBRANCH  42  43
ENDBRANCH  34  37
ENDBRANCH  32  33
ENDBRANCH  31  32
ENDBRANCH   1  31
TORSDOF 18
ENDMDL
