MODEL 1
REMARK VINA RESULT:     -11.9      0.000      0.000
REMARK SMILES O=C(C[C@H]1C[C@H]2CC[C@@H](C1)N2C(=O)c1c[nH]c(=O)[nH]1)NCCCCCCNC(=O)c1ccc(-c2c3nc(c(-c4cc(S(=O)(=O)[O-])ccc4F)c4ccc([nH]4)c(-c4cc(S(=O)(=O)[O-])ccc4F)c4nc(c(-c5cc(S(=O)(=O)[O-])ccc5F)c5ccc2[nH]5)C=C4)C=C3)cc1
REMARK SMILES IDX 23 1 22 2 21 3 20 4 1 5 2 6 3 8 4 9 5 10 10 11 6 12 9 13
REMARK SMILES IDX 7 14 11 15 8 16 12 17 13 18 14 19 15 20 19 21 16 22 17 23
REMARK SMILES IDX 18 26 24 27 25 28 26 29 27 30 28 31 29 33 30 34 31 35 92 36
REMARK SMILES IDX 32 37 91 38 33 39 34 40 35 41 85 42 36 43 90 44 84 45 86 46
REMARK SMILES IDX 37 47 89 48 83 49 82 50 38 52 70 53 50 54 69 55 51 56 54 57
REMARK SMILES IDX 68 58 87 59 52 60 53 61 67 63 88 64 55 65 39 66 40 67 48 68
REMARK SMILES IDX 41 69 47 70 49 71 46 72 42 73 43 74 44 75 45 76 71 77 72 78
REMARK SMILES IDX 80 79 73 80 79 81 81 82 78 83 74 84 75 85 76 86 77 87 56 88
REMARK SMILES IDX 57 89 65 90 58 91 64 92 66 93 63 94 59 95 60 96 61 97 62 98
REMARK H PARENT 20 7 19 24 16 25 27 32 86 51 54 62
REMARK Flexibility Score: inf
ROOT
ATOM      1  C   UNL A   1      32.179  28.544  26.074  1.00  0.00     0.002 C 
ENDROOT
BRANCH   1   2
ATOM      2  C   UNL A   1      31.266  28.927  24.894  1.00  0.00     0.021 C 
BRANCH   2   3
ATOM      3  C   UNL A   1      30.935  27.811  23.891  1.00  0.00     0.116 C 
BRANCH   3   4
ATOM      4  N   UNL A   1      32.103  26.996  23.634  1.00  0.00    -0.356 N 
ATOM      5  O   UNL A   1      31.606  26.189  21.551  1.00  0.00    -0.275 OA
ATOM      6  C   UNL A   1      32.363  26.247  22.514  1.00  0.00     0.220 C 
ATOM      7  H   UNL A   1      32.788  26.978  24.342  1.00  0.00     0.163 HD
BRANCH   6   8
ATOM      8  C   UNL A   1      33.622  25.367  22.607  1.00  0.00     0.103 C 
BRANCH   8   9
ATOM      9  C   UNL A   1      33.472  23.829  22.754  1.00  0.00     0.002 C 
ATOM     10  C   UNL A   1      34.651  23.076  23.384  1.00  0.00     0.029 C 
ATOM     11  C   UNL A   1      32.155  23.413  23.499  1.00  0.00     0.029 C 
ATOM     12  C   UNL A   1      34.617  23.080  24.920  1.00  0.00     0.086 C 
ATOM     13  C   UNL A   1      32.300  23.135  25.026  1.00  0.00     0.086 C 
ATOM     14  C   UNL A   1      34.250  24.394  25.650  1.00  0.00     0.027 C 
ATOM     15  N   UNL A   1      33.464  22.281  25.265  1.00  0.00    -0.331 N 
ATOM     16  C   UNL A   1      32.720  24.394  25.779  1.00  0.00     0.027 C 
BRANCH  15  17
ATOM     17  C   UNL A   1      33.626  21.183  26.073  1.00  0.00     0.272 C 
ATOM     18  O   UNL A   1      34.021  21.258  27.236  1.00  0.00    -0.267 OA
BRANCH  17  19
ATOM     19  C   UNL A   1      33.207  19.871  25.554  1.00  0.00     0.125 A 
ATOM     20  C   UNL A   1      33.005  19.480  24.289  1.00  0.00     0.119 A 
ATOM     21  N   UNL A   1      33.033  18.791  26.387  1.00  0.00    -0.302 N 
ATOM     22  N   UNL A   1      32.664  18.151  24.302  1.00  0.00    -0.312 N 
ATOM     23  C   UNL A   1      32.674  17.680  25.625  1.00  0.00     0.323 A 
ATOM     24  H   UNL A   1      33.143  18.802  27.365  1.00  0.00     0.172 HD
ATOM     25  H   UNL A   1      32.447  17.612  23.507  1.00  0.00     0.171 HD
ATOM     26  O   UNL A   1      32.423  16.556  26.011  1.00  0.00    -0.248 OA
ENDBRANCH  17  19
ENDBRANCH  15  17
ENDBRANCH   8   9
ENDBRANCH   6   8
ENDBRANCH   3   4
ENDBRANCH   2   3
ENDBRANCH   1   2
BRANCH   1  27
ATOM     27  C   UNL A   1      32.231  29.522  27.248  1.00  0.00     0.002 C 
BRANCH  27  28
ATOM     28  C   UNL A   1      32.116  30.993  26.857  1.00  0.00     0.021 C 
BRANCH  28  29
ATOM     29  C   UNL A   1      33.226  31.892  27.393  1.00  0.00     0.116 C 
BRANCH  29  30
ATOM     30  N   UNL A   1      32.803  33.272  27.590  1.00  0.00    -0.352 N 
ATOM     31  C   UNL A   1      33.279  34.196  28.492  1.00  0.00     0.251 C 
ATOM     32  H   UNL A   1      32.079  33.584  26.999  1.00  0.00     0.163 HD
ATOM     33  O   UNL A   1      32.723  35.283  28.613  1.00  0.00    -0.269 OA
BRANCH  31  34
ATOM     34  C   UNL A   1      34.438  33.848  29.345  1.00  0.00     0.039 A 
ATOM     35  C   UNL A   1      34.234  33.043  30.468  1.00  0.00     0.014 A 
ATOM     36  C   UNL A   1      35.727  34.267  29.003  1.00  0.00     0.014 A 
ATOM     37  C   UNL A   1      35.334  32.578  31.192  1.00  0.00     0.010 A 
ATOM     38  C   UNL A   1      36.825  33.741  29.679  1.00  0.00     0.010 A 
ATOM     39  C   UNL A   1      36.641  32.878  30.771  1.00  0.00    -0.014 A 
BRANCH  39  40
ATOM     40  C   UNL A   1      37.823  32.267  31.435  1.00  0.00     0.031 A 
ATOM     41  C   UNL A   1      38.550  31.121  30.791  1.00  0.00     0.074 A 
ATOM     42  C   UNL A   1      38.192  32.696  32.660  1.00  0.00     0.049 A 
ATOM     43  N   UNL A   1      39.546  30.406  31.252  1.00  0.00    -0.248 NA
ATOM     44  C   UNL A   1      38.072  30.704  29.465  1.00  0.00     0.031 C 
ATOM     45  C   UNL A   1      37.532  33.765  33.412  1.00  0.00     0.029 A 
ATOM     46  N   UNL A   1      39.199  32.278  33.494  1.00  0.00    -0.354 N 
ATOM     47  C   UNL A   1      39.814  29.455  30.274  1.00  0.00     0.074 A 
ATOM     48  C   UNL A   1      38.823  29.638  29.233  1.00  0.00     0.031 C 
ATOM     49  C   UNL A   1      38.160  33.929  34.586  1.00  0.00     0.029 A 
ATOM     50  C   UNL A   1      39.233  32.945  34.697  1.00  0.00     0.049 A 
ATOM     51  H   UNL A   1      39.837  31.567  33.254  1.00  0.00     0.167 HD
ATOM     52  C   UNL A   1      40.809  28.532  30.236  1.00  0.00     0.034 A 
ATOM     53  C   UNL A   1      40.019  32.772  35.777  1.00  0.00     0.034 A 
ATOM     54  C   UNL A   1      41.780  28.357  31.290  1.00  0.00     0.049 A 
ATOM     55  C   UNL A   1      41.087  31.710  35.739  1.00  0.00     0.074 A 
ATOM     56  C   UNL A   1      42.859  27.491  31.334  1.00  0.00     0.029 A 
ATOM     57  N   UNL A   1      41.778  29.046  32.498  1.00  0.00    -0.354 N 
ATOM     58  N   UNL A   1      41.370  30.859  34.779  1.00  0.00    -0.248 NA
ATOM     59  C   UNL A   1      41.946  31.592  36.923  1.00  0.00     0.031 C 
ATOM     60  C   UNL A   1      43.458  27.598  32.594  1.00  0.00     0.029 A 
ATOM     61  C   UNL A   1      42.810  28.593  33.309  1.00  0.00     0.049 A 
ATOM     62  H   UNL A   1      41.138  29.752  32.742  1.00  0.00     0.167 HD
ATOM     63  C   UNL A   1      42.451  30.114  35.240  1.00  0.00     0.074 A 
ATOM     64  C   UNL A   1      42.782  30.632  36.551  1.00  0.00     0.031 C 
ATOM     65  C   UNL A   1      43.112  29.095  34.631  1.00  0.00     0.034 A 
BRANCH  52  66
ATOM     66  C   UNL A   1      40.867  27.633  29.021  1.00  0.00     0.023 A 
ATOM     67  C   UNL A   1      41.807  27.841  27.995  1.00  0.00     0.031 A 
ATOM     68  C   UNL A   1      39.940  26.589  28.855  1.00  0.00     0.131 A 
ATOM     69  C   UNL A   1      41.737  27.091  26.813  1.00  0.00     0.055 A 
ATOM     70  C   UNL A   1      39.937  25.780  27.715  1.00  0.00     0.041 A 
ATOM     71  F   UNL A   1      39.005  26.349  29.787  1.00  0.00    -0.206 F 
ATOM     72  C   UNL A   1      40.825  26.042  26.676  1.00  0.00     0.022 A 
BRANCH  69  73
ATOM     73  S   UNL A   1      42.726  27.628  25.390  1.00  0.00     0.124 S 
ATOM     74  O   UNL A   1      42.823  26.391  24.616  1.00  0.00    -0.237 OA
ATOM     75  O   UNL A   1      41.899  28.680  24.812  1.00  0.00    -0.237 OA
ATOM     76  O   UNL A   1      43.980  28.074  25.992  1.00  0.00    -0.744 OA
ENDBRANCH  69  73
ENDBRANCH  52  66
BRANCH  53  77
ATOM     77  C   UNL A   1      39.802  33.602  36.997  1.00  0.00     0.023 A 
ATOM     78  C   UNL A   1      40.593  34.731  37.264  1.00  0.00     0.031 A 
ATOM     79  C   UNL A   1      38.796  33.267  37.923  1.00  0.00     0.131 A 
ATOM     80  C   UNL A   1      40.384  35.467  38.441  1.00  0.00     0.055 A 
ATOM     81  C   UNL A   1      38.560  34.031  39.066  1.00  0.00     0.041 A 
ATOM     82  F   UNL A   1      38.009  32.199  37.713  1.00  0.00    -0.206 F 
ATOM     83  C   UNL A   1      39.364  35.135  39.335  1.00  0.00     0.022 A 
BRANCH  80  84
ATOM     84  S   UNL A   1      41.511  36.837  38.823  1.00  0.00     0.124 S 
ATOM     85  O   UNL A   1      42.180  37.037  37.542  1.00  0.00    -0.237 OA
ATOM     86  O   UNL A   1      40.584  37.887  39.234  1.00  0.00    -0.237 OA
ATOM     87  O   UNL A   1      42.351  36.298  39.890  1.00  0.00    -0.744 OA
ENDBRANCH  80  84
ENDBRANCH  53  77
BRANCH  65  88
ATOM     88  C   UNL A   1      44.276  28.489  35.379  1.00  0.00     0.023 A 
ATOM     89  C   UNL A   1      44.082  27.567  36.423  1.00  0.00     0.031 A 
ATOM     90  C   UNL A   1      45.596  28.844  35.048  1.00  0.00     0.131 A 
ATOM     91  C   UNL A   1      45.188  27.070  37.132  1.00  0.00     0.055 A 
ATOM     92  C   UNL A   1      46.694  28.300  35.715  1.00  0.00     0.041 A 
ATOM     93  F   UNL A   1      45.840  29.725  34.065  1.00  0.00    -0.206 F 
ATOM     94  C   UNL A   1      46.493  27.417  36.773  1.00  0.00     0.022 A 
BRANCH  91  95
ATOM     95  S   UNL A   1      44.894  26.037  38.594  1.00  0.00     0.124 S 
ATOM     96  O   UNL A   1      45.122  24.695  38.068  1.00  0.00    -0.237 OA
ATOM     97  O   UNL A   1      45.894  26.534  39.533  1.00  0.00    -0.237 OA
ATOM     98  O   UNL A   1      43.508  26.335  38.952  1.00  0.00    -0.744 OA
ENDBRANCH  91  95
ENDBRANCH  65  88
ENDBRANCH  39  40
ENDBRANCH  31  34
ENDBRANCH  29  30
ENDBRANCH  28  29
ENDBRANCH  27  28
ENDBRANCH   1  27
TORSDOF 19
ENDMDL
MODEL 2
REMARK VINA RESULT:     -11.2      1.810      2.562
REMARK SMILES O=C(C[C@H]1C[C@H]2CC[C@@H](C1)N2C(=O)c1c[nH]c(=O)[nH]1)NCCCCCCNC(=O)c1ccc(-c2c3nc(c(-c4cc(S(=O)(=O)[O-])ccc4F)c4ccc([nH]4)c(-c4cc(S(=O)(=O)[O-])ccc4F)c4nc(c(-c5cc(S(=O)(=O)[O-])ccc5F)c5ccc2[nH]5)C=C4)C=C3)cc1
REMARK SMILES IDX 23 1 22 2 21 3 20 4 1 5 2 6 3 8 4 9 5 10 10 11 6 12 9 13
REMARK SMILES IDX 7 14 11 15 8 16 12 17 13 18 14 19 15 20 19 21 16 22 17 23
REMARK SMILES IDX 18 26 24 27 25 28 26 29 27 30 28 31 29 33 30 34 31 35 92 36
REMARK SMILES IDX 32 37 91 38 33 39 34 40 35 41 85 42 36 43 90 44 84 45 86 46
REMARK SMILES IDX 37 47 89 48 83 49 82 50 38 52 70 53 50 54 69 55 51 56 54 57
REMARK SMILES IDX 68 58 87 59 52 60 53 61 67 63 88 64 55 65 39 66 40 67 48 68
REMARK SMILES IDX 41 69 47 70 49 71 46 72 42 73 43 74 44 75 45 76 71 77 72 78
REMARK SMILES IDX 80 79 73 80 79 81 81 82 78 83 74 84 75 85 76 86 77 87 56 88
REMARK SMILES IDX 57 89 65 90 58 91 64 92 66 93 63 94 59 95 60 96 61 97 62 98
REMARK H PARENT 20 7 19 24 16 25 27 32 86 51 54 62
REMARK Flexibility Score: inf
ROOT
ATOM      1  C   UNL A   1      34.034  29.244  27.977  1.00  0.00     0.002 C 
ENDROOT
BRANCH   1   2
ATOM      2  C   UNL A   1      33.226  28.408  26.967  1.00  0.00     0.021 C 
BRANCH   2   3
ATOM      3  C   UNL A   1      31.712  28.315  27.207  1.00  0.00     0.116 C 
BRANCH   3   4
ATOM      4  N   UNL A   1      31.231  26.981  26.919  1.00  0.00    -0.356 N 
ATOM      5  O   UNL A   1      30.741  27.180  24.693  1.00  0.00    -0.275 OA
ATOM      6  C   UNL A   1      30.779  26.503  25.715  1.00  0.00     0.220 C 
ATOM      7  H   UNL A   1      31.229  26.345  27.671  1.00  0.00     0.163 HD
BRANCH   6   8
ATOM      8  C   UNL A   1      30.191  25.082  25.766  1.00  0.00     0.103 C 
BRANCH   8   9
ATOM      9  C   UNL A   1      31.002  23.941  26.433  1.00  0.00     0.002 C 
ATOM     10  C   UNL A   1      30.987  22.578  25.729  1.00  0.00     0.029 C 
ATOM     11  C   UNL A   1      32.492  24.340  26.723  1.00  0.00     0.029 C 
ATOM     12  C   UNL A   1      32.032  22.468  24.608  1.00  0.00     0.086 C 
ATOM     13  C   UNL A   1      33.532  23.899  25.649  1.00  0.00     0.086 C 
ATOM     14  C   UNL A   1      32.220  23.667  23.649  1.00  0.00     0.027 C 
ATOM     15  N   UNL A   1      33.306  22.499  25.288  1.00  0.00    -0.331 N 
ATOM     16  C   UNL A   1      33.264  24.579  24.310  1.00  0.00     0.027 C 
BRANCH  15  17
ATOM     17  C   UNL A   1      34.187  21.460  25.112  1.00  0.00     0.272 C 
ATOM     18  O   UNL A   1      33.826  20.291  24.977  1.00  0.00    -0.267 OA
BRANCH  17  19
ATOM     19  C   UNL A   1      35.616  21.778  24.973  1.00  0.00     0.125 A 
ATOM     20  C   UNL A   1      36.273  22.317  23.937  1.00  0.00     0.119 A 
ATOM     21  N   UNL A   1      36.496  21.605  26.015  1.00  0.00    -0.302 N 
ATOM     22  N   UNL A   1      37.590  22.462  24.294  1.00  0.00    -0.312 N 
ATOM     23  C   UNL A   1      37.766  22.019  25.616  1.00  0.00     0.323 A 
ATOM     24  H   UNL A   1      36.265  21.245  26.902  1.00  0.00     0.172 HD
ATOM     25  H   UNL A   1      38.300  22.822  23.715  1.00  0.00     0.171 HD
ATOM     26  O   UNL A   1      38.797  22.001  26.257  1.00  0.00    -0.248 OA
ENDBRANCH  17  19
ENDBRANCH  15  17
ENDBRANCH   8   9
ENDBRANCH   6   8
ENDBRANCH   3   4
ENDBRANCH   2   3
ENDBRANCH   1   2
BRANCH   1  27
ATOM     27  C   UNL A   1      35.055  30.223  27.398  1.00  0.00     0.002 C 
BRANCH  27  28
ATOM     28  C   UNL A   1      34.570  31.668  27.305  1.00  0.00     0.021 C 
BRANCH  28  29
ATOM     29  C   UNL A   1      33.099  31.878  27.652  1.00  0.00     0.116 C 
BRANCH  29  30
ATOM     30  N   UNL A   1      32.729  33.282  27.756  1.00  0.00    -0.352 N 
ATOM     31  C   UNL A   1      33.248  34.249  28.588  1.00  0.00     0.251 C 
ATOM     32  H   UNL A   1      32.011  33.580  27.151  1.00  0.00     0.163 HD
ATOM     33  O   UNL A   1      32.734  35.361  28.637  1.00  0.00    -0.269 OA
BRANCH  31  34
ATOM     34  C   UNL A   1      34.402  33.917  29.454  1.00  0.00     0.039 A 
ATOM     35  C   UNL A   1      34.197  33.111  30.575  1.00  0.00     0.014 A 
ATOM     36  C   UNL A   1      35.689  34.352  29.125  1.00  0.00     0.014 A 
ATOM     37  C   UNL A   1      35.295  32.662  31.313  1.00  0.00     0.010 A 
ATOM     38  C   UNL A   1      36.787  33.841  29.813  1.00  0.00     0.010 A 
ATOM     39  C   UNL A   1      36.602  32.978  30.905  1.00  0.00    -0.014 A 
BRANCH  39  40
ATOM     40  C   UNL A   1      37.785  32.384  31.583  1.00  0.00     0.031 A 
ATOM     41  C   UNL A   1      38.519  31.230  30.961  1.00  0.00     0.074 A 
ATOM     42  C   UNL A   1      38.148  32.835  32.801  1.00  0.00     0.049 A 
ATOM     43  N   UNL A   1      39.516  30.528  31.437  1.00  0.00    -0.248 NA
ATOM     44  C   UNL A   1      38.047  30.789  29.641  1.00  0.00     0.031 C 
ATOM     45  C   UNL A   1      37.481  33.913  33.533  1.00  0.00     0.029 A 
ATOM     46  N   UNL A   1      39.154  32.435  33.646  1.00  0.00    -0.354 N 
ATOM     47  C   UNL A   1      39.791  29.561  30.475  1.00  0.00     0.074 A 
ATOM     48  C   UNL A   1      38.803  29.723  29.429  1.00  0.00     0.031 C 
ATOM     49  C   UNL A   1      38.104  34.099  34.707  1.00  0.00     0.029 A 
ATOM     50  C   UNL A   1      39.181  33.122  34.837  1.00  0.00     0.049 A 
ATOM     51  H   UNL A   1      39.795  31.723  33.420  1.00  0.00     0.167 HD
ATOM     52  C   UNL A   1      40.790  28.643  30.456  1.00  0.00     0.034 A 
ATOM     53  C   UNL A   1      39.964  32.971  35.923  1.00  0.00     0.034 A 
ATOM     54  C   UNL A   1      41.759  28.489  31.516  1.00  0.00     0.049 A 
ATOM     55  C   UNL A   1      41.037  31.914  35.906  1.00  0.00     0.074 A 
ATOM     56  C   UNL A   1      42.841  27.629  31.578  1.00  0.00     0.029 A 
ATOM     57  N   UNL A   1      41.750  29.198  32.712  1.00  0.00    -0.354 N 
ATOM     58  N   UNL A   1      41.327  31.048  34.962  1.00  0.00    -0.248 NA
ATOM     59  C   UNL A   1      41.893  31.819  37.095  1.00  0.00     0.031 C 
ATOM     60  C   UNL A   1      43.437  27.760  32.838  1.00  0.00     0.029 A 
ATOM     61  C   UNL A   1      42.781  28.763  33.534  1.00  0.00     0.049 A 
ATOM     62  H   UNL A   1      41.107  29.906  32.943  1.00  0.00     0.167 HD
ATOM     63  C   UNL A   1      42.410  30.315  35.438  1.00  0.00     0.074 A 
ATOM     64  C   UNL A   1      42.734  30.857  36.742  1.00  0.00     0.031 C 
ATOM     65  C   UNL A   1      43.077  29.289  34.849  1.00  0.00     0.034 A 
BRANCH  52  66
ATOM     66  C   UNL A   1      40.856  27.723  29.257  1.00  0.00     0.023 A 
ATOM     67  C   UNL A   1      41.790  27.926  28.225  1.00  0.00     0.031 A 
ATOM     68  C   UNL A   1      39.943  26.664  29.113  1.00  0.00     0.131 A 
ATOM     69  C   UNL A   1      41.726  27.154  27.056  1.00  0.00     0.055 A 
ATOM     70  C   UNL A   1      39.947  25.835  27.987  1.00  0.00     0.041 A 
ATOM     71  F   UNL A   1      39.014  26.427  30.052  1.00  0.00    -0.206 F 
ATOM     72  C   UNL A   1      40.827  26.092  26.940  1.00  0.00     0.022 A 
BRANCH  69  73
ATOM     73  S   UNL A   1      42.703  27.679  25.620  1.00  0.00     0.124 S 
ATOM     74  O   UNL A   1      41.912  28.802  25.120  1.00  0.00    -0.237 OA
ATOM     75  O   UNL A   1      43.987  28.019  26.221  1.00  0.00    -0.237 OA
ATOM     76  O   UNL A   1      42.707  26.500  24.758  1.00  0.00    -0.744 OA
ENDBRANCH  69  73
ENDBRANCH  52  66
BRANCH  53  77
ATOM     77  C   UNL A   1      39.740  33.821  37.128  1.00  0.00     0.023 A 
ATOM     78  C   UNL A   1      39.056  33.330  38.252  1.00  0.00     0.031 A 
ATOM     79  C   UNL A   1      40.203  35.149  37.165  1.00  0.00     0.131 A 
ATOM     80  C   UNL A   1      38.830  34.171  39.354  1.00  0.00     0.055 A 
ATOM     81  C   UNL A   1      40.020  35.965  38.282  1.00  0.00     0.041 A 
ATOM     82  F   UNL A   1      40.867  35.666  36.118  1.00  0.00    -0.206 F 
ATOM     83  C   UNL A   1      39.321  35.479  39.383  1.00  0.00     0.022 A 
BRANCH  80  84
ATOM     84  S   UNL A   1      37.826  33.550  40.732  1.00  0.00     0.124 S 
ATOM     85  O   UNL A   1      37.387  34.791  41.362  1.00  0.00    -0.237 OA
ATOM     86  O   UNL A   1      36.798  32.784  40.036  1.00  0.00    -0.237 OA
ATOM     87  O   UNL A   1      38.773  32.755  41.510  1.00  0.00    -0.744 OA
ENDBRANCH  80  84
ENDBRANCH  53  77
BRANCH  65  88
ATOM     88  C   UNL A   1      44.241  28.701  35.611  1.00  0.00     0.023 A 
ATOM     89  C   UNL A   1      44.067  27.652  36.530  1.00  0.00     0.031 A 
ATOM     90  C   UNL A   1      45.541  29.202  35.419  1.00  0.00     0.131 A 
ATOM     91  C   UNL A   1      45.165  27.172  37.261  1.00  0.00     0.055 A 
ATOM     92  C   UNL A   1      46.640  28.678  36.103  1.00  0.00     0.041 A 
ATOM     93  F   UNL A   1      45.767  30.207  34.558  1.00  0.00    -0.206 F 
ATOM     94  C   UNL A   1      46.453  27.666  37.040  1.00  0.00     0.022 A 
BRANCH  91  95
ATOM     95  S   UNL A   1      44.874  25.956  38.576  1.00  0.00     0.124 S 
ATOM     96  O   UNL A   1      46.234  25.612  38.977  1.00  0.00    -0.237 OA
ATOM     97  O   UNL A   1      44.098  26.724  39.544  1.00  0.00    -0.237 OA
ATOM     98  O   UNL A   1      44.138  24.889  37.900  1.00  0.00    -0.744 OA
ENDBRANCH  91  95
ENDBRANCH  65  88
ENDBRANCH  39  40
ENDBRANCH  31  34
ENDBRANCH  29  30
ENDBRANCH  28  29
ENDBRANCH  27  28
ENDBRANCH   1  27
TORSDOF 19
ENDMDL
MODEL 3
REMARK VINA RESULT:     -10.9      1.117      7.508
REMARK SMILES O=C(C[C@H]1C[C@H]2CC[C@@H](C1)N2C(=O)c1c[nH]c(=O)[nH]1)NCCCCCCNC(=O)c1ccc(-c2c3nc(c(-c4cc(S(=O)(=O)[O-])ccc4F)c4ccc([nH]4)c(-c4cc(S(=O)(=O)[O-])ccc4F)c4nc(c(-c5cc(S(=O)(=O)[O-])ccc5F)c5ccc2[nH]5)C=C4)C=C3)cc1
REMARK SMILES IDX 23 1 22 2 21 3 20 4 1 5 2 6 3 8 4 9 5 10 10 11 6 12 9 13
REMARK SMILES IDX 7 14 11 15 8 16 12 17 13 18 14 19 15 20 19 21 16 22 17 23
REMARK SMILES IDX 18 26 24 27 25 28 26 29 27 30 28 31 29 33 30 34 31 35 92 36
REMARK SMILES IDX 32 37 91 38 33 39 34 40 35 41 85 42 36 43 90 44 84 45 86 46
REMARK SMILES IDX 37 47 89 48 83 49 82 50 38 52 70 53 50 54 69 55 51 56 54 57
REMARK SMILES IDX 68 58 87 59 52 60 53 61 67 63 88 64 55 65 39 66 40 67 48 68
REMARK SMILES IDX 41 69 47 70 49 71 46 72 42 73 43 74 44 75 45 76 71 77 72 78
REMARK SMILES IDX 80 79 73 80 79 81 81 82 78 83 74 84 75 85 76 86 77 87 56 88
REMARK SMILES IDX 57 89 65 90 58 91 64 92 66 93 63 94 59 95 60 96 61 97 62 98
REMARK H PARENT 20 7 19 24 16 25 27 32 86 51 54 62
REMARK Flexibility Score: inf
ROOT
ATOM      1  C   UNL A   1      34.328  29.608  26.811  1.00  0.00     0.002 C 
ENDROOT
BRANCH   1   2
ATOM      2  C   UNL A   1      33.130  28.799  27.343  1.00  0.00     0.021 C 
BRANCH   2   3
ATOM      3  C   UNL A   1      31.802  28.963  26.587  1.00  0.00     0.116 C 
BRANCH   3   4
ATOM      4  N   UNL A   1      31.380  27.699  26.020  1.00  0.00    -0.356 N 
ATOM      5  O   UNL A   1      30.952  28.328  23.862  1.00  0.00    -0.275 OA
ATOM      6  C   UNL A   1      30.984  27.460  24.728  1.00  0.00     0.220 C 
ATOM      7  H   UNL A   1      31.379  26.925  26.629  1.00  0.00     0.163 HD
BRANCH   6   8
ATOM      8  C   UNL A   1      30.447  26.041  24.472  1.00  0.00     0.103 C 
BRANCH   8   9
ATOM      9  C   UNL A   1      31.378  24.973  23.838  1.00  0.00     0.002 C 
ATOM     10  C   UNL A   1      32.801  24.873  24.403  1.00  0.00     0.029 C 
ATOM     11  C   UNL A   1      30.740  23.540  23.826  1.00  0.00     0.029 C 
ATOM     12  C   UNL A   1      32.890  23.994  25.659  1.00  0.00     0.086 C 
ATOM     13  C   UNL A   1      31.150  22.606  25.005  1.00  0.00     0.086 C 
ATOM     14  C   UNL A   1      31.795  24.136  26.742  1.00  0.00     0.027 C 
ATOM     15  N   UNL A   1      32.599  22.657  25.195  1.00  0.00    -0.331 N 
ATOM     16  C   UNL A   1      30.674  23.166  26.342  1.00  0.00     0.027 C 
BRANCH  15  17
ATOM     17  C   UNL A   1      33.516  21.657  25.411  1.00  0.00     0.272 C 
ATOM     18  O   UNL A   1      34.617  21.857  25.924  1.00  0.00    -0.267 OA
BRANCH  17  19
ATOM     19  C   UNL A   1      33.118  20.273  25.111  1.00  0.00     0.125 A 
ATOM     20  C   UNL A   1      32.805  19.712  23.936  1.00  0.00     0.119 A 
ATOM     21  N   UNL A   1      33.093  19.305  26.087  1.00  0.00    -0.302 N 
ATOM     22  N   UNL A   1      32.541  18.383  24.154  1.00  0.00    -0.312 N 
ATOM     23  C   UNL A   1      32.717  18.090  25.516  1.00  0.00     0.323 A 
ATOM     24  H   UNL A   1      33.306  19.448  27.038  1.00  0.00     0.172 HD
ATOM     25  H   UNL A   1      32.271  17.736  23.462  1.00  0.00     0.171 HD
ATOM     26  O   UNL A   1      32.572  17.017  26.065  1.00  0.00    -0.248 OA
ENDBRANCH  17  19
ENDBRANCH  15  17
ENDBRANCH   8   9
ENDBRANCH   6   8
ENDBRANCH   3   4
ENDBRANCH   2   3
ENDBRANCH   1   2
BRANCH   1  27
ATOM     27  C   UNL A   1      35.022  30.540  27.804  1.00  0.00     0.002 C 
BRANCH  27  28
ATOM     28  C   UNL A   1      34.721  32.023  27.602  1.00  0.00     0.021 C 
BRANCH  28  29
ATOM     29  C   UNL A   1      33.261  32.419  27.805  1.00  0.00     0.116 C 
BRANCH  29  30
ATOM     30  N   UNL A   1      33.079  33.846  28.032  1.00  0.00    -0.352 N 
ATOM     31  C   UNL A   1      33.733  34.665  28.924  1.00  0.00     0.251 C 
ATOM     32  H   UNL A   1      32.398  34.283  27.471  1.00  0.00     0.163 HD
ATOM     33  O   UNL A   1      33.370  35.826  29.077  1.00  0.00    -0.269 OA
BRANCH  31  34
ATOM     34  C   UNL A   1      34.847  34.116  29.730  1.00  0.00     0.039 A 
ATOM     35  C   UNL A   1      34.555  33.256  30.791  1.00  0.00     0.014 A 
ATOM     36  C   UNL A   1      36.175  34.403  29.401  1.00  0.00     0.014 A 
ATOM     37  C   UNL A   1      35.596  32.610  31.462  1.00  0.00     0.010 A 
ATOM     38  C   UNL A   1      37.206  33.700  30.018  1.00  0.00     0.010 A 
ATOM     39  C   UNL A   1      36.927  32.783  31.045  1.00  0.00    -0.014 A 
BRANCH  39  40
ATOM     40  C   UNL A   1      38.032  31.986  31.642  1.00  0.00     0.031 A 
ATOM     41  C   UNL A   1      38.603  32.361  32.980  1.00  0.00     0.074 A 
ATOM     42  C   UNL A   1      38.574  30.972  30.938  1.00  0.00     0.049 A 
ATOM     43  N   UNL A   1      39.618  31.841  33.624  1.00  0.00    -0.248 NA
ATOM     44  C   UNL A   1      37.966  33.490  33.672  1.00  0.00     0.031 C 
ATOM     45  C   UNL A   1      38.142  30.547  29.605  1.00  0.00     0.029 A 
ATOM     46  N   UNL A   1      39.613  30.125  31.235  1.00  0.00    -0.354 N 
ATOM     47  C   UNL A   1      39.742  32.580  34.795  1.00  0.00     0.074 A 
ATOM     48  C   UNL A   1      38.747  33.630  34.731  1.00  0.00     0.031 C 
ATOM     49  C   UNL A   1      38.898  29.511  29.208  1.00  0.00     0.029 A 
ATOM     50  C   UNL A   1      39.901  29.230  30.230  1.00  0.00     0.049 A 
ATOM     51  H   UNL A   1      40.105  30.154  32.087  1.00  0.00     0.167 HD
ATOM     52  C   UNL A   1      40.589  32.383  35.838  1.00  0.00     0.034 A 
ATOM     53  C   UNL A   1      40.875  28.305  30.128  1.00  0.00     0.034 A 
ATOM     54  C   UNL A   1      41.583  31.337  35.876  1.00  0.00     0.049 A 
ATOM     55  C   UNL A   1      41.838  28.132  31.273  1.00  0.00     0.074 A 
ATOM     56  C   UNL A   1      42.457  31.014  36.900  1.00  0.00     0.029 A 
ATOM     57  N   UNL A   1      41.852  30.454  34.836  1.00  0.00    -0.354 N 
ATOM     58  N   UNL A   1      41.903  28.797  32.404  1.00  0.00    -0.248 NA
ATOM     59  C   UNL A   1      42.853  27.080  31.133  1.00  0.00     0.031 C 
ATOM     60  C   UNL A   1      43.304  29.994  36.451  1.00  0.00     0.029 A 
ATOM     61  C   UNL A   1      42.906  29.617  35.178  1.00  0.00     0.049 A 
ATOM     62  H   UNL A   1      41.365  30.426  33.982  1.00  0.00     0.167 HD
ATOM     63  C   UNL A   1      42.957  28.232  33.117  1.00  0.00     0.074 A 
ATOM     64  C   UNL A   1      43.482  27.160  32.297  1.00  0.00     0.031 C 
ATOM     65  C   UNL A   1      43.444  28.570  34.339  1.00  0.00     0.034 A 
BRANCH  52  66
ATOM     66  C   UNL A   1      40.482  33.344  37.001  1.00  0.00     0.023 A 
ATOM     67  C   UNL A   1      41.417  34.378  37.189  1.00  0.00     0.031 A 
ATOM     68  C   UNL A   1      39.469  33.196  37.964  1.00  0.00     0.131 A 
ATOM     69  C   UNL A   1      41.382  35.154  38.357  1.00  0.00     0.055 A 
ATOM     70  C   UNL A   1      39.382  34.035  39.078  1.00  0.00     0.041 A 
ATOM     71  F   UNL A   1      38.557  32.217  37.854  1.00  0.00    -0.206 F 
ATOM     72  C   UNL A   1      40.355  35.008  39.291  1.00  0.00     0.022 A 
BRANCH  69  73
ATOM     73  S   UNL A   1      42.802  36.223  38.725  1.00  0.00     0.124 S 
ATOM     74  O   UNL A   1      42.667  37.254  37.698  1.00  0.00    -0.237 OA
ATOM     75  O   UNL A   1      42.530  36.644  40.094  1.00  0.00    -0.237 OA
ATOM     76  O   UNL A   1      43.951  35.336  38.559  1.00  0.00    -0.744 OA
ENDBRANCH  69  73
ENDBRANCH  52  66
BRANCH  53  77
ATOM     77  C   UNL A   1      41.006  27.495  28.883  1.00  0.00     0.023 A 
ATOM     78  C   UNL A   1      41.985  27.787  27.920  1.00  0.00     0.031 A 
ATOM     79  C   UNL A   1      40.138  26.415  28.636  1.00  0.00     0.131 A 
ATOM     80  C   UNL A   1      42.054  27.026  26.742  1.00  0.00     0.055 A 
ATOM     81  C   UNL A   1      40.244  25.630  27.487  1.00  0.00     0.041 A 
ATOM     82  F   UNL A   1      39.187  26.090  29.527  1.00  0.00    -0.206 F 
ATOM     83  C   UNL A   1      41.201  25.941  26.526  1.00  0.00     0.022 A 
BRANCH  80  84
ATOM     84  S   UNL A   1      43.239  27.515  25.458  1.00  0.00     0.124 S 
ATOM     85  O   UNL A   1      44.177  28.336  26.216  1.00  0.00    -0.237 OA
ATOM     86  O   UNL A   1      43.741  26.223  25.000  1.00  0.00    -0.237 OA
ATOM     87  O   UNL A   1      42.415  28.238  24.492  1.00  0.00    -0.744 OA
ENDBRANCH  80  84
ENDBRANCH  53  77
BRANCH  65  88
ATOM     88  C   UNL A   1      44.596  27.748  34.868  1.00  0.00     0.023 A 
ATOM     89  C   UNL A   1      44.394  26.491  35.465  1.00  0.00     0.031 A 
ATOM     90  C   UNL A   1      45.914  28.232  34.778  1.00  0.00     0.131 A 
ATOM     91  C   UNL A   1      45.485  25.784  35.996  1.00  0.00     0.055 A 
ATOM     92  C   UNL A   1      47.002  27.496  35.251  1.00  0.00     0.041 A 
ATOM     93  F   UNL A   1      46.167  29.428  34.223  1.00  0.00    -0.206 F 
ATOM     94  C   UNL A   1      46.789  26.271  35.876  1.00  0.00     0.022 A 
BRANCH  91  95
ATOM     95  S   UNL A   1      45.167  24.263  36.930  1.00  0.00     0.124 S 
ATOM     96  O   UNL A   1      44.593  24.782  38.168  1.00  0.00    -0.237 OA
ATOM     97  O   UNL A   1      44.249  23.544  36.053  1.00  0.00    -0.237 OA
ATOM     98  O   UNL A   1      46.492  23.660  37.066  1.00  0.00    -0.744 OA
ENDBRANCH  91  95
ENDBRANCH  65  88
ENDBRANCH  39  40
ENDBRANCH  31  34
ENDBRANCH  29  30
ENDBRANCH  28  29
ENDBRANCH  27  28
ENDBRANCH   1  27
TORSDOF 19
ENDMDL
