MODEL 1
REMARK VINA RESULT:     -12.4      0.000      0.000
REMARK SMILES Cc1cc(Br)cc2c1O[C@H](C(F)(F)F)C(C(=O)NCCCCCCNC(=O)c1ccc(-c3c4nc(c(-c5cc(S(=O)(=O)[O-])ccc5F)c5ccc([nH]5)c(-c5cc(S(=O)(=O)[O-])ccc5F)c5nc(c(-c6cc(S(=O)(=O)[O-])ccc6F)c6ccc3[nH]6)C=C5)C=C4)cc1)=C2
REMARK SMILES IDX 22 1 21 2 20 3 19 4 18 5 16 6 17 7 15 9 1 10 2 11 3 12 8 13
REMARK SMILES IDX 4 14 7 15 9 16 5 17 6 18 91 19 10 20 11 21 12 22 13 23 14 24
REMARK SMILES IDX 23 25 24 26 25 27 26 28 27 30 28 31 29 32 90 33 30 34 89 35
REMARK SMILES IDX 31 36 32 37 33 38 83 39 34 40 88 41 82 42 84 43 35 44 87 45
REMARK SMILES IDX 81 46 80 47 36 49 68 50 48 51 67 52 49 53 52 54 66 55 85 56
REMARK SMILES IDX 50 57 51 58 65 60 86 61 53 62 37 63 38 64 46 65 39 66 45 67
REMARK SMILES IDX 47 68 44 69 40 70 41 71 42 72 43 73 69 74 70 75 78 76 71 77
REMARK SMILES IDX 77 78 79 79 76 80 72 81 73 82 74 83 75 84 54 85 55 86 63 87
REMARK SMILES IDX 56 88 62 89 64 90 61 91 57 92 58 93 59 94 60 95
REMARK H PARENT 18 8 25 29 84 48 52 59
REMARK Flexibility Score: inf
ROOT
ATOM      1  C   UNL A   1      34.987  20.669  24.733  1.00  0.00     0.002 C 
ENDROOT
BRANCH   1   2
ATOM      2  C   UNL A   1      33.761  20.612  25.653  1.00  0.00     0.002 C 
BRANCH   2   3
ATOM      3  C   UNL A   1      32.412  20.595  24.931  1.00  0.00     0.021 C 
BRANCH   3   4
ATOM      4  C   UNL A   1      31.783  21.977  24.790  1.00  0.00     0.116 C 
BRANCH   4   5
ATOM      5  N   UNL A   1      30.949  22.307  25.932  1.00  0.00    -0.352 N 
ATOM      6  C   UNL A   1      30.512  23.430  26.548  1.00  0.00     0.251 C 
ATOM      7  O   UNL A   1      29.764  23.246  27.515  1.00  0.00    -0.270 OA
ATOM      8  H   UNL A   1      30.610  21.497  26.378  1.00  0.00     0.163 HD
BRANCH   6   9
ATOM      9  C   UNL A   1      30.865  24.824  26.147  1.00  0.00     0.067 C 
ATOM     10  C   UNL A   1      32.728  29.590  25.754  1.00  0.00     0.048 C 
ATOM     11  C   UNL A   1      31.642  28.814  25.062  1.00  0.00    -0.007 A 
ATOM     12  C   UNL A   1      30.874  29.411  24.056  1.00  0.00     0.023 A 
ATOM     13  C   UNL A   1      31.345  27.499  25.445  1.00  0.00     0.130 A 
ATOM     14  C   UNL A   1      29.847  28.693  23.442  1.00  0.00     0.019 A 
ATOM     15  C   UNL A   1      30.316  26.777  24.832  1.00  0.00     0.019 A 
ATOM     16  O   UNL A   1      32.072  26.985  26.477  1.00  0.00    -0.475 OA
ATOM     17  Br  UNL A   1      28.815  29.516  22.088  1.00  0.00    -0.051 Br
ATOM     18  C   UNL A   1      29.564  27.380  23.822  1.00  0.00     0.027 A 
ATOM     19  C   UNL A   1      30.020  25.423  25.287  1.00  0.00     0.025 C 
ATOM     20  C   UNL A   1      32.098  25.544  26.613  1.00  0.00     0.314 C 
BRANCH  20  21
ATOM     21  C   UNL A   1      33.386  25.000  25.968  1.00  0.00     0.429 C 
ATOM     22  F   UNL A   1      34.373  25.926  26.021  1.00  0.00    -0.167 F 
ATOM     23  F   UNL A   1      33.860  23.900  26.598  1.00  0.00    -0.167 F 
ATOM     24  F   UNL A   1      33.212  24.662  24.671  1.00  0.00    -0.167 F 
ENDBRANCH  20  21
ENDBRANCH   6   9
ENDBRANCH   4   5
ENDBRANCH   3   4
ENDBRANCH   2   3
ENDBRANCH   1   2
BRANCH   1  25
ATOM     25  C   UNL A   1      35.630  22.052  24.590  1.00  0.00     0.021 C 
BRANCH  25  26
ATOM     26  C   UNL A   1      36.628  22.398  25.690  1.00  0.00     0.116 C 
BRANCH  26  27
ATOM     27  N   UNL A   1      37.618  21.348  25.862  1.00  0.00    -0.352 N 
ATOM     28  C   UNL A   1      38.954  21.458  26.149  1.00  0.00     0.251 C 
ATOM     29  H   UNL A   1      37.282  20.428  25.756  1.00  0.00     0.163 HD
ATOM     30  O   UNL A   1      39.692  20.486  26.008  1.00  0.00    -0.269 OA
BRANCH  28  31
ATOM     31  C   UNL A   1      39.493  22.751  26.614  1.00  0.00     0.039 A 
ATOM     32  C   UNL A   1      40.479  22.760  27.602  1.00  0.00     0.014 A 
ATOM     33  C   UNL A   1      39.018  23.953  26.077  1.00  0.00     0.014 A 
ATOM     34  C   UNL A   1      41.025  23.974  28.018  1.00  0.00     0.010 A 
ATOM     35  C   UNL A   1      39.614  25.156  26.440  1.00  0.00     0.010 A 
ATOM     36  C   UNL A   1      40.615  25.179  27.421  1.00  0.00    -0.014 A 
BRANCH  36  37
ATOM     37  C   UNL A   1      41.202  26.475  27.841  1.00  0.00     0.031 A 
ATOM     38  C   UNL A   1      42.637  26.785  27.518  1.00  0.00     0.074 A 
ATOM     39  C   UNL A   1      40.450  27.358  28.527  1.00  0.00     0.049 A 
ATOM     40  N   UNL A   1      43.344  27.839  27.831  1.00  0.00    -0.248 NA
ATOM     41  C   UNL A   1      43.383  25.766  26.759  1.00  0.00     0.031 C 
ATOM     42  C   UNL A   1      39.050  27.158  28.908  1.00  0.00     0.029 A 
ATOM     43  N   UNL A   1      40.751  28.604  29.016  1.00  0.00    -0.354 N 
ATOM     44  C   UNL A   1      44.611  27.615  27.307  1.00  0.00     0.074 A 
ATOM     45  C   UNL A   1      44.596  26.296  26.713  1.00  0.00     0.031 C 
ATOM     46  C   UNL A   1      38.604  28.259  29.533  1.00  0.00     0.029 A 
ATOM     47  C   UNL A   1      39.693  29.225  29.638  1.00  0.00     0.049 A 
ATOM     48  H   UNL A   1      41.641  29.016  28.929  1.00  0.00     0.167 HD
ATOM     49  C   UNL A   1      45.680  28.446  27.294  1.00  0.00     0.034 A 
ATOM     50  C   UNL A   1      39.612  30.433  30.229  1.00  0.00     0.034 A 
ATOM     51  C   UNL A   1      45.677  29.764  27.872  1.00  0.00     0.049 A 
ATOM     52  C   UNL A   1      40.833  31.316  30.252  1.00  0.00     0.074 A 
ATOM     53  C   UNL A   1      46.697  30.699  27.886  1.00  0.00     0.029 A 
ATOM     54  N   UNL A   1      44.602  30.337  28.539  1.00  0.00    -0.354 N 
ATOM     55  N   UNL A   1      42.022  31.090  29.744  1.00  0.00    -0.248 NA
ATOM     56  C   UNL A   1      40.703  32.612  30.929  1.00  0.00     0.031 C 
ATOM     57  C   UNL A   1      46.262  31.810  28.613  1.00  0.00     0.029 A 
ATOM     58  C   UNL A   1      44.946  31.599  28.993  1.00  0.00     0.049 A 
ATOM     59  H   UNL A   1      43.725  29.909  28.667  1.00  0.00     0.167 HD
ATOM     60  C   UNL A   1      42.776  32.224  30.025  1.00  0.00     0.074 A 
ATOM     61  C   UNL A   1      41.905  33.137  30.737  1.00  0.00     0.031 C 
ATOM     62  C   UNL A   1      44.070  32.489  29.717  1.00  0.00     0.034 A 
BRANCH  49  63
ATOM     63  C   UNL A   1      46.942  27.951  26.637  1.00  0.00     0.023 A 
ATOM     64  C   UNL A   1      47.133  28.058  25.248  1.00  0.00     0.031 A 
ATOM     65  C   UNL A   1      47.972  27.385  27.406  1.00  0.00     0.131 A 
ATOM     66  C   UNL A   1      48.309  27.566  24.666  1.00  0.00     0.055 A 
ATOM     67  C   UNL A   1      49.169  26.957  26.829  1.00  0.00     0.041 A 
ATOM     68  F   UNL A   1      47.834  27.242  28.733  1.00  0.00    -0.206 F 
ATOM     69  C   UNL A   1      49.340  27.039  25.449  1.00  0.00     0.022 A 
BRANCH  66  70
ATOM     70  S   UNL A   1      48.441  27.547  22.858  1.00  0.00     0.124 S 
ATOM     71  O   UNL A   1      48.418  26.114  22.577  1.00  0.00    -0.237 OA
ATOM     72  O   UNL A   1      47.260  28.298  22.446  1.00  0.00    -0.237 OA
ATOM     73  O   UNL A   1      49.720  28.206  22.601  1.00  0.00    -0.744 OA
ENDBRANCH  66  70
ENDBRANCH  49  63
BRANCH  50  74
ATOM     74  C   UNL A   1      38.332  30.880  30.844  1.00  0.00     0.023 A 
ATOM     75  C   UNL A   1      37.371  31.569  30.088  1.00  0.00     0.031 A 
ATOM     76  C   UNL A   1      38.049  30.621  32.198  1.00  0.00     0.131 A 
ATOM     77  C   UNL A   1      36.181  31.998  30.695  1.00  0.00     0.055 A 
ATOM     78  C   UNL A   1      36.846  31.015  32.787  1.00  0.00     0.041 A 
ATOM     79  F   UNL A   1      38.933  29.959  32.961  1.00  0.00    -0.206 F 
ATOM     80  C   UNL A   1      35.906  31.713  32.036  1.00  0.00     0.022 A 
BRANCH  77  81
ATOM     81  S   UNL A   1      35.002  32.966  29.714  1.00  0.00     0.124 S 
ATOM     82  O   UNL A   1      34.122  33.497  30.747  1.00  0.00    -0.237 OA
ATOM     83  O   UNL A   1      35.876  33.930  29.054  1.00  0.00    -0.237 OA
ATOM     84  O   UNL A   1      34.399  31.970  28.829  1.00  0.00    -0.744 OA
ENDBRANCH  77  81
ENDBRANCH  50  74
BRANCH  62  85
ATOM     85  C   UNL A   1      44.625  33.824  30.136  1.00  0.00     0.023 A 
ATOM     86  C   UNL A   1      44.492  34.958  29.318  1.00  0.00     0.031 A 
ATOM     87  C   UNL A   1      45.242  33.975  31.390  1.00  0.00     0.131 A 
ATOM     88  C   UNL A   1      44.996  36.192  29.753  1.00  0.00     0.055 A 
ATOM     89  C   UNL A   1      45.696  35.215  31.838  1.00  0.00     0.041 A 
ATOM     90  F   UNL A   1      45.387  32.922  32.210  1.00  0.00    -0.206 F 
ATOM     91  C   UNL A   1      45.579  36.332  31.015  1.00  0.00     0.022 A 
BRANCH  88  92
ATOM     92  S   UNL A   1      44.908  37.613  28.631  1.00  0.00     0.124 S 
ATOM     93  O   UNL A   1      46.244  38.187  28.766  1.00  0.00    -0.237 OA
ATOM     94  O   UNL A   1      44.613  36.984  27.348  1.00  0.00    -0.237 OA
ATOM     95  O   UNL A   1      43.825  38.424  29.185  1.00  0.00    -0.744 OA
ENDBRANCH  88  92
ENDBRANCH  62  85
ENDBRANCH  36  37
ENDBRANCH  28  31
ENDBRANCH  26  27
ENDBRANCH  25  26
ENDBRANCH   1  25
TORSDOF 17
ENDMDL
MODEL 2
REMARK VINA RESULT:     -12.3      0.970      7.450
REMARK SMILES Cc1cc(Br)cc2c1O[C@H](C(F)(F)F)C(C(=O)NCCCCCCNC(=O)c1ccc(-c3c4nc(c(-c5cc(S(=O)(=O)[O-])ccc5F)c5ccc([nH]5)c(-c5cc(S(=O)(=O)[O-])ccc5F)c5nc(c(-c6cc(S(=O)(=O)[O-])ccc6F)c6ccc3[nH]6)C=C5)C=C4)cc1)=C2
REMARK SMILES IDX 22 1 21 2 20 3 19 4 18 5 16 6 17 7 15 9 1 10 2 11 3 12 8 13
REMARK SMILES IDX 4 14 7 15 9 16 5 17 6 18 91 19 10 20 11 21 12 22 13 23 14 24
REMARK SMILES IDX 23 25 24 26 25 27 26 28 27 30 28 31 29 32 90 33 30 34 89 35
REMARK SMILES IDX 31 36 32 37 33 38 83 39 34 40 88 41 82 42 84 43 35 44 87 45
REMARK SMILES IDX 81 46 80 47 36 49 68 50 48 51 67 52 49 53 52 54 66 55 85 56
REMARK SMILES IDX 50 57 51 58 65 60 86 61 53 62 37 63 38 64 46 65 39 66 45 67
REMARK SMILES IDX 47 68 44 69 40 70 41 71 42 72 43 73 69 74 70 75 78 76 71 77
REMARK SMILES IDX 77 78 79 79 76 80 72 81 73 82 74 83 75 84 54 85 55 86 63 87
REMARK SMILES IDX 56 88 62 89 64 90 61 91 57 92 58 93 59 94 60 95
REMARK H PARENT 18 8 25 29 84 48 52 59
REMARK Flexibility Score: inf
ROOT
ATOM      1  C   UNL A   1      34.937  21.214  25.650  1.00  0.00     0.002 C 
ENDROOT
BRANCH   1   2
ATOM      2  C   UNL A   1      33.420  20.984  25.671  1.00  0.00     0.002 C 
BRANCH   2   3
ATOM      3  C   UNL A   1      32.726  21.128  24.315  1.00  0.00     0.021 C 
BRANCH   3   4
ATOM      4  C   UNL A   1      31.786  22.326  24.240  1.00  0.00     0.116 C 
BRANCH   4   5
ATOM      5  N   UNL A   1      31.089  22.543  25.496  1.00  0.00    -0.352 N 
ATOM      6  C   UNL A   1      30.695  23.602  26.240  1.00  0.00     0.251 C 
ATOM      7  O   UNL A   1      30.080  23.321  27.275  1.00  0.00    -0.270 OA
ATOM      8  H   UNL A   1      30.836  21.691  25.919  1.00  0.00     0.163 HD
BRANCH   6   9
ATOM      9  C   UNL A   1      30.949  25.034  25.900  1.00  0.00     0.067 C 
ATOM     10  C   UNL A   1      32.457  29.936  25.726  1.00  0.00     0.048 C 
ATOM     11  C   UNL A   1      31.440  29.112  24.989  1.00  0.00    -0.007 A 
ATOM     12  C   UNL A   1      30.640  29.692  23.998  1.00  0.00     0.023 A 
ATOM     13  C   UNL A   1      31.236  27.763  25.314  1.00  0.00     0.130 A 
ATOM     14  C   UNL A   1      29.675  28.926  23.341  1.00  0.00     0.019 A 
ATOM     15  C   UNL A   1      30.271  26.994  24.658  1.00  0.00     0.019 A 
ATOM     16  O   UNL A   1      31.989  27.261  26.334  1.00  0.00    -0.475 OA
ATOM     17  Br  UNL A   1      28.599  29.727  22.008  1.00  0.00    -0.051 Br
ATOM     18  C   UNL A   1      29.487  27.581  23.664  1.00  0.00     0.027 A 
ATOM     19  C   UNL A   1      30.070  25.604  25.054  1.00  0.00     0.025 C 
ATOM     20  C   UNL A   1      32.120  25.822  26.412  1.00  0.00     0.314 C 
BRANCH  20  21
ATOM     21  C   UNL A   1      33.451  25.401  25.763  1.00  0.00     0.429 C 
ATOM     22  F   UNL A   1      34.387  26.368  25.926  1.00  0.00    -0.167 F 
ATOM     23  F   UNL A   1      33.966  24.275  26.311  1.00  0.00    -0.167 F 
ATOM     24  F   UNL A   1      33.329  25.169  24.437  1.00  0.00    -0.167 F 
ENDBRANCH  20  21
ENDBRANCH   6   9
ENDBRANCH   4   5
ENDBRANCH   3   4
ENDBRANCH   2   3
ENDBRANCH   1   2
BRANCH   1  25
ATOM     25  C   UNL A   1      35.471  21.921  24.400  1.00  0.00     0.021 C 
BRANCH  25  26
ATOM     26  C   UNL A   1      36.992  21.984  24.317  1.00  0.00     0.116 C 
BRANCH  26  27
ATOM     27  N   UNL A   1      37.612  20.870  25.015  1.00  0.00    -0.352 N 
ATOM     28  C   UNL A   1      38.772  20.844  25.744  1.00  0.00     0.251 C 
ATOM     29  H   UNL A   1      37.131  20.013  24.954  1.00  0.00     0.163 HD
ATOM     30  O   UNL A   1      39.277  19.767  26.051  1.00  0.00    -0.269 OA
BRANCH  28  31
ATOM     31  C   UNL A   1      39.407  22.115  26.144  1.00  0.00     0.039 A 
ATOM     32  C   UNL A   1      40.677  22.087  26.723  1.00  0.00     0.014 A 
ATOM     33  C   UNL A   1      38.744  23.332  25.950  1.00  0.00     0.014 A 
ATOM     34  C   UNL A   1      41.303  23.286  27.064  1.00  0.00     0.010 A 
ATOM     35  C   UNL A   1      39.398  24.528  26.225  1.00  0.00     0.010 A 
ATOM     36  C   UNL A   1      40.680  24.515  26.794  1.00  0.00    -0.014 A 
BRANCH  36  37
ATOM     37  C   UNL A   1      41.344  25.798  27.135  1.00  0.00     0.031 A 
ATOM     38  C   UNL A   1      40.624  26.810  27.981  1.00  0.00     0.074 A 
ATOM     39  C   UNL A   1      42.580  26.055  26.665  1.00  0.00     0.049 A 
ATOM     40  N   UNL A   1      41.014  28.001  28.353  1.00  0.00    -0.248 NA
ATOM     41  C   UNL A   1      39.280  26.443  28.457  1.00  0.00     0.031 C 
ATOM     42  C   UNL A   1      43.368  25.152  25.822  1.00  0.00     0.029 A 
ATOM     43  N   UNL A   1      43.397  27.144  26.836  1.00  0.00    -0.354 N 
ATOM     44  C   UNL A   1      39.970  28.523  29.106  1.00  0.00     0.074 A 
ATOM     45  C   UNL A   1      38.903  27.548  29.085  1.00  0.00     0.031 C 
ATOM     46  C   UNL A   1      44.568  25.707  25.587  1.00  0.00     0.029 A 
ATOM     47  C   UNL A   1      44.621  27.020  26.221  1.00  0.00     0.049 A 
ATOM     48  H   UNL A   1      43.132  27.940  27.352  1.00  0.00     0.167 HD
ATOM     49  C   UNL A   1      39.919  29.695  29.782  1.00  0.00     0.034 A 
ATOM     50  C   UNL A   1      45.665  27.871  26.171  1.00  0.00     0.034 A 
ATOM     51  C   UNL A   1      40.996  30.651  29.812  1.00  0.00     0.049 A 
ATOM     52  C   UNL A   1      45.561  29.194  26.884  1.00  0.00     0.074 A 
ATOM     53  C   UNL A   1      41.058  31.855  30.491  1.00  0.00     0.029 A 
ATOM     54  N   UNL A   1      42.200  30.513  29.135  1.00  0.00    -0.354 N 
ATOM     55  N   UNL A   1      44.568  29.668  27.599  1.00  0.00    -0.248 NA
ATOM     56  C   UNL A   1      46.714  30.097  26.780  1.00  0.00     0.031 C 
ATOM     57  C   UNL A   1      42.271  32.472  30.176  1.00  0.00     0.029 A 
ATOM     58  C   UNL A   1      42.997  31.623  29.355  1.00  0.00     0.049 A 
ATOM     59  H   UNL A   1      42.450  29.738  28.581  1.00  0.00     0.167 HD
ATOM     60  C   UNL A   1      44.985  30.918  28.045  1.00  0.00     0.074 A 
ATOM     61  C   UNL A   1      46.323  31.120  27.528  1.00  0.00     0.031 C 
ATOM     62  C   UNL A   1      44.322  31.815  28.818  1.00  0.00     0.034 A 
BRANCH  49  63
ATOM     63  C   UNL A   1      38.656  30.011  30.540  1.00  0.00     0.023 A 
ATOM     64  C   UNL A   1      37.659  30.832  29.988  1.00  0.00     0.031 A 
ATOM     65  C   UNL A   1      38.437  29.469  31.818  1.00  0.00     0.131 A 
ATOM     66  C   UNL A   1      36.506  31.125  30.730  1.00  0.00     0.055 A 
ATOM     67  C   UNL A   1      37.258  29.711  32.525  1.00  0.00     0.041 A 
ATOM     68  F   UNL A   1      39.365  28.694  32.400  1.00  0.00    -0.206 F 
ATOM     69  C   UNL A   1      36.286  30.550  31.985  1.00  0.00     0.022 A 
BRANCH  66  70
ATOM     70  S   UNL A   1      35.330  32.337  30.068  1.00  0.00     0.124 S 
ATOM     71  O   UNL A   1      34.764  31.607  28.937  1.00  0.00    -0.237 OA
ATOM     72  O   UNL A   1      34.435  32.559  31.198  1.00  0.00    -0.237 OA
ATOM     73  O   UNL A   1      36.176  33.474  29.711  1.00  0.00    -0.744 OA
ENDBRANCH  66  70
ENDBRANCH  49  63
BRANCH  50  74
ATOM     74  C   UNL A   1      46.898  27.498  25.424  1.00  0.00     0.023 A 
ATOM     75  C   UNL A   1      47.043  27.823  24.066  1.00  0.00     0.031 A 
ATOM     76  C   UNL A   1      47.950  26.812  26.057  1.00  0.00     0.131 A 
ATOM     77  C   UNL A   1      48.205  27.443  23.378  1.00  0.00     0.055 A 
ATOM     78  C   UNL A   1      49.121  26.472  25.378  1.00  0.00     0.041 A 
ATOM     79  F   UNL A   1      47.862  26.486  27.357  1.00  0.00    -0.206 F 
ATOM     80  C   UNL A   1      49.251  26.782  24.028  1.00  0.00     0.022 A 
BRANCH  77  81
ATOM     81  S   UNL A   1      48.321  27.798  21.603  1.00  0.00     0.124 S 
ATOM     82  O   UNL A   1      48.650  26.486  21.060  1.00  0.00    -0.237 OA
ATOM     83  O   UNL A   1      46.984  28.300  21.306  1.00  0.00    -0.237 OA
ATOM     84  O   UNL A   1      49.388  28.793  21.525  1.00  0.00    -0.744 OA
ENDBRANCH  77  81
ENDBRANCH  50  74
BRANCH  62  85
ATOM     85  C   UNL A   1      45.036  33.095  29.164  1.00  0.00     0.023 A 
ATOM     86  C   UNL A   1      44.801  34.279  28.447  1.00  0.00     0.031 A 
ATOM     87  C   UNL A   1      45.916  33.141  30.259  1.00  0.00     0.131 A 
ATOM     88  C   UNL A   1      45.463  35.458  28.817  1.00  0.00     0.055 A 
ATOM     89  C   UNL A   1      46.533  34.328  30.653  1.00  0.00     0.041 A 
ATOM     90  F   UNL A   1      46.169  32.037  30.980  1.00  0.00    -0.206 F 
ATOM     91  C   UNL A   1      46.312  35.495  29.926  1.00  0.00     0.022 A 
BRANCH  88  92
ATOM     92  S   UNL A   1      45.225  36.944  27.805  1.00  0.00     0.124 S 
ATOM     93  O   UNL A   1      44.848  37.935  28.809  1.00  0.00    -0.237 OA
ATOM     94  O   UNL A   1      46.538  37.124  27.195  1.00  0.00    -0.237 OA
ATOM     95  O   UNL A   1      44.160  36.563  26.879  1.00  0.00    -0.744 OA
ENDBRANCH  88  92
ENDBRANCH  62  85
ENDBRANCH  36  37
ENDBRANCH  28  31
ENDBRANCH  26  27
ENDBRANCH  25  26
ENDBRANCH   1  25
TORSDOF 17
ENDMDL
MODEL 3
REMARK VINA RESULT:     -12.2      2.611      3.114
REMARK SMILES Cc1cc(Br)cc2c1O[C@H](C(F)(F)F)C(C(=O)NCCCCCCNC(=O)c1ccc(-c3c4nc(c(-c5cc(S(=O)(=O)[O-])ccc5F)c5ccc([nH]5)c(-c5cc(S(=O)(=O)[O-])ccc5F)c5nc(c(-c6cc(S(=O)(=O)[O-])ccc6F)c6ccc3[nH]6)C=C5)C=C4)cc1)=C2
REMARK SMILES IDX 22 1 21 2 20 3 19 4 18 5 16 6 17 7 15 9 1 10 2 11 3 12 8 13
REMARK SMILES IDX 4 14 7 15 9 16 5 17 6 18 91 19 10 20 11 21 12 22 13 23 14 24
REMARK SMILES IDX 23 25 24 26 25 27 26 28 27 30 28 31 29 32 90 33 30 34 89 35
REMARK SMILES IDX 31 36 32 37 33 38 83 39 34 40 88 41 82 42 84 43 35 44 87 45
REMARK SMILES IDX 81 46 80 47 36 49 68 50 48 51 67 52 49 53 52 54 66 55 85 56
REMARK SMILES IDX 50 57 51 58 65 60 86 61 53 62 37 63 38 64 46 65 39 66 45 67
REMARK SMILES IDX 47 68 44 69 40 70 41 71 42 72 43 73 69 74 70 75 78 76 71 77
REMARK SMILES IDX 77 78 79 79 76 80 72 81 73 82 74 83 75 84 54 85 55 86 63 87
REMARK SMILES IDX 56 88 62 89 64 90 61 91 57 92 58 93 59 94 60 95
REMARK H PARENT 18 8 25 29 84 48 52 59
REMARK Flexibility Score: inf
ROOT
ATOM      1  C   UNL A   1      34.783  22.909  27.245  1.00  0.00     0.002 C 
ENDROOT
BRANCH   1   2
ATOM      2  C   UNL A   1      33.708  21.820  27.348  1.00  0.00     0.002 C 
BRANCH   2   3
ATOM      3  C   UNL A   1      33.498  20.997  26.074  1.00  0.00     0.021 C 
BRANCH   3   4
ATOM      4  C   UNL A   1      32.213  21.347  25.332  1.00  0.00     0.116 C 
BRANCH   4   5
ATOM      5  N   UNL A   1      31.285  22.078  26.177  1.00  0.00    -0.352 N 
ATOM      6  C   UNL A   1      30.967  23.372  26.413  1.00  0.00     0.251 C 
ATOM      7  O   UNL A   1      30.057  23.553  27.230  1.00  0.00    -0.270 OA
ATOM      8  H   UNL A   1      30.741  21.468  26.727  1.00  0.00     0.163 HD
BRANCH   6   9
ATOM      9  C   UNL A   1      31.624  24.549  25.770  1.00  0.00     0.067 C 
ATOM     10  C   UNL A   1      34.058  27.839  22.674  1.00  0.00     0.048 C 
ATOM     11  C   UNL A   1      33.643  27.849  24.118  1.00  0.00    -0.007 A 
ATOM     12  C   UNL A   1      33.931  28.952  24.931  1.00  0.00     0.023 A 
ATOM     13  C   UNL A   1      33.009  26.738  24.691  1.00  0.00     0.130 A 
ATOM     14  C   UNL A   1      33.571  28.939  26.279  1.00  0.00     0.019 A 
ATOM     15  C   UNL A   1      32.648  26.722  26.042  1.00  0.00     0.019 A 
ATOM     16  O   UNL A   1      32.815  25.661  23.878  1.00  0.00    -0.475 OA
ATOM     17  Br  UNL A   1      33.971  30.435  27.365  1.00  0.00    -0.051 Br
ATOM     18  C   UNL A   1      32.930  27.833  26.839  1.00  0.00     0.027 A 
ATOM     19  C   UNL A   1      32.021  25.530  26.602  1.00  0.00     0.025 C 
ATOM     20  C   UNL A   1      31.816  24.696  24.288  1.00  0.00     0.314 C 
BRANCH  20  21
ATOM     21  C   UNL A   1      30.500  24.985  23.542  1.00  0.00     0.429 C 
ATOM     22  F   UNL A   1      29.958  23.836  23.072  1.00  0.00    -0.167 F 
ATOM     23  F   UNL A   1      29.564  25.553  24.338  1.00  0.00    -0.167 F 
ATOM     24  F   UNL A   1      30.674  25.815  22.489  1.00  0.00    -0.167 F 
ENDBRANCH  20  21
ENDBRANCH   6   9
ENDBRANCH   4   5
ENDBRANCH   3   4
ENDBRANCH   2   3
ENDBRANCH   1   2
BRANCH   1  25
ATOM     25  C   UNL A   1      35.144  23.337  25.819  1.00  0.00     0.021 C 
BRANCH  25  26
ATOM     26  C   UNL A   1      36.598  23.758  25.639  1.00  0.00     0.116 C 
BRANCH  26  27
ATOM     27  N   UNL A   1      37.512  22.689  26.005  1.00  0.00    -0.352 N 
ATOM     28  C   UNL A   1      38.795  22.775  26.479  1.00  0.00     0.251 C 
ATOM     29  H   UNL A   1      37.161  21.776  25.896  1.00  0.00     0.163 HD
ATOM     30  O   UNL A   1      39.509  21.774  26.496  1.00  0.00    -0.269 OA
BRANCH  28  31
ATOM     31  C   UNL A   1      39.310  24.073  26.955  1.00  0.00     0.039 A 
ATOM     32  C   UNL A   1      39.940  24.927  26.049  1.00  0.00     0.014 A 
ATOM     33  C   UNL A   1      39.172  24.442  28.298  1.00  0.00     0.014 A 
ATOM     34  C   UNL A   1      40.391  26.175  26.480  1.00  0.00     0.010 A 
ATOM     35  C   UNL A   1      39.557  25.714  28.709  1.00  0.00     0.010 A 
ATOM     36  C   UNL A   1      40.179  26.588  27.806  1.00  0.00    -0.014 A 
BRANCH  36  37
ATOM     37  C   UNL A   1      40.637  27.921  28.272  1.00  0.00     0.031 A 
ATOM     38  C   UNL A   1      42.104  28.248  28.273  1.00  0.00     0.074 A 
ATOM     39  C   UNL A   1      39.735  28.820  28.711  1.00  0.00     0.049 A 
ATOM     40  N   UNL A   1      42.705  29.336  28.679  1.00  0.00    -0.248 NA
ATOM     41  C   UNL A   1      43.018  27.210  27.770  1.00  0.00     0.031 C 
ATOM     42  C   UNL A   1      38.287  28.605  28.769  1.00  0.00     0.029 A 
ATOM     43  N   UNL A   1      39.898  30.099  29.182  1.00  0.00    -0.354 N 
ATOM     44  C   UNL A   1      44.062  29.116  28.477  1.00  0.00     0.074 A 
ATOM     45  C   UNL A   1      44.202  27.767  27.976  1.00  0.00     0.031 C 
ATOM     46  C   UNL A   1      37.693  29.727  29.207  1.00  0.00     0.029 A 
ATOM     47  C   UNL A   1      38.716  30.725  29.504  1.00  0.00     0.049 A 
ATOM     48  H   UNL A   1      40.779  30.528  29.280  1.00  0.00     0.167 HD
ATOM     49  C   UNL A   1      45.094  29.973  28.663  1.00  0.00     0.034 A 
ATOM     50  C   UNL A   1      38.485  31.962  29.987  1.00  0.00     0.034 A 
ATOM     51  C   UNL A   1      44.940  31.320  29.145  1.00  0.00     0.049 A 
ATOM     52  C   UNL A   1      39.656  32.875  30.240  1.00  0.00     0.074 A 
ATOM     53  C   UNL A   1      45.917  32.280  29.339  1.00  0.00     0.029 A 
ATOM     54  N   UNL A   1      43.733  31.901  29.509  1.00  0.00    -0.354 N 
ATOM     55  N   UNL A   1      40.934  32.652  30.036  1.00  0.00    -0.248 NA
ATOM     56  C   UNL A   1      39.356  34.203  30.790  1.00  0.00     0.031 C 
ATOM     57  C   UNL A   1      45.311  33.418  29.878  1.00  0.00     0.029 A 
ATOM     58  C   UNL A   1      43.945  33.194  29.955  1.00  0.00     0.049 A 
ATOM     59  H   UNL A   1      42.855  31.459  29.456  1.00  0.00     0.167 HD
ATOM     60  C   UNL A   1      41.587  33.820  30.416  1.00  0.00     0.074 A 
ATOM     61  C   UNL A   1      40.564  34.748  30.852  1.00  0.00     0.031 C 
ATOM     62  C   UNL A   1      42.915  34.100  30.402  1.00  0.00     0.034 A 
BRANCH  49  63
ATOM     63  C   UNL A   1      46.480  29.475  28.347  1.00  0.00     0.023 A 
ATOM     64  C   UNL A   1      47.269  28.842  29.324  1.00  0.00     0.031 A 
ATOM     65  C   UNL A   1      47.012  29.615  27.054  1.00  0.00     0.131 A 
ATOM     66  C   UNL A   1      48.564  28.412  29.003  1.00  0.00     0.055 A 
ATOM     67  C   UNL A   1      48.276  29.126  26.724  1.00  0.00     0.041 A 
ATOM     68  F   UNL A   1      46.309  30.228  26.090  1.00  0.00    -0.206 F 
ATOM     69  C   UNL A   1      49.064  28.526  27.704  1.00  0.00     0.022 A 
BRANCH  66  70
ATOM     70  S   UNL A   1      49.621  27.774  30.331  1.00  0.00     0.124 S 
ATOM     71  O   UNL A   1      48.875  28.178  31.520  1.00  0.00    -0.237 OA
ATOM     72  O   UNL A   1      49.652  26.343  30.051  1.00  0.00    -0.237 OA
ATOM     73  O   UNL A   1      50.887  28.476  30.128  1.00  0.00    -0.744 OA
ENDBRANCH  66  70
ENDBRANCH  49  63
BRANCH  50  74
ATOM     74  C   UNL A   1      37.092  32.408  30.261  1.00  0.00     0.023 A 
ATOM     75  C   UNL A   1      36.352  33.098  29.288  1.00  0.00     0.031 A 
ATOM     76  C   UNL A   1      36.477  32.149  31.500  1.00  0.00     0.131 A 
ATOM     77  C   UNL A   1      35.047  33.527  29.577  1.00  0.00     0.055 A 
ATOM     78  C   UNL A   1      35.165  32.543  31.767  1.00  0.00     0.041 A 
ATOM     79  F   UNL A   1      37.140  31.485  32.460  1.00  0.00    -0.206 F 
ATOM     80  C   UNL A   1      34.444  33.242  30.805  1.00  0.00     0.022 A 
BRANCH  77  81
ATOM     81  S   UNL A   1      34.154  34.496  28.331  1.00  0.00     0.124 S 
ATOM     82  O   UNL A   1      34.993  34.311  27.154  1.00  0.00    -0.237 OA
ATOM     83  O   UNL A   1      32.854  33.835  28.305  1.00  0.00    -0.237 OA
ATOM     84  O   UNL A   1      34.150  35.847  28.891  1.00  0.00    -0.744 OA
ENDBRANCH  77  81
ENDBRANCH  50  74
BRANCH  62  85
ATOM     85  C   UNL A   1      43.340  35.470  30.857  1.00  0.00     0.023 A 
ATOM     86  C   UNL A   1      43.443  36.541  29.954  1.00  0.00     0.031 A 
ATOM     87  C   UNL A   1      43.590  35.720  32.218  1.00  0.00     0.131 A 
ATOM     88  C   UNL A   1      43.814  37.810  30.419  1.00  0.00     0.055 A 
ATOM     89  C   UNL A   1      43.910  36.995  32.682  1.00  0.00     0.041 A 
ATOM     90  F   UNL A   1      43.499  34.731  33.121  1.00  0.00    -0.206 F 
ATOM     91  C   UNL A   1      44.029  38.048  31.779  1.00  0.00     0.022 A 
BRANCH  88  92
ATOM     92  S   UNL A   1      44.045  39.145  29.214  1.00  0.00     0.124 S 
ATOM     93  O   UNL A   1      44.804  40.122  29.990  1.00  0.00    -0.237 OA
ATOM     94  O   UNL A   1      44.776  38.479  28.141  1.00  0.00    -0.237 OA
ATOM     95  O   UNL A   1      42.680  39.545  28.877  1.00  0.00    -0.744 OA
ENDBRANCH  88  92
ENDBRANCH  62  85
ENDBRANCH  36  37
ENDBRANCH  28  31
ENDBRANCH  26  27
ENDBRANCH  25  26
ENDBRANCH   1  25
TORSDOF 17
ENDMDL
