MODEL 1
REMARK VINA RESULT:     -11.7      0.000      0.000
REMARK SMILES CCc1cc(OC(F)(F)F)cc2c1O[C@@H](C(F)(F)F)C(C(=O)NCCCCCCNC(=O)c1ccc(-c3c4nc(c(-c5cc(S(=O)(=O)[O-])ccc5F)c5ccc([nH]5)c(-c5cc(S(=O)(=O)[O-])ccc5F)c5nc(c(-c6cc(S(=O)(=O)[O-])ccc6F)c6ccc3[nH]6)C=C5)C=C4)cc1)=C2
REMARK SMILES IDX 27 1 26 2 25 3 24 4 23 5 21 6 22 7 20 9 3 10 4 11 13 12 5 13
REMARK SMILES IDX 12 14 14 15 11 16 96 17 15 18 2 19 1 20 6 21 7 22 8 23 9 24
REMARK SMILES IDX 10 25 16 26 17 27 18 28 19 29 28 30 29 31 30 32 31 33 32 35
REMARK SMILES IDX 33 36 34 37 95 38 35 39 94 40 36 41 37 42 38 43 88 44 39 45
REMARK SMILES IDX 93 46 87 47 89 48 40 49 92 50 86 51 85 52 41 54 73 55 53 56
REMARK SMILES IDX 72 57 54 58 57 59 71 60 90 61 55 62 56 63 70 65 91 66 58 67
REMARK SMILES IDX 42 68 43 69 51 70 44 71 50 72 52 73 49 74 45 75 46 76 47 77
REMARK SMILES IDX 48 78 74 79 75 80 83 81 76 82 82 83 84 84 81 85 77 86 78 87
REMARK SMILES IDX 79 88 80 89 59 90 60 91 68 92 61 93 67 94 69 95 66 96 62 97
REMARK SMILES IDX 63 98 64 99 65 100
REMARK H PARENT 23 8 30 34 89 53 57 64
REMARK Flexibility Score: inf
ROOT
ATOM      1  C   UNL A   1      32.010  28.015  27.468  1.00  0.00     0.002 C 
ENDROOT
BRANCH   1   2
ATOM      2  C   UNL A   1      31.212  26.850  26.869  1.00  0.00     0.002 C 
BRANCH   2   3
ATOM      3  C   UNL A   1      30.644  27.121  25.468  1.00  0.00     0.021 C 
BRANCH   3   4
ATOM      4  C   UNL A   1      29.856  25.933  24.904  1.00  0.00     0.116 C 
BRANCH   4   5
ATOM      5  N   UNL A   1      30.235  25.722  23.517  1.00  0.00    -0.352 N 
ATOM      6  C   UNL A   1      31.239  25.024  22.927  1.00  0.00     0.251 C 
ATOM      7  O   UNL A   1      31.456  25.233  21.736  1.00  0.00    -0.270 OA
ATOM      8  H   UNL A   1      29.645  26.179  22.875  1.00  0.00     0.163 HD
BRANCH   6   9
ATOM      9  C   UNL A   1      32.015  23.966  23.628  1.00  0.00     0.067 C 
ATOM     10  C   UNL A   1      34.638  21.141  25.339  1.00  0.00    -0.002 A 
ATOM     11  C   UNL A   1      34.325  19.774  25.206  1.00  0.00     0.054 A 
ATOM     12  C   UNL A   1      33.742  22.091  24.811  1.00  0.00     0.131 A 
ATOM     13  C   UNL A   1      33.158  19.361  24.560  1.00  0.00     0.130 A 
ATOM     14  C   UNL A   1      32.564  21.686  24.190  1.00  0.00     0.021 A 
ATOM     15  O   UNL A   1      34.112  23.403  24.881  1.00  0.00    -0.475 OA
ATOM     16  C   UNL A   1      32.280  20.324  24.062  1.00  0.00     0.058 A 
ATOM     17  C   UNL A   1      31.677  22.669  23.591  1.00  0.00     0.025 C 
ATOM     18  C   UNL A   1      33.149  24.439  24.534  1.00  0.00     0.314 C 
BRANCH  10  19
ATOM     19  C   UNL A   1      35.886  21.624  26.054  1.00  0.00     0.036 C 
ATOM     20  C   UNL A   1      37.178  21.670  25.246  1.00  0.00     0.009 C 
ENDBRANCH  10  19
BRANCH  13  21
ATOM     21  O   UNL A   1      32.762  18.074  24.336  1.00  0.00    -0.406 OA
BRANCH  21  22
ATOM     22  C   UNL A   1      33.365  17.365  23.267  1.00  0.00     0.573 C 
ATOM     23  F   UNL A   1      32.910  17.804  22.073  1.00  0.00    -0.132 F 
ATOM     24  F   UNL A   1      34.709  17.488  23.307  1.00  0.00    -0.132 F 
ATOM     25  F   UNL A   1      33.058  16.056  23.382  1.00  0.00    -0.132 F 
ENDBRANCH  21  22
ENDBRANCH  13  21
BRANCH  18  26
ATOM     26  C   UNL A   1      33.960  25.673  24.070  1.00  0.00     0.429 C 
ATOM     27  F   UNL A   1      33.278  26.832  24.203  1.00  0.00    -0.167 F 
ATOM     28  F   UNL A   1      35.077  25.831  24.835  1.00  0.00    -0.167 F 
ATOM     29  F   UNL A   1      34.381  25.571  22.789  1.00  0.00    -0.167 F 
ENDBRANCH  18  26
ENDBRANCH   6   9
ENDBRANCH   4   5
ENDBRANCH   3   4
ENDBRANCH   2   3
ENDBRANCH   1   2
BRANCH   1  30
ATOM     30  C   UNL A   1      31.765  29.370  26.797  1.00  0.00     0.021 C 
BRANCH  30  31
ATOM     31  C   UNL A   1      33.040  30.088  26.364  1.00  0.00     0.116 C 
BRANCH  31  32
ATOM     32  N   UNL A   1      33.028  31.484  26.773  1.00  0.00    -0.352 N 
ATOM     33  C   UNL A   1      33.856  32.139  27.654  1.00  0.00     0.251 C 
ATOM     34  H   UNL A   1      32.328  32.040  26.359  1.00  0.00     0.163 HD
ATOM     35  O   UNL A   1      33.539  33.239  28.090  1.00  0.00    -0.269 OA
BRANCH  33  36
ATOM     36  C   UNL A   1      35.115  31.492  28.082  1.00  0.00     0.039 A 
ATOM     37  C   UNL A   1      36.284  32.253  28.140  1.00  0.00     0.014 A 
ATOM     38  C   UNL A   1      35.131  30.141  28.441  1.00  0.00     0.014 A 
ATOM     39  C   UNL A   1      37.453  31.678  28.643  1.00  0.00     0.010 A 
ATOM     40  C   UNL A   1      36.278  29.591  29.006  1.00  0.00     0.010 A 
ATOM     41  C   UNL A   1      37.445  30.359  29.128  1.00  0.00    -0.014 A 
BRANCH  41  42
ATOM     42  C   UNL A   1      38.630  29.789  29.821  1.00  0.00     0.031 A 
ATOM     43  C   UNL A   1      39.034  30.288  31.179  1.00  0.00     0.074 A 
ATOM     44  C   UNL A   1      39.382  28.870  29.182  1.00  0.00     0.049 A 
ATOM     45  N   UNL A   1      40.079  29.968  31.898  1.00  0.00    -0.248 NA
ATOM     46  C   UNL A   1      38.160  31.294  31.799  1.00  0.00     0.031 C 
ATOM     47  C   UNL A   1      39.107  28.338  27.844  1.00  0.00     0.029 A 
ATOM     48  N   UNL A   1      40.536  28.230  29.561  1.00  0.00    -0.354 N 
ATOM     49  C   UNL A   1      39.992  30.735  33.055  1.00  0.00     0.074 A 
ATOM     50  C   UNL A   1      38.823  31.577  32.911  1.00  0.00     0.031 C 
ATOM     51  C   UNL A   1      40.048  27.435  27.528  1.00  0.00     0.029 A 
ATOM     52  C   UNL A   1      41.027  27.367  28.608  1.00  0.00     0.049 A 
ATOM     53  H   UNL A   1      40.971  28.373  30.432  1.00  0.00     0.167 HD
ATOM     54  C   UNL A   1      40.804  30.721  34.142  1.00  0.00     0.034 A 
ATOM     55  C   UNL A   1      42.151  26.622  28.592  1.00  0.00     0.034 A 
ATOM     56  C   UNL A   1      41.969  29.877  34.263  1.00  0.00     0.049 A 
ATOM     57  C   UNL A   1      43.069  26.673  29.786  1.00  0.00     0.074 A 
ATOM     58  C   UNL A   1      42.827  29.741  35.341  1.00  0.00     0.029 A 
ATOM     59  N   UNL A   1      42.453  29.038  33.266  1.00  0.00    -0.354 N 
ATOM     60  N   UNL A   1      42.940  27.359  30.899  1.00  0.00    -0.248 NA
ATOM     61  C   UNL A   1      44.284  25.850  29.722  1.00  0.00     0.031 C 
ATOM     62  C   UNL A   1      43.872  28.891  34.968  1.00  0.00     0.029 A 
ATOM     63  C   UNL A   1      43.624  28.423  33.687  1.00  0.00     0.049 A 
ATOM     64  H   UNL A   1      42.028  28.899  32.389  1.00  0.00     0.167 HD
ATOM     65  C   UNL A   1      44.048  27.030  31.676  1.00  0.00     0.074 A 
ATOM     66  C   UNL A   1      44.818  26.069  30.915  1.00  0.00     0.031 C 
ATOM     67  C   UNL A   1      44.397  27.484  32.907  1.00  0.00     0.034 A 
BRANCH  54  68
ATOM     68  C   UNL A   1      40.478  31.671  35.270  1.00  0.00     0.023 A 
ATOM     69  C   UNL A   1      39.472  31.385  36.211  1.00  0.00     0.031 A 
ATOM     70  C   UNL A   1      41.174  32.886  35.403  1.00  0.00     0.131 A 
ATOM     71  C   UNL A   1      39.143  32.328  37.196  1.00  0.00     0.055 A 
ATOM     72  C   UNL A   1      40.899  33.783  36.438  1.00  0.00     0.041 A 
ATOM     73  F   UNL A   1      42.128  33.226  34.524  1.00  0.00    -0.206 F 
ATOM     74  C   UNL A   1      39.869  33.513  37.333  1.00  0.00     0.022 A 
BRANCH  71  75
ATOM     75  S   UNL A   1      37.661  32.047  38.203  1.00  0.00     0.124 S 
ATOM     76  O   UNL A   1      37.323  30.671  37.852  1.00  0.00    -0.237 OA
ATOM     77  O   UNL A   1      38.157  32.258  39.558  1.00  0.00    -0.237 OA
ATOM     78  O   UNL A   1      36.721  33.056  37.718  1.00  0.00    -0.744 OA
ENDBRANCH  71  75
ENDBRANCH  54  68
BRANCH  55  79
ATOM     79  C   UNL A   1      42.490  25.790  27.402  1.00  0.00     0.023 A 
ATOM     80  C   UNL A   1      42.082  24.449  27.317  1.00  0.00     0.031 A 
ATOM     81  C   UNL A   1      43.268  26.309  26.351  1.00  0.00     0.131 A 
ATOM     82  C   UNL A   1      42.493  23.661  26.231  1.00  0.00     0.055 A 
ATOM     83  C   UNL A   1      43.622  25.537  25.243  1.00  0.00     0.041 A 
ATOM     84  F   UNL A   1      43.685  27.584  26.380  1.00  0.00    -0.206 F 
ATOM     85  C   UNL A   1      43.246  24.199  25.186  1.00  0.00     0.022 A 
BRANCH  82  86
ATOM     86  S   UNL A   1      42.110  21.887  26.253  1.00  0.00     0.124 S 
ATOM     87  O   UNL A   1      40.685  21.889  25.940  1.00  0.00    -0.237 OA
ATOM     88  O   UNL A   1      42.996  21.374  25.214  1.00  0.00    -0.237 OA
ATOM     89  O   UNL A   1      42.450  21.483  27.616  1.00  0.00    -0.744 OA
ENDBRANCH  82  86
ENDBRANCH  55  79
BRANCH  67  90
ATOM     90  C   UNL A   1      45.663  26.922  33.510  1.00  0.00     0.023 A 
ATOM     91  C   UNL A   1      45.654  25.735  34.263  1.00  0.00     0.031 A 
ATOM     92  C   UNL A   1      46.891  27.586  33.336  1.00  0.00     0.131 A 
ATOM     93  C   UNL A   1      46.838  25.279  34.862  1.00  0.00     0.055 A 
ATOM     94  C   UNL A   1      48.077  27.091  33.878  1.00  0.00     0.041 A 
ATOM     95  F   UNL A   1      46.957  28.726  32.631  1.00  0.00    -0.206 F 
ATOM     96  C   UNL A   1      48.053  25.938  34.657  1.00  0.00     0.022 A 
BRANCH  93  97
ATOM     97  S   UNL A   1      46.751  23.864  35.993  1.00  0.00     0.124 S 
ATOM     98  O   UNL A   1      47.690  22.929  35.381  1.00  0.00    -0.237 OA
ATOM     99  O   UNL A   1      47.170  24.451  37.262  1.00  0.00    -0.237 OA
ATOM    100  O   UNL A   1      45.346  23.462  35.931  1.00  0.00    -0.744 OA
ENDBRANCH  93  97
ENDBRANCH  67  90
ENDBRANCH  41  42
ENDBRANCH  33  36
ENDBRANCH  31  32
ENDBRANCH  30  31
ENDBRANCH   1  30
TORSDOF 20
ENDMDL
MODEL 2
REMARK VINA RESULT:     -11.6      2.007      7.717
REMARK SMILES CCc1cc(OC(F)(F)F)cc2c1O[C@@H](C(F)(F)F)C(C(=O)NCCCCCCNC(=O)c1ccc(-c3c4nc(c(-c5cc(S(=O)(=O)[O-])ccc5F)c5ccc([nH]5)c(-c5cc(S(=O)(=O)[O-])ccc5F)c5nc(c(-c6cc(S(=O)(=O)[O-])ccc6F)c6ccc3[nH]6)C=C5)C=C4)cc1)=C2
REMARK SMILES IDX 27 1 26 2 25 3 24 4 23 5 21 6 22 7 20 9 3 10 4 11 13 12 5 13
REMARK SMILES IDX 12 14 14 15 11 16 96 17 15 18 2 19 1 20 6 21 7 22 8 23 9 24
REMARK SMILES IDX 10 25 16 26 17 27 18 28 19 29 28 30 29 31 30 32 31 33 32 35
REMARK SMILES IDX 33 36 34 37 95 38 35 39 94 40 36 41 37 42 38 43 88 44 39 45
REMARK SMILES IDX 93 46 87 47 89 48 40 49 92 50 86 51 85 52 41 54 73 55 53 56
REMARK SMILES IDX 72 57 54 58 57 59 71 60 90 61 55 62 56 63 70 65 91 66 58 67
REMARK SMILES IDX 42 68 43 69 51 70 44 71 50 72 52 73 49 74 45 75 46 76 47 77
REMARK SMILES IDX 48 78 74 79 75 80 83 81 76 82 82 83 84 84 81 85 77 86 78 87
REMARK SMILES IDX 79 88 80 89 59 90 60 91 68 92 61 93 67 94 69 95 66 96 62 97
REMARK SMILES IDX 63 98 64 99 65 100
REMARK H PARENT 23 8 30 34 89 53 57 64
REMARK Flexibility Score: inf
ROOT
ATOM      1  C   UNL A   1      31.311  30.577  25.473  1.00  0.00     0.002 C 
ENDROOT
BRANCH   1   2
ATOM      2  C   UNL A   1      31.795  29.286  24.800  1.00  0.00     0.002 C 
BRANCH   2   3
ATOM      3  C   UNL A   1      32.338  28.228  25.770  1.00  0.00     0.021 C 
BRANCH   3   4
ATOM      4  C   UNL A   1      33.521  27.441  25.193  1.00  0.00     0.116 C 
BRANCH   4   5
ATOM      5  N   UNL A   1      33.412  27.408  23.744  1.00  0.00    -0.352 N 
ATOM      6  C   UNL A   1      33.659  26.446  22.818  1.00  0.00     0.251 C 
ATOM      7  O   UNL A   1      33.713  26.788  21.639  1.00  0.00    -0.270 OA
ATOM      8  H   UNL A   1      33.096  28.255  23.355  1.00  0.00     0.163 HD
BRANCH   6   9
ATOM      9  C   UNL A   1      33.773  25.002  23.157  1.00  0.00     0.067 C 
ATOM     10  C   UNL A   1      33.699  20.993  24.465  1.00  0.00    -0.002 A 
ATOM     11  C   UNL A   1      34.883  20.440  24.991  1.00  0.00     0.054 A 
ATOM     12  C   UNL A   1      33.730  22.316  23.982  1.00  0.00     0.131 A 
ATOM     13  C   UNL A   1      36.064  21.184  25.045  1.00  0.00     0.130 A 
ATOM     14  C   UNL A   1      34.910  23.053  24.009  1.00  0.00     0.021 A 
ATOM     15  O   UNL A   1      32.548  22.851  23.555  1.00  0.00    -0.475 OA
ATOM     16  C   UNL A   1      36.070  22.487  24.545  1.00  0.00     0.058 A 
ATOM     17  C   UNL A   1      34.917  24.438  23.570  1.00  0.00     0.025 C 
ATOM     18  C   UNL A   1      32.550  24.135  22.868  1.00  0.00     0.314 C 
BRANCH  10  19
ATOM     19  C   UNL A   1      32.406  20.205  24.371  1.00  0.00     0.036 C 
ATOM     20  C   UNL A   1      32.521  18.692  24.220  1.00  0.00     0.009 C 
ENDBRANCH  10  19
BRANCH  13  21
ATOM     21  O   UNL A   1      37.261  20.779  25.562  1.00  0.00    -0.406 OA
BRANCH  21  22
ATOM     22  C   UNL A   1      37.871  19.625  25.009  1.00  0.00     0.573 C 
ATOM     23  F   UNL A   1      39.132  19.472  25.467  1.00  0.00    -0.132 F 
ATOM     24  F   UNL A   1      37.152  18.518  25.297  1.00  0.00    -0.132 F 
ATOM     25  F   UNL A   1      37.920  19.757  23.667  1.00  0.00    -0.132 F 
ENDBRANCH  21  22
ENDBRANCH  13  21
BRANCH  18  26
ATOM     26  C   UNL A   1      31.159  24.772  23.097  1.00  0.00     0.429 C 
ATOM     27  F   UNL A   1      30.857  25.722  22.184  1.00  0.00    -0.167 F 
ATOM     28  F   UNL A   1      30.174  23.838  22.972  1.00  0.00    -0.167 F 
ATOM     29  F   UNL A   1      31.026  25.310  24.331  1.00  0.00    -0.167 F 
ENDBRANCH  18  26
ENDBRANCH   6   9
ENDBRANCH   4   5
ENDBRANCH   3   4
ENDBRANCH   2   3
ENDBRANCH   1   2
BRANCH   1  30
ATOM     30  C   UNL A   1      31.835  30.792  26.896  1.00  0.00     0.021 C 
BRANCH  30  31
ATOM     31  C   UNL A   1      33.102  31.640  26.968  1.00  0.00     0.116 C 
BRANCH  31  32
ATOM     32  N   UNL A   1      32.790  33.039  27.221  1.00  0.00    -0.352 N 
ATOM     33  C   UNL A   1      33.258  33.868  28.214  1.00  0.00     0.251 C 
ATOM     34  H   UNL A   1      32.155  33.451  26.592  1.00  0.00     0.163 HD
ATOM     35  O   UNL A   1      32.689  34.927  28.445  1.00  0.00    -0.269 OA
BRANCH  33  36
ATOM     36  C   UNL A   1      34.436  33.455  29.006  1.00  0.00     0.039 A 
ATOM     37  C   UNL A   1      34.263  32.562  30.066  1.00  0.00     0.014 A 
ATOM     38  C   UNL A   1      35.708  33.939  28.689  1.00  0.00     0.014 A 
ATOM     39  C   UNL A   1      35.382  32.086  30.752  1.00  0.00     0.010 A 
ATOM     40  C   UNL A   1      36.827  33.412  29.328  1.00  0.00     0.010 A 
ATOM     41  C   UNL A   1      36.675  32.467  30.354  1.00  0.00    -0.014 A 
BRANCH  41  42
ATOM     42  C   UNL A   1      37.880  31.841  30.958  1.00  0.00     0.031 A 
ATOM     43  C   UNL A   1      38.649  30.787  30.213  1.00  0.00     0.074 A 
ATOM     44  C   UNL A   1      38.231  32.177  32.216  1.00  0.00     0.049 A 
ATOM     45  N   UNL A   1      39.672  30.076  30.612  1.00  0.00    -0.248 NA
ATOM     46  C   UNL A   1      38.194  30.479  28.850  1.00  0.00     0.031 C 
ATOM     47  C   UNL A   1      37.535  33.161  33.051  1.00  0.00     0.029 A 
ATOM     48  N   UNL A   1      39.246  31.723  33.020  1.00  0.00    -0.354 N 
ATOM     49  C   UNL A   1      39.984  29.232  29.551  1.00  0.00     0.074 A 
ATOM     50  C   UNL A   1      39.002  29.482  28.517  1.00  0.00     0.031 C 
ATOM     51  C   UNL A   1      38.160  33.255  34.235  1.00  0.00     0.029 A 
ATOM     52  C   UNL A   1      39.261  32.298  34.271  1.00  0.00     0.049 A 
ATOM     53  H   UNL A   1      39.904  31.050  32.729  1.00  0.00     0.167 HD
ATOM     54  C   UNL A   1      41.005  28.345  29.447  1.00  0.00     0.034 A 
ATOM     55  C   UNL A   1      40.054  32.064  35.336  1.00  0.00     0.034 A 
ATOM     56  C   UNL A   1      41.971  28.107  30.494  1.00  0.00     0.049 A 
ATOM     57  C   UNL A   1      41.141  31.029  35.215  1.00  0.00     0.074 A 
ATOM     58  C   UNL A   1      43.077  27.276  30.472  1.00  0.00     0.029 A 
ATOM     59  N   UNL A   1      41.937  28.685  31.757  1.00  0.00    -0.354 N 
ATOM     60  N   UNL A   1      41.461  30.283  34.183  1.00  0.00    -0.248 NA
ATOM     61  C   UNL A   1      41.977  30.805  36.402  1.00  0.00     0.031 C 
ATOM     62  C   UNL A   1      43.659  27.285  31.743  1.00  0.00     0.029 A 
ATOM     63  C   UNL A   1      42.971  28.189  32.537  1.00  0.00     0.049 A 
ATOM     64  H   UNL A   1      41.275  29.349  32.057  1.00  0.00     0.167 HD
ATOM     65  C   UNL A   1      42.549  29.516  34.592  1.00  0.00     0.074 A 
ATOM     66  C   UNL A   1      42.845  29.910  35.954  1.00  0.00     0.031 C 
ATOM     67  C   UNL A   1      43.240  28.571  33.904  1.00  0.00     0.034 A 
BRANCH  54  68
ATOM     68  C   UNL A   1      41.109  27.546  28.170  1.00  0.00     0.023 A 
ATOM     69  C   UNL A   1      40.752  26.186  28.118  1.00  0.00     0.031 A 
ATOM     70  C   UNL A   1      41.579  28.146  26.988  1.00  0.00     0.131 A 
ATOM     71  C   UNL A   1      40.938  25.457  26.934  1.00  0.00     0.055 A 
ATOM     72  C   UNL A   1      41.682  27.435  25.791  1.00  0.00     0.041 A 
ATOM     73  F   UNL A   1      41.956  29.434  26.980  1.00  0.00    -0.206 F 
ATOM     74  C   UNL A   1      41.374  26.079  25.762  1.00  0.00     0.022 A 
BRANCH  71  75
ATOM     75  S   UNL A   1      40.739  23.655  26.986  1.00  0.00     0.124 S 
ATOM     76  O   UNL A   1      41.233  23.343  28.325  1.00  0.00    -0.237 OA
ATOM     77  O   UNL A   1      39.305  23.490  26.780  1.00  0.00    -0.237 OA
ATOM     78  O   UNL A   1      41.586  23.185  25.891  1.00  0.00    -0.744 OA
ENDBRANCH  71  75
ENDBRANCH  54  68
BRANCH  55  79
ATOM     79  C   UNL A   1      39.835  32.798  36.616  1.00  0.00     0.023 A 
ATOM     80  C   UNL A   1      38.891  32.350  37.554  1.00  0.00     0.031 A 
ATOM     81  C   UNL A   1      40.533  33.985  36.901  1.00  0.00     0.131 A 
ATOM     82  C   UNL A   1      38.636  33.108  38.707  1.00  0.00     0.055 A 
ATOM     83  C   UNL A   1      40.321  34.703  38.080  1.00  0.00     0.041 A 
ATOM     84  F   UNL A   1      41.447  34.459  36.041  1.00  0.00    -0.206 F 
ATOM     85  C   UNL A   1      39.356  34.272  38.984  1.00  0.00     0.022 A 
BRANCH  82  86
ATOM     86  S   UNL A   1      37.276  32.602  39.796  1.00  0.00     0.124 S 
ATOM     87  O   UNL A   1      37.376  33.585  40.869  1.00  0.00    -0.237 OA
ATOM     88  O   UNL A   1      36.120  32.727  38.914  1.00  0.00    -0.237 OA
ATOM     89  O   UNL A   1      37.630  31.233  40.167  1.00  0.00    -0.744 OA
ENDBRANCH  82  86
ENDBRANCH  55  79
BRANCH  67  90
ATOM     90  C   UNL A   1      44.399  27.917  34.618  1.00  0.00     0.023 A 
ATOM     91  C   UNL A   1      44.242  26.711  35.324  1.00  0.00     0.031 A 
ATOM     92  C   UNL A   1      45.675  28.510  34.599  1.00  0.00     0.131 A 
ATOM     93  C   UNL A   1      45.327  26.168  36.029  1.00  0.00     0.055 A 
ATOM     94  C   UNL A   1      46.765  27.929  35.245  1.00  0.00     0.041 A 
ATOM     95  F   UNL A   1      45.881  29.664  33.945  1.00  0.00    -0.206 F 
ATOM     96  C   UNL A   1      46.592  26.758  35.977  1.00  0.00     0.022 A 
BRANCH  93  97
ATOM     97  S   UNL A   1      45.037  24.729  37.094  1.00  0.00     0.124 S 
ATOM     98  O   UNL A   1      46.391  24.393  37.523  1.00  0.00    -0.237 OA
ATOM     99  O   UNL A   1      44.158  25.273  38.124  1.00  0.00    -0.237 OA
ATOM    100  O   UNL A   1      44.412  23.758  36.197  1.00  0.00    -0.744 OA
ENDBRANCH  93  97
ENDBRANCH  67  90
ENDBRANCH  41  42
ENDBRANCH  33  36
ENDBRANCH  31  32
ENDBRANCH  30  31
ENDBRANCH   1  30
TORSDOF 20
ENDMDL
MODEL 3
REMARK VINA RESULT:     -11.5      1.092      7.333
REMARK SMILES CCc1cc(OC(F)(F)F)cc2c1O[C@@H](C(F)(F)F)C(C(=O)NCCCCCCNC(=O)c1ccc(-c3c4nc(c(-c5cc(S(=O)(=O)[O-])ccc5F)c5ccc([nH]5)c(-c5cc(S(=O)(=O)[O-])ccc5F)c5nc(c(-c6cc(S(=O)(=O)[O-])ccc6F)c6ccc3[nH]6)C=C5)C=C4)cc1)=C2
REMARK SMILES IDX 27 1 26 2 25 3 24 4 23 5 21 6 22 7 20 9 3 10 4 11 13 12 5 13
REMARK SMILES IDX 12 14 14 15 11 16 96 17 15 18 2 19 1 20 6 21 7 22 8 23 9 24
REMARK SMILES IDX 10 25 16 26 17 27 18 28 19 29 28 30 29 31 30 32 31 33 32 35
REMARK SMILES IDX 33 36 34 37 95 38 35 39 94 40 36 41 37 42 38 43 88 44 39 45
REMARK SMILES IDX 93 46 87 47 89 48 40 49 92 50 86 51 85 52 41 54 73 55 53 56
REMARK SMILES IDX 72 57 54 58 57 59 71 60 90 61 55 62 56 63 70 65 91 66 58 67
REMARK SMILES IDX 42 68 43 69 51 70 44 71 50 72 52 73 49 74 45 75 46 76 47 77
REMARK SMILES IDX 48 78 74 79 75 80 83 81 76 82 82 83 84 84 81 85 77 86 78 87
REMARK SMILES IDX 79 88 80 89 59 90 60 91 68 92 61 93 67 94 69 95 66 96 62 97
REMARK SMILES IDX 63 98 64 99 65 100
REMARK H PARENT 23 8 30 34 89 53 57 64
REMARK Flexibility Score: inf
ROOT
ATOM      1  C   UNL A   1      31.636  28.587  27.649  1.00  0.00     0.002 C 
ENDROOT
BRANCH   1   2
ATOM      2  C   UNL A   1      31.821  27.315  26.811  1.00  0.00     0.002 C 
BRANCH   2   3
ATOM      3  C   UNL A   1      30.554  26.843  26.086  1.00  0.00     0.021 C 
BRANCH   3   4
ATOM      4  C   UNL A   1      30.373  25.320  26.133  1.00  0.00     0.116 C 
BRANCH   4   5
ATOM      5  N   UNL A   1      30.003  24.841  24.811  1.00  0.00    -0.352 N 
ATOM      6  C   UNL A   1      30.641  24.070  23.893  1.00  0.00     0.251 C 
ATOM      7  O   UNL A   1      30.178  24.036  22.755  1.00  0.00    -0.270 OA
ATOM      8  H   UNL A   1      29.109  25.136  24.523  1.00  0.00     0.163 HD
BRANCH   6   9
ATOM      9  C   UNL A   1      31.805  23.205  24.225  1.00  0.00     0.067 C 
ATOM     10  C   UNL A   1      35.305  20.899  24.692  1.00  0.00    -0.002 A 
ATOM     11  C   UNL A   1      35.168  19.515  24.916  1.00  0.00     0.054 A 
ATOM     12  C   UNL A   1      34.139  21.682  24.583  1.00  0.00     0.131 A 
ATOM     13  C   UNL A   1      33.907  18.923  25.021  1.00  0.00     0.130 A 
ATOM     14  C   UNL A   1      32.880  21.103  24.713  1.00  0.00     0.021 A 
ATOM     15  O   UNL A   1      34.303  23.005  24.283  1.00  0.00    -0.475 OA
ATOM     16  C   UNL A   1      32.769  19.726  24.926  1.00  0.00     0.058 A 
ATOM     17  C   UNL A   1      31.683  21.907  24.534  1.00  0.00     0.025 C 
ATOM     18  C   UNL A   1      33.158  23.901  24.350  1.00  0.00     0.314 C 
BRANCH  10  19
ATOM     19  C   UNL A   1      36.659  21.576  24.595  1.00  0.00     0.036 C 
ATOM     20  C   UNL A   1      37.000  22.607  25.666  1.00  0.00     0.009 C 
ENDBRANCH  10  19
BRANCH  13  21
ATOM     21  O   UNL A   1      33.641  17.596  25.200  1.00  0.00    -0.406 OA
BRANCH  21  22
ATOM     22  C   UNL A   1      34.146  16.679  24.245  1.00  0.00     0.573 C 
ATOM     23  F   UNL A   1      33.288  15.654  24.052  1.00  0.00    -0.132 F 
ATOM     24  F   UNL A   1      34.381  17.294  23.067  1.00  0.00    -0.132 F 
ATOM     25  F   UNL A   1      35.313  16.176  24.698  1.00  0.00    -0.132 F 
ENDBRANCH  21  22
ENDBRANCH  13  21
BRANCH  18  26
ATOM     26  C   UNL A   1      33.445  25.074  23.381  1.00  0.00     0.429 C 
ATOM     27  F   UNL A   1      34.704  25.553  23.492  1.00  0.00    -0.167 F 
ATOM     28  F   UNL A   1      33.337  24.665  22.086  1.00  0.00    -0.167 F 
ATOM     29  F   UNL A   1      32.582  26.103  23.535  1.00  0.00    -0.167 F 
ENDBRANCH  18  26
ENDBRANCH   6   9
ENDBRANCH   4   5
ENDBRANCH   3   4
ENDBRANCH   2   3
ENDBRANCH   1   2
BRANCH   1  30
ATOM     30  C   UNL A   1      31.396  29.861  26.834  1.00  0.00     0.021 C 
BRANCH  30  31
ATOM     31  C   UNL A   1      32.675  30.582  26.419  1.00  0.00     0.116 C 
BRANCH  31  32
ATOM     32  N   UNL A   1      32.606  32.003  26.722  1.00  0.00    -0.352 N 
ATOM     33  C   UNL A   1      33.404  32.755  27.552  1.00  0.00     0.251 C 
ATOM     34  H   UNL A   1      31.887  32.499  26.268  1.00  0.00     0.163 HD
ATOM     35  O   UNL A   1      33.043  33.870  27.905  1.00  0.00    -0.269 OA
BRANCH  33  36
ATOM     36  C   UNL A   1      34.687  32.192  28.028  1.00  0.00     0.039 A 
ATOM     37  C   UNL A   1      35.812  33.017  28.082  1.00  0.00     0.014 A 
ATOM     38  C   UNL A   1      34.768  30.857  28.434  1.00  0.00     0.014 A 
ATOM     39  C   UNL A   1      36.999  32.525  28.628  1.00  0.00     0.010 A 
ATOM     40  C   UNL A   1      35.930  30.389  29.040  1.00  0.00     0.010 A 
ATOM     41  C   UNL A   1      37.052  31.224  29.159  1.00  0.00    -0.014 A 
BRANCH  41  42
ATOM     42  C   UNL A   1      38.250  30.743  29.895  1.00  0.00     0.031 A 
ATOM     43  C   UNL A   1      39.168  29.727  29.278  1.00  0.00     0.074 A 
ATOM     44  C   UNL A   1      38.461  31.175  31.155  1.00  0.00     0.049 A 
ATOM     45  N   UNL A   1      40.211  29.134  29.799  1.00  0.00    -0.248 NA
ATOM     46  C   UNL A   1      38.860  29.307  27.904  1.00  0.00     0.031 C 
ATOM     47  C   UNL A   1      37.614  32.135  31.870  1.00  0.00     0.029 A 
ATOM     48  N   UNL A   1      39.440  30.859  32.063  1.00  0.00    -0.354 N 
ATOM     49  C   UNL A   1      40.684  28.267  28.820  1.00  0.00     0.074 A 
ATOM     50  C   UNL A   1      39.776  28.372  27.697  1.00  0.00     0.031 C 
ATOM     51  C   UNL A   1      38.125  32.347  33.093  1.00  0.00     0.029 A 
ATOM     52  C   UNL A   1      39.298  31.498  33.274  1.00  0.00     0.049 A 
ATOM     53  H   UNL A   1      40.176  30.235  31.867  1.00  0.00     0.167 HD
ATOM     54  C   UNL A   1      41.783  27.473  28.851  1.00  0.00     0.034 A 
ATOM     55  C   UNL A   1      40.014  31.394  34.411  1.00  0.00     0.034 A 
ATOM     56  C   UNL A   1      42.673  27.379  29.985  1.00  0.00     0.049 A 
ATOM     57  C   UNL A   1      41.194  30.457  34.441  1.00  0.00     0.074 A 
ATOM     58  C   UNL A   1      43.845  26.653  30.102  1.00  0.00     0.029 A 
ATOM     59  N   UNL A   1      42.481  28.018  31.205  1.00  0.00    -0.354 N 
ATOM     60  N   UNL A   1      41.663  29.690  33.484  1.00  0.00    -0.248 NA
ATOM     61  C   UNL A   1      41.941  30.373  35.702  1.00  0.00     0.031 C 
ATOM     62  C   UNL A   1      44.313  26.781  31.413  1.00  0.00     0.029 A 
ATOM     63  C   UNL A   1      43.485  27.659  32.093  1.00  0.00     0.049 A 
ATOM     64  H   UNL A   1      41.741  28.633  31.410  1.00  0.00     0.167 HD
ATOM     65  C   UNL A   1      42.775  29.048  34.025  1.00  0.00     0.074 A 
ATOM     66  C   UNL A   1      42.918  29.538  35.380  1.00  0.00     0.031 C 
ATOM     67  C   UNL A   1      43.602  28.136  33.452  1.00  0.00     0.034 A 
BRANCH  54  68
ATOM     68  C   UNL A   1      42.064  26.621  27.637  1.00  0.00     0.023 A 
ATOM     69  C   UNL A   1      41.683  25.268  27.578  1.00  0.00     0.031 A 
ATOM     70  C   UNL A   1      42.732  27.162  26.524  1.00  0.00     0.131 A 
ATOM     71  C   UNL A   1      42.032  24.488  26.467  1.00  0.00     0.055 A 
ATOM     72  C   UNL A   1      43.002  26.401  25.384  1.00  0.00     0.041 A 
ATOM     73  F   UNL A   1      43.141  28.440  26.528  1.00  0.00    -0.206 F 
ATOM     74  C   UNL A   1      42.665  25.052  25.357  1.00  0.00     0.022 A 
BRANCH  71  75
ATOM     75  S   UNL A   1      41.777  22.694  26.553  1.00  0.00     0.124 S 
ATOM     76  O   UNL A   1      40.328  22.610  26.714  1.00  0.00    -0.237 OA
ATOM     77  O   UNL A   1      42.305  22.239  25.272  1.00  0.00    -0.237 OA
ATOM     78  O   UNL A   1      42.552  22.293  27.726  1.00  0.00    -0.744 OA
ENDBRANCH  71  75
ENDBRANCH  54  68
BRANCH  55  79
ATOM     79  C   UNL A   1      39.624  32.170  35.624  1.00  0.00     0.023 A 
ATOM     80  C   UNL A   1      38.808  31.602  36.615  1.00  0.00     0.031 A 
ATOM     81  C   UNL A   1      40.023  33.509  35.788  1.00  0.00     0.131 A 
ATOM     82  C   UNL A   1      38.379  32.383  37.699  1.00  0.00     0.055 A 
ATOM     83  C   UNL A   1      39.642  34.263  36.900  1.00  0.00     0.041 A 
ATOM     84  F   UNL A   1      40.803  34.103  34.871  1.00  0.00    -0.206 F 
ATOM     85  C   UNL A   1      38.803  33.704  37.857  1.00  0.00     0.022 A 
BRANCH  82  86
ATOM     86  S   UNL A   1      37.172  31.674  38.854  1.00  0.00     0.124 S 
ATOM     87  O   UNL A   1      37.905  31.724  40.114  1.00  0.00    -0.237 OA
ATOM     88  O   UNL A   1      36.051  32.599  38.726  1.00  0.00    -0.237 OA
ATOM     89  O   UNL A   1      36.937  30.334  38.320  1.00  0.00    -0.744 OA
ENDBRANCH  82  86
ENDBRANCH  55  79
BRANCH  67  90
ATOM     90  C   UNL A   1      44.748  27.628  34.294  1.00  0.00     0.023 A 
ATOM     91  C   UNL A   1      44.633  26.458  35.065  1.00  0.00     0.031 A 
ATOM     92  C   UNL A   1      45.968  28.328  34.334  1.00  0.00     0.131 A 
ATOM     93  C   UNL A   1      45.697  26.054  35.885  1.00  0.00     0.055 A 
ATOM     94  C   UNL A   1      47.045  27.884  35.100  1.00  0.00     0.041 A 
ATOM     95  F   UNL A   1      46.132  29.455  33.624  1.00  0.00    -0.206 F 
ATOM     96  C   UNL A   1      46.910  26.747  35.892  1.00  0.00     0.022 A 
BRANCH  93  97
ATOM     97  S   UNL A   1      45.440  24.660  37.018  1.00  0.00     0.124 S 
ATOM     98  O   UNL A   1      44.261  25.089  37.763  1.00  0.00    -0.237 OA
ATOM     99  O   UNL A   1      45.243  23.543  36.100  1.00  0.00    -0.237 OA
ATOM    100  O   UNL A   1      46.680  24.615  37.792  1.00  0.00    -0.744 OA
ENDBRANCH  93  97
ENDBRANCH  67  90
ENDBRANCH  41  42
ENDBRANCH  33  36
ENDBRANCH  31  32
ENDBRANCH  30  31
ENDBRANCH   1  30
TORSDOF 20
ENDMDL
