MODEL 1
REMARK VINA RESULT:     -12.5      0.000      0.000
REMARK SMILES O=C(NCCCCCCNC(=O)c1ccc(-c2c3nc(c(-c4cc(S(=O)(=O)[O-])ccc4F)c4ccc([nH]4)c(-c4cc(S(=O)(=O)[O-])ccc4F)c4nc(c(-c5cc(S(=O)(=O)[O-])ccc5F)c5ccc2[nH]5)C=C4)C=C3)cc1)C1=Cc2cc(S(F)(F)(F)(F)F)ccc2O[C@@H]1C(F)(F)F
REMARK SMILES IDX 7 1 6 2 5 3 4 4 3 5 1 6 2 7 76 9 77 10 91 11 78 12 90 13
REMARK SMILES IDX 79 14 89 15 80 16 88 17 87 18 92 19 93 20 94 21 95 22 81 23
REMARK SMILES IDX 82 24 83 25 84 26 85 27 86 28 8 29 9 30 10 31 11 32 12 34
REMARK SMILES IDX 13 35 14 36 75 37 15 38 74 39 16 40 17 41 18 42 68 43 19 44
REMARK SMILES IDX 73 45 67 46 69 47 20 48 72 49 66 50 65 51 21 53 53 54 33 55
REMARK SMILES IDX 52 56 34 57 37 58 51 59 70 60 35 61 36 62 50 64 71 65 38 66
REMARK SMILES IDX 22 67 23 68 31 69 24 70 30 71 32 72 29 73 25 74 26 75 27 76
REMARK SMILES IDX 28 77 54 78 55 79 63 80 56 81 62 82 64 83 61 84 57 85 58 86
REMARK SMILES IDX 59 87 60 88 39 89 40 90 48 91 41 92 47 93 49 94 46 95 42 96
REMARK SMILES IDX 43 97 44 98 45 99
REMARK H PARENT 3 8 10 33 69 52 37 63
REMARK Flexibility Score: inf
ROOT
ATOM      1  C   UNL A   1      31.812  30.163  26.731  1.00  0.00     0.002 C 
ENDROOT
BRANCH   1   2
ATOM      2  C   UNL A   1      33.120  30.024  27.493  1.00  0.00     0.002 C 
BRANCH   2   3
ATOM      3  C   UNL A   1      33.716  28.651  27.230  1.00  0.00     0.021 C 
BRANCH   3   4
ATOM      4  C   UNL A   1      32.771  27.849  26.350  1.00  0.00     0.116 C 
BRANCH   4   5
ATOM      5  N   UNL A   1      33.551  27.017  25.423  1.00  0.00    -0.352 N 
ATOM      6  O   UNL A   1      33.707  24.990  24.192  1.00  0.00    -0.270 OA
ATOM      7  C   UNL A   1      33.032  25.710  24.993  1.00  0.00     0.251 C 
ATOM      8  H   UNL A   1      34.421  27.335  25.090  1.00  0.00     0.163 HD
BRANCH   7   9
ATOM      9  C   UNL A   1      31.689  25.220  25.508  1.00  0.00     0.067 C 
ATOM     10  C   UNL A   1      30.538  25.785  25.051  1.00  0.00     0.025 C 
ATOM     11  C   UNL A   1      31.631  24.098  26.532  1.00  0.00     0.314 C 
ATOM     12  C   UNL A   1      30.597  26.905  24.028  1.00  0.00     0.019 A 
ATOM     13  O   UNL A   1      32.251  25.780  22.746  1.00  0.00    -0.475 OA
ATOM     14  C   UNL A   1      29.847  28.028  24.343  1.00  0.00     0.036 A 
ATOM     15  C   UNL A   1      31.377  26.879  22.954  1.00  0.00     0.128 A 
ATOM     16  C   UNL A   1      29.766  28.977  23.297  1.00  0.00     0.107 A 
ATOM     17  C   UNL A   1      31.346  27.906  22.041  1.00  0.00     0.048 A 
ATOM     18  C   UNL A   1      30.582  29.019  22.260  1.00  0.00     0.028 A 
BRANCH  11  19
ATOM     19  C   UNL A   1      30.850  22.927  25.959  1.00  0.00     0.429 C 
ATOM     20  F   UNL A   1      29.684  22.820  26.591  1.00  0.00    -0.167 F 
ATOM     21  F   UNL A   1      30.635  23.130  24.662  1.00  0.00    -0.167 F 
ATOM     22  F   UNL A   1      31.547  21.806  26.123  1.00  0.00    -0.167 F 
ENDBRANCH  11  19
BRANCH  16  23
ATOM     23  S   UNL A   1      28.454  30.219  23.387  1.00  0.00     0.310 S 
ATOM     24  F   UNL A   1      28.860  30.816  21.974  1.00  0.00    -0.094 F 
ATOM     25  F   UNL A   1      29.474  31.230  24.032  1.00  0.00    -0.094 F 
ATOM     26  F   UNL A   1      27.321  31.283  23.442  1.00  0.00    -0.094 F 
ATOM     27  F   UNL A   1      27.485  29.241  22.613  1.00  0.00    -0.094 F 
ATOM     28  F   UNL A   1      29.623  29.169  23.221  1.00  0.00    -0.094 F 
ENDBRANCH  16  23
ENDBRANCH   7   9
ENDBRANCH   4   5
ENDBRANCH   3   4
ENDBRANCH   2   3
ENDBRANCH   1   2
BRANCH   1  29
ATOM     29  C   UNL A   1      31.479  31.636  26.560  1.00  0.00     0.021 C 
BRANCH  29  30
ATOM     30  C   UNL A   1      32.717  32.472  26.843  1.00  0.00     0.116 C 
BRANCH  30  31
ATOM     31  N   UNL A   1      32.312  33.799  27.329  1.00  0.00    -0.352 N 
ATOM     32  C   UNL A   1      33.075  34.454  28.401  1.00  0.00     0.251 C 
ATOM     33  H   UNL A   1      31.529  34.249  26.937  1.00  0.00     0.163 HD
ATOM     34  O   UNL A   1      32.724  35.601  28.821  1.00  0.00    -0.269 OA
BRANCH  32  35
ATOM     35  C   UNL A   1      34.283  33.759  29.007  1.00  0.00     0.039 A 
ATOM     36  C   UNL A   1      35.553  34.225  28.711  1.00  0.00     0.014 A 
ATOM     37  C   UNL A   1      34.101  32.716  29.808  1.00  0.00     0.014 A 
ATOM     38  C   UNL A   1      36.591  33.337  29.084  1.00  0.00     0.010 A 
ATOM     39  C   UNL A   1      35.171  31.975  30.246  1.00  0.00     0.010 A 
ATOM     40  C   UNL A   1      36.452  32.343  29.943  1.00  0.00    -0.014 A 
BRANCH  40  41
ATOM     41  C   UNL A   1      37.654  31.646  30.560  1.00  0.00     0.031 A 
ATOM     42  C   UNL A   1      38.297  30.662  29.807  1.00  0.00     0.074 A 
ATOM     43  C   UNL A   1      38.043  32.024  31.833  1.00  0.00     0.049 A 
ATOM     44  N   UNL A   1      39.380  29.958  30.143  1.00  0.00    -0.248 NA
ATOM     45  C   UNL A   1      37.864  30.234  28.469  1.00  0.00     0.031 C 
ATOM     46  C   UNL A   1      37.405  33.022  32.596  1.00  0.00     0.029 A 
ATOM     47  N   UNL A   1      39.087  31.525  32.582  1.00  0.00    -0.354 N 
ATOM     48  C   UNL A   1      39.712  29.123  29.155  1.00  0.00     0.074 A 
ATOM     49  C   UNL A   1      38.738  29.285  28.067  1.00  0.00     0.031 C 
ATOM     50  C   UNL A   1      38.046  33.115  33.790  1.00  0.00     0.029 A 
ATOM     51  C   UNL A   1      39.097  32.177  33.794  1.00  0.00     0.049 A 
ATOM     52  H   UNL A   1      39.717  30.824  32.298  1.00  0.00     0.167 HD
ATOM     53  C   UNL A   1      40.789  28.237  29.120  1.00  0.00     0.034 A 
ATOM     54  C   UNL A   1      39.963  31.980  34.857  1.00  0.00     0.034 A 
ATOM     55  C   UNL A   1      41.682  28.070  30.167  1.00  0.00     0.049 A 
ATOM     56  C   UNL A   1      41.006  31.051  34.845  1.00  0.00     0.074 A 
ATOM     57  C   UNL A   1      42.778  27.186  30.143  1.00  0.00     0.029 A 
ATOM     58  N   UNL A   1      41.677  28.704  31.389  1.00  0.00    -0.354 N 
ATOM     59  N   UNL A   1      41.362  30.245  33.842  1.00  0.00    -0.248 NA
ATOM     60  C   UNL A   1      41.911  30.809  35.976  1.00  0.00     0.031 C 
ATOM     61  C   UNL A   1      43.420  27.278  31.339  1.00  0.00     0.029 A 
ATOM     62  C   UNL A   1      42.734  28.222  32.128  1.00  0.00     0.049 A 
ATOM     63  H   UNL A   1      41.030  29.385  31.683  1.00  0.00     0.167 HD
ATOM     64  C   UNL A   1      42.420  29.512  34.195  1.00  0.00     0.074 A 
ATOM     65  C   UNL A   1      42.784  29.859  35.575  1.00  0.00     0.031 C 
ATOM     66  C   UNL A   1      43.098  28.570  33.420  1.00  0.00     0.034 A 
BRANCH  53  67
ATOM     67  C   UNL A   1      40.994  27.408  27.863  1.00  0.00     0.023 A 
ATOM     68  C   UNL A   1      40.589  26.085  27.794  1.00  0.00     0.031 A 
ATOM     69  C   UNL A   1      41.615  27.991  26.845  1.00  0.00     0.131 A 
ATOM     70  C   UNL A   1      41.146  25.370  26.708  1.00  0.00     0.055 A 
ATOM     71  C   UNL A   1      42.011  27.257  25.753  1.00  0.00     0.041 A 
ATOM     72  F   UNL A   1      41.855  29.298  26.882  1.00  0.00    -0.206 F 
ATOM     73  C   UNL A   1      41.697  25.930  25.646  1.00  0.00     0.022 A 
BRANCH  70  74
ATOM     74  S   UNL A   1      41.101  23.562  26.777  1.00  0.00     0.124 S 
ATOM     75  O   UNL A   1      39.676  23.077  26.501  1.00  0.00    -0.237 OA
ATOM     76  O   UNL A   1      42.048  22.988  25.721  1.00  0.00    -0.237 OA
ATOM     77  O   UNL A   1      41.592  23.037  28.328  1.00  0.00    -0.744 OA
ENDBRANCH  70  74
ENDBRANCH  53  67
BRANCH  54  78
ATOM     78  C   UNL A   1      39.769  32.821  36.108  1.00  0.00     0.023 A 
ATOM     79  C   UNL A   1      39.061  32.243  37.150  1.00  0.00     0.031 A 
ATOM     80  C   UNL A   1      40.276  34.043  36.214  1.00  0.00     0.131 A 
ATOM     81  C   UNL A   1      38.693  33.154  38.167  1.00  0.00     0.055 A 
ATOM     82  C   UNL A   1      39.983  34.829  37.302  1.00  0.00     0.041 A 
ATOM     83  F   UNL A   1      41.075  34.511  35.260  1.00  0.00    -0.206 F 
ATOM     84  C   UNL A   1      39.240  34.343  38.342  1.00  0.00     0.022 A 
BRANCH  81  85
ATOM     85  S   UNL A   1      37.379  32.656  39.309  1.00  0.00     0.124 S 
ATOM     86  O   UNL A   1      36.020  32.807  38.620  1.00  0.00    -0.237 OA
ATOM     87  O   UNL A   1      37.585  31.195  39.716  1.00  0.00    -0.237 OA
ATOM     88  O   UNL A   1      37.427  33.648  40.701  1.00  0.00    -0.744 OA
ENDBRANCH  81  85
ENDBRANCH  54  78
BRANCH  66  89
ATOM     89  C   UNL A   1      44.310  27.883  34.029  1.00  0.00     0.023 A 
ATOM     90  C   UNL A   1      44.160  26.644  34.629  1.00  0.00     0.031 A 
ATOM     91  C   UNL A   1      45.494  28.484  33.978  1.00  0.00     0.131 A 
ATOM     92  C   UNL A   1      45.271  26.244  35.406  1.00  0.00     0.055 A 
ATOM     93  C   UNL A   1      46.572  27.964  34.652  1.00  0.00     0.041 A 
ATOM     94  F   UNL A   1      45.636  29.599  33.267  1.00  0.00    -0.206 F 
ATOM     95  C   UNL A   1      46.479  26.772  35.315  1.00  0.00     0.022 A 
BRANCH  92  96
ATOM     96  S   UNL A   1      45.022  24.916  36.611  1.00  0.00     0.124 S 
ATOM     97  O   UNL A   1      44.514  23.664  35.894  1.00  0.00    -0.237 OA
ATOM     98  O   UNL A   1      46.349  24.603  37.306  1.00  0.00    -0.237 OA
ATOM     99  O   UNL A   1      43.872  25.412  37.776  1.00  0.00    -0.744 OA
ENDBRANCH  92  96
ENDBRANCH  66  89
ENDBRANCH  40  41
ENDBRANCH  32  35
ENDBRANCH  30  31
ENDBRANCH  29  30
ENDBRANCH   1  29
TORSDOF 18
ENDMDL
MODEL 2
REMARK VINA RESULT:     -12.5      2.629      8.311
REMARK SMILES O=C(NCCCCCCNC(=O)c1ccc(-c2c3nc(c(-c4cc(S(=O)(=O)[O-])ccc4F)c4ccc([nH]4)c(-c4cc(S(=O)(=O)[O-])ccc4F)c4nc(c(-c5cc(S(=O)(=O)[O-])ccc5F)c5ccc2[nH]5)C=C4)C=C3)cc1)C1=Cc2cc(S(F)(F)(F)(F)F)ccc2O[C@@H]1C(F)(F)F
REMARK SMILES IDX 7 1 6 2 5 3 4 4 3 5 1 6 2 7 76 9 77 10 91 11 78 12 90 13
REMARK SMILES IDX 79 14 89 15 80 16 88 17 87 18 92 19 93 20 94 21 95 22 81 23
REMARK SMILES IDX 82 24 83 25 84 26 85 27 86 28 8 29 9 30 10 31 11 32 12 34
REMARK SMILES IDX 13 35 14 36 75 37 15 38 74 39 16 40 17 41 18 42 68 43 19 44
REMARK SMILES IDX 73 45 67 46 69 47 20 48 72 49 66 50 65 51 21 53 53 54 33 55
REMARK SMILES IDX 52 56 34 57 37 58 51 59 70 60 35 61 36 62 50 64 71 65 38 66
REMARK SMILES IDX 22 67 23 68 31 69 24 70 30 71 32 72 29 73 25 74 26 75 27 76
REMARK SMILES IDX 28 77 54 78 55 79 63 80 56 81 62 82 64 83 61 84 57 85 58 86
REMARK SMILES IDX 59 87 60 88 39 89 40 90 48 91 41 92 47 93 49 94 46 95 42 96
REMARK SMILES IDX 43 97 44 98 45 99
REMARK H PARENT 3 8 10 33 69 52 37 63
REMARK Flexibility Score: inf
ROOT
ATOM      1  C   UNL A   1      31.861  30.754  26.307  1.00  0.00     0.002 C 
ENDROOT
BRANCH   1   2
ATOM      2  C   UNL A   1      32.879  30.151  27.262  1.00  0.00     0.002 C 
BRANCH   2   3
ATOM      3  C   UNL A   1      34.039  29.574  26.468  1.00  0.00     0.021 C 
BRANCH   3   4
ATOM      4  C   UNL A   1      34.017  28.057  26.569  1.00  0.00     0.116 C 
BRANCH   4   5
ATOM      5  N   UNL A   1      32.755  27.625  27.187  1.00  0.00    -0.352 N 
ATOM      6  O   UNL A   1      30.586  26.705  26.885  1.00  0.00    -0.270 OA
ATOM      7  C   UNL A   1      31.677  27.079  26.351  1.00  0.00     0.251 C 
ATOM      8  H   UNL A   1      32.633  27.701  28.161  1.00  0.00     0.163 HD
BRANCH   7   9
ATOM      9  C   UNL A   1      31.867  26.961  24.848  1.00  0.00     0.067 C 
ATOM     10  C   UNL A   1      32.592  25.932  24.332  1.00  0.00     0.025 C 
ATOM     11  C   UNL A   1      31.246  27.993  23.921  1.00  0.00     0.314 C 
ATOM     12  C   UNL A   1      33.213  24.901  25.259  1.00  0.00     0.019 A 
ATOM     13  O   UNL A   1      31.237  24.750  26.571  1.00  0.00    -0.475 OA
ATOM     14  C   UNL A   1      34.557  24.645  25.038  1.00  0.00     0.036 A 
ATOM     15  C   UNL A   1      32.565  24.345  26.277  1.00  0.00     0.128 A 
ATOM     16  C   UNL A   1      35.064  23.555  25.782  1.00  0.00     0.107 A 
ATOM     17  C   UNL A   1      33.171  23.382  27.049  1.00  0.00     0.048 A 
ATOM     18  C   UNL A   1      34.478  23.038  26.846  1.00  0.00     0.028 A 
BRANCH  11  19
ATOM     19  C   UNL A   1      30.281  27.305  22.969  1.00  0.00     0.429 C 
ATOM     20  F   UNL A   1      30.937  26.916  21.878  1.00  0.00    -0.167 F 
ATOM     21  F   UNL A   1      29.748  26.244  23.568  1.00  0.00    -0.167 F 
ATOM     22  F   UNL A   1      29.316  28.153  22.627  1.00  0.00    -0.167 F 
ENDBRANCH  11  19
BRANCH  16  23
ATOM     23  S   UNL A   1      36.625  22.817  25.238  1.00  0.00     0.310 S 
ATOM     24  F   UNL A   1      36.575  23.613  23.867  1.00  0.00    -0.094 F 
ATOM     25  F   UNL A   1      35.817  21.670  24.523  1.00  0.00    -0.094 F 
ATOM     26  F   UNL A   1      37.972  22.204  24.763  1.00  0.00    -0.094 F 
ATOM     27  F   UNL A   1      37.408  24.049  25.841  1.00  0.00    -0.094 F 
ATOM     28  F   UNL A   1      35.261  23.512  25.631  1.00  0.00    -0.094 F 
ENDBRANCH  16  23
ENDBRANCH   7   9
ENDBRANCH   4   5
ENDBRANCH   3   4
ENDBRANCH   2   3
ENDBRANCH   1   2
BRANCH   1  29
ATOM     29  C   UNL A   1      31.426  32.116  26.824  1.00  0.00     0.021 C 
BRANCH  29  30
ATOM     30  C   UNL A   1      32.637  32.867  27.354  1.00  0.00     0.116 C 
BRANCH  30  31
ATOM     31  N   UNL A   1      32.256  34.252  27.667  1.00  0.00    -0.352 N 
ATOM     32  C   UNL A   1      33.017  35.016  28.666  1.00  0.00     0.251 C 
ATOM     33  H   UNL A   1      31.492  34.669  27.207  1.00  0.00     0.163 HD
ATOM     34  O   UNL A   1      32.687  36.213  28.936  1.00  0.00    -0.269 OA
BRANCH  32  35
ATOM     35  C   UNL A   1      34.196  34.374  29.376  1.00  0.00     0.039 A 
ATOM     36  C   UNL A   1      35.480  34.618  28.918  1.00  0.00     0.014 A 
ATOM     37  C   UNL A   1      33.977  33.588  30.424  1.00  0.00     0.014 A 
ATOM     38  C   UNL A   1      36.458  33.750  29.460  1.00  0.00     0.010 A 
ATOM     39  C   UNL A   1      35.004  32.873  30.990  1.00  0.00     0.010 A 
ATOM     40  C   UNL A   1      36.290  33.021  30.549  1.00  0.00    -0.014 A 
BRANCH  40  41
ATOM     41  C   UNL A   1      37.464  32.379  31.270  1.00  0.00     0.031 A 
ATOM     42  C   UNL A   1      37.835  32.903  32.510  1.00  0.00     0.074 A 
ATOM     43  C   UNL A   1      38.100  31.313  30.659  1.00  0.00     0.049 A 
ATOM     44  N   UNL A   1      38.806  32.472  33.318  1.00  0.00    -0.248 NA
ATOM     45  C   UNL A   1      37.184  34.058  33.145  1.00  0.00     0.031 C 
ATOM     46  C   UNL A   1      37.726  30.773  29.412  1.00  0.00     0.029 A 
ATOM     47  N   UNL A   1      39.180  30.593  31.122  1.00  0.00    -0.354 N 
ATOM     48  C   UNL A   1      38.847  33.215  34.426  1.00  0.00     0.074 A 
ATOM     49  C   UNL A   1      37.808  34.249  34.328  1.00  0.00     0.031 C 
ATOM     50  C   UNL A   1      38.574  29.752  29.123  1.00  0.00     0.029 A 
ATOM     51  C   UNL A   1      39.492  29.635  30.184  1.00  0.00     0.049 A 
ATOM     52  H   UNL A   1      39.646  30.739  31.977  1.00  0.00     0.167 HD
ATOM     53  C   UNL A   1      39.709  33.068  35.514  1.00  0.00     0.034 A 
ATOM     54  C   UNL A   1      40.517  28.704  30.232  1.00  0.00     0.034 A 
ATOM     55  C   UNL A   1      40.707  32.108  35.581  1.00  0.00     0.049 A 
ATOM     56  C   UNL A   1      41.417  28.595  31.294  1.00  0.00     0.074 A 
ATOM     57  C   UNL A   1      41.578  31.942  36.674  1.00  0.00     0.029 A 
ATOM     58  N   UNL A   1      41.035  31.166  34.632  1.00  0.00    -0.354 N 
ATOM     59  N   UNL A   1      41.434  29.312  32.420  1.00  0.00    -0.248 NA
ATOM     60  C   UNL A   1      42.527  27.634  31.342  1.00  0.00     0.031 C 
ATOM     61  C   UNL A   1      42.428  30.920  36.385  1.00  0.00     0.029 A 
ATOM     62  C   UNL A   1      42.100  30.432  35.105  1.00  0.00     0.049 A 
ATOM     63  H   UNL A   1      40.587  31.039  33.765  1.00  0.00     0.167 HD
ATOM     64  C   UNL A   1      42.430  28.906  33.209  1.00  0.00     0.074 A 
ATOM     65  C   UNL A   1      43.153  27.826  32.523  1.00  0.00     0.031 C 
ATOM     66  C   UNL A   1      42.764  29.392  34.474  1.00  0.00     0.034 A 
BRANCH  53  67
ATOM     67  C   UNL A   1      39.543  34.014  36.692  1.00  0.00     0.023 A 
ATOM     68  C   UNL A   1      40.380  35.104  36.869  1.00  0.00     0.031 A 
ATOM     69  C   UNL A   1      38.588  33.731  37.569  1.00  0.00     0.131 A 
ATOM     70  C   UNL A   1      40.317  35.672  38.163  1.00  0.00     0.055 A 
ATOM     71  C   UNL A   1      38.501  34.418  38.756  1.00  0.00     0.041 A 
ATOM     72  F   UNL A   1      37.707  32.772  37.298  1.00  0.00    -0.206 F 
ATOM     73  C   UNL A   1      39.335  35.469  39.023  1.00  0.00     0.022 A 
BRANCH  70  74
ATOM     74  S   UNL A   1      41.674  36.754  38.675  1.00  0.00     0.124 S 
ATOM     75  O   UNL A   1      41.102  38.019  39.320  1.00  0.00    -0.237 OA
ATOM     76  O   UNL A   1      42.556  36.020  39.688  1.00  0.00    -0.237 OA
ATOM     77  O   UNL A   1      42.610  37.182  37.311  1.00  0.00    -0.744 OA
ENDBRANCH  70  74
ENDBRANCH  53  67
BRANCH  54  78
ATOM     78  C   UNL A   1      40.672  27.747  29.061  1.00  0.00     0.023 A 
ATOM     79  C   UNL A   1      41.698  28.008  28.167  1.00  0.00     0.031 A 
ATOM     80  C   UNL A   1      39.882  26.690  28.913  1.00  0.00     0.131 A 
ATOM     81  C   UNL A   1      41.628  27.248  26.976  1.00  0.00     0.055 A 
ATOM     82  C   UNL A   1      39.961  25.911  27.784  1.00  0.00     0.041 A 
ATOM     83  F   UNL A   1      39.007  26.382  29.865  1.00  0.00    -0.206 F 
ATOM     84  C   UNL A   1      40.912  26.148  26.831  1.00  0.00     0.022 A 
BRANCH  81  85
ATOM     85  S   UNL A   1      42.587  27.823  25.553  1.00  0.00     0.124 S 
ATOM     86  O   UNL A   1      42.711  26.691  24.530  1.00  0.00    -0.237 OA
ATOM     87  O   UNL A   1      41.878  29.017  24.909  1.00  0.00    -0.237 OA
ATOM     88  O   UNL A   1      44.147  28.297  26.070  1.00  0.00    -0.744 OA
ENDBRANCH  81  85
ENDBRANCH  54  78
BRANCH  66  89
ATOM     89  C   UNL A   1      43.928  28.741  35.204  1.00  0.00     0.023 A 
ATOM     90  C   UNL A   1      43.695  27.638  36.008  1.00  0.00     0.031 A 
ATOM     91  C   UNL A   1      45.150  29.242  35.060  1.00  0.00     0.131 A 
ATOM     92  C   UNL A   1      44.778  27.305  36.854  1.00  0.00     0.055 A 
ATOM     93  C   UNL A   1      46.192  28.775  35.824  1.00  0.00     0.041 A 
ATOM     94  F   UNL A   1      45.366  30.204  34.168  1.00  0.00    -0.206 F 
ATOM     95  C   UNL A   1      46.019  27.725  36.684  1.00  0.00     0.022 A 
BRANCH  92  96
ATOM     96  S   UNL A   1      44.442  26.227  38.269  1.00  0.00     0.124 S 
ATOM     97  O   UNL A   1      42.937  26.206  38.549  1.00  0.00    -0.237 OA
ATOM     98  O   UNL A   1      44.922  24.808  37.955  1.00  0.00    -0.237 OA
ATOM     99  O   UNL A   1      45.269  26.817  39.645  1.00  0.00    -0.744 OA
ENDBRANCH  92  96
ENDBRANCH  66  89
ENDBRANCH  40  41
ENDBRANCH  32  35
ENDBRANCH  30  31
ENDBRANCH  29  30
ENDBRANCH   1  29
TORSDOF 18
ENDMDL
MODEL 3
REMARK VINA RESULT:     -12.4      1.711      3.645
REMARK SMILES O=C(NCCCCCCNC(=O)c1ccc(-c2c3nc(c(-c4cc(S(=O)(=O)[O-])ccc4F)c4ccc([nH]4)c(-c4cc(S(=O)(=O)[O-])ccc4F)c4nc(c(-c5cc(S(=O)(=O)[O-])ccc5F)c5ccc2[nH]5)C=C4)C=C3)cc1)C1=Cc2cc(S(F)(F)(F)(F)F)ccc2O[C@@H]1C(F)(F)F
REMARK SMILES IDX 7 1 6 2 5 3 4 4 3 5 1 6 2 7 76 9 77 10 91 11 78 12 90 13
REMARK SMILES IDX 79 14 89 15 80 16 88 17 87 18 92 19 93 20 94 21 95 22 81 23
REMARK SMILES IDX 82 24 83 25 84 26 85 27 86 28 8 29 9 30 10 31 11 32 12 34
REMARK SMILES IDX 13 35 14 36 75 37 15 38 74 39 16 40 17 41 18 42 68 43 19 44
REMARK SMILES IDX 73 45 67 46 69 47 20 48 72 49 66 50 65 51 21 53 53 54 33 55
REMARK SMILES IDX 52 56 34 57 37 58 51 59 70 60 35 61 36 62 50 64 71 65 38 66
REMARK SMILES IDX 22 67 23 68 31 69 24 70 30 71 32 72 29 73 25 74 26 75 27 76
REMARK SMILES IDX 28 77 54 78 55 79 63 80 56 81 62 82 64 83 61 84 57 85 58 86
REMARK SMILES IDX 59 87 60 88 39 89 40 90 48 91 41 92 47 93 49 94 46 95 42 96
REMARK SMILES IDX 43 97 44 98 45 99
REMARK H PARENT 3 8 10 33 69 52 37 63
REMARK Flexibility Score: inf
ROOT
ATOM      1  C   UNL A   1      31.827  30.778  26.285  1.00  0.00     0.002 C 
ENDROOT
BRANCH   1   2
ATOM      2  C   UNL A   1      32.746  30.037  27.242  1.00  0.00     0.002 C 
BRANCH   2   3
ATOM      3  C   UNL A   1      33.937  29.486  26.476  1.00  0.00     0.021 C 
BRANCH   3   4
ATOM      4  C   UNL A   1      33.875  27.966  26.471  1.00  0.00     0.116 C 
BRANCH   4   5
ATOM      5  N   UNL A   1      32.652  27.522  27.154  1.00  0.00    -0.352 N 
ATOM      6  O   UNL A   1      30.452  26.645  26.961  1.00  0.00    -0.270 OA
ATOM      7  C   UNL A   1      31.510  27.029  26.370  1.00  0.00     0.251 C 
ATOM      8  H   UNL A   1      32.598  27.555  28.136  1.00  0.00     0.163 HD
BRANCH   7   9
ATOM      9  C   UNL A   1      31.595  26.978  24.854  1.00  0.00     0.067 C 
ATOM     10  C   UNL A   1      32.272  25.968  24.244  1.00  0.00     0.025 C 
ATOM     11  C   UNL A   1      30.923  28.056  24.019  1.00  0.00     0.314 C 
ATOM     12  C   UNL A   1      32.944  24.892  25.078  1.00  0.00     0.019 A 
ATOM     13  O   UNL A   1      31.062  24.696  26.516  1.00  0.00    -0.475 OA
ATOM     14  C   UNL A   1      34.267  24.636  24.753  1.00  0.00     0.036 A 
ATOM     15  C   UNL A   1      32.362  24.295  26.113  1.00  0.00     0.128 A 
ATOM     16  C   UNL A   1      34.813  23.509  25.411  1.00  0.00     0.107 A 
ATOM     17  C   UNL A   1      33.009  23.293  26.796  1.00  0.00     0.048 A 
ATOM     18  C   UNL A   1      34.296  22.949  26.489  1.00  0.00     0.028 A 
BRANCH  11  19
ATOM     19  C   UNL A   1      29.888  27.419  23.106  1.00  0.00     0.429 C 
ATOM     20  F   UNL A   1      29.344  26.370  23.718  1.00  0.00    -0.167 F 
ATOM     21  F   UNL A   1      28.940  28.307  22.822  1.00  0.00    -0.167 F 
ATOM     22  F   UNL A   1      30.475  27.021  21.981  1.00  0.00    -0.167 F 
ENDBRANCH  11  19
BRANCH  16  23
ATOM     23  S   UNL A   1      36.324  22.786  24.728  1.00  0.00     0.310 S 
ATOM     24  F   UNL A   1      36.117  23.542  23.349  1.00  0.00    -0.094 F 
ATOM     25  F   UNL A   1      35.472  21.605  24.130  1.00  0.00    -0.094 F 
ATOM     26  F   UNL A   1      37.629  22.184  24.132  1.00  0.00    -0.094 F 
ATOM     27  F   UNL A   1      37.140  24.048  25.215  1.00  0.00    -0.094 F 
ATOM     28  F   UNL A   1      34.994  23.466  25.242  1.00  0.00    -0.094 F 
ENDBRANCH  16  23
ENDBRANCH   7   9
ENDBRANCH   4   5
ENDBRANCH   3   4
ENDBRANCH   2   3
ENDBRANCH   1   2
BRANCH   1  29
ATOM     29  C   UNL A   1      31.525  32.161  26.840  1.00  0.00     0.021 C 
BRANCH  29  30
ATOM     30  C   UNL A   1      32.822  32.833  27.260  1.00  0.00     0.116 C 
BRANCH  30  31
ATOM     31  N   UNL A   1      32.539  34.201  27.717  1.00  0.00    -0.352 N 
ATOM     32  C   UNL A   1      33.407  34.835  28.720  1.00  0.00     0.251 C 
ATOM     33  H   UNL A   1      31.769  34.693  27.352  1.00  0.00     0.163 HD
ATOM     34  O   UNL A   1      33.163  36.017  29.116  1.00  0.00    -0.269 OA
BRANCH  32  35
ATOM     35  C   UNL A   1      34.597  34.075  29.284  1.00  0.00     0.039 A 
ATOM     36  C   UNL A   1      35.876  34.416  28.876  1.00  0.00     0.014 A 
ATOM     37  C   UNL A   1      34.390  33.097  30.157  1.00  0.00     0.014 A 
ATOM     38  C   UNL A   1      36.864  33.467  29.231  1.00  0.00     0.010 A 
ATOM     39  C   UNL A   1      35.427  32.293  30.565  1.00  0.00     0.010 A 
ATOM     40  C   UNL A   1      36.708  32.536  30.156  1.00  0.00    -0.014 A 
BRANCH  40  41
ATOM     41  C   UNL A   1      37.892  31.775  30.731  1.00  0.00     0.031 A 
ATOM     42  C   UNL A   1      38.450  30.754  29.961  1.00  0.00     0.074 A 
ATOM     43  C   UNL A   1      38.351  32.137  31.986  1.00  0.00     0.049 A 
ATOM     44  N   UNL A   1      39.504  29.991  30.260  1.00  0.00    -0.248 NA
ATOM     45  C   UNL A   1      37.943  30.344  28.643  1.00  0.00     0.031 C 
ATOM     46  C   UNL A   1      37.799  33.173  32.766  1.00  0.00     0.029 A 
ATOM     47  N   UNL A   1      39.393  31.584  32.697  1.00  0.00    -0.354 N 
ATOM     48  C   UNL A   1      39.750  29.135  29.266  1.00  0.00     0.074 A 
ATOM     49  C   UNL A   1      38.746  29.346  28.214  1.00  0.00     0.031 C 
ATOM     50  C   UNL A   1      38.489  33.235  33.933  1.00  0.00     0.029 A 
ATOM     51  C   UNL A   1      39.486  32.240  33.904  1.00  0.00     0.049 A 
ATOM     52  H   UNL A   1      39.971  30.847  32.394  1.00  0.00     0.167 HD
ATOM     53  C   UNL A   1      40.774  28.189  29.196  1.00  0.00     0.034 A 
ATOM     54  C   UNL A   1      40.380  31.999  34.934  1.00  0.00     0.034 A 
ATOM     55  C   UNL A   1      41.696  27.978  30.209  1.00  0.00     0.049 A 
ATOM     56  C   UNL A   1      41.368  31.013  34.889  1.00  0.00     0.074 A 
ATOM     57  C   UNL A   1      42.739  27.034  30.150  1.00  0.00     0.029 A 
ATOM     58  N   UNL A   1      41.773  28.617  31.426  1.00  0.00    -0.354 N 
ATOM     59  N   UNL A   1      41.640  30.184  33.879  1.00  0.00    -0.248 NA
ATOM     60  C   UNL A   1      42.301  30.727  35.986  1.00  0.00     0.031 C 
ATOM     61  C   UNL A   1      43.431  27.096  31.319  1.00  0.00     0.029 A 
ATOM     62  C   UNL A   1      42.830  28.080  32.128  1.00  0.00     0.049 A 
ATOM     63  H   UNL A   1      41.177  29.334  31.740  1.00  0.00     0.167 HD
ATOM     64  C   UNL A   1      42.668  29.395  34.196  1.00  0.00     0.074 A 
ATOM     65  C   UNL A   1      43.103  29.728  35.559  1.00  0.00     0.031 C 
ATOM     66  C   UNL A   1      43.262  28.413  33.402  1.00  0.00     0.034 A 
BRANCH  53  67
ATOM     67  C   UNL A   1      40.884  27.344  27.938  1.00  0.00     0.023 A 
ATOM     68  C   UNL A   1      40.511  26.010  27.926  1.00  0.00     0.031 A 
ATOM     69  C   UNL A   1      41.391  27.926  26.857  1.00  0.00     0.131 A 
ATOM     70  C   UNL A   1      40.985  25.291  26.803  1.00  0.00     0.055 A 
ATOM     71  C   UNL A   1      41.704  27.185  25.744  1.00  0.00     0.041 A 
ATOM     72  F   UNL A   1      41.597  29.240  26.852  1.00  0.00    -0.206 F 
ATOM     73  C   UNL A   1      41.418  25.848  25.686  1.00  0.00     0.022 A 
BRANCH  70  74
ATOM     74  S   UNL A   1      40.997  23.485  26.903  1.00  0.00     0.124 S 
ATOM     75  O   UNL A   1      41.885  22.919  25.792  1.00  0.00    -0.237 OA
ATOM     76  O   UNL A   1      41.547  23.053  28.264  1.00  0.00    -0.237 OA
ATOM     77  O   UNL A   1      39.405  22.892  26.717  1.00  0.00    -0.744 OA
ENDBRANCH  70  74
ENDBRANCH  53  67
BRANCH  54  78
ATOM     78  C   UNL A   1      40.281  32.856  36.186  1.00  0.00     0.023 A 
ATOM     79  C   UNL A   1      39.642  32.297  37.282  1.00  0.00     0.031 A 
ATOM     80  C   UNL A   1      40.805  34.074  36.243  1.00  0.00     0.131 A 
ATOM     81  C   UNL A   1      39.354  33.222  38.312  1.00  0.00     0.055 A 
ATOM     82  C   UNL A   1      40.596  34.875  37.340  1.00  0.00     0.041 A 
ATOM     83  F   UNL A   1      41.540  34.524  35.230  1.00  0.00    -0.206 F 
ATOM     84  C   UNL A   1      39.923  34.407  38.434  1.00  0.00     0.022 A 
BRANCH  81  85
ATOM     85  S   UNL A   1      38.119  32.749  39.547  1.00  0.00     0.124 S 
ATOM     86  O   UNL A   1      38.773  31.858  40.607  1.00  0.00    -0.237 OA
ATOM     87  O   UNL A   1      37.557  34.006  40.214  1.00  0.00    -0.237 OA
ATOM     88  O   UNL A   1      36.850  31.891  38.785  1.00  0.00    -0.744 OA
ENDBRANCH  81  85
ENDBRANCH  54  78
BRANCH  66  89
ATOM     89  C   UNL A   1      44.456  27.662  33.969  1.00  0.00     0.023 A 
ATOM     90  C   UNL A   1      44.264  26.423  34.556  1.00  0.00     0.031 A 
ATOM     91  C   UNL A   1      45.665  28.208  33.894  1.00  0.00     0.131 A 
ATOM     92  C   UNL A   1      45.376  25.961  35.298  1.00  0.00     0.055 A 
ATOM     93  C   UNL A   1      46.735  27.629  34.532  1.00  0.00     0.041 A 
ATOM     94  F   UNL A   1      45.840  29.325  33.194  1.00  0.00    -0.206 F 
ATOM     95  C   UNL A   1      46.604  26.433  35.182  1.00  0.00     0.022 A 
BRANCH  92  96
ATOM     96  S   UNL A   1      45.096  24.628  36.492  1.00  0.00     0.124 S 
ATOM     97  O   UNL A   1      44.485  25.208  37.770  1.00  0.00    -0.237 OA
ATOM     98  O   UNL A   1      44.139  23.597  35.891  1.00  0.00    -0.237 OA
ATOM     99  O   UNL A   1      46.586  23.875  36.865  1.00  0.00    -0.744 OA
ENDBRANCH  92  96
ENDBRANCH  66  89
ENDBRANCH  40  41
ENDBRANCH  32  35
ENDBRANCH  30  31
ENDBRANCH  29  30
ENDBRANCH   1  29
TORSDOF 18
ENDMDL
