MODEL 1
REMARK VINA RESULT:     -12.1      0.000      0.000
REMARK SMILES C[C@](Nc1ccc(C(N)=O)nn1)(C(=O)NCCCCCCNC(=O)c1ccc(-c2c3nc(c(-c4cc(S(=O)(=O)[O-])ccc4F)c4ccc([nH]4)c(-c4cc(S(=O)(=O)[O-])ccc4F)c4nc(c(-c5cc(S(=O)(=O)[O-])ccc5F)c5ccc2[nH]5)C=C4)C=C3)cc1)c1ccccc1
REMARK SMILES IDX 18 1 17 2 16 3 15 4 13 5 14 6 2 8 1 9 88 10 89 11 93 12
REMARK SMILES IDX 90 13 92 14 91 15 3 16 4 18 5 19 12 20 6 21 11 22 7 23 8 24
REMARK SMILES IDX 9 25 10 26 19 29 20 30 21 31 22 32 23 33 24 35 25 36 26 37
REMARK SMILES IDX 87 38 27 39 86 40 28 41 29 42 30 43 80 44 31 45 85 46 79 47
REMARK SMILES IDX 81 48 32 49 84 50 78 51 77 52 33 54 65 55 45 56 64 57 46 58
REMARK SMILES IDX 49 59 63 60 82 61 47 62 48 63 62 65 83 66 50 67 34 68 35 69
REMARK SMILES IDX 43 70 36 71 42 72 44 73 41 74 37 75 38 76 39 77 40 78 66 79
REMARK SMILES IDX 67 80 75 81 68 82 74 83 76 84 73 85 69 86 70 87 71 88 72 89
REMARK SMILES IDX 51 90 52 91 60 92 53 93 59 94 61 95 58 96 54 97 55 98 56 99
REMARK SMILES IDX 57 100
REMARK H PARENT 15 7 3 17 9 27 9 28 22 34 81 53 49 64
REMARK Flexibility Score: inf
ROOT
ATOM      1  C   UNL A   1      33.161  26.907  26.182  1.00  0.00     0.002 C 
ENDROOT
BRANCH   1   2
ATOM      2  C   UNL A   1      32.885  25.672  25.316  1.00  0.00     0.021 C 
BRANCH   2   3
ATOM      3  C   UNL A   1      33.540  24.388  25.818  1.00  0.00     0.116 C 
BRANCH   3   4
ATOM      4  N   UNL A   1      32.544  23.376  26.116  1.00  0.00    -0.354 N 
ATOM      5  C   UNL A   1      32.083  22.328  25.369  1.00  0.00     0.250 C 
ATOM      6  O   UNL A   1      31.005  21.858  25.756  1.00  0.00    -0.272 OA
ATOM      7  H   UNL A   1      32.130  23.460  27.005  1.00  0.00     0.163 HD
BRANCH   5   8
ATOM      8  C   UNL A   1      32.875  21.786  24.106  1.00  0.00     0.140 C 
ATOM      9  C   UNL A   1      32.552  22.650  22.859  1.00  0.00     0.051 C 
BRANCH   8  10
ATOM     10  C   UNL A   1      34.427  21.905  24.242  1.00  0.00    -0.013 A 
ATOM     11  C   UNL A   1      35.106  21.334  25.337  1.00  0.00     0.007 A 
ATOM     12  C   UNL A   1      35.212  22.650  23.338  1.00  0.00     0.007 A 
ATOM     13  C   UNL A   1      36.501  21.371  25.437  1.00  0.00     0.000 A 
ATOM     14  C   UNL A   1      36.607  22.657  23.415  1.00  0.00     0.000 A 
ATOM     15  C   UNL A   1      37.253  22.003  24.456  1.00  0.00     0.000 A 
ENDBRANCH   8  10
BRANCH   8  16
ATOM     16  N   UNL A   1      32.383  20.408  23.844  1.00  0.00    -0.351 N 
ATOM     17  H   UNL A   1      31.637  20.314  23.208  1.00  0.00     0.163 HD
BRANCH  16  18
ATOM     18  C   UNL A   1      32.870  19.253  24.405  1.00  0.00     0.149 A 
ATOM     19  C   UNL A   1      33.881  18.478  23.858  1.00  0.00     0.051 A 
ATOM     20  N   UNL A   1      32.139  18.790  25.446  1.00  0.00    -0.132 NA
ATOM     21  C   UNL A   1      33.995  17.145  24.255  1.00  0.00     0.040 A 
ATOM     22  N   UNL A   1      32.224  17.484  25.830  1.00  0.00    -0.143 NA
ATOM     23  C   UNL A   1      33.101  16.672  25.198  1.00  0.00     0.150 A 
BRANCH  23  24
ATOM     24  C   UNL A   1      32.938  15.213  25.454  1.00  0.00     0.269 C 
ATOM     25  N   UNL A   1      31.653  14.785  25.666  1.00  0.00    -0.364 N 
ATOM     26  O   UNL A   1      33.878  14.428  25.424  1.00  0.00    -0.268 OA
ATOM     27  H   UNL A   1      30.914  15.435  25.686  1.00  0.00     0.160 HD
ATOM     28  H   UNL A   1      31.469  13.827  25.798  1.00  0.00     0.160 HD
ENDBRANCH  23  24
ENDBRANCH  16  18
ENDBRANCH   8  16
ENDBRANCH   5   8
ENDBRANCH   3   4
ENDBRANCH   2   3
ENDBRANCH   1   2
BRANCH   1  29
ATOM     29  C   UNL A   1      31.926  27.534  26.838  1.00  0.00     0.002 C 
BRANCH  29  30
ATOM     30  C   UNL A   1      32.139  28.939  27.408  1.00  0.00     0.021 C 
BRANCH  30  31
ATOM     31  C   UNL A   1      33.465  29.586  27.025  1.00  0.00     0.116 C 
BRANCH  31  32
ATOM     32  N   UNL A   1      33.490  31.004  27.337  1.00  0.00    -0.352 N 
ATOM     33  C   UNL A   1      34.388  31.704  28.105  1.00  0.00     0.251 C 
ATOM     34  H   UNL A   1      32.762  31.538  26.944  1.00  0.00     0.163 HD
ATOM     35  O   UNL A   1      34.137  32.861  28.430  1.00  0.00    -0.269 OA
BRANCH  33  36
ATOM     36  C   UNL A   1      35.639  31.053  28.554  1.00  0.00     0.039 A 
ATOM     37  C   UNL A   1      36.861  31.662  28.263  1.00  0.00     0.014 A 
ATOM     38  C   UNL A   1      35.610  29.840  29.249  1.00  0.00     0.014 A 
ATOM     39  C   UNL A   1      38.050  31.078  28.709  1.00  0.00     0.010 A 
ATOM     40  C   UNL A   1      36.788  29.302  29.761  1.00  0.00     0.010 A 
ATOM     41  C   UNL A   1      38.024  29.907  29.485  1.00  0.00    -0.014 A 
BRANCH  41  42
ATOM     42  C   UNL A   1      39.280  29.277  29.974  1.00  0.00     0.031 A 
ATOM     43  C   UNL A   1      39.983  29.852  31.176  1.00  0.00     0.074 A 
ATOM     44  C   UNL A   1      39.803  28.219  29.323  1.00  0.00     0.049 A 
ATOM     45  N   UNL A   1      41.128  29.508  31.709  1.00  0.00    -0.248 NA
ATOM     46  C   UNL A   1      39.325  30.982  31.851  1.00  0.00     0.031 C 
ATOM     47  C   UNL A   1      39.229  27.590  28.132  1.00  0.00     0.029 A 
ATOM     48  N   UNL A   1      40.941  27.489  29.565  1.00  0.00    -0.354 N 
ATOM     49  C   UNL A   1      41.324  30.374  32.779  1.00  0.00     0.074 A 
ATOM     50  C   UNL A   1      40.220  31.310  32.771  1.00  0.00     0.031 C 
ATOM     51  C   UNL A   1      40.004  26.557  27.762  1.00  0.00     0.029 A 
ATOM     52  C   UNL A   1      41.157  26.479  28.653  1.00  0.00     0.049 A 
ATOM     53  H   UNL A   1      41.547  27.671  30.320  1.00  0.00     0.167 HD
ATOM     54  C   UNL A   1      42.315  30.371  33.705  1.00  0.00     0.034 A 
ATOM     55  C   UNL A   1      42.177  25.604  28.540  1.00  0.00     0.034 A 
ATOM     56  C   UNL A   1      43.407  29.430  33.708  1.00  0.00     0.049 A 
ATOM     57  C   UNL A   1      43.293  25.652  29.558  1.00  0.00     0.074 A 
ATOM     58  C   UNL A   1      44.459  29.332  34.603  1.00  0.00     0.029 A 
ATOM     59  N   UNL A   1      43.587  28.417  32.775  1.00  0.00    -0.354 N 
ATOM     60  N   UNL A   1      43.449  26.466  30.577  1.00  0.00    -0.248 NA
ATOM     61  C   UNL A   1      44.360  24.651  29.424  1.00  0.00     0.031 C 
ATOM     62  C   UNL A   1      45.305  28.305  34.176  1.00  0.00     0.029 A 
ATOM     63  C   UNL A   1      44.738  27.703  33.065  1.00  0.00     0.049 A 
ATOM     64  H   UNL A   1      42.984  28.234  32.018  1.00  0.00     0.167 HD
ATOM     65  C   UNL A   1      44.604  26.040  31.230  1.00  0.00     0.074 A 
ATOM     66  C   UNL A   1      45.094  24.891  30.498  1.00  0.00     0.031 C 
ATOM     67  C   UNL A   1      45.206  26.548  32.335  1.00  0.00     0.034 A 
BRANCH  54  68
ATOM     68  C   UNL A   1      42.262  31.424  34.786  1.00  0.00     0.023 A 
ATOM     69  C   UNL A   1      42.722  32.733  34.557  1.00  0.00     0.031 A 
ATOM     70  C   UNL A   1      41.746  31.121  36.059  1.00  0.00     0.131 A 
ATOM     71  C   UNL A   1      42.715  33.671  35.599  1.00  0.00     0.055 A 
ATOM     72  C   UNL A   1      41.666  32.083  37.067  1.00  0.00     0.041 A 
ATOM     73  F   UNL A   1      41.313  29.883  36.344  1.00  0.00    -0.206 F 
ATOM     74  C   UNL A   1      42.163  33.364  36.844  1.00  0.00     0.022 A 
BRANCH  71  75
ATOM     75  S   UNL A   1      43.550  35.259  35.340  1.00  0.00     0.124 S 
ATOM     76  O   UNL A   1      43.403  35.436  33.896  1.00  0.00    -0.237 OA
ATOM     77  O   UNL A   1      42.774  36.165  36.177  1.00  0.00    -0.237 OA
ATOM     78  O   UNL A   1      44.917  35.005  35.793  1.00  0.00    -0.744 OA
ENDBRANCH  71  75
ENDBRANCH  54  68
BRANCH  55  79
ATOM     79  C   UNL A   1      42.221  24.619  27.418  1.00  0.00     0.023 A 
ATOM     80  C   UNL A   1      41.602  23.363  27.530  1.00  0.00     0.031 A 
ATOM     81  C   UNL A   1      42.961  24.881  26.251  1.00  0.00     0.131 A 
ATOM     82  C   UNL A   1      41.803  22.390  26.538  1.00  0.00     0.055 A 
ATOM     83  C   UNL A   1      43.096  23.937  25.232  1.00  0.00     0.041 A 
ATOM     84  F   UNL A   1      43.573  26.064  26.085  1.00  0.00    -0.206 F 
ATOM     85  C   UNL A   1      42.534  22.674  25.381  1.00  0.00     0.022 A 
BRANCH  82  86
ATOM     86  S   UNL A   1      41.220  20.700  26.850  1.00  0.00     0.124 S 
ATOM     87  O   UNL A   1      42.408  19.916  26.529  1.00  0.00    -0.237 OA
ATOM     88  O   UNL A   1      40.854  20.763  28.261  1.00  0.00    -0.237 OA
ATOM     89  O   UNL A   1      40.103  20.551  25.920  1.00  0.00    -0.744 OA
ENDBRANCH  82  86
ENDBRANCH  55  79
BRANCH  67  90
ATOM     90  C   UNL A   1      46.413  25.812  32.866  1.00  0.00     0.023 A 
ATOM     91  C   UNL A   1      47.710  26.061  32.387  1.00  0.00     0.031 A 
ATOM     92  C   UNL A   1      46.254  24.834  33.865  1.00  0.00     0.131 A 
ATOM     93  C   UNL A   1      48.788  25.293  32.857  1.00  0.00     0.055 A 
ATOM     94  C   UNL A   1      47.339  24.124  34.379  1.00  0.00     0.041 A 
ATOM     95  F   UNL A   1      45.038  24.553  34.360  1.00  0.00    -0.206 F 
ATOM     96  C   UNL A   1      48.612  24.341  33.864  1.00  0.00     0.022 A 
BRANCH  93  97
ATOM     97  S   UNL A   1      50.404  25.481  32.057  1.00  0.00     0.124 S 
ATOM     98  O   UNL A   1      50.152  26.565  31.113  1.00  0.00    -0.237 OA
ATOM     99  O   UNL A   1      51.273  25.806  33.182  1.00  0.00    -0.237 OA
ATOM    100  O   UNL A   1      50.641  24.171  31.450  1.00  0.00    -0.744 OA
ENDBRANCH  93  97
ENDBRANCH  67  90
ENDBRANCH  41  42
ENDBRANCH  33  36
ENDBRANCH  31  32
ENDBRANCH  30  31
ENDBRANCH  29  30
ENDBRANCH   1  29
TORSDOF 20
ENDMDL
MODEL 2
REMARK VINA RESULT:     -12.0      3.903      8.726
REMARK SMILES C[C@](Nc1ccc(C(N)=O)nn1)(C(=O)NCCCCCCNC(=O)c1ccc(-c2c3nc(c(-c4cc(S(=O)(=O)[O-])ccc4F)c4ccc([nH]4)c(-c4cc(S(=O)(=O)[O-])ccc4F)c4nc(c(-c5cc(S(=O)(=O)[O-])ccc5F)c5ccc2[nH]5)C=C4)C=C3)cc1)c1ccccc1
REMARK SMILES IDX 18 1 17 2 16 3 15 4 13 5 14 6 2 8 1 9 88 10 89 11 93 12
REMARK SMILES IDX 90 13 92 14 91 15 3 16 4 18 5 19 12 20 6 21 11 22 7 23 8 24
REMARK SMILES IDX 9 25 10 26 19 29 20 30 21 31 22 32 23 33 24 35 25 36 26 37
REMARK SMILES IDX 87 38 27 39 86 40 28 41 29 42 30 43 80 44 31 45 85 46 79 47
REMARK SMILES IDX 81 48 32 49 84 50 78 51 77 52 33 54 65 55 45 56 64 57 46 58
REMARK SMILES IDX 49 59 63 60 82 61 47 62 48 63 62 65 83 66 50 67 34 68 35 69
REMARK SMILES IDX 43 70 36 71 42 72 44 73 41 74 37 75 38 76 39 77 40 78 66 79
REMARK SMILES IDX 67 80 75 81 68 82 74 83 76 84 73 85 69 86 70 87 71 88 72 89
REMARK SMILES IDX 51 90 52 91 60 92 53 93 59 94 61 95 58 96 54 97 55 98 56 99
REMARK SMILES IDX 57 100
REMARK H PARENT 15 7 3 17 9 27 9 28 22 34 81 53 49 64
REMARK Flexibility Score: inf
ROOT
ATOM      1  C   UNL A   1      32.898  29.826  26.163  1.00  0.00     0.002 C 
ENDROOT
BRANCH   1   2
ATOM      2  C   UNL A   1      32.759  28.371  26.629  1.00  0.00     0.021 C 
BRANCH   2   3
ATOM      3  C   UNL A   1      31.320  27.873  26.728  1.00  0.00     0.116 C 
BRANCH   3   4
ATOM      4  N   UNL A   1      31.278  26.434  26.908  1.00  0.00    -0.354 N 
ATOM      5  C   UNL A   1      31.042  25.427  26.014  1.00  0.00     0.250 C 
ATOM      6  O   UNL A   1      30.739  24.344  26.530  1.00  0.00    -0.272 OA
ATOM      7  H   UNL A   1      31.448  26.133  27.830  1.00  0.00     0.163 HD
BRANCH   5   8
ATOM      8  C   UNL A   1      31.142  25.658  24.448  1.00  0.00     0.140 C 
ATOM      9  C   UNL A   1      30.703  24.379  23.688  1.00  0.00     0.051 C 
BRANCH   8  10
ATOM     10  C   UNL A   1      30.166  26.754  23.913  1.00  0.00    -0.013 A 
ATOM     11  C   UNL A   1      28.769  26.574  23.971  1.00  0.00     0.007 A 
ATOM     12  C   UNL A   1      30.619  27.927  23.275  1.00  0.00     0.007 A 
ATOM     13  C   UNL A   1      27.881  27.574  23.561  1.00  0.00     0.000 A 
ATOM     14  C   UNL A   1      29.737  28.943  22.899  1.00  0.00     0.000 A 
ATOM     15  C   UNL A   1      28.367  28.773  23.058  1.00  0.00     0.000 A 
ENDBRANCH   8  10
BRANCH   8  16
ATOM     16  N   UNL A   1      32.575  25.903  24.135  1.00  0.00    -0.351 N 
ATOM     17  H   UNL A   1      32.805  26.782  23.756  1.00  0.00     0.163 HD
BRANCH  16  18
ATOM     18  C   UNL A   1      33.608  25.018  24.326  1.00  0.00     0.149 A 
ATOM     19  C   UNL A   1      34.070  24.129  23.368  1.00  0.00     0.051 A 
ATOM     20  N   UNL A   1      34.021  24.914  25.611  1.00  0.00    -0.132 NA
ATOM     21  C   UNL A   1      34.795  23.012  23.782  1.00  0.00     0.040 A 
ATOM     22  N   UNL A   1      34.710  23.818  26.035  1.00  0.00    -0.143 NA
ATOM     23  C   UNL A   1      35.036  22.862  25.135  1.00  0.00     0.150 A 
BRANCH  23  24
ATOM     24  C   UNL A   1      35.518  21.571  25.703  1.00  0.00     0.269 C 
ATOM     25  N   UNL A   1      34.563  20.786  26.295  1.00  0.00    -0.364 N 
ATOM     26  O   UNL A   1      36.682  21.200  25.603  1.00  0.00    -0.268 OA
ATOM     27  H   UNL A   1      33.635  21.106  26.362  1.00  0.00     0.160 HD
ATOM     28  H   UNL A   1      34.805  19.901  26.650  1.00  0.00     0.160 HD
ENDBRANCH  23  24
ENDBRANCH  16  18
ENDBRANCH   8  16
ENDBRANCH   5   8
ENDBRANCH   3   4
ENDBRANCH   2   3
ENDBRANCH   1   2
BRANCH   1  29
ATOM     29  C   UNL A   1      31.578  30.541  25.853  1.00  0.00     0.002 C 
BRANCH  29  30
ATOM     30  C   UNL A   1      31.416  31.913  26.511  1.00  0.00     0.021 C 
BRANCH  30  31
ATOM     31  C   UNL A   1      32.623  32.379  27.316  1.00  0.00     0.116 C 
BRANCH  31  32
ATOM     32  N   UNL A   1      32.558  33.797  27.628  1.00  0.00    -0.352 N 
ATOM     33  C   UNL A   1      33.269  34.510  28.560  1.00  0.00     0.251 C 
ATOM     34  H   UNL A   1      31.913  34.318  27.096  1.00  0.00     0.163 HD
ATOM     35  O   UNL A   1      32.935  35.660  28.828  1.00  0.00    -0.269 OA
BRANCH  33  36
ATOM     36  C   UNL A   1      34.417  33.881  29.252  1.00  0.00     0.039 A 
ATOM     37  C   UNL A   1      35.712  34.260  28.895  1.00  0.00     0.014 A 
ATOM     38  C   UNL A   1      34.219  32.911  30.240  1.00  0.00     0.014 A 
ATOM     39  C   UNL A   1      36.806  33.701  29.561  1.00  0.00     0.010 A 
ATOM     40  C   UNL A   1      35.305  32.415  30.956  1.00  0.00     0.010 A 
ATOM     41  C   UNL A   1      36.613  32.793  30.616  1.00  0.00    -0.014 A 
BRANCH  41  42
ATOM     42  C   UNL A   1      37.766  32.195  31.340  1.00  0.00     0.031 A 
ATOM     43  C   UNL A   1      38.538  31.065  30.710  1.00  0.00     0.074 A 
ATOM     44  C   UNL A   1      38.096  32.639  32.570  1.00  0.00     0.049 A 
ATOM     45  N   UNL A   1      39.515  30.351  31.208  1.00  0.00    -0.248 NA
ATOM     46  C   UNL A   1      38.137  30.667  29.351  1.00  0.00     0.031 C 
ATOM     47  C   UNL A   1      37.408  33.709  33.296  1.00  0.00     0.029 A 
ATOM     48  N   UNL A   1      39.088  32.241  33.432  1.00  0.00    -0.354 N 
ATOM     49  C   UNL A   1      39.847  29.425  30.225  1.00  0.00     0.074 A 
ATOM     50  C   UNL A   1      38.915  29.616  29.135  1.00  0.00     0.031 C 
ATOM     51  C   UNL A   1      38.012  33.897  34.481  1.00  0.00     0.029 A 
ATOM     52  C   UNL A   1      39.096  32.930  34.625  1.00  0.00     0.049 A 
ATOM     53  H   UNL A   1      39.734  31.530  33.217  1.00  0.00     0.167 HD
ATOM     54  C   UNL A   1      40.858  28.520  30.215  1.00  0.00     0.034 A 
ATOM     55  C   UNL A   1      39.875  32.785  35.716  1.00  0.00     0.034 A 
ATOM     56  C   UNL A   1      41.786  28.343  31.303  1.00  0.00     0.049 A 
ATOM     57  C   UNL A   1      40.964  31.737  35.698  1.00  0.00     0.074 A 
ATOM     58  C   UNL A   1      42.850  27.462  31.394  1.00  0.00     0.029 A 
ATOM     59  N   UNL A   1      41.767  29.063  32.490  1.00  0.00    -0.354 N 
ATOM     60  N   UNL A   1      41.276  30.885  34.748  1.00  0.00    -0.248 NA
ATOM     61  C   UNL A   1      41.819  31.645  36.888  1.00  0.00     0.031 C 
ATOM     62  C   UNL A   1      43.433  27.606  32.656  1.00  0.00     0.029 A 
ATOM     63  C   UNL A   1      42.790  28.637  33.321  1.00  0.00     0.049 A 
ATOM     64  H   UNL A   1      41.121  29.774  32.709  1.00  0.00     0.167 HD
ATOM     65  C   UNL A   1      42.394  30.193  35.211  1.00  0.00     0.074 A 
ATOM     66  C   UNL A   1      42.707  30.738  36.515  1.00  0.00     0.031 C 
ATOM     67  C   UNL A   1      43.101  29.200  34.614  1.00  0.00     0.034 A 
BRANCH  54  68
ATOM     68  C   UNL A   1      41.003  27.651  28.988  1.00  0.00     0.023 A 
ATOM     69  C   UNL A   1      42.006  27.893  28.034  1.00  0.00     0.031 A 
ATOM     70  C   UNL A   1      40.133  26.568  28.768  1.00  0.00     0.131 A 
ATOM     71  C   UNL A   1      42.078  27.106  26.876  1.00  0.00     0.055 A 
ATOM     72  C   UNL A   1      40.261  25.737  27.654  1.00  0.00     0.041 A 
ATOM     73  F   UNL A   1      39.142  26.302  29.633  1.00  0.00    -0.206 F 
ATOM     74  C   UNL A   1      41.230  26.011  26.694  1.00  0.00     0.022 A 
BRANCH  71  75
ATOM     75  S   UNL A   1      43.212  27.609  25.555  1.00  0.00     0.124 S 
ATOM     76  O   UNL A   1      43.852  26.339  25.218  1.00  0.00    -0.237 OA
ATOM     77  O   UNL A   1      42.307  28.154  24.551  1.00  0.00    -0.237 OA
ATOM     78  O   UNL A   1      44.085  28.585  26.206  1.00  0.00    -0.744 OA
ENDBRANCH  71  75
ENDBRANCH  54  68
BRANCH  55  79
ATOM     79  C   UNL A   1      39.656  33.625  36.932  1.00  0.00     0.023 A 
ATOM     80  C   UNL A   1      39.030  33.100  38.074  1.00  0.00     0.031 A 
ATOM     81  C   UNL A   1      39.986  34.993  36.938  1.00  0.00     0.131 A 
ATOM     82  C   UNL A   1      38.679  33.949  39.136  1.00  0.00     0.055 A 
ATOM     83  C   UNL A   1      39.702  35.818  38.027  1.00  0.00     0.041 A 
ATOM     84  F   UNL A   1      40.588  35.551  35.875  1.00  0.00    -0.206 F 
ATOM     85  C   UNL A   1      39.025  35.303  39.126  1.00  0.00     0.022 A 
BRANCH  82  86
ATOM     86  S   UNL A   1      37.631  33.291  40.463  1.00  0.00     0.124 S 
ATOM     87  O   UNL A   1      37.407  34.479  41.278  1.00  0.00    -0.237 OA
ATOM     88  O   UNL A   1      36.478  32.795  39.719  1.00  0.00    -0.237 OA
ATOM     89  O   UNL A   1      38.469  32.262  41.075  1.00  0.00    -0.744 OA
ENDBRANCH  82  86
ENDBRANCH  55  79
BRANCH  67  90
ATOM     90  C   UNL A   1      44.331  28.698  35.331  1.00  0.00     0.023 A 
ATOM     91  C   UNL A   1      44.271  27.672  36.290  1.00  0.00     0.031 A 
ATOM     92  C   UNL A   1      45.586  29.271  35.055  1.00  0.00     0.131 A 
ATOM     93  C   UNL A   1      45.431  27.297  36.986  1.00  0.00     0.055 A 
ATOM     94  C   UNL A   1      46.748  28.845  35.700  1.00  0.00     0.041 A 
ATOM     95  F   UNL A   1      45.704  30.256  34.150  1.00  0.00    -0.206 F 
ATOM     96  C   UNL A   1      46.671  27.863  36.682  1.00  0.00     0.022 A 
BRANCH  93  97
ATOM     97  S   UNL A   1      45.278  26.135  38.370  1.00  0.00     0.124 S 
ATOM     98  O   UNL A   1      45.325  24.845  37.690  1.00  0.00    -0.237 OA
ATOM     99  O   UNL A   1      46.439  26.468  39.187  1.00  0.00    -0.237 OA
ATOM    100  O   UNL A   1      43.985  26.478  38.963  1.00  0.00    -0.744 OA
ENDBRANCH  93  97
ENDBRANCH  67  90
ENDBRANCH  41  42
ENDBRANCH  33  36
ENDBRANCH  31  32
ENDBRANCH  30  31
ENDBRANCH  29  30
ENDBRANCH   1  29
TORSDOF 20
ENDMDL
MODEL 3
REMARK VINA RESULT:     -11.9      2.806      3.311
REMARK SMILES C[C@](Nc1ccc(C(N)=O)nn1)(C(=O)NCCCCCCNC(=O)c1ccc(-c2c3nc(c(-c4cc(S(=O)(=O)[O-])ccc4F)c4ccc([nH]4)c(-c4cc(S(=O)(=O)[O-])ccc4F)c4nc(c(-c5cc(S(=O)(=O)[O-])ccc5F)c5ccc2[nH]5)C=C4)C=C3)cc1)c1ccccc1
REMARK SMILES IDX 18 1 17 2 16 3 15 4 13 5 14 6 2 8 1 9 88 10 89 11 93 12
REMARK SMILES IDX 90 13 92 14 91 15 3 16 4 18 5 19 12 20 6 21 11 22 7 23 8 24
REMARK SMILES IDX 9 25 10 26 19 29 20 30 21 31 22 32 23 33 24 35 25 36 26 37
REMARK SMILES IDX 87 38 27 39 86 40 28 41 29 42 30 43 80 44 31 45 85 46 79 47
REMARK SMILES IDX 81 48 32 49 84 50 78 51 77 52 33 54 65 55 45 56 64 57 46 58
REMARK SMILES IDX 49 59 63 60 82 61 47 62 48 63 62 65 83 66 50 67 34 68 35 69
REMARK SMILES IDX 43 70 36 71 42 72 44 73 41 74 37 75 38 76 39 77 40 78 66 79
REMARK SMILES IDX 67 80 75 81 68 82 74 83 76 84 73 85 69 86 70 87 71 88 72 89
REMARK SMILES IDX 51 90 52 91 60 92 53 93 59 94 61 95 58 96 54 97 55 98 56 99
REMARK SMILES IDX 57 100
REMARK H PARENT 15 7 3 17 9 27 9 28 22 34 81 53 49 64
REMARK Flexibility Score: inf
ROOT
ATOM      1  C   UNL A   1      33.797  27.368  25.944  1.00  0.00     0.002 C 
ENDROOT
BRANCH   1   2
ATOM      2  C   UNL A   1      32.714  26.311  26.193  1.00  0.00     0.021 C 
BRANCH   2   3
ATOM      3  C   UNL A   1      32.701  25.168  25.181  1.00  0.00     0.116 C 
BRANCH   3   4
ATOM      4  N   UNL A   1      32.025  24.003  25.720  1.00  0.00    -0.354 N 
ATOM      5  C   UNL A   1      31.919  22.728  25.238  1.00  0.00     0.250 C 
ATOM      6  O   UNL A   1      31.006  22.063  25.743  1.00  0.00    -0.272 OA
ATOM      7  H   UNL A   1      31.564  24.157  26.576  1.00  0.00     0.163 HD
BRANCH   5   8
ATOM      8  C   UNL A   1      32.891  22.175  24.112  1.00  0.00     0.140 C 
ATOM      9  C   UNL A   1      32.715  22.989  22.804  1.00  0.00     0.051 C 
BRANCH   8  10
ATOM     10  C   UNL A   1      34.406  22.349  24.451  1.00  0.00    -0.013 A 
ATOM     11  C   UNL A   1      35.353  22.596  23.437  1.00  0.00     0.007 A 
ATOM     12  C   UNL A   1      34.914  22.189  25.756  1.00  0.00     0.007 A 
ATOM     13  C   UNL A   1      36.702  22.823  23.731  1.00  0.00     0.000 A 
ATOM     14  C   UNL A   1      36.252  22.453  26.058  1.00  0.00     0.000 A 
ATOM     15  C   UNL A   1      37.144  22.787  25.047  1.00  0.00     0.000 A 
ENDBRANCH   8  10
BRANCH   8  16
ATOM     16  N   UNL A   1      32.479  20.773  23.834  1.00  0.00    -0.351 N 
ATOM     17  H   UNL A   1      31.787  20.640  23.147  1.00  0.00     0.163 HD
BRANCH  16  18
ATOM     18  C   UNL A   1      32.972  19.648  24.447  1.00  0.00     0.149 A 
ATOM     19  C   UNL A   1      34.181  19.046  24.133  1.00  0.00     0.051 A 
ATOM     20  N   UNL A   1      32.084  19.019  25.253  1.00  0.00    -0.132 NA
ATOM     21  C   UNL A   1      34.379  17.711  24.485  1.00  0.00     0.040 A 
ATOM     22  N   UNL A   1      32.253  17.708  25.586  1.00  0.00    -0.143 NA
ATOM     23  C   UNL A   1      33.359  17.061  25.155  1.00  0.00     0.150 A 
BRANCH  23  24
ATOM     24  C   UNL A   1      33.342  15.577  25.298  1.00  0.00     0.269 C 
ATOM     25  N   UNL A   1      32.105  15.006  25.445  1.00  0.00    -0.364 N 
ATOM     26  O   UNL A   1      34.359  14.896  25.232  1.00  0.00    -0.268 OA
ATOM     27  H   UNL A   1      31.303  15.575  25.495  1.00  0.00     0.160 HD
ATOM     28  H   UNL A   1      32.018  14.028  25.500  1.00  0.00     0.160 HD
ENDBRANCH  23  24
ENDBRANCH  16  18
ENDBRANCH   8  16
ENDBRANCH   5   8
ENDBRANCH   3   4
ENDBRANCH   2   3
ENDBRANCH   1   2
BRANCH   1  29
ATOM     29  C   UNL A   1      33.490  28.365  24.822  1.00  0.00     0.002 C 
BRANCH  29  30
ATOM     30  C   UNL A   1      32.294  29.284  25.082  1.00  0.00     0.021 C 
BRANCH  30  31
ATOM     31  C   UNL A   1      32.195  29.810  26.510  1.00  0.00     0.116 C 
BRANCH  31  32
ATOM     32  N   UNL A   1      32.133  31.260  26.555  1.00  0.00    -0.352 N 
ATOM     33  C   UNL A   1      32.947  32.140  27.225  1.00  0.00     0.251 C 
ATOM     34  H   UNL A   1      31.406  31.670  26.031  1.00  0.00     0.163 HD
ATOM     35  O   UNL A   1      32.620  33.320  27.316  1.00  0.00    -0.269 OA
BRANCH  33  36
ATOM     36  C   UNL A   1      34.197  31.656  27.853  1.00  0.00     0.039 A 
ATOM     37  C   UNL A   1      35.182  32.582  28.201  1.00  0.00     0.014 A 
ATOM     38  C   UNL A   1      34.404  30.293  28.088  1.00  0.00     0.014 A 
ATOM     39  C   UNL A   1      36.353  32.146  28.824  1.00  0.00     0.010 A 
ATOM     40  C   UNL A   1      35.535  29.870  28.781  1.00  0.00     0.010 A 
ATOM     41  C   UNL A   1      36.531  30.790  29.145  1.00  0.00    -0.014 A 
BRANCH  41  42
ATOM     42  C   UNL A   1      37.769  30.310  29.816  1.00  0.00     0.031 A 
ATOM     43  C   UNL A   1      38.093  30.783  31.210  1.00  0.00     0.074 A 
ATOM     44  C   UNL A   1      38.613  29.485  29.167  1.00  0.00     0.049 A 
ATOM     45  N   UNL A   1      39.157  30.554  31.935  1.00  0.00    -0.248 NA
ATOM     46  C   UNL A   1      37.099  31.652  31.862  1.00  0.00     0.031 C 
ATOM     47  C   UNL A   1      38.422  28.979  27.806  1.00  0.00     0.029 A 
ATOM     48  N   UNL A   1      39.806  28.930  29.560  1.00  0.00    -0.354 N 
ATOM     49  C   UNL A   1      38.961  31.246  33.126  1.00  0.00     0.074 A 
ATOM     50  C   UNL A   1      37.712  31.966  32.993  1.00  0.00     0.031 C 
ATOM     51  C   UNL A   1      39.449  28.173  27.487  1.00  0.00     0.029 A 
ATOM     52  C   UNL A   1      40.397  28.143  28.595  1.00  0.00     0.049 A 
ATOM     53  H   UNL A   1      40.204  29.081  30.448  1.00  0.00     0.167 HD
ATOM     54  C   UNL A   1      39.731  31.255  34.242  1.00  0.00     0.034 A 
ATOM     55  C   UNL A   1      41.576  27.488  28.600  1.00  0.00     0.034 A 
ATOM     56  C   UNL A   1      40.970  30.528  34.366  1.00  0.00     0.049 A 
ATOM     57  C   UNL A   1      42.439  27.552  29.839  1.00  0.00     0.074 A 
ATOM     58  C   UNL A   1      41.825  30.461  35.453  1.00  0.00     0.029 A 
ATOM     59  N   UNL A   1      41.531  29.736  33.373  1.00  0.00    -0.354 N 
ATOM     60  N   UNL A   1      42.224  28.194  30.965  1.00  0.00    -0.248 NA
ATOM     61  C   UNL A   1      43.693  26.787  29.817  1.00  0.00     0.031 C 
ATOM     62  C   UNL A   1      42.930  29.683  35.096  1.00  0.00     0.029 A 
ATOM     63  C   UNL A   1      42.724  29.190  33.817  1.00  0.00     0.049 A 
ATOM     64  H   UNL A   1      41.138  29.585  32.483  1.00  0.00     0.167 HD
ATOM     65  C   UNL A   1      43.292  27.868  31.798  1.00  0.00     0.074 A 
ATOM     66  C   UNL A   1      44.139  26.961  31.050  1.00  0.00     0.031 C 
ATOM     67  C   UNL A   1      43.551  28.275  33.067  1.00  0.00     0.034 A 
BRANCH  54  68
ATOM     68  C   UNL A   1      39.256  32.083  35.411  1.00  0.00     0.023 A 
ATOM     69  C   UNL A   1      38.635  31.489  36.524  1.00  0.00     0.031 A 
ATOM     70  C   UNL A   1      39.423  33.479  35.418  1.00  0.00     0.131 A 
ATOM     71  C   UNL A   1      38.150  32.291  37.567  1.00  0.00     0.055 A 
ATOM     72  C   UNL A   1      39.011  34.263  36.497  1.00  0.00     0.041 A 
ATOM     73  F   UNL A   1      39.988  34.105  34.373  1.00  0.00    -0.206 F 
ATOM     74  C   UNL A   1      38.360  33.671  37.575  1.00  0.00     0.022 A 
BRANCH  71  75
ATOM     75  S   UNL A   1      37.132  31.517  38.853  1.00  0.00     0.124 S 
ATOM     76  O   UNL A   1      36.949  30.172  38.311  1.00  0.00    -0.237 OA
ATOM     77  O   UNL A   1      37.981  31.620  40.033  1.00  0.00    -0.237 OA
ATOM     78  O   UNL A   1      35.925  32.341  38.877  1.00  0.00    -0.744 OA
ENDBRANCH  71  75
ENDBRANCH  54  68
BRANCH  55  79
ATOM     79  C   UNL A   1      42.037  26.731  27.397  1.00  0.00     0.023 A 
ATOM     80  C   UNL A   1      41.882  25.338  27.313  1.00  0.00     0.031 A 
ATOM     81  C   UNL A   1      42.725  27.377  26.353  1.00  0.00     0.131 A 
ATOM     82  C   UNL A   1      42.477  24.628  26.258  1.00  0.00     0.055 A 
ATOM     83  C   UNL A   1      43.249  26.675  25.267  1.00  0.00     0.041 A 
ATOM     84  F   UNL A   1      42.902  28.707  26.377  1.00  0.00    -0.206 F 
ATOM     85  C   UNL A   1      43.147  25.289  25.226  1.00  0.00     0.022 A 
BRANCH  82  86
ATOM     86  S   UNL A   1      42.490  22.815  26.332  1.00  0.00     0.124 S 
ATOM     87  O   UNL A   1      43.285  22.575  27.532  1.00  0.00    -0.237 OA
ATOM     88  O   UNL A   1      41.068  22.507  26.431  1.00  0.00    -0.237 OA
ATOM     89  O   UNL A   1      43.127  22.429  25.074  1.00  0.00    -0.744 OA
ENDBRANCH  82  86
ENDBRANCH  55  79
BRANCH  67  90
ATOM     90  C   UNL A   1      44.756  27.677  33.754  1.00  0.00     0.023 A 
ATOM     91  C   UNL A   1      44.666  26.523  34.550  1.00  0.00     0.031 A 
ATOM     92  C   UNL A   1      46.016  28.287  33.614  1.00  0.00     0.131 A 
ATOM     93  C   UNL A   1      45.800  26.054  35.231  1.00  0.00     0.055 A 
ATOM     94  C   UNL A   1      47.154  27.775  34.237  1.00  0.00     0.041 A 
ATOM     95  F   UNL A   1      46.162  29.393  32.867  1.00  0.00    -0.206 F 
ATOM     96  C   UNL A   1      47.047  26.661  35.063  1.00  0.00     0.022 A 
BRANCH  93  97
ATOM     97  S   UNL A   1      45.601  24.704  36.425  1.00  0.00     0.124 S 
ATOM     98  O   UNL A   1      44.165  24.732  36.680  1.00  0.00    -0.237 OA
ATOM     99  O   UNL A   1      46.093  23.552  35.678  1.00  0.00    -0.237 OA
ATOM    100  O   UNL A   1      46.440  25.115  37.551  1.00  0.00    -0.744 OA
ENDBRANCH  93  97
ENDBRANCH  67  90
ENDBRANCH  41  42
ENDBRANCH  33  36
ENDBRANCH  31  32
ENDBRANCH  30  31
ENDBRANCH  29  30
ENDBRANCH   1  29
TORSDOF 20
ENDMDL
