MODEL 1
REMARK VINA RESULT:     -10.8      0.000      0.000
REMARK SMILES CCc1n[nH]c2cc(CCC(=O)NCCCCCCNC(=O)c3ccc(-c4c5nc(c(-c6cc(S(=O)(=O)[O-])ccc6F)c6ccc([nH]6)c(-c6cc(S(=O)(=O)[O-])ccc6F)c6nc(c(-c7cc(S(=O)(=O)[O-])ccc7F)c7ccc4[nH]7)C=C6)C=C5)cc3)ccc12
REMARK SMILES IDX 16 1 15 2 14 3 13 4 11 5 12 6 10 8 9 9 8 10 3 11 4 12 88 13
REMARK SMILES IDX 5 14 6 15 87 16 7 18 86 19 2 20 1 21 17 22 18 23 19 24 20 25
REMARK SMILES IDX 21 26 22 28 23 29 24 30 85 31 25 32 84 33 26 34 27 35 28 36
REMARK SMILES IDX 78 37 29 38 83 39 77 40 79 41 30 42 82 43 76 44 75 45 31 47
REMARK SMILES IDX 63 48 43 49 62 50 44 51 47 52 61 53 80 54 45 55 46 56 60 58
REMARK SMILES IDX 81 59 48 60 32 61 33 62 41 63 34 64 40 65 42 66 39 67 35 68
REMARK SMILES IDX 36 69 37 70 38 71 64 72 65 73 73 74 66 75 72 76 74 77 71 78
REMARK SMILES IDX 67 79 68 80 69 81 70 82 49 83 50 84 58 85 51 86 57 87 59 88
REMARK SMILES IDX 56 89 52 90 53 91 54 92 55 93
REMARK H PARENT 13 7 5 17 20 27 79 46 47 57
REMARK Flexibility Score: inf
ROOT
ATOM      1  C   UNL A   1      47.534  20.061  36.843  1.00  0.00     0.002 C 
ENDROOT
BRANCH   1   2
ATOM      2  C   UNL A   1      48.034  19.926  38.281  1.00  0.00     0.021 C 
BRANCH   2   3
ATOM      3  C   UNL A   1      47.021  19.443  39.319  1.00  0.00     0.116 C 
BRANCH   3   4
ATOM      4  N   UNL A   1      47.014  17.989  39.381  1.00  0.00    -0.356 N 
ATOM      5  C   UNL A   1      46.263  17.149  40.148  1.00  0.00     0.220 C 
ATOM      6  O   UNL A   1      46.595  15.962  40.207  1.00  0.00    -0.275 OA
ATOM      7  H   UNL A   1      47.649  17.543  38.775  1.00  0.00     0.163 HD
BRANCH   5   8
ATOM      8  C   UNL A   1      45.022  17.635  40.875  1.00  0.00     0.105 C 
BRANCH   8   9
ATOM      9  C   UNL A   1      43.714  17.188  40.214  1.00  0.00     0.045 C 
BRANCH   9  10
ATOM     10  C   UNL A   1      43.035  16.066  40.968  1.00  0.00    -0.045 A 
ATOM     11  C   UNL A   1      41.571  12.453  42.465  1.00  0.00     0.070 A 
ATOM     12  N   UNL A   1      40.789  12.060  41.449  1.00  0.00    -0.180 NA
ATOM     13  C   UNL A   1      42.112  13.748  42.245  1.00  0.00     0.023 A 
ATOM     14  N   UNL A   1      40.811  13.104  40.604  1.00  0.00    -0.278 N 
ATOM     15  C   UNL A   1      41.632  14.127  40.997  1.00  0.00     0.066 A 
ATOM     16  C   UNL A   1      42.990  14.605  42.927  1.00  0.00     0.012 A 
ATOM     17  H   UNL A   1      40.281  13.132  39.774  1.00  0.00     0.190 HD
ATOM     18  C   UNL A   1      42.046  15.293  40.340  1.00  0.00     0.032 A 
ATOM     19  C   UNL A   1      43.448  15.755  42.273  1.00  0.00     0.004 A 
BRANCH  11  20
ATOM     20  C   UNL A   1      41.852  11.526  43.601  1.00  0.00     0.055 C 
ATOM     21  C   UNL A   1      43.223  10.884  43.502  1.00  0.00     0.011 C 
ENDBRANCH  11  20
ENDBRANCH   9  10
ENDBRANCH   8   9
ENDBRANCH   5   8
ENDBRANCH   3   4
ENDBRANCH   2   3
ENDBRANCH   1   2
BRANCH   1  22
ATOM     22  C   UNL A   1      46.045  20.390  36.687  1.00  0.00     0.002 C 
BRANCH  22  23
ATOM     23  C   UNL A   1      45.669  21.878  36.617  1.00  0.00     0.021 C 
BRANCH  23  24
ATOM     24  C   UNL A   1      46.749  22.832  36.101  1.00  0.00     0.116 C 
BRANCH  24  25
ATOM     25  N   UNL A   1      47.174  23.803  37.090  1.00  0.00    -0.352 N 
ATOM     26  C   UNL A   1      46.919  25.151  37.203  1.00  0.00     0.251 C 
ATOM     27  H   UNL A   1      47.742  23.435  37.804  1.00  0.00     0.163 HD
ATOM     28  O   UNL A   1      47.474  25.768  38.109  1.00  0.00    -0.269 OA
BRANCH  26  29
ATOM     29  C   UNL A   1      46.048  25.890  36.247  1.00  0.00     0.039 A 
ATOM     30  C   UNL A   1      44.710  25.490  36.157  1.00  0.00     0.014 A 
ATOM     31  C   UNL A   1      46.509  26.899  35.395  1.00  0.00     0.014 A 
ATOM     32  C   UNL A   1      43.836  26.121  35.264  1.00  0.00     0.010 A 
ATOM     33  C   UNL A   1      45.614  27.573  34.543  1.00  0.00     0.010 A 
ATOM     34  C   UNL A   1      44.264  27.194  34.466  1.00  0.00    -0.014 A 
BRANCH  34  35
ATOM     35  C   UNL A   1      43.278  27.896  33.585  1.00  0.00     0.031 A 
ATOM     36  C   UNL A   1      43.119  27.529  32.131  1.00  0.00     0.074 A 
ATOM     37  C   UNL A   1      42.479  28.848  34.113  1.00  0.00     0.049 A 
ATOM     38  N   UNL A   1      42.225  27.948  31.266  1.00  0.00    -0.248 NA
ATOM     39  C   UNL A   1      44.094  26.586  31.571  1.00  0.00     0.031 C 
ATOM     40  C   UNL A   1      42.551  29.334  35.493  1.00  0.00     0.029 A 
ATOM     41  N   UNL A   1      41.436  29.560  33.569  1.00  0.00    -0.354 N 
ATOM     42  C   UNL A   1      42.523  27.312  30.065  1.00  0.00     0.074 A 
ATOM     43  C   UNL A   1      43.722  26.532  30.300  1.00  0.00     0.031 C 
ATOM     44  C   UNL A   1      41.563  30.219  35.701  1.00  0.00     0.029 A 
ATOM     45  C   UNL A   1      40.809  30.398  34.463  1.00  0.00     0.049 A 
ATOM     46  H   UNL A   1      41.163  29.478  32.626  1.00  0.00     0.167 HD
ATOM     47  C   UNL A   1      41.851  27.351  28.885  1.00  0.00     0.034 A 
ATOM     48  C   UNL A   1      39.744  31.214  34.317  1.00  0.00     0.034 A 
ATOM     49  C   UNL A   1      40.661  28.141  28.652  1.00  0.00     0.049 A 
ATOM     50  C   UNL A   1      39.029  31.261  32.989  1.00  0.00     0.074 A 
ATOM     51  C   UNL A   1      39.888  28.217  27.505  1.00  0.00     0.029 A 
ATOM     52  N   UNL A   1      40.079  29.004  29.572  1.00  0.00    -0.354 N 
ATOM     53  N   UNL A   1      39.288  30.598  31.886  1.00  0.00    -0.248 NA
ATOM     54  C   UNL A   1      37.865  32.151  32.897  1.00  0.00     0.031 C 
ATOM     55  C   UNL A   1      38.894  29.182  27.702  1.00  0.00     0.029 A 
ATOM     56  C   UNL A   1      38.982  29.641  29.006  1.00  0.00     0.049 A 
ATOM     57  H   UNL A   1      40.398  29.145  30.492  1.00  0.00     0.167 HD
ATOM     58  C   UNL A   1      38.294  30.968  30.981  1.00  0.00     0.074 A 
ATOM     59  C   UNL A   1      37.421  31.888  31.679  1.00  0.00     0.031 C 
ATOM     60  C   UNL A   1      38.118  30.576  29.691  1.00  0.00     0.034 A 
BRANCH  47  61
ATOM     61  C   UNL A   1      42.406  26.533  27.738  1.00  0.00     0.023 A 
ATOM     62  C   UNL A   1      42.192  25.146  27.646  1.00  0.00     0.031 A 
ATOM     63  C   UNL A   1      43.166  27.145  26.724  1.00  0.00     0.131 A 
ATOM     64  C   UNL A   1      42.790  24.409  26.612  1.00  0.00     0.055 A 
ATOM     65  C   UNL A   1      43.686  26.419  25.650  1.00  0.00     0.041 A 
ATOM     66  F   UNL A   1      43.422  28.463  26.763  1.00  0.00    -0.206 F 
ATOM     67  C   UNL A   1      43.513  25.039  25.598  1.00  0.00     0.022 A 
BRANCH  64  68
ATOM     68  S   UNL A   1      42.733  22.596  26.691  1.00  0.00     0.124 S 
ATOM     69  O   UNL A   1      41.625  22.297  25.789  1.00  0.00    -0.237 OA
ATOM     70  O   UNL A   1      44.061  22.218  26.222  1.00  0.00    -0.237 OA
ATOM     71  O   UNL A   1      42.468  22.323  28.102  1.00  0.00    -0.744 OA
ENDBRANCH  64  68
ENDBRANCH  47  61
BRANCH  48  72
ATOM     72  C   UNL A   1      39.279  32.065  35.455  1.00  0.00     0.023 A 
ATOM     73  C   UNL A   1      39.730  33.387  35.612  1.00  0.00     0.031 A 
ATOM     74  C   UNL A   1      38.420  31.542  36.438  1.00  0.00     0.131 A 
ATOM     75  C   UNL A   1      39.364  34.120  36.754  1.00  0.00     0.055 A 
ATOM     76  C   UNL A   1      38.009  32.298  37.538  1.00  0.00     0.041 A 
ATOM     77  F   UNL A   1      37.959  30.285  36.339  1.00  0.00    -0.206 F 
ATOM     78  C   UNL A   1      38.495  33.589  37.708  1.00  0.00     0.022 A 
BRANCH  75  79
ATOM     79  S   UNL A   1      40.125  35.745  37.027  1.00  0.00     0.124 S 
ATOM     80  O   UNL A   1      39.596  36.512  35.906  1.00  0.00    -0.237 OA
ATOM     81  O   UNL A   1      39.615  36.101  38.347  1.00  0.00    -0.237 OA
ATOM     82  O   UNL A   1      41.557  35.462  36.970  1.00  0.00    -0.744 OA
ENDBRANCH  75  79
ENDBRANCH  48  72
BRANCH  60  83
ATOM     83  C   UNL A   1      36.901  31.115  28.969  1.00  0.00     0.023 A 
ATOM     84  C   UNL A   1      35.847  30.278  28.558  1.00  0.00     0.031 A 
ATOM     85  C   UNL A   1      36.820  32.479  28.638  1.00  0.00     0.131 A 
ATOM     86  C   UNL A   1      34.808  30.794  27.767  1.00  0.00     0.055 A 
ATOM     87  C   UNL A   1      35.742  33.003  27.920  1.00  0.00     0.041 A 
ATOM     88  F   UNL A   1      37.794  33.331  28.998  1.00  0.00    -0.206 F 
ATOM     89  C   UNL A   1      34.739  32.154  27.461  1.00  0.00     0.022 A 
BRANCH  86  90
ATOM     90  S   UNL A   1      33.629  29.636  27.017  1.00  0.00     0.124 S 
ATOM     91  O   UNL A   1      34.237  28.345  27.320  1.00  0.00    -0.237 OA
ATOM     92  O   UNL A   1      32.394  29.942  27.733  1.00  0.00    -0.237 OA
ATOM     93  O   UNL A   1      33.634  30.008  25.603  1.00  0.00    -0.744 OA
ENDBRANCH  86  90
ENDBRANCH  60  83
ENDBRANCH  34  35
ENDBRANCH  26  29
ENDBRANCH  24  25
ENDBRANCH  23  24
ENDBRANCH  22  23
ENDBRANCH   1  22
TORSDOF 19
ENDMDL
MODEL 2
REMARK VINA RESULT:     -10.6      9.223     15.865
REMARK SMILES CCc1n[nH]c2cc(CCC(=O)NCCCCCCNC(=O)c3ccc(-c4c5nc(c(-c6cc(S(=O)(=O)[O-])ccc6F)c6ccc([nH]6)c(-c6cc(S(=O)(=O)[O-])ccc6F)c6nc(c(-c7cc(S(=O)(=O)[O-])ccc7F)c7ccc4[nH]7)C=C6)C=C5)cc3)ccc12
REMARK SMILES IDX 16 1 15 2 14 3 13 4 11 5 12 6 10 8 9 9 8 10 3 11 4 12 88 13
REMARK SMILES IDX 5 14 6 15 87 16 7 18 86 19 2 20 1 21 17 22 18 23 19 24 20 25
REMARK SMILES IDX 21 26 22 28 23 29 24 30 85 31 25 32 84 33 26 34 27 35 28 36
REMARK SMILES IDX 78 37 29 38 83 39 77 40 79 41 30 42 82 43 76 44 75 45 31 47
REMARK SMILES IDX 63 48 43 49 62 50 44 51 47 52 61 53 80 54 45 55 46 56 60 58
REMARK SMILES IDX 81 59 48 60 32 61 33 62 41 63 34 64 40 65 42 66 39 67 35 68
REMARK SMILES IDX 36 69 37 70 38 71 64 72 65 73 73 74 66 75 72 76 74 77 71 78
REMARK SMILES IDX 67 79 68 80 69 81 70 82 49 83 50 84 58 85 51 86 57 87 59 88
REMARK SMILES IDX 56 89 52 90 53 91 54 92 55 93
REMARK H PARENT 13 7 5 17 20 27 79 46 47 57
REMARK Flexibility Score: inf
ROOT
ATOM      1  C   UNL A   1      33.067  21.658  25.365  1.00  0.00     0.002 C 
ENDROOT
BRANCH   1   2
ATOM      2  C   UNL A   1      33.631  22.881  24.642  1.00  0.00     0.021 C 
BRANCH   2   3
ATOM      3  C   UNL A   1      33.349  22.986  23.144  1.00  0.00     0.116 C 
BRANCH   3   4
ATOM      4  N   UNL A   1      33.824  24.261  22.627  1.00  0.00    -0.356 N 
ATOM      5  C   UNL A   1      33.122  25.337  22.173  1.00  0.00     0.220 C 
ATOM      6  O   UNL A   1      33.736  26.216  21.560  1.00  0.00    -0.275 OA
ATOM      7  H   UNL A   1      34.803  24.362  22.603  1.00  0.00     0.163 HD
BRANCH   5   8
ATOM      8  C   UNL A   1      31.637  25.489  22.448  1.00  0.00     0.105 C 
BRANCH   8   9
ATOM      9  C   UNL A   1      31.325  25.954  23.874  1.00  0.00     0.045 C 
BRANCH   9  10
ATOM     10  C   UNL A   1      30.532  27.241  23.907  1.00  0.00    -0.045 A 
ATOM     11  C   UNL A   1      29.006  31.108  23.508  1.00  0.00     0.070 A 
ATOM     12  N   UNL A   1      29.911  31.807  24.209  1.00  0.00    -0.180 NA
ATOM     13  C   UNL A   1      29.243  29.709  23.587  1.00  0.00     0.023 A 
ATOM     14  N   UNL A   1      30.699  30.862  24.750  1.00  0.00    -0.278 N 
ATOM     15  C   UNL A   1      30.385  29.585  24.369  1.00  0.00     0.066 A 
ATOM     16  C   UNL A   1      28.661  28.554  23.042  1.00  0.00     0.012 A 
ATOM     17  H   UNL A   1      31.437  31.071  25.367  1.00  0.00     0.190 HD
ATOM     18  C   UNL A   1      31.041  28.365  24.577  1.00  0.00     0.032 A 
ATOM     19  C   UNL A   1      29.320  27.330  23.204  1.00  0.00     0.004 A 
BRANCH  11  20
ATOM     20  C   UNL A   1      27.972  31.815  22.698  1.00  0.00     0.055 C 
ATOM     21  C   UNL A   1      28.225  31.706  21.206  1.00  0.00     0.011 C 
ENDBRANCH  11  20
ENDBRANCH   9  10
ENDBRANCH   8   9
ENDBRANCH   5   8
ENDBRANCH   3   4
ENDBRANCH   2   3
ENDBRANCH   1   2
BRANCH   1  22
ATOM     22  C   UNL A   1      34.048  20.497  25.569  1.00  0.00     0.002 C 
BRANCH  22  23
ATOM     23  C   UNL A   1      35.315  20.502  24.701  1.00  0.00     0.021 C 
BRANCH  23  24
ATOM     24  C   UNL A   1      36.541  21.209  25.284  1.00  0.00     0.116 C 
BRANCH  24  25
ATOM     25  N   UNL A   1      37.672  20.324  25.482  1.00  0.00    -0.352 N 
ATOM     26  C   UNL A   1      38.975  20.587  25.837  1.00  0.00     0.251 C 
ATOM     27  H   UNL A   1      37.473  19.371  25.338  1.00  0.00     0.163 HD
ATOM     28  O   UNL A   1      39.766  19.646  25.860  1.00  0.00    -0.269 OA
BRANCH  26  29
ATOM     29  C   UNL A   1      39.468  21.959  26.138  1.00  0.00     0.039 A 
ATOM     30  C   UNL A   1      40.780  22.080  26.610  1.00  0.00     0.014 A 
ATOM     31  C   UNL A   1      38.678  23.109  26.043  1.00  0.00     0.014 A 
ATOM     32  C   UNL A   1      41.307  23.335  26.937  1.00  0.00     0.010 A 
ATOM     33  C   UNL A   1      39.229  24.375  26.313  1.00  0.00     0.010 A 
ATOM     34  C   UNL A   1      40.553  24.507  26.763  1.00  0.00    -0.014 A 
BRANCH  34  35
ATOM     35  C   UNL A   1      41.180  25.835  27.046  1.00  0.00     0.031 A 
ATOM     36  C   UNL A   1      40.483  26.875  27.888  1.00  0.00     0.074 A 
ATOM     37  C   UNL A   1      42.419  26.095  26.577  1.00  0.00     0.049 A 
ATOM     38  N   UNL A   1      40.941  28.021  28.333  1.00  0.00    -0.248 NA
ATOM     39  C   UNL A   1      39.091  26.602  28.264  1.00  0.00     0.031 C 
ATOM     40  C   UNL A   1      43.196  25.201  25.714  1.00  0.00     0.029 A 
ATOM     41  N   UNL A   1      43.257  27.168  26.774  1.00  0.00    -0.354 N 
ATOM     42  C   UNL A   1      39.899  28.599  29.051  1.00  0.00     0.074 A 
ATOM     43  C   UNL A   1      38.766  27.706  28.921  1.00  0.00     0.031 C 
ATOM     44  C   UNL A   1      44.410  25.734  25.505  1.00  0.00     0.029 A 
ATOM     45  C   UNL A   1      44.491  27.026  26.179  1.00  0.00     0.049 A 
ATOM     46  H   UNL A   1      42.998  27.964  27.292  1.00  0.00     0.167 HD
ATOM     47  C   UNL A   1      39.891  29.752  29.770  1.00  0.00     0.034 A 
ATOM     48  C   UNL A   1      45.573  27.833  26.179  1.00  0.00     0.034 A 
ATOM     49  C   UNL A   1      41.022  30.647  29.886  1.00  0.00     0.049 A 
ATOM     50  C   UNL A   1      45.532  29.121  26.964  1.00  0.00     0.074 A 
ATOM     51  C   UNL A   1      41.124  31.817  30.622  1.00  0.00     0.029 A 
ATOM     52  N   UNL A   1      42.241  30.486  29.240  1.00  0.00    -0.354 N 
ATOM     53  N   UNL A   1      44.558  29.616  27.692  1.00  0.00    -0.248 NA
ATOM     54  C   UNL A   1      46.746  29.946  26.943  1.00  0.00     0.031 C 
ATOM     55  C   UNL A   1      42.367  32.402  30.357  1.00  0.00     0.029 A 
ATOM     56  C   UNL A   1      43.084  31.552  29.532  1.00  0.00     0.049 A 
ATOM     57  H   UNL A   1      42.475  29.728  28.659  1.00  0.00     0.167 HD
ATOM     58  C   UNL A   1      45.059  30.794  28.243  1.00  0.00     0.074 A 
ATOM     59  C   UNL A   1      46.427  30.916  27.784  1.00  0.00     0.031 C 
ATOM     60  C   UNL A   1      44.443  31.689  29.060  1.00  0.00     0.034 A 
BRANCH  47  61
ATOM     61  C   UNL A   1      38.602  30.129  30.470  1.00  0.00     0.023 A 
ATOM     62  C   UNL A   1      37.602  30.880  29.826  1.00  0.00     0.031 A 
ATOM     63  C   UNL A   1      38.370  29.739  31.802  1.00  0.00     0.131 A 
ATOM     64  C   UNL A   1      36.457  31.278  30.533  1.00  0.00     0.055 A 
ATOM     65  C   UNL A   1      37.189  30.065  32.473  1.00  0.00     0.041 A 
ATOM     66  F   UNL A   1      39.293  29.036  32.479  1.00  0.00    -0.206 F 
ATOM     67  C   UNL A   1      36.230  30.853  31.844  1.00  0.00     0.022 A 
BRANCH  64  68
ATOM     68  S   UNL A   1      35.336  32.482  29.766  1.00  0.00     0.124 S 
ATOM     69  O   UNL A   1      34.399  32.748  30.855  1.00  0.00    -0.237 OA
ATOM     70  O   UNL A   1      36.237  33.573  29.415  1.00  0.00    -0.237 OA
ATOM     71  O   UNL A   1      34.770  31.750  28.634  1.00  0.00    -0.744 OA
ENDBRANCH  64  68
ENDBRANCH  47  61
BRANCH  48  72
ATOM     72  C   UNL A   1      46.797  27.459  25.407  1.00  0.00     0.023 A 
ATOM     73  C   UNL A   1      46.992  27.895  24.085  1.00  0.00     0.031 A 
ATOM     74  C   UNL A   1      47.764  26.603  25.965  1.00  0.00     0.131 A 
ATOM     75  C   UNL A   1      48.096  27.432  23.350  1.00  0.00     0.055 A 
ATOM     76  C   UNL A   1      48.893  26.197  25.251  1.00  0.00     0.041 A 
ATOM     77  F   UNL A   1      47.629  26.155  27.224  1.00  0.00    -0.206 F 
ATOM     78  C   UNL A   1      49.055  26.599  23.930  1.00  0.00     0.022 A 
BRANCH  75  79
ATOM     79  S   UNL A   1      48.208  27.851  21.588  1.00  0.00     0.124 S 
ATOM     80  O   UNL A   1      48.426  26.543  20.985  1.00  0.00    -0.237 OA
ATOM     81  O   UNL A   1      46.908  28.466  21.340  1.00  0.00    -0.237 OA
ATOM     82  O   UNL A   1      49.347  28.764  21.530  1.00  0.00    -0.744 OA
ENDBRANCH  75  79
ENDBRANCH  48  72
BRANCH  60  83
ATOM     83  C   UNL A   1      45.272  32.861  29.543  1.00  0.00     0.023 A 
ATOM     84  C   UNL A   1      45.280  34.097  28.870  1.00  0.00     0.031 A 
ATOM     85  C   UNL A   1      46.108  32.722  30.666  1.00  0.00     0.131 A 
ATOM     86  C   UNL A   1      46.170  35.107  29.268  1.00  0.00     0.055 A 
ATOM     87  C   UNL A   1      46.932  33.761  31.107  1.00  0.00     0.041 A 
ATOM     88  F   UNL A   1      46.149  31.568  31.351  1.00  0.00    -0.206 F 
ATOM     89  C   UNL A   1      46.982  34.954  30.393  1.00  0.00     0.022 A 
BRANCH  86  90
ATOM     90  S   UNL A   1      46.360  36.567  28.206  1.00  0.00     0.124 S 
ATOM     91  O   UNL A   1      45.243  37.402  28.636  1.00  0.00    -0.237 OA
ATOM     92  O   UNL A   1      47.690  37.046  28.569  1.00  0.00    -0.237 OA
ATOM     93  O   UNL A   1      46.245  36.024  26.853  1.00  0.00    -0.744 OA
ENDBRANCH  86  90
ENDBRANCH  60  83
ENDBRANCH  34  35
ENDBRANCH  26  29
ENDBRANCH  24  25
ENDBRANCH  23  24
ENDBRANCH  22  23
ENDBRANCH   1  22
TORSDOF 19
ENDMDL
MODEL 3
REMARK VINA RESULT:     -10.4      8.620     13.200
REMARK SMILES CCc1n[nH]c2cc(CCC(=O)NCCCCCCNC(=O)c3ccc(-c4c5nc(c(-c6cc(S(=O)(=O)[O-])ccc6F)c6ccc([nH]6)c(-c6cc(S(=O)(=O)[O-])ccc6F)c6nc(c(-c7cc(S(=O)(=O)[O-])ccc7F)c7ccc4[nH]7)C=C6)C=C5)cc3)ccc12
REMARK SMILES IDX 16 1 15 2 14 3 13 4 11 5 12 6 10 8 9 9 8 10 3 11 4 12 88 13
REMARK SMILES IDX 5 14 6 15 87 16 7 18 86 19 2 20 1 21 17 22 18 23 19 24 20 25
REMARK SMILES IDX 21 26 22 28 23 29 24 30 85 31 25 32 84 33 26 34 27 35 28 36
REMARK SMILES IDX 78 37 29 38 83 39 77 40 79 41 30 42 82 43 76 44 75 45 31 47
REMARK SMILES IDX 63 48 43 49 62 50 44 51 47 52 61 53 80 54 45 55 46 56 60 58
REMARK SMILES IDX 81 59 48 60 32 61 33 62 41 63 34 64 40 65 42 66 39 67 35 68
REMARK SMILES IDX 36 69 37 70 38 71 64 72 65 73 73 74 66 75 72 76 74 77 71 78
REMARK SMILES IDX 67 79 68 80 69 81 70 82 49 83 50 84 58 85 51 86 57 87 59 88
REMARK SMILES IDX 56 89 52 90 53 91 54 92 55 93
REMARK H PARENT 13 7 5 17 20 27 79 46 47 57
REMARK Flexibility Score: inf
ROOT
ATOM      1  C   UNL A   1      39.901  23.445  27.221  1.00  0.00     0.002 C 
ENDROOT
BRANCH   1   2
ATOM      2  C   UNL A   1      38.978  24.397  26.458  1.00  0.00     0.021 C 
BRANCH   2   3
ATOM      3  C   UNL A   1      37.575  23.883  26.136  1.00  0.00     0.116 C 
BRANCH   3   4
ATOM      4  N   UNL A   1      37.466  23.565  24.720  1.00  0.00    -0.356 N 
ATOM      5  C   UNL A   1      36.368  23.526  23.914  1.00  0.00     0.220 C 
ATOM      6  O   UNL A   1      36.479  22.999  22.804  1.00  0.00    -0.275 OA
ATOM      7  H   UNL A   1      38.316  23.344  24.276  1.00  0.00     0.163 HD
BRANCH   5   8
ATOM      8  C   UNL A   1      35.052  24.155  24.335  1.00  0.00     0.105 C 
BRANCH   8   9
ATOM      9  C   UNL A   1      34.385  23.442  25.516  1.00  0.00     0.045 C 
BRANCH   9  10
ATOM     10  C   UNL A   1      33.753  22.127  25.120  1.00  0.00    -0.045 A 
ATOM     11  C   UNL A   1      32.565  18.538  23.347  1.00  0.00     0.070 A 
ATOM     12  N   UNL A   1      32.001  18.992  22.218  1.00  0.00    -0.180 NA
ATOM     13  C   UNL A   1      32.959  19.600  24.204  1.00  0.00     0.023 A 
ATOM     14  N   UNL A   1      32.012  20.327  22.367  1.00  0.00    -0.278 N 
ATOM     15  C   UNL A   1      32.626  20.758  23.512  1.00  0.00     0.066 A 
ATOM     16  C   UNL A   1      33.607  19.709  25.445  1.00  0.00     0.012 A 
ATOM     17  H   UNL A   1      31.613  20.942  21.709  1.00  0.00     0.190 HD
ATOM     18  C   UNL A   1      32.978  22.040  23.953  1.00  0.00     0.032 A 
ATOM     19  C   UNL A   1      34.003  20.977  25.885  1.00  0.00     0.004 A 
BRANCH  11  20
ATOM     20  C   UNL A   1      32.791  17.075  23.539  1.00  0.00     0.055 C 
ATOM     21  C   UNL A   1      34.228  16.669  23.272  1.00  0.00     0.011 C 
ENDBRANCH  11  20
ENDBRANCH   9  10
ENDBRANCH   8   9
ENDBRANCH   5   8
ENDBRANCH   3   4
ENDBRANCH   2   3
ENDBRANCH   1   2
BRANCH   1  22
ATOM     22  C   UNL A   1      39.861  21.980  26.770  1.00  0.00     0.002 C 
BRANCH  22  23
ATOM     23  C   UNL A   1      40.954  21.055  27.327  1.00  0.00     0.021 C 
BRANCH  23  24
ATOM     24  C   UNL A   1      42.389  21.587  27.279  1.00  0.00     0.116 C 
BRANCH  24  25
ATOM     25  N   UNL A   1      42.914  21.694  25.932  1.00  0.00    -0.352 N 
ATOM     26  C   UNL A   1      43.288  22.792  25.192  1.00  0.00     0.251 C 
ATOM     27  H   UNL A   1      43.024  20.833  25.468  1.00  0.00     0.163 HD
ATOM     28  O   UNL A   1      43.634  22.610  24.027  1.00  0.00    -0.269 OA
BRANCH  26  29
ATOM     29  C   UNL A   1      43.237  24.181  25.726  1.00  0.00     0.039 A 
ATOM     30  C   UNL A   1      43.656  24.375  27.048  1.00  0.00     0.014 A 
ATOM     31  C   UNL A   1      42.732  25.272  25.012  1.00  0.00     0.014 A 
ATOM     32  C   UNL A   1      43.616  25.648  27.628  1.00  0.00     0.010 A 
ATOM     33  C   UNL A   1      42.750  26.561  25.577  1.00  0.00     0.010 A 
ATOM     34  C   UNL A   1      43.194  26.768  26.893  1.00  0.00    -0.014 A 
BRANCH  34  35
ATOM     35  C   UNL A   1      43.243  28.124  27.524  1.00  0.00     0.031 A 
ATOM     36  C   UNL A   1      42.016  28.759  28.128  1.00  0.00     0.074 A 
ATOM     37  C   UNL A   1      44.422  28.778  27.597  1.00  0.00     0.049 A 
ATOM     38  N   UNL A   1      41.915  29.867  28.825  1.00  0.00    -0.248 NA
ATOM     39  C   UNL A   1      40.736  28.074  27.910  1.00  0.00     0.031 C 
ATOM     40  C   UNL A   1      45.682  28.304  27.019  1.00  0.00     0.029 A 
ATOM     41  N   UNL A   1      44.766  29.962  28.205  1.00  0.00    -0.354 N 
ATOM     42  C   UNL A   1      40.567  30.005  29.137  1.00  0.00     0.074 A 
ATOM     43  C   UNL A   1      39.881  28.902  28.494  1.00  0.00     0.031 C 
ATOM     44  C   UNL A   1      46.666  29.156  27.347  1.00  0.00     0.029 A 
ATOM     45  C   UNL A   1      46.109  30.260  28.123  1.00  0.00     0.049 A 
ATOM     46  H   UNL A   1      44.114  30.544  28.658  1.00  0.00     0.167 HD
ATOM     47  C   UNL A   1      39.957  30.945  29.906  1.00  0.00     0.034 A 
ATOM     48  C   UNL A   1      46.819  31.295  28.618  1.00  0.00     0.034 A 
ATOM     49  C   UNL A   1      40.645  32.052  30.536  1.00  0.00     0.049 A 
ATOM     50  C   UNL A   1      46.117  32.341  29.447  1.00  0.00     0.074 A 
ATOM     51  C   UNL A   1      40.122  33.032  31.363  1.00  0.00     0.029 A 
ATOM     52  N   UNL A   1      41.997  32.339  30.398  1.00  0.00    -0.354 N 
ATOM     53  N   UNL A   1      44.851  32.415  29.787  1.00  0.00    -0.248 NA
ATOM     54  C   UNL A   1      46.946  33.430  29.977  1.00  0.00     0.031 C 
ATOM     55  C   UNL A   1      41.135  33.952  31.657  1.00  0.00     0.029 A 
ATOM     56  C   UNL A   1      42.316  33.498  31.094  1.00  0.00     0.049 A 
ATOM     57  H   UNL A   1      42.637  31.799  29.881  1.00  0.00     0.167 HD
ATOM     58  C   UNL A   1      44.743  33.542  30.601  1.00  0.00     0.074 A 
ATOM     59  C   UNL A   1      46.075  34.095  30.720  1.00  0.00     0.031 C 
ATOM     60  C   UNL A   1      43.641  34.066  31.199  1.00  0.00     0.034 A 
BRANCH  47  61
ATOM     61  C   UNL A   1      38.458  30.834  30.087  1.00  0.00     0.023 A 
ATOM     62  C   UNL A   1      37.557  31.446  29.196  1.00  0.00     0.031 A 
ATOM     63  C   UNL A   1      37.919  30.113  31.168  1.00  0.00     0.131 A 
ATOM     64  C   UNL A   1      36.176  31.388  29.442  1.00  0.00     0.055 A 
ATOM     65  C   UNL A   1      36.541  29.987  31.359  1.00  0.00     0.041 A 
ATOM     66  F   UNL A   1      38.725  29.521  32.064  1.00  0.00    -0.206 F 
ATOM     67  C   UNL A   1      35.660  30.639  30.502  1.00  0.00     0.022 A 
BRANCH  64  68
ATOM     68  S   UNL A   1      35.071  32.425  28.444  1.00  0.00     0.124 S 
ATOM     69  O   UNL A   1      36.022  33.132  27.589  1.00  0.00    -0.237 OA
ATOM     70  O   UNL A   1      34.226  31.439  27.782  1.00  0.00    -0.237 OA
ATOM     71  O   UNL A   1      34.397  33.261  29.435  1.00  0.00    -0.744 OA
ENDBRANCH  64  68
ENDBRANCH  47  61
BRANCH  48  72
ATOM     72  C   UNL A   1      48.285  31.407  28.346  1.00  0.00     0.023 A 
ATOM     73  C   UNL A   1      48.785  32.301  27.385  1.00  0.00     0.031 A 
ATOM     74  C   UNL A   1      49.204  30.570  29.006  1.00  0.00     0.131 A 
ATOM     75  C   UNL A   1      50.155  32.299  27.073  1.00  0.00     0.055 A 
ATOM     76  C   UNL A   1      50.573  30.618  28.738  1.00  0.00     0.041 A 
ATOM     77  F   UNL A   1      48.781  29.696  29.934  1.00  0.00    -0.206 F 
ATOM     78  C   UNL A   1      51.053  31.475  27.754  1.00  0.00     0.022 A 
BRANCH  75  79
ATOM     79  S   UNL A   1      50.735  33.319  25.688  1.00  0.00     0.124 S 
ATOM     80  O   UNL A   1      51.202  32.307  24.749  1.00  0.00    -0.237 OA
ATOM     81  O   UNL A   1      49.522  34.036  25.311  1.00  0.00    -0.237 OA
ATOM     82  O   UNL A   1      51.781  34.144  26.290  1.00  0.00    -0.744 OA
ENDBRANCH  75  79
ENDBRANCH  48  72
BRANCH  60  83
ATOM     83  C   UNL A   1      43.849  35.283  32.077  1.00  0.00     0.023 A 
ATOM     84  C   UNL A   1      44.018  35.178  33.469  1.00  0.00     0.031 A 
ATOM     85  C   UNL A   1      43.823  36.573  31.516  1.00  0.00     0.131 A 
ATOM     86  C   UNL A   1      44.063  36.337  34.261  1.00  0.00     0.055 A 
ATOM     87  C   UNL A   1      43.950  37.722  32.301  1.00  0.00     0.041 A 
ATOM     88  F   UNL A   1      43.661  36.743  30.194  1.00  0.00    -0.206 F 
ATOM     89  C   UNL A   1      44.049  37.608  33.684  1.00  0.00     0.022 A 
BRANCH  86  90
ATOM     90  S   UNL A   1      43.989  36.160  36.066  1.00  0.00     0.124 S 
ATOM     91  O   UNL A   1      42.928  35.173  36.231  1.00  0.00    -0.237 OA
ATOM     92  O   UNL A   1      45.338  35.706  36.390  1.00  0.00    -0.237 OA
ATOM     93  O   UNL A   1      43.662  37.508  36.529  1.00  0.00    -0.744 OA
ENDBRANCH  86  90
ENDBRANCH  60  83
ENDBRANCH  34  35
ENDBRANCH  26  29
ENDBRANCH  24  25
ENDBRANCH  23  24
ENDBRANCH  22  23
ENDBRANCH   1  22
TORSDOF 19
ENDMDL
