MODEL 1
REMARK VINA RESULT:      -8.8      0.000      0.000
REMARK SMILES CCCCCCOC(=O)Nc1cccc(-c2ccc([C@@H](C)C(=O)NCCCCCCNC(=O)c3ccc(-c4c5nc(c(-c6cc(S(=O)(=O)[O-])ccc6F)c6ccc([nH]6)c(-c6cc(S(=O)(=O)[O-])ccc6F)c6nc(c(-c7cc(S(=O)(=O)[O-])ccc7F)c7ccc4[nH]7)C=C6)C=C5)cc3)cc2F)c1
REMARK SMILES IDX 22 1 23 2 24 3 20 5 21 6 19 7 16 8 17 9 98 10 18 11 97 12
REMARK SMILES IDX 99 13 15 14 11 15 12 16 100 17 13 18 14 19 10 20 8 21 9 22
REMARK SMILES IDX 7 24 6 25 5 26 4 27 3 28 2 29 1 30 25 31 26 32 27 33 28 34
REMARK SMILES IDX 29 35 30 36 31 37 32 38 33 40 34 41 35 42 96 43 36 44 95 45
REMARK SMILES IDX 37 46 38 47 39 48 89 49 40 50 94 51 88 52 90 53 41 54 93 55
REMARK SMILES IDX 87 56 86 57 42 59 74 60 54 61 73 62 55 63 58 64 72 65 91 66
REMARK SMILES IDX 56 67 57 68 71 70 92 71 59 72 43 73 44 74 52 75 45 76 51 77
REMARK SMILES IDX 53 78 50 79 46 80 47 81 48 82 49 83 75 84 76 85 84 86 77 87
REMARK SMILES IDX 83 88 85 89 82 90 78 91 79 92 80 93 81 94 60 95 61 96 69 97
REMARK SMILES IDX 62 98 68 99 70 100 67 101 63 102 64 103 65 104 66 105
REMARK H PARENT 24 4 10 23 31 39 90 58 58 69
REMARK Flexibility Score: inf
ROOT
ATOM      1  C   UNL A   1      40.021  28.779  27.280  1.00  0.00     0.227 C 
ATOM      2  O   UNL A   1      39.892  29.321  26.174  1.00  0.00    -0.274 OA
ATOM      3  N   UNL A   1      38.934  28.804  28.097  1.00  0.00    -0.356 N 
ATOM      4  H   UNL A   1      38.124  29.182  27.685  1.00  0.00     0.163 HD
ENDROOT
BRANCH   1   5
ATOM      5  C   UNL A   1      41.353  28.112  27.655  1.00  0.00     0.105 C 
ATOM      6  C   UNL A   1      42.587  28.920  27.260  1.00  0.00     0.023 C 
BRANCH   5   7
ATOM      7  C   UNL A   1      41.404  26.625  27.340  1.00  0.00    -0.033 A 
ATOM      8  C   UNL A   1      41.361  23.800  26.894  1.00  0.00     0.018 A 
ATOM      9  C   UNL A   1      41.068  24.707  25.867  1.00  0.00     0.012 A 
ATOM     10  C   UNL A   1      41.729  24.352  28.132  1.00  0.00     0.131 A 
ATOM     11  C   UNL A   1      41.124  26.091  26.077  1.00  0.00     0.005 A 
ATOM     12  C   UNL A   1      41.729  25.727  28.364  1.00  0.00     0.044 A 
ATOM     13  F   UNL A   1      42.099  23.559  29.152  1.00  0.00    -0.206 F 
BRANCH   8  14
ATOM     14  C   UNL A   1      41.266  22.342  26.680  1.00  0.00    -0.013 A 
ATOM     15  C   UNL A   1      42.381  20.172  26.457  1.00  0.00     0.045 A 
ATOM     16  C   UNL A   1      41.172  19.568  26.129  1.00  0.00     0.026 A 
ATOM     17  C   UNL A   1      42.416  21.539  26.747  1.00  0.00     0.035 A 
ATOM     18  C   UNL A   1      40.002  20.326  26.129  1.00  0.00     0.003 A 
ATOM     19  C   UNL A   1      40.051  21.700  26.390  1.00  0.00     0.009 A 
BRANCH  15  20
ATOM     20  N   UNL A   1      43.560  19.421  26.369  1.00  0.00    -0.291 N 
ATOM     21  C   UNL A   1      44.242  19.094  25.225  1.00  0.00     0.411 C 
ATOM     22  O   UNL A   1      44.903  18.076  25.147  1.00  0.00    -0.224 OA
ATOM     23  H   UNL A   1      43.939  19.093  27.216  1.00  0.00     0.173 HD
BRANCH  21  24
ATOM     24  O   UNL A   1      44.184  20.078  24.286  1.00  0.00    -0.449 OA
BRANCH  24  25
ATOM     25  C   UNL A   1      45.115  21.166  24.372  1.00  0.00     0.235 C 
BRANCH  25  26
ATOM     26  C   UNL A   1      44.655  22.389  23.572  1.00  0.00     0.042 C 
BRANCH  26  27
ATOM     27  C   UNL A   1      44.121  23.562  24.402  1.00  0.00     0.003 C 
BRANCH  27  28
ATOM     28  C   UNL A   1      45.036  24.010  25.551  1.00  0.00    -0.000 C 
BRANCH  28  29
ATOM     29  C   UNL A   1      45.377  25.499  25.558  1.00  0.00    -0.003 C 
ATOM     30  C   UNL A   1      45.107  26.154  26.902  1.00  0.00     0.004 C 
ENDBRANCH  28  29
ENDBRANCH  27  28
ENDBRANCH  26  27
ENDBRANCH  25  26
ENDBRANCH  24  25
ENDBRANCH  21  24
ENDBRANCH  15  20
ENDBRANCH   8  14
ENDBRANCH   5   7
ENDBRANCH   1   5
BRANCH   3  31
ATOM     31  C   UNL A   1      38.758  28.369  29.466  1.00  0.00     0.116 C 
BRANCH  31  32
ATOM     32  C   UNL A   1      37.748  29.246  30.210  1.00  0.00     0.021 C 
BRANCH  32  33
ATOM     33  C   UNL A   1      36.906  30.129  29.284  1.00  0.00     0.002 C 
BRANCH  33  34
ATOM     34  C   UNL A   1      37.448  31.550  29.079  1.00  0.00     0.002 C 
BRANCH  34  35
ATOM     35  C   UNL A   1      36.425  32.577  28.585  1.00  0.00     0.021 C 
BRANCH  35  36
ATOM     36  C   UNL A   1      34.971  32.214  28.879  1.00  0.00     0.116 C 
BRANCH  36  37
ATOM     37  N   UNL A   1      34.252  33.331  29.470  1.00  0.00    -0.352 N 
ATOM     38  C   UNL A   1      34.343  33.859  30.733  1.00  0.00     0.251 C 
ATOM     39  H   UNL A   1      33.604  33.774  28.876  1.00  0.00     0.163 HD
ATOM     40  O   UNL A   1      33.466  34.616  31.139  1.00  0.00    -0.269 OA
BRANCH  38  41
ATOM     41  C   UNL A   1      35.490  33.510  31.601  1.00  0.00     0.039 A 
ATOM     42  C   UNL A   1      35.468  32.303  32.303  1.00  0.00     0.014 A 
ATOM     43  C   UNL A   1      36.569  34.387  31.746  1.00  0.00     0.014 A 
ATOM     44  C   UNL A   1      36.552  31.951  33.111  1.00  0.00     0.010 A 
ATOM     45  C   UNL A   1      37.680  34.002  32.493  1.00  0.00     0.010 A 
ATOM     46  C   UNL A   1      37.681  32.785  33.189  1.00  0.00    -0.014 A 
BRANCH  46  47
ATOM     47  C   UNL A   1      38.864  32.401  34.003  1.00  0.00     0.031 A 
ATOM     48  C   UNL A   1      38.952  32.815  35.447  1.00  0.00     0.074 A 
ATOM     49  C   UNL A   1      39.880  31.731  33.426  1.00  0.00     0.049 A 
ATOM     50  N   UNL A   1      39.927  32.638  36.303  1.00  0.00    -0.248 NA
ATOM     51  C   UNL A   1      37.802  33.549  35.993  1.00  0.00     0.031 C 
ATOM     52  C   UNL A   1      39.924  31.308  32.024  1.00  0.00     0.029 A 
ATOM     53  N   UNL A   1      41.075  31.292  33.941  1.00  0.00    -0.354 N 
ATOM     54  C   UNL A   1      39.514  33.247  37.482  1.00  0.00     0.074 A 
ATOM     55  C   UNL A   1      38.227  33.854  37.210  1.00  0.00     0.031 C 
ATOM     56  C   UNL A   1      41.072  30.648  31.799  1.00  0.00     0.029 A 
ATOM     57  C   UNL A   1      41.867  30.642  33.023  1.00  0.00     0.049 A 
ATOM     58  H   UNL A   1      41.339  31.429  34.879  1.00  0.00     0.167 HD
ATOM     59  C   UNL A   1      40.136  33.274  38.687  1.00  0.00     0.034 A 
ATOM     60  C   UNL A   1      43.100  30.112  33.149  1.00  0.00     0.034 A 
ATOM     61  C   UNL A   1      41.415  32.656  38.942  1.00  0.00     0.049 A 
ATOM     62  C   UNL A   1      43.787  30.183  34.489  1.00  0.00     0.074 A 
ATOM     63  C   UNL A   1      42.115  32.581  40.133  1.00  0.00     0.029 A 
ATOM     64  N   UNL A   1      42.191  32.010  37.986  1.00  0.00    -0.354 N 
ATOM     65  N   UNL A   1      43.361  30.722  35.610  1.00  0.00    -0.248 NA
ATOM     66  C   UNL A   1      45.116  29.564  34.586  1.00  0.00     0.031 C 
ATOM     67  C   UNL A   1      43.343  31.957  39.883  1.00  0.00     0.029 A 
ATOM     68  C   UNL A   1      43.376  31.566  38.555  1.00  0.00     0.049 A 
ATOM     69  H   UNL A   1      41.938  31.887  37.043  1.00  0.00     0.167 HD
ATOM     70  C   UNL A   1      44.357  30.476  36.551  1.00  0.00     0.074 A 
ATOM     71  C   UNL A   1      45.395  29.728  35.870  1.00  0.00     0.031 C 
ATOM     72  C   UNL A   1      44.408  30.831  37.861  1.00  0.00     0.034 A 
BRANCH  59  73
ATOM     73  C   UNL A   1      39.452  34.022  39.808  1.00  0.00     0.023 A 
ATOM     74  C   UNL A   1      38.467  33.414  40.608  1.00  0.00     0.031 A 
ATOM     75  C   UNL A   1      39.766  35.367  40.067  1.00  0.00     0.131 A 
ATOM     76  C   UNL A   1      37.778  34.169  41.569  1.00  0.00     0.055 A 
ATOM     77  C   UNL A   1      39.138  36.089  41.085  1.00  0.00     0.041 A 
ATOM     78  F   UNL A   1      40.682  36.011  39.325  1.00  0.00    -0.206 F 
ATOM     79  C   UNL A   1      38.126  35.496  41.832  1.00  0.00     0.022 A 
BRANCH  76  80
ATOM     80  S   UNL A   1      36.320  33.438  42.363  1.00  0.00     0.124 S 
ATOM     81  O   UNL A   1      36.871  32.198  42.904  1.00  0.00    -0.237 OA
ATOM     82  O   UNL A   1      35.952  34.455  43.342  1.00  0.00    -0.237 OA
ATOM     83  O   UNL A   1      35.379  33.264  41.258  1.00  0.00    -0.744 OA
ENDBRANCH  76  80
ENDBRANCH  59  73
BRANCH  60  84
ATOM     84  C   UNL A   1      43.773  29.475  31.980  1.00  0.00     0.023 A 
ATOM     85  C   UNL A   1      44.523  30.240  31.073  1.00  0.00     0.031 A 
ATOM     86  C   UNL A   1      43.639  28.097  31.728  1.00  0.00     0.131 A 
ATOM     87  C   UNL A   1      45.068  29.634  29.930  1.00  0.00     0.055 A 
ATOM     88  C   UNL A   1      44.231  27.489  30.619  1.00  0.00     0.041 A 
ATOM     89  F   UNL A   1      42.937  27.318  32.566  1.00  0.00    -0.206 F 
ATOM     90  C   UNL A   1      44.940  28.262  29.704  1.00  0.00     0.022 A 
BRANCH  87  91
ATOM     91  S   UNL A   1      45.871  30.687  28.690  1.00  0.00     0.124 S 
ATOM     92  O   UNL A   1      46.246  29.714  27.671  1.00  0.00    -0.237 OA
ATOM     93  O   UNL A   1      44.796  31.608  28.334  1.00  0.00    -0.237 OA
ATOM     94  O   UNL A   1      46.984  31.285  29.423  1.00  0.00    -0.744 OA
ENDBRANCH  87  91
ENDBRANCH  60  84
BRANCH  72  95
ATOM     95  C   UNL A   1      45.610  30.369  38.650  1.00  0.00     0.023 A 
ATOM     96  C   UNL A   1      45.614  29.152  39.352  1.00  0.00     0.031 A 
ATOM     97  C   UNL A   1      46.766  31.170  38.708  1.00  0.00     0.131 A 
ATOM     98  C   UNL A   1      46.726  28.799  40.133  1.00  0.00     0.055 A 
ATOM     99  C   UNL A   1      47.894  30.782  39.432  1.00  0.00     0.041 A 
ATOM    100  F   UNL A   1      46.818  32.344  38.058  1.00  0.00    -0.206 F 
ATOM    101  C   UNL A   1      47.873  29.597  40.162  1.00  0.00     0.022 A 
BRANCH  98 102
ATOM    102  S   UNL A   1      46.615  27.330  41.191  1.00  0.00     0.124 S 
ATOM    103  O   UNL A   1      45.624  26.523  40.488  1.00  0.00    -0.237 OA
ATOM    104  O   UNL A   1      47.984  26.823  41.165  1.00  0.00    -0.237 OA
ATOM    105  O   UNL A   1      46.179  27.867  42.479  1.00  0.00    -0.744 OA
ENDBRANCH  98 102
ENDBRANCH  72  95
ENDBRANCH  46  47
ENDBRANCH  38  41
ENDBRANCH  36  37
ENDBRANCH  35  36
ENDBRANCH  34  35
ENDBRANCH  33  34
ENDBRANCH  32  33
ENDBRANCH  31  32
ENDBRANCH   3  31
TORSDOF 25
ENDMDL
MODEL 2
REMARK VINA RESULT:      -8.3      1.139      7.607
REMARK SMILES CCCCCCOC(=O)Nc1cccc(-c2ccc([C@@H](C)C(=O)NCCCCCCNC(=O)c3ccc(-c4c5nc(c(-c6cc(S(=O)(=O)[O-])ccc6F)c6ccc([nH]6)c(-c6cc(S(=O)(=O)[O-])ccc6F)c6nc(c(-c7cc(S(=O)(=O)[O-])ccc7F)c7ccc4[nH]7)C=C6)C=C5)cc3)cc2F)c1
REMARK SMILES IDX 22 1 23 2 24 3 20 5 21 6 19 7 16 8 17 9 98 10 18 11 97 12
REMARK SMILES IDX 99 13 15 14 11 15 12 16 100 17 13 18 14 19 10 20 8 21 9 22
REMARK SMILES IDX 7 24 6 25 5 26 4 27 3 28 2 29 1 30 25 31 26 32 27 33 28 34
REMARK SMILES IDX 29 35 30 36 31 37 32 38 33 40 34 41 35 42 96 43 36 44 95 45
REMARK SMILES IDX 37 46 38 47 39 48 89 49 40 50 94 51 88 52 90 53 41 54 93 55
REMARK SMILES IDX 87 56 86 57 42 59 74 60 54 61 73 62 55 63 58 64 72 65 91 66
REMARK SMILES IDX 56 67 57 68 71 70 92 71 59 72 43 73 44 74 52 75 45 76 51 77
REMARK SMILES IDX 53 78 50 79 46 80 47 81 48 82 49 83 75 84 76 85 84 86 77 87
REMARK SMILES IDX 83 88 85 89 82 90 78 91 79 92 80 93 81 94 60 95 61 96 69 97
REMARK SMILES IDX 62 98 68 99 70 100 67 101 63 102 64 103 65 104 66 105
REMARK H PARENT 24 4 10 23 31 39 90 58 58 69
REMARK Flexibility Score: inf
ROOT
ATOM      1  C   UNL A   1      39.932  28.656  27.738  1.00  0.00     0.227 C 
ATOM      2  O   UNL A   1      39.783  29.013  26.562  1.00  0.00    -0.274 OA
ATOM      3  N   UNL A   1      38.813  28.252  28.396  1.00  0.00    -0.356 N 
ATOM      4  H   UNL A   1      38.005  28.210  27.835  1.00  0.00     0.163 HD
ENDROOT
BRANCH   1   5
ATOM      5  C   UNL A   1      41.333  28.667  28.369  1.00  0.00     0.105 C 
ATOM      6  C   UNL A   1      41.809  30.052  28.805  1.00  0.00     0.023 C 
BRANCH   5   7
ATOM      7  C   UNL A   1      42.351  27.822  27.619  1.00  0.00    -0.033 A 
ATOM      8  C   UNL A   1      44.139  26.073  26.231  1.00  0.00     0.018 A 
ATOM      9  C   UNL A   1      43.633  27.231  25.627  1.00  0.00     0.012 A 
ATOM     10  C   UNL A   1      43.766  25.848  27.567  1.00  0.00     0.131 A 
ATOM     11  C   UNL A   1      42.785  28.106  26.319  1.00  0.00     0.005 A 
ATOM     12  C   UNL A   1      42.876  26.684  28.242  1.00  0.00     0.044 A 
ATOM     13  F   UNL A   1      44.262  24.803  28.250  1.00  0.00    -0.206 F 
BRANCH   8  14
ATOM     14  C   UNL A   1      45.003  25.134  25.488  1.00  0.00    -0.013 A 
ATOM     15  C   UNL A   1      45.226  23.114  24.121  1.00  0.00     0.045 A 
ATOM     16  C   UNL A   1      46.612  23.215  24.171  1.00  0.00     0.026 A 
ATOM     17  C   UNL A   1      44.437  24.077  24.757  1.00  0.00     0.035 A 
ATOM     18  C   UNL A   1      47.200  24.297  24.825  1.00  0.00     0.003 A 
ATOM     19  C   UNL A   1      46.403  25.239  25.485  1.00  0.00     0.009 A 
BRANCH  15  20
ATOM     20  N   UNL A   1      44.650  21.978  23.537  1.00  0.00    -0.291 N 
ATOM     21  C   UNL A   1      44.443  20.762  24.136  1.00  0.00     0.411 C 
ATOM     22  O   UNL A   1      44.438  19.729  23.493  1.00  0.00    -0.224 OA
ATOM     23  H   UNL A   1      44.364  22.061  22.598  1.00  0.00     0.173 HD
BRANCH  21  24
ATOM     24  O   UNL A   1      44.133  20.878  25.456  1.00  0.00    -0.449 OA
BRANCH  24  25
ATOM     25  C   UNL A   1      42.953  20.224  25.945  1.00  0.00     0.235 C 
BRANCH  25  26
ATOM     26  C   UNL A   1      42.196  21.078  26.967  1.00  0.00     0.042 C 
BRANCH  26  27
ATOM     27  C   UNL A   1      41.352  22.218  26.383  1.00  0.00     0.003 C 
BRANCH  27  28
ATOM     28  C   UNL A   1      40.261  22.757  27.319  1.00  0.00    -0.000 C 
BRANCH  28  29
ATOM     29  C   UNL A   1      40.380  24.242  27.659  1.00  0.00    -0.003 C 
ATOM     30  C   UNL A   1      40.041  25.140  26.482  1.00  0.00     0.004 C 
ENDBRANCH  28  29
ENDBRANCH  27  28
ENDBRANCH  26  27
ENDBRANCH  25  26
ENDBRANCH  24  25
ENDBRANCH  21  24
ENDBRANCH  15  20
ENDBRANCH   8  14
ENDBRANCH   5   7
ENDBRANCH   1   5
BRANCH   3  31
ATOM     31  C   UNL A   1      38.601  27.873  29.776  1.00  0.00     0.116 C 
BRANCH  31  32
ATOM     32  C   UNL A   1      38.283  29.088  30.650  1.00  0.00     0.021 C 
BRANCH  32  33
ATOM     33  C   UNL A   1      37.182  29.986  30.075  1.00  0.00     0.002 C 
BRANCH  33  34
ATOM     34  C   UNL A   1      37.683  31.284  29.427  1.00  0.00     0.002 C 
BRANCH  34  35
ATOM     35  C   UNL A   1      36.633  32.066  28.630  1.00  0.00     0.021 C 
BRANCH  35  36
ATOM     36  C   UNL A   1      35.187  31.701  28.961  1.00  0.00     0.116 C 
BRANCH  36  37
ATOM     37  N   UNL A   1      34.421  32.871  29.360  1.00  0.00    -0.352 N 
ATOM     38  C   UNL A   1      34.441  33.567  30.543  1.00  0.00     0.251 C 
ATOM     39  H   UNL A   1      33.796  33.215  28.682  1.00  0.00     0.163 HD
ATOM     40  O   UNL A   1      33.532  34.351  30.799  1.00  0.00    -0.269 OA
BRANCH  38  41
ATOM     41  C   UNL A   1      35.548  33.366  31.503  1.00  0.00     0.039 A 
ATOM     42  C   UNL A   1      35.539  32.235  32.322  1.00  0.00     0.014 A 
ATOM     43  C   UNL A   1      36.576  34.307  31.616  1.00  0.00     0.014 A 
ATOM     44  C   UNL A   1      36.588  32.022  33.220  1.00  0.00     0.010 A 
ATOM     45  C   UNL A   1      37.656  34.056  32.458  1.00  0.00     0.010 A 
ATOM     46  C   UNL A   1      37.671  32.915  33.274  1.00  0.00    -0.014 A 
BRANCH  46  47
ATOM     47  C   UNL A   1      38.820  32.676  34.188  1.00  0.00     0.031 A 
ATOM     48  C   UNL A   1      40.101  32.095  33.653  1.00  0.00     0.074 A 
ATOM     49  C   UNL A   1      38.686  32.928  35.504  1.00  0.00     0.049 A 
ATOM     50  N   UNL A   1      41.187  31.750  34.297  1.00  0.00    -0.248 NA
ATOM     51  C   UNL A   1      40.156  31.844  32.205  1.00  0.00     0.031 C 
ATOM     52  C   UNL A   1      37.480  33.457  36.144  1.00  0.00     0.029 A 
ATOM     53  N   UNL A   1      39.569  32.769  36.544  1.00  0.00    -0.354 N 
ATOM     54  C   UNL A   1      42.050  31.233  33.337  1.00  0.00     0.074 A 
ATOM     55  C   UNL A   1      41.333  31.249  32.078  1.00  0.00     0.031 C 
ATOM     56  C   UNL A   1      37.708  33.605  37.459  1.00  0.00     0.029 A 
ATOM     57  C   UNL A   1      39.056  33.136  37.766  1.00  0.00     0.049 A 
ATOM     58  H   UNL A   1      40.484  32.425  36.425  1.00  0.00     0.167 HD
ATOM     59  C   UNL A   1      43.329  30.808  33.486  1.00  0.00     0.034 A 
ATOM     60  C   UNL A   1      39.604  33.089  38.997  1.00  0.00     0.034 A 
ATOM     61  C   UNL A   1      44.031  30.807  34.748  1.00  0.00     0.049 A 
ATOM     62  C   UNL A   1      41.016  32.582  39.143  1.00  0.00     0.074 A 
ATOM     63  C   UNL A   1      45.340  30.443  35.005  1.00  0.00     0.029 A 
ATOM     64  N   UNL A   1      43.476  31.181  35.966  1.00  0.00    -0.354 N 
ATOM     65  N   UNL A   1      41.837  32.140  38.217  1.00  0.00    -0.248 NA
ATOM     66  C   UNL A   1      41.581  32.579  40.499  1.00  0.00     0.031 C 
ATOM     67  C   UNL A   1      45.556  30.528  36.386  1.00  0.00     0.029 A 
ATOM     68  C   UNL A   1      44.408  31.024  36.982  1.00  0.00     0.049 A 
ATOM     69  H   UNL A   1      42.557  31.508  36.091  1.00  0.00     0.167 HD
ATOM     70  C   UNL A   1      43.025  31.838  38.877  1.00  0.00     0.074 A 
ATOM     71  C   UNL A   1      42.818  32.164  40.273  1.00  0.00     0.031 C 
ATOM     72  C   UNL A   1      44.185  31.342  38.373  1.00  0.00     0.034 A 
BRANCH  59  73
ATOM     73  C   UNL A   1      44.037  30.284  32.257  1.00  0.00     0.023 A 
ATOM     74  C   UNL A   1      44.756  31.136  31.399  1.00  0.00     0.031 A 
ATOM     75  C   UNL A   1      43.973  28.920  31.923  1.00  0.00     0.131 A 
ATOM     76  C   UNL A   1      45.311  30.633  30.213  1.00  0.00     0.055 A 
ATOM     77  C   UNL A   1      44.603  28.410  30.785  1.00  0.00     0.041 A 
ATOM     78  F   UNL A   1      43.285  28.059  32.689  1.00  0.00    -0.206 F 
ATOM     79  C   UNL A   1      45.263  29.270  29.913  1.00  0.00     0.022 A 
BRANCH  76  80
ATOM     80  S   UNL A   1      45.962  31.809  28.995  1.00  0.00     0.124 S 
ATOM     81  O   UNL A   1      46.450  32.884  29.856  1.00  0.00    -0.237 OA
ATOM     82  O   UNL A   1      46.984  31.022  28.313  1.00  0.00    -0.237 OA
ATOM     83  O   UNL A   1      44.792  32.148  28.187  1.00  0.00    -0.744 OA
ENDBRANCH  76  80
ENDBRANCH  59  73
BRANCH  60  84
ATOM     84  C   UNL A   1      38.822  33.524  40.190  1.00  0.00     0.023 A 
ATOM     85  C   UNL A   1      37.996  32.623  40.881  1.00  0.00     0.031 A 
ATOM     86  C   UNL A   1      38.854  34.859  40.632  1.00  0.00     0.131 A 
ATOM     87  C   UNL A   1      37.198  33.077  41.942  1.00  0.00     0.055 A 
ATOM     88  C   UNL A   1      38.102  35.293  41.725  1.00  0.00     0.041 A 
ATOM     89  F   UNL A   1      39.630  35.761  40.012  1.00  0.00    -0.206 F 
ATOM     90  C   UNL A   1      37.256  34.401  42.379  1.00  0.00     0.022 A 
BRANCH  87  91
ATOM     91  S   UNL A   1      36.010  31.927  42.688  1.00  0.00     0.124 S 
ATOM     92  O   UNL A   1      35.100  31.676  41.577  1.00  0.00    -0.237 OA
ATOM     93  O   UNL A   1      36.870  30.814  43.077  1.00  0.00    -0.237 OA
ATOM     94  O   UNL A   1      35.446  32.693  43.797  1.00  0.00    -0.744 OA
ENDBRANCH  87  91
ENDBRANCH  60  84
BRANCH  72  95
ATOM     95  C   UNL A   1      45.332  31.168  39.340  1.00  0.00     0.023 A 
ATOM     96  C   UNL A   1      45.475  30.008  40.120  1.00  0.00     0.031 A 
ATOM     97  C   UNL A   1      46.291  32.187  39.489  1.00  0.00     0.131 A 
ATOM     98  C   UNL A   1      46.515  29.920  41.059  1.00  0.00     0.055 A 
ATOM     99  C   UNL A   1      47.361  32.067  40.376  1.00  0.00     0.041 A 
ATOM    100  F   UNL A   1      46.202  33.318  38.770  1.00  0.00    -0.206 F 
ATOM    101  C   UNL A   1      47.469  30.934  41.179  1.00  0.00     0.022 A 
BRANCH  98 102
ATOM    102  S   UNL A   1      46.547  28.507  42.194  1.00  0.00     0.124 S 
ATOM    103  O   UNL A   1      47.979  28.259  42.330  1.00  0.00    -0.237 OA
ATOM    104  O   UNL A   1      45.878  29.041  43.377  1.00  0.00    -0.237 OA
ATOM    105  O   UNL A   1      45.803  27.473  41.477  1.00  0.00    -0.744 OA
ENDBRANCH  98 102
ENDBRANCH  72  95
ENDBRANCH  46  47
ENDBRANCH  38  41
ENDBRANCH  36  37
ENDBRANCH  35  36
ENDBRANCH  34  35
ENDBRANCH  33  34
ENDBRANCH  32  33
ENDBRANCH  31  32
ENDBRANCH   3  31
TORSDOF 25
ENDMDL
MODEL 3
REMARK VINA RESULT:      -8.1      1.032      2.301
REMARK SMILES CCCCCCOC(=O)Nc1cccc(-c2ccc([C@@H](C)C(=O)NCCCCCCNC(=O)c3ccc(-c4c5nc(c(-c6cc(S(=O)(=O)[O-])ccc6F)c6ccc([nH]6)c(-c6cc(S(=O)(=O)[O-])ccc6F)c6nc(c(-c7cc(S(=O)(=O)[O-])ccc7F)c7ccc4[nH]7)C=C6)C=C5)cc3)cc2F)c1
REMARK SMILES IDX 22 1 23 2 24 3 20 5 21 6 19 7 16 8 17 9 98 10 18 11 97 12
REMARK SMILES IDX 99 13 15 14 11 15 12 16 100 17 13 18 14 19 10 20 8 21 9 22
REMARK SMILES IDX 7 24 6 25 5 26 4 27 3 28 2 29 1 30 25 31 26 32 27 33 28 34
REMARK SMILES IDX 29 35 30 36 31 37 32 38 33 40 34 41 35 42 96 43 36 44 95 45
REMARK SMILES IDX 37 46 38 47 39 48 89 49 40 50 94 51 88 52 90 53 41 54 93 55
REMARK SMILES IDX 87 56 86 57 42 59 74 60 54 61 73 62 55 63 58 64 72 65 91 66
REMARK SMILES IDX 56 67 57 68 71 70 92 71 59 72 43 73 44 74 52 75 45 76 51 77
REMARK SMILES IDX 53 78 50 79 46 80 47 81 48 82 49 83 75 84 76 85 84 86 77 87
REMARK SMILES IDX 83 88 85 89 82 90 78 91 79 92 80 93 81 94 60 95 61 96 69 97
REMARK SMILES IDX 62 98 68 99 70 100 67 101 63 102 64 103 65 104 66 105
REMARK H PARENT 24 4 10 23 31 39 90 58 58 69
REMARK Flexibility Score: inf
ROOT
ATOM      1  C   UNL A   1      39.751  28.794  27.739  1.00  0.00     0.227 C 
ATOM      2  O   UNL A   1      39.730  28.951  26.511  1.00  0.00    -0.274 OA
ATOM      3  N   UNL A   1      38.545  28.672  28.355  1.00  0.00    -0.356 N 
ATOM      4  H   UNL A   1      37.776  28.640  27.741  1.00  0.00     0.163 HD
ENDROOT
BRANCH   1   5
ATOM      5  C   UNL A   1      41.096  28.727  28.479  1.00  0.00     0.105 C 
ATOM      6  C   UNL A   1      41.571  30.070  29.030  1.00  0.00     0.023 C 
BRANCH   5   7
ATOM      7  C   UNL A   1      42.148  27.893  27.765  1.00  0.00    -0.033 A 
ATOM      8  C   UNL A   1      43.990  26.174  26.409  1.00  0.00     0.018 A 
ATOM      9  C   UNL A   1      43.645  27.430  25.892  1.00  0.00     0.012 A 
ATOM     10  C   UNL A   1      43.427  25.831  27.651  1.00  0.00     0.131 A 
ATOM     11  C   UNL A   1      42.770  28.286  26.574  1.00  0.00     0.005 A 
ATOM     12  C   UNL A   1      42.511  26.654  28.305  1.00  0.00     0.044 A 
ATOM     13  F   UNL A   1      43.759  24.680  28.257  1.00  0.00    -0.206 F 
BRANCH   8  14
ATOM     14  C   UNL A   1      44.883  25.259  25.671  1.00  0.00    -0.013 A 
ATOM     15  C   UNL A   1      45.162  23.281  24.254  1.00  0.00     0.045 A 
ATOM     16  C   UNL A   1      46.545  23.383  24.359  1.00  0.00     0.026 A 
ATOM     17  C   UNL A   1      44.348  24.223  24.889  1.00  0.00     0.035 A 
ATOM     18  C   UNL A   1      47.105  24.445  25.066  1.00  0.00     0.003 A 
ATOM     19  C   UNL A   1      46.282  25.366  25.724  1.00  0.00     0.009 A 
BRANCH  15  20
ATOM     20  N   UNL A   1      44.611  22.162  23.616  1.00  0.00    -0.291 N 
ATOM     21  C   UNL A   1      44.522  20.889  24.120  1.00  0.00     0.411 C 
ATOM     22  O   UNL A   1      44.529  19.915  23.392  1.00  0.00    -0.224 OA
ATOM     23  H   UNL A   1      44.250  22.303  22.711  1.00  0.00     0.173 HD
BRANCH  21  24
ATOM     24  O   UNL A   1      44.308  20.876  25.464  1.00  0.00    -0.449 OA
BRANCH  24  25
ATOM     25  C   UNL A   1      43.239  20.071  25.981  1.00  0.00     0.235 C 
BRANCH  25  26
ATOM     26  C   UNL A   1      42.276  20.878  26.858  1.00  0.00     0.042 C 
BRANCH  26  27
ATOM     27  C   UNL A   1      41.522  22.010  26.149  1.00  0.00     0.003 C 
BRANCH  27  28
ATOM     28  C   UNL A   1      40.801  22.990  27.085  1.00  0.00    -0.000 C 
BRANCH  28  29
ATOM     29  C   UNL A   1      40.491  24.355  26.471  1.00  0.00    -0.003 C 
ATOM     30  C   UNL A   1      39.412  25.106  27.232  1.00  0.00     0.004 C 
ENDBRANCH  28  29
ENDBRANCH  27  28
ENDBRANCH  26  27
ENDBRANCH  25  26
ENDBRANCH  24  25
ENDBRANCH  21  24
ENDBRANCH  15  20
ENDBRANCH   8  14
ENDBRANCH   5   7
ENDBRANCH   1   5
BRANCH   3  31
ATOM     31  C   UNL A   1      38.193  28.581  29.756  1.00  0.00     0.116 C 
BRANCH  31  32
ATOM     32  C   UNL A   1      37.901  29.959  30.354  1.00  0.00     0.021 C 
BRANCH  32  33
ATOM     33  C   UNL A   1      36.765  30.705  29.646  1.00  0.00     0.002 C 
BRANCH  33  34
ATOM     34  C   UNL A   1      37.149  32.082  29.087  1.00  0.00     0.002 C 
BRANCH  34  35
ATOM     35  C   UNL A   1      35.982  32.923  28.560  1.00  0.00     0.021 C 
BRANCH  35  36
ATOM     36  C   UNL A   1      34.609  32.490  29.069  1.00  0.00     0.116 C 
BRANCH  36  37
ATOM     37  N   UNL A   1      33.932  33.574  29.763  1.00  0.00    -0.352 N 
ATOM     38  C   UNL A   1      34.108  34.037  31.043  1.00  0.00     0.251 C 
ATOM     39  H   UNL A   1      33.246  34.045  29.237  1.00  0.00     0.163 HD
ATOM     40  O   UNL A   1      33.261  34.770  31.544  1.00  0.00    -0.269 OA
BRANCH  38  41
ATOM     41  C   UNL A   1      35.310  33.647  31.813  1.00  0.00     0.039 A 
ATOM     42  C   UNL A   1      36.389  34.531  31.880  1.00  0.00     0.014 A 
ATOM     43  C   UNL A   1      35.384  32.400  32.440  1.00  0.00     0.014 A 
ATOM     44  C   UNL A   1      37.523  34.185  32.619  1.00  0.00     0.010 A 
ATOM     45  C   UNL A   1      36.483  32.088  33.236  1.00  0.00     0.010 A 
ATOM     46  C   UNL A   1      37.567  32.973  33.329  1.00  0.00    -0.014 A 
BRANCH  46  47
ATOM     47  C   UNL A   1      38.745  32.613  34.162  1.00  0.00     0.031 A 
ATOM     48  C   UNL A   1      38.731  32.878  35.643  1.00  0.00     0.074 A 
ATOM     49  C   UNL A   1      39.844  32.102  33.574  1.00  0.00     0.049 A 
ATOM     50  N   UNL A   1      39.681  32.700  36.526  1.00  0.00    -0.248 NA
ATOM     51  C   UNL A   1      37.494  33.445  36.199  1.00  0.00     0.031 C 
ATOM     52  C   UNL A   1      39.988  31.835  32.141  1.00  0.00     0.029 A 
ATOM     53  N   UNL A   1      41.052  31.719  34.104  1.00  0.00    -0.354 N 
ATOM     54  C   UNL A   1      39.162  33.141  37.738  1.00  0.00     0.074 A 
ATOM     55  C   UNL A   1      37.836  33.656  37.462  1.00  0.00     0.031 C 
ATOM     56  C   UNL A   1      41.201  31.308  31.911  1.00  0.00     0.029 A 
ATOM     57  C   UNL A   1      41.940  31.244  33.168  1.00  0.00     0.049 A 
ATOM     58  H   UNL A   1      41.260  31.780  35.064  1.00  0.00     0.167 HD
ATOM     59  C   UNL A   1      39.726  33.097  38.970  1.00  0.00     0.034 A 
ATOM     60  C   UNL A   1      43.212  30.816  33.305  1.00  0.00     0.034 A 
ATOM     61  C   UNL A   1      41.046  32.573  39.228  1.00  0.00     0.049 A 
ATOM     62  C   UNL A   1      43.831  30.807  34.679  1.00  0.00     0.074 A 
ATOM     63  C   UNL A   1      41.698  32.436  40.441  1.00  0.00     0.029 A 
ATOM     64  N   UNL A   1      41.920  32.104  38.254  1.00  0.00    -0.354 N 
ATOM     65  N   UNL A   1      43.308  31.184  35.825  1.00  0.00    -0.248 NA
ATOM     66  C   UNL A   1      45.206  30.303  34.783  1.00  0.00     0.031 C 
ATOM     67  C   UNL A   1      42.989  31.955  40.194  1.00  0.00     0.029 A 
ATOM     68  C   UNL A   1      43.116  31.710  38.836  1.00  0.00     0.049 A 
ATOM     69  H   UNL A   1      41.720  32.059  37.291  1.00  0.00     0.167 HD
ATOM     70  C   UNL A   1      44.281  30.930  36.786  1.00  0.00     0.074 A 
ATOM     71  C   UNL A   1      45.413  30.355  36.089  1.00  0.00     0.031 C 
ATOM     72  C   UNL A   1      44.242  31.148  38.127  1.00  0.00     0.034 A 
BRANCH  59  73
ATOM     73  C   UNL A   1      38.926  33.658  40.124  1.00  0.00     0.023 A 
ATOM     74  C   UNL A   1      37.811  32.980  40.648  1.00  0.00     0.031 A 
ATOM     75  C   UNL A   1      39.265  34.898  40.692  1.00  0.00     0.131 A 
ATOM     76  C   UNL A   1      37.030  33.580  41.647  1.00  0.00     0.055 A 
ATOM     77  C   UNL A   1      38.534  35.450  41.748  1.00  0.00     0.041 A 
ATOM     78  F   UNL A   1      40.305  35.605  40.223  1.00  0.00    -0.206 F 
ATOM     79  C   UNL A   1      37.400  34.798  42.220  1.00  0.00     0.022 A 
BRANCH  76  80
ATOM     80  S   UNL A   1      35.441  32.818  42.079  1.00  0.00     0.124 S 
ATOM     81  O   UNL A   1      35.410  31.670  41.175  1.00  0.00    -0.237 OA
ATOM     82  O   UNL A   1      35.614  32.511  43.495  1.00  0.00    -0.237 OA
ATOM     83  O   UNL A   1      34.466  33.865  41.780  1.00  0.00    -0.744 OA
ENDBRANCH  76  80
ENDBRANCH  59  73
BRANCH  60  84
ATOM     84  C   UNL A   1      43.991  30.369  32.114  1.00  0.00     0.023 A 
ATOM     85  C   UNL A   1      44.717  31.287  31.338  1.00  0.00     0.031 A 
ATOM     86  C   UNL A   1      43.986  29.023  31.707  1.00  0.00     0.131 A 
ATOM     87  C   UNL A   1      45.365  30.858  30.170  1.00  0.00     0.055 A 
ATOM     88  C   UNL A   1      44.681  28.591  30.576  1.00  0.00     0.041 A 
ATOM     89  F   UNL A   1      43.313  28.102  32.415  1.00  0.00    -0.206 F 
ATOM     90  C   UNL A   1      45.365  29.515  29.791  1.00  0.00     0.022 A 
BRANCH  87  91
ATOM     91  S   UNL A   1      46.135  32.103  29.098  1.00  0.00     0.124 S 
ATOM     92  O   UNL A   1      47.453  31.524  28.868  1.00  0.00    -0.237 OA
ATOM     93  O   UNL A   1      45.230  32.117  27.953  1.00  0.00    -0.237 OA
ATOM     94  O   UNL A   1      46.118  33.313  29.918  1.00  0.00    -0.744 OA
ENDBRANCH  87  91
ENDBRANCH  60  84
BRANCH  72  95
ATOM     95  C   UNL A   1      45.447  30.716  38.927  1.00  0.00     0.023 A 
ATOM     96  C   UNL A   1      45.551  29.425  39.474  1.00  0.00     0.031 A 
ATOM     97  C   UNL A   1      46.504  31.617  39.155  1.00  0.00     0.131 A 
ATOM     98  C   UNL A   1      46.655  29.091  40.274  1.00  0.00     0.055 A 
ATOM     99  C   UNL A   1      47.630  31.258  39.895  1.00  0.00     0.041 A 
ATOM    100  F   UNL A   1      46.457  32.864  38.658  1.00  0.00    -0.206 F 
ATOM    101  C   UNL A   1      47.704  29.993  40.472  1.00  0.00     0.022 A 
BRANCH  98 102
ATOM    102  S   UNL A   1      46.655  27.495  41.135  1.00  0.00     0.124 S 
ATOM    103  O   UNL A   1      46.558  27.905  42.532  1.00  0.00    -0.237 OA
ATOM    104  O   UNL A   1      45.475  26.840  40.580  1.00  0.00    -0.237 OA
ATOM    105  O   UNL A   1      47.933  26.898  40.750  1.00  0.00    -0.744 OA
ENDBRANCH  98 102
ENDBRANCH  72  95
ENDBRANCH  46  47
ENDBRANCH  38  41
ENDBRANCH  36  37
ENDBRANCH  35  36
ENDBRANCH  34  35
ENDBRANCH  33  34
ENDBRANCH  32  33
ENDBRANCH  31  32
ENDBRANCH   3  31
TORSDOF 25
ENDMDL
