MODEL 1
REMARK VINA RESULT:     -11.1      0.000      0.000
REMARK SMILES CCC[C@@H](CNC(=O)NCc1c(C)nn(C)c1C)C(=O)NCCCCCCNC(=O)c1ccc(-c2c3nc(c(-c4cc(S(=O)(=O)[O-])ccc4F)c4ccc([nH]4)c(-c4cc(S(=O)(=O)[O-])ccc4F)c4nc(c(-c5cc(S(=O)(=O)[O-])ccc5F)c5ccc2[nH]5)C=C4)C=C3)cc1
REMARK SMILES IDX 24 1 23 2 22 3 21 4 19 5 20 6 4 8 3 9 2 10 1 11 5 12 6 13
REMARK SMILES IDX 7 14 8 16 9 17 10 19 11 20 12 21 17 22 13 23 14 24 15 25
REMARK SMILES IDX 18 26 16 27 25 28 26 29 27 30 28 31 29 32 30 34 31 35 32 36
REMARK SMILES IDX 93 37 33 38 92 39 34 40 35 41 36 42 86 43 37 44 91 45 85 46
REMARK SMILES IDX 87 47 38 48 90 49 84 50 83 51 39 53 71 54 51 55 70 56 52 57
REMARK SMILES IDX 55 58 69 59 88 60 53 61 54 62 68 64 89 65 56 66 40 67 41 68
REMARK SMILES IDX 49 69 42 70 48 71 50 72 47 73 43 74 44 75 45 76 46 77 72 78
REMARK SMILES IDX 73 79 81 80 74 81 80 82 82 83 79 84 75 85 76 86 77 87 78 88
REMARK SMILES IDX 57 89 58 90 66 91 59 92 65 93 67 94 64 95 60 96 61 97 62 98
REMARK SMILES IDX 63 99
REMARK H PARENT 21 7 6 15 9 18 28 33 87 52 55 63
REMARK Flexibility Score: inf
ROOT
ATOM      1  C   UNL A   1      37.196  21.830  24.350  1.00  0.00     0.002 C 
ENDROOT
BRANCH   1   2
ATOM      2  C   UNL A   1      37.167  22.936  25.410  1.00  0.00     0.021 C 
BRANCH   2   3
ATOM      3  C   UNL A   1      35.814  23.621  25.553  1.00  0.00     0.116 C 
BRANCH   3   4
ATOM      4  N   UNL A   1      35.060  23.141  26.697  1.00  0.00    -0.356 N 
ATOM      5  C   UNL A   1      34.131  22.153  26.799  1.00  0.00     0.224 C 
ATOM      6  O   UNL A   1      33.816  21.789  27.937  1.00  0.00    -0.275 OA
ATOM      7  H   UNL A   1      35.252  23.609  27.541  1.00  0.00     0.163 HD
BRANCH   5   8
ATOM      8  C   UNL A   1      33.477  21.491  25.587  1.00  0.00     0.097 C 
BRANCH   8   9
ATOM      9  C   UNL A   1      33.518  19.948  25.645  1.00  0.00     0.015 C 
BRANCH   9  10
ATOM     10  C   UNL A   1      33.110  19.205  24.369  1.00  0.00    -0.003 C 
ATOM     11  C   UNL A   1      33.939  17.964  24.084  1.00  0.00     0.004 C 
ENDBRANCH   9  10
ENDBRANCH   8   9
BRANCH   8  12
ATOM     12  C   UNL A   1      32.165  22.165  25.141  1.00  0.00     0.131 C 
BRANCH  12  13
ATOM     13  N   UNL A   1      31.126  22.292  26.136  1.00  0.00    -0.337 N 
ATOM     14  C   UNL A   1      30.348  23.305  26.534  1.00  0.00     0.315 C 
ATOM     15  H   UNL A   1      30.953  21.454  26.625  1.00  0.00     0.165 HD
ATOM     16  O   UNL A   1      29.691  23.150  27.567  1.00  0.00    -0.249 OA
ATOM     17  N   UNL A   1      30.265  24.486  25.924  1.00  0.00    -0.334 N 
ATOM     18  H   UNL A   1      29.889  25.188  26.502  1.00  0.00     0.165 HD
BRANCH  17  19
ATOM     19  C   UNL A   1      30.604  24.971  24.608  1.00  0.00     0.157 C 
BRANCH  19  20
ATOM     20  C   UNL A   1      30.981  26.420  24.630  1.00  0.00     0.015 A 
ATOM     21  C   UNL A   1      30.290  27.549  24.084  1.00  0.00     0.065 A 
ATOM     22  C   UNL A   1      32.087  26.981  25.266  1.00  0.00     0.040 A 
ATOM     23  C   UNL A   1      29.032  27.635  23.295  1.00  0.00     0.069 C 
ATOM     24  N   UNL A   1      30.909  28.698  24.378  1.00  0.00    -0.178 NA
ATOM     25  N   UNL A   1      31.981  28.335  25.088  1.00  0.00    -0.272 N 
ATOM     26  C   UNL A   1      33.197  26.357  26.030  1.00  0.00     0.067 C 
ATOM     27  C   UNL A   1      32.832  29.385  25.598  1.00  0.00     0.174 C 
ENDBRANCH  19  20
ENDBRANCH  17  19
ENDBRANCH  12  13
ENDBRANCH   8  12
ENDBRANCH   5   8
ENDBRANCH   3   4
ENDBRANCH   2   3
ENDBRANCH   1   2
BRANCH   1  28
ATOM     28  C   UNL A   1      37.017  20.400  24.877  1.00  0.00     0.002 C 
BRANCH  28  29
ATOM     29  C   UNL A   1      38.299  19.571  24.995  1.00  0.00     0.021 C 
BRANCH  29  30
ATOM     30  C   UNL A   1      39.315  20.092  26.006  1.00  0.00     0.116 C 
BRANCH  30  31
ATOM     31  N   UNL A   1      40.478  19.228  26.105  1.00  0.00    -0.352 N 
ATOM     32  C   UNL A   1      41.807  19.558  26.203  1.00  0.00     0.251 C 
ATOM     33  H   UNL A   1      40.286  18.262  26.102  1.00  0.00     0.163 HD
ATOM     34  O   UNL A   1      42.657  18.681  26.076  1.00  0.00    -0.269 OA
BRANCH  32  35
ATOM     35  C   UNL A   1      42.211  20.962  26.438  1.00  0.00     0.039 A 
ATOM     36  C   UNL A   1      42.432  21.384  27.751  1.00  0.00     0.014 A 
ATOM     37  C   UNL A   1      42.351  21.865  25.380  1.00  0.00     0.014 A 
ATOM     38  C   UNL A   1      42.839  22.697  27.998  1.00  0.00     0.010 A 
ATOM     39  C   UNL A   1      42.829  23.152  25.621  1.00  0.00     0.010 A 
ATOM     40  C   UNL A   1      43.070  23.584  26.934  1.00  0.00    -0.014 A 
BRANCH  40  41
ATOM     41  C   UNL A   1      43.562  24.963  27.188  1.00  0.00     0.031 A 
ATOM     42  C   UNL A   1      42.635  26.014  27.738  1.00  0.00     0.074 A 
ATOM     43  C   UNL A   1      44.836  25.278  26.882  1.00  0.00     0.049 A 
ATOM     44  N   UNL A   1      42.875  27.272  28.006  1.00  0.00    -0.248 NA
ATOM     45  C   UNL A   1      41.248  25.600  27.995  1.00  0.00     0.031 C 
ATOM     46  C   UNL A   1      45.814  24.357  26.295  1.00  0.00     0.029 A 
ATOM     47  N   UNL A   1      45.531  26.453  27.019  1.00  0.00    -0.354 N 
ATOM     48  C   UNL A   1      41.669  27.804  28.451  1.00  0.00     0.074 A 
ATOM     49  C   UNL A   1      40.687  26.744  28.355  1.00  0.00     0.031 C 
ATOM     50  C   UNL A   1      46.987  24.994  26.152  1.00  0.00     0.029 A 
ATOM     51  C   UNL A   1      46.837  26.377  26.593  1.00  0.00     0.049 A 
ATOM     52  H   UNL A   1      45.131  27.275  27.387  1.00  0.00     0.167 HD
ATOM     53  C   UNL A   1      41.412  29.051  28.919  1.00  0.00     0.034 A 
ATOM     54  C   UNL A   1      47.803  27.315  26.555  1.00  0.00     0.034 A 
ATOM     55  C   UNL A   1      42.409  30.091  29.013  1.00  0.00     0.049 A 
ATOM     56  C   UNL A   1      47.492  28.697  27.069  1.00  0.00     0.074 A 
ATOM     57  C   UNL A   1      42.276  31.370  29.527  1.00  0.00     0.029 A 
ATOM     58  N   UNL A   1      43.722  29.980  28.571  1.00  0.00    -0.354 N 
ATOM     59  N   UNL A   1      46.362  29.167  27.550  1.00  0.00    -0.248 NA
ATOM     60  C   UNL A   1      48.589  29.671  27.050  1.00  0.00     0.031 C 
ATOM     61  C   UNL A   1      43.480  32.052  29.327  1.00  0.00     0.029 A 
ATOM     62  C   UNL A   1      44.397  31.177  28.767  1.00  0.00     0.049 A 
ATOM     63  H   UNL A   1      44.117  29.169  28.176  1.00  0.00     0.167 HD
ATOM     64  C   UNL A   1      46.624  30.484  27.915  1.00  0.00     0.074 A 
ATOM     65  C   UNL A   1      48.023  30.724  27.621  1.00  0.00     0.031 C 
ATOM     66  C   UNL A   1      45.787  31.411  28.447  1.00  0.00     0.034 A 
BRANCH  53  67
ATOM     67  C   UNL A   1      39.990  29.360  29.333  1.00  0.00     0.023 A 
ATOM     68  C   UNL A   1      39.604  29.405  30.684  1.00  0.00     0.031 A 
ATOM     69  C   UNL A   1      38.999  29.583  28.362  1.00  0.00     0.131 A 
ATOM     70  C   UNL A   1      38.254  29.582  31.024  1.00  0.00     0.055 A 
ATOM     71  C   UNL A   1      37.671  29.847  28.709  1.00  0.00     0.041 A 
ATOM     72  F   UNL A   1      39.297  29.532  27.054  1.00  0.00    -0.206 F 
ATOM     73  C   UNL A   1      37.288  29.831  30.046  1.00  0.00     0.022 A 
BRANCH  70  74
ATOM     74  S   UNL A   1      37.752  29.325  32.749  1.00  0.00     0.124 S 
ATOM     75  O   UNL A   1      36.468  30.021  32.789  1.00  0.00    -0.237 OA
ATOM     76  O   UNL A   1      37.694  27.871  32.847  1.00  0.00    -0.237 OA
ATOM     77  O   UNL A   1      38.821  29.961  33.516  1.00  0.00    -0.744 OA
ENDBRANCH  70  74
ENDBRANCH  53  67
BRANCH  54  78
ATOM     78  C   UNL A   1      49.150  26.987  26.005  1.00  0.00     0.023 A 
ATOM     79  C   UNL A   1      49.529  27.395  24.716  1.00  0.00     0.031 A 
ATOM     80  C   UNL A   1      50.070  26.229  26.753  1.00  0.00     0.131 A 
ATOM     81  C   UNL A   1      50.774  27.007  24.197  1.00  0.00     0.055 A 
ATOM     82  C   UNL A   1      51.328  25.892  26.253  1.00  0.00     0.041 A 
ATOM     83  F   UNL A   1      49.759  25.816  27.992  1.00  0.00    -0.206 F 
ATOM     84  C   UNL A   1      51.681  26.272  24.962  1.00  0.00     0.022 A 
BRANCH  81  85
ATOM     85  S   UNL A   1      51.159  27.410  22.471  1.00  0.00     0.124 S 
ATOM     86  O   UNL A   1      51.329  28.857  22.534  1.00  0.00    -0.237 OA
ATOM     87  O   UNL A   1      52.370  26.630  22.240  1.00  0.00    -0.237 OA
ATOM     88  O   UNL A   1      49.977  26.952  21.744  1.00  0.00    -0.744 OA
ENDBRANCH  81  85
ENDBRANCH  54  78
BRANCH  66  89
ATOM     89  C   UNL A   1      46.383  32.762  28.774  1.00  0.00     0.023 A 
ATOM     90  C   UNL A   1      46.379  33.818  27.845  1.00  0.00     0.031 A 
ATOM     91  C   UNL A   1      46.994  32.984  30.021  1.00  0.00     0.131 A 
ATOM     92  C   UNL A   1      47.035  35.019  28.148  1.00  0.00     0.055 A 
ATOM     93  C   UNL A   1      47.582  34.207  30.345  1.00  0.00     0.041 A 
ATOM     94  F   UNL A   1      47.032  32.012  30.947  1.00  0.00    -0.206 F 
ATOM     95  C   UNL A   1      47.621  35.228  29.400  1.00  0.00     0.022 A 
BRANCH  92  96
ATOM     96  S   UNL A   1      47.219  36.265  26.842  1.00  0.00     0.124 S 
ATOM     97  O   UNL A   1      45.880  36.296  26.263  1.00  0.00    -0.237 OA
ATOM     98  O   UNL A   1      47.617  37.450  27.595  1.00  0.00    -0.237 OA
ATOM     99  O   UNL A   1      48.256  35.704  25.977  1.00  0.00    -0.744 OA
ENDBRANCH  92  96
ENDBRANCH  66  89
ENDBRANCH  40  41
ENDBRANCH  32  35
ENDBRANCH  30  31
ENDBRANCH  29  30
ENDBRANCH  28  29
ENDBRANCH   1  28
TORSDOF 22
ENDMDL
MODEL 2
REMARK VINA RESULT:     -10.8      5.410     11.644
REMARK SMILES CCC[C@@H](CNC(=O)NCc1c(C)nn(C)c1C)C(=O)NCCCCCCNC(=O)c1ccc(-c2c3nc(c(-c4cc(S(=O)(=O)[O-])ccc4F)c4ccc([nH]4)c(-c4cc(S(=O)(=O)[O-])ccc4F)c4nc(c(-c5cc(S(=O)(=O)[O-])ccc5F)c5ccc2[nH]5)C=C4)C=C3)cc1
REMARK SMILES IDX 24 1 23 2 22 3 21 4 19 5 20 6 4 8 3 9 2 10 1 11 5 12 6 13
REMARK SMILES IDX 7 14 8 16 9 17 10 19 11 20 12 21 17 22 13 23 14 24 15 25
REMARK SMILES IDX 18 26 16 27 25 28 26 29 27 30 28 31 29 32 30 34 31 35 32 36
REMARK SMILES IDX 93 37 33 38 92 39 34 40 35 41 36 42 86 43 37 44 91 45 85 46
REMARK SMILES IDX 87 47 38 48 90 49 84 50 83 51 39 53 71 54 51 55 70 56 52 57
REMARK SMILES IDX 55 58 69 59 88 60 53 61 54 62 68 64 89 65 56 66 40 67 41 68
REMARK SMILES IDX 49 69 42 70 48 71 50 72 47 73 43 74 44 75 45 76 46 77 72 78
REMARK SMILES IDX 73 79 81 80 74 81 80 82 82 83 79 84 75 85 76 86 77 87 78 88
REMARK SMILES IDX 57 89 58 90 66 91 59 92 65 93 67 94 64 95 60 96 61 97 62 98
REMARK SMILES IDX 63 99
REMARK H PARENT 21 7 6 15 9 18 28 33 87 52 55 63
REMARK Flexibility Score: inf
ROOT
ATOM      1  C   UNL A   1      31.936  29.592  27.355  1.00  0.00     0.002 C 
ENDROOT
BRANCH   1   2
ATOM      2  C   UNL A   1      31.636  28.111  27.100  1.00  0.00     0.021 C 
BRANCH   2   3
ATOM      3  C   UNL A   1      32.874  27.270  26.810  1.00  0.00     0.116 C 
BRANCH   3   4
ATOM      4  N   UNL A   1      33.281  27.332  25.418  1.00  0.00    -0.356 N 
ATOM      5  C   UNL A   1      32.595  27.052  24.278  1.00  0.00     0.224 C 
ATOM      6  O   UNL A   1      33.100  27.415  23.211  1.00  0.00    -0.275 OA
ATOM      7  H   UNL A   1      34.209  27.626  25.275  1.00  0.00     0.163 HD
BRANCH   5   8
ATOM      8  C   UNL A   1      31.253  26.320  24.267  1.00  0.00     0.097 C 
BRANCH   8   9
ATOM      9  C   UNL A   1      30.297  26.828  23.165  1.00  0.00     0.015 C 
BRANCH   9  10
ATOM     10  C   UNL A   1      29.631  28.186  23.412  1.00  0.00    -0.003 C 
ATOM     11  C   UNL A   1      29.863  29.199  22.303  1.00  0.00     0.004 C 
ENDBRANCH   9  10
ENDBRANCH   8   9
BRANCH   8  12
ATOM     12  C   UNL A   1      31.370  24.799  24.479  1.00  0.00     0.131 C 
BRANCH  12  13
ATOM     13  N   UNL A   1      31.232  24.316  25.833  1.00  0.00    -0.337 N 
ATOM     14  C   UNL A   1      31.118  23.096  26.371  1.00  0.00     0.315 C 
ATOM     15  H   UNL A   1      31.218  25.038  26.502  1.00  0.00     0.165 HD
ATOM     16  O   UNL A   1      30.800  23.024  27.561  1.00  0.00    -0.249 OA
ATOM     17  N   UNL A   1      31.278  21.954  25.706  1.00  0.00    -0.334 N 
ATOM     18  H   UNL A   1      30.878  21.183  26.170  1.00  0.00     0.165 HD
BRANCH  17  19
ATOM     19  C   UNL A   1      31.904  21.588  24.459  1.00  0.00     0.157 C 
BRANCH  19  20
ATOM     20  C   UNL A   1      33.263  20.993  24.673  1.00  0.00     0.015 A 
ATOM     21  C   UNL A   1      33.663  19.619  24.687  1.00  0.00     0.065 A 
ATOM     22  C   UNL A   1      34.457  21.691  24.844  1.00  0.00     0.040 A 
ATOM     23  C   UNL A   1      32.867  18.370  24.545  1.00  0.00     0.069 C 
ATOM     24  N   UNL A   1      34.986  19.490  24.833  1.00  0.00    -0.178 NA
ATOM     25  N   UNL A   1      35.442  20.743  24.923  1.00  0.00    -0.272 N 
ATOM     26  C   UNL A   1      34.738  23.148  24.914  1.00  0.00     0.067 C 
ATOM     27  C   UNL A   1      36.870  20.928  25.040  1.00  0.00     0.174 C 
ENDBRANCH  19  20
ENDBRANCH  17  19
ENDBRANCH  12  13
ENDBRANCH   8  12
ENDBRANCH   5   8
ENDBRANCH   3   4
ENDBRANCH   2   3
ENDBRANCH   1   2
BRANCH   1  28
ATOM     28  C   UNL A   1      31.627  30.542  26.191  1.00  0.00     0.002 C 
BRANCH  28  29
ATOM     29  C   UNL A   1      31.555  32.029  26.548  1.00  0.00     0.021 C 
BRANCH  29  30
ATOM     30  C   UNL A   1      32.796  32.591  27.232  1.00  0.00     0.116 C 
BRANCH  30  31
ATOM     31  N   UNL A   1      32.634  33.986  27.600  1.00  0.00    -0.352 N 
ATOM     32  C   UNL A   1      33.244  34.704  28.596  1.00  0.00     0.251 C 
ATOM     33  H   UNL A   1      31.990  34.492  27.052  1.00  0.00     0.163 HD
ATOM     34  O   UNL A   1      32.825  35.824  28.875  1.00  0.00    -0.269 OA
BRANCH  32  35
ATOM     35  C   UNL A   1      34.384  34.126  29.342  1.00  0.00     0.039 A 
ATOM     36  C   UNL A   1      34.120  33.198  30.352  1.00  0.00     0.014 A 
ATOM     37  C   UNL A   1      35.700  34.509  29.069  1.00  0.00     0.014 A 
ATOM     38  C   UNL A   1      35.180  32.619  31.055  1.00  0.00     0.010 A 
ATOM     39  C   UNL A   1      36.759  33.875  29.718  1.00  0.00     0.010 A 
ATOM     40  C   UNL A   1      36.509  32.929  30.724  1.00  0.00    -0.014 A 
BRANCH  40  41
ATOM     41  C   UNL A   1      37.640  32.269  31.426  1.00  0.00     0.031 A 
ATOM     42  C   UNL A   1      38.401  31.153  30.764  1.00  0.00     0.074 A 
ATOM     43  C   UNL A   1      37.954  32.651  32.680  1.00  0.00     0.049 A 
ATOM     44  N   UNL A   1      39.401  30.444  31.224  1.00  0.00    -0.248 NA
ATOM     45  C   UNL A   1      37.961  30.763  29.416  1.00  0.00     0.031 C 
ATOM     46  C   UNL A   1      37.254  33.687  33.445  1.00  0.00     0.029 A 
ATOM     47  N   UNL A   1      38.936  32.218  33.534  1.00  0.00    -0.354 N 
ATOM     48  C   UNL A   1      39.703  29.519  30.230  1.00  0.00     0.074 A 
ATOM     49  C   UNL A   1      38.735  29.717  29.170  1.00  0.00     0.031 C 
ATOM     50  C   UNL A   1      37.849  33.828  34.640  1.00  0.00     0.029 A 
ATOM     51  C   UNL A   1      38.941  32.867  34.747  1.00  0.00     0.049 A 
ATOM     52  H   UNL A   1      39.577  31.507  33.301  1.00  0.00     0.167 HD
ATOM     53  C   UNL A   1      40.706  28.607  30.194  1.00  0.00     0.034 A 
ATOM     54  C   UNL A   1      39.731  32.703  35.826  1.00  0.00     0.034 A 
ATOM     55  C   UNL A   1      41.664  28.430  31.260  1.00  0.00     0.049 A 
ATOM     56  C   UNL A   1      40.832  31.676  35.769  1.00  0.00     0.074 A 
ATOM     57  C   UNL A   1      42.757  27.581  31.305  1.00  0.00     0.029 A 
ATOM     58  N   UNL A   1      41.639  29.105  32.476  1.00  0.00    -0.354 N 
ATOM     59  N   UNL A   1      41.146  30.853  34.794  1.00  0.00    -0.248 NA
ATOM     60  C   UNL A   1      41.695  31.566  36.951  1.00  0.00     0.031 C 
ATOM     61  C   UNL A   1      43.343  27.686  32.571  1.00  0.00     0.029 A 
ATOM     62  C   UNL A   1      42.673  28.664  33.289  1.00  0.00     0.049 A 
ATOM     63  H   UNL A   1      40.983  29.795  32.723  1.00  0.00     0.167 HD
ATOM     64  C   UNL A   1      42.261  30.147  35.238  1.00  0.00     0.074 A 
ATOM     65  C   UNL A   1      42.576  30.660  36.557  1.00  0.00     0.031 C 
ATOM     66  C   UNL A   1      42.962  29.166  34.613  1.00  0.00     0.034 A 
BRANCH  53  67
ATOM     67  C   UNL A   1      40.793  27.714  28.976  1.00  0.00     0.023 A 
ATOM     68  C   UNL A   1      41.742  27.933  27.962  1.00  0.00     0.031 A 
ATOM     69  C   UNL A   1      39.894  26.646  28.811  1.00  0.00     0.131 A 
ATOM     70  C   UNL A   1      41.717  27.153  26.795  1.00  0.00     0.055 A 
ATOM     71  C   UNL A   1      39.931  25.817  27.687  1.00  0.00     0.041 A 
ATOM     72  F   UNL A   1      38.950  26.397  29.732  1.00  0.00    -0.206 F 
ATOM     73  C   UNL A   1      40.835  26.079  26.662  1.00  0.00     0.022 A 
BRANCH  70  74
ATOM     74  S   UNL A   1      42.745  27.662  25.389  1.00  0.00     0.124 S 
ATOM     75  O   UNL A   1      43.970  28.093  26.060  1.00  0.00    -0.237 OA
ATOM     76  O   UNL A   1      42.842  26.432  24.609  1.00  0.00    -0.237 OA
ATOM     77  O   UNL A   1      41.972  28.735  24.769  1.00  0.00    -0.744 OA
ENDBRANCH  70  74
ENDBRANCH  53  67
BRANCH  54  78
ATOM     78  C   UNL A   1      39.508  33.520  37.054  1.00  0.00     0.023 A 
ATOM     79  C   UNL A   1      38.880  32.976  38.185  1.00  0.00     0.031 A 
ATOM     80  C   UNL A   1      39.892  34.872  37.100  1.00  0.00     0.131 A 
ATOM     81  C   UNL A   1      38.615  33.790  39.298  1.00  0.00     0.055 A 
ATOM     82  C   UNL A   1      39.676  35.663  38.230  1.00  0.00     0.041 A 
ATOM     83  F   UNL A   1      40.499  35.442  36.046  1.00  0.00    -0.206 F 
ATOM     84  C   UNL A   1      39.023  35.125  39.333  1.00  0.00     0.022 A 
BRANCH  81  85
ATOM     85  S   UNL A   1      37.655  33.097  40.673  1.00  0.00     0.124 S 
ATOM     86  O   UNL A   1      38.243  31.769  40.807  1.00  0.00    -0.237 OA
ATOM     87  O   UNL A   1      37.943  34.039  41.749  1.00  0.00    -0.237 OA
ATOM     88  O   UNL A   1      36.281  33.124  40.175  1.00  0.00    -0.744 OA
ENDBRANCH  81  85
ENDBRANCH  54  78
BRANCH  66  89
ATOM     89  C   UNL A   1      44.163  28.612  35.347  1.00  0.00     0.023 A 
ATOM     90  C   UNL A   1      44.049  27.543  36.254  1.00  0.00     0.031 A 
ATOM     91  C   UNL A   1      45.434  29.186  35.162  1.00  0.00     0.131 A 
ATOM     92  C   UNL A   1      45.167  27.129  36.992  1.00  0.00     0.055 A 
ATOM     93  C   UNL A   1      46.558  28.721  35.846  1.00  0.00     0.041 A 
ATOM     94  F   UNL A   1      45.604  30.212  34.312  1.00  0.00    -0.206 F 
ATOM     95  C   UNL A   1      46.425  27.699  36.780  1.00  0.00     0.022 A 
BRANCH  92  96
ATOM     96  S   UNL A   1      44.931  25.916  38.321  1.00  0.00     0.124 S 
ATOM     97  O   UNL A   1      46.283  25.396  38.498  1.00  0.00    -0.237 OA
ATOM     98  O   UNL A   1      44.418  26.742  39.409  1.00  0.00    -0.237 OA
ATOM     99  O   UNL A   1      43.972  24.970  37.755  1.00  0.00    -0.744 OA
ENDBRANCH  92  96
ENDBRANCH  66  89
ENDBRANCH  40  41
ENDBRANCH  32  35
ENDBRANCH  30  31
ENDBRANCH  29  30
ENDBRANCH  28  29
ENDBRANCH   1  28
TORSDOF 22
ENDMDL
MODEL 3
REMARK VINA RESULT:     -10.8      2.339      2.801
REMARK SMILES CCC[C@@H](CNC(=O)NCc1c(C)nn(C)c1C)C(=O)NCCCCCCNC(=O)c1ccc(-c2c3nc(c(-c4cc(S(=O)(=O)[O-])ccc4F)c4ccc([nH]4)c(-c4cc(S(=O)(=O)[O-])ccc4F)c4nc(c(-c5cc(S(=O)(=O)[O-])ccc5F)c5ccc2[nH]5)C=C4)C=C3)cc1
REMARK SMILES IDX 24 1 23 2 22 3 21 4 19 5 20 6 4 8 3 9 2 10 1 11 5 12 6 13
REMARK SMILES IDX 7 14 8 16 9 17 10 19 11 20 12 21 17 22 13 23 14 24 15 25
REMARK SMILES IDX 18 26 16 27 25 28 26 29 27 30 28 31 29 32 30 34 31 35 32 36
REMARK SMILES IDX 93 37 33 38 92 39 34 40 35 41 36 42 86 43 37 44 91 45 85 46
REMARK SMILES IDX 87 47 38 48 90 49 84 50 83 51 39 53 71 54 51 55 70 56 52 57
REMARK SMILES IDX 55 58 69 59 88 60 53 61 54 62 68 64 89 65 56 66 40 67 41 68
REMARK SMILES IDX 49 69 42 70 48 71 50 72 47 73 43 74 44 75 45 76 46 77 72 78
REMARK SMILES IDX 73 79 81 80 74 81 80 82 82 83 79 84 75 85 76 86 77 87 78 88
REMARK SMILES IDX 57 89 58 90 66 91 59 92 65 93 67 94 64 95 60 96 61 97 62 98
REMARK SMILES IDX 63 99
REMARK H PARENT 21 7 6 15 9 18 28 33 87 52 55 63
REMARK Flexibility Score: inf
ROOT
ATOM      1  C   UNL A   1      37.924  22.614  24.985  1.00  0.00     0.002 C 
ENDROOT
BRANCH   1   2
ATOM      2  C   UNL A   1      37.151  23.398  26.051  1.00  0.00     0.021 C 
BRANCH   2   3
ATOM      3  C   UNL A   1      35.653  23.487  25.788  1.00  0.00     0.116 C 
BRANCH   3   4
ATOM      4  N   UNL A   1      34.868  22.743  26.757  1.00  0.00    -0.356 N 
ATOM      5  C   UNL A   1      34.054  21.665  26.601  1.00  0.00     0.224 C 
ATOM      6  O   UNL A   1      33.690  21.079  27.626  1.00  0.00    -0.275 OA
ATOM      7  H   UNL A   1      34.937  23.073  27.681  1.00  0.00     0.163 HD
BRANCH   5   8
ATOM      8  C   UNL A   1      33.579  21.164  25.237  1.00  0.00     0.097 C 
BRANCH   8   9
ATOM      9  C   UNL A   1      34.008  19.709  24.945  1.00  0.00     0.015 C 
BRANCH   9  10
ATOM     10  C   UNL A   1      32.887  18.723  24.601  1.00  0.00    -0.003 C 
ATOM     11  C   UNL A   1      32.654  17.658  25.659  1.00  0.00     0.004 C 
ENDBRANCH   9  10
ENDBRANCH   8   9
BRANCH   8  12
ATOM     12  C   UNL A   1      32.138  21.579  24.887  1.00  0.00     0.131 C 
BRANCH  12  13
ATOM     13  N   UNL A   1      31.355  22.176  25.944  1.00  0.00    -0.337 N 
ATOM     14  C   UNL A   1      30.741  23.356  26.085  1.00  0.00     0.315 C 
ATOM     15  H   UNL A   1      31.251  21.588  26.728  1.00  0.00     0.165 HD
ATOM     16  O   UNL A   1      30.324  23.653  27.208  1.00  0.00    -0.249 OA
ATOM     17  N   UNL A   1      30.588  24.254  25.113  1.00  0.00    -0.334 N 
ATOM     18  H   UNL A   1      30.388  25.155  25.456  1.00  0.00     0.165 HD
BRANCH  17  19
ATOM     19  C   UNL A   1      30.649  24.207  23.673  1.00  0.00     0.157 C 
BRANCH  19  20
ATOM     20  C   UNL A   1      31.809  24.992  23.141  1.00  0.00     0.015 A 
ATOM     21  C   UNL A   1      32.957  24.540  22.415  1.00  0.00     0.065 A 
ATOM     22  C   UNL A   1      31.970  26.375  23.195  1.00  0.00     0.040 A 
ATOM     23  C   UNL A   1      33.379  23.172  22.010  1.00  0.00     0.069 C 
ATOM     24  N   UNL A   1      33.739  25.558  22.042  1.00  0.00    -0.178 NA
ATOM     25  N   UNL A   1      33.129  26.648  22.518  1.00  0.00    -0.272 N 
ATOM     26  C   UNL A   1      31.126  27.436  23.801  1.00  0.00     0.067 C 
ATOM     27  C   UNL A   1      33.725  27.930  22.224  1.00  0.00     0.174 C 
ENDBRANCH  19  20
ENDBRANCH  17  19
ENDBRANCH  12  13
ENDBRANCH   8  12
ENDBRANCH   5   8
ENDBRANCH   3   4
ENDBRANCH   2   3
ENDBRANCH   1   2
BRANCH   1  28
ATOM     28  C   UNL A   1      37.265  21.312  24.510  1.00  0.00     0.002 C 
BRANCH  28  29
ATOM     29  C   UNL A   1      38.036  20.025  24.820  1.00  0.00     0.021 C 
BRANCH  29  30
ATOM     30  C   UNL A   1      38.885  20.070  26.086  1.00  0.00     0.116 C 
BRANCH  30  31
ATOM     31  N   UNL A   1      39.990  19.129  26.035  1.00  0.00    -0.352 N 
ATOM     32  C   UNL A   1      41.341  19.365  26.062  1.00  0.00     0.251 C 
ATOM     33  H   UNL A   1      39.732  18.181  25.973  1.00  0.00     0.163 HD
ATOM     34  O   UNL A   1      42.119  18.449  25.808  1.00  0.00    -0.269 OA
BRANCH  32  35
ATOM     35  C   UNL A   1      41.856  20.718  26.373  1.00  0.00     0.039 A 
ATOM     36  C   UNL A   1      42.122  21.592  25.317  1.00  0.00     0.014 A 
ATOM     37  C   UNL A   1      42.099  21.117  27.691  1.00  0.00     0.014 A 
ATOM     38  C   UNL A   1      42.585  22.882  25.584  1.00  0.00     0.010 A 
ATOM     39  C   UNL A   1      42.489  22.428  27.960  1.00  0.00     0.010 A 
ATOM     40  C   UNL A   1      42.744  23.322  26.909  1.00  0.00    -0.014 A 
BRANCH  40  41
ATOM     41  C   UNL A   1      43.178  24.713  27.200  1.00  0.00     0.031 A 
ATOM     42  C   UNL A   1      42.243  25.676  27.882  1.00  0.00     0.074 A 
ATOM     43  C   UNL A   1      44.402  25.120  26.811  1.00  0.00     0.049 A 
ATOM     44  N   UNL A   1      42.433  26.931  28.200  1.00  0.00    -0.248 NA
ATOM     45  C   UNL A   1      40.908  25.166  28.226  1.00  0.00     0.031 C 
ATOM     46  C   UNL A   1      45.377  24.292  26.095  1.00  0.00     0.029 A 
ATOM     47  N   UNL A   1      45.038  26.326  26.957  1.00  0.00    -0.354 N 
ATOM     48  C   UNL A   1      41.241  27.365  28.771  1.00  0.00     0.074 A 
ATOM     49  C   UNL A   1      40.315  26.254  28.694  1.00  0.00     0.031 C 
ATOM     50  C   UNL A   1      46.496  25.005  25.894  1.00  0.00     0.029 A 
ATOM     51  C   UNL A   1      46.306  26.352  26.424  1.00  0.00     0.049 A 
ATOM     52  H   UNL A   1      44.626  27.102  27.402  1.00  0.00     0.167 HD
ATOM     53  C   UNL A   1      40.954  28.568  29.328  1.00  0.00     0.034 A 
ATOM     54  C   UNL A   1      47.212  27.348  26.361  1.00  0.00     0.034 A 
ATOM     55  C   UNL A   1      41.895  29.660  29.399  1.00  0.00     0.049 A 
ATOM     56  C   UNL A   1      46.868  28.680  26.976  1.00  0.00     0.074 A 
ATOM     57  C   UNL A   1      41.734  30.901  29.995  1.00  0.00     0.029 A 
ATOM     58  N   UNL A   1      43.172  29.652  28.847  1.00  0.00    -0.354 N 
ATOM     59  N   UNL A   1      45.758  29.054  27.572  1.00  0.00    -0.248 NA
ATOM     60  C   UNL A   1      47.903  29.718  26.924  1.00  0.00     0.031 C 
ATOM     61  C   UNL A   1      42.878  31.664  29.736  1.00  0.00     0.029 A 
ATOM     62  C   UNL A   1      43.792  30.876  29.056  1.00  0.00     0.049 A 
ATOM     63  H   UNL A   1      43.577  28.888  28.377  1.00  0.00     0.167 HD
ATOM     64  C   UNL A   1      45.975  30.365  27.989  1.00  0.00     0.074 A 
ATOM     65  C   UNL A   1      47.329  30.704  27.597  1.00  0.00     0.031 C 
ATOM     66  C   UNL A   1      45.134  31.210  28.638  1.00  0.00     0.034 A 
BRANCH  53  67
ATOM     67  C   UNL A   1      39.557  28.768  29.871  1.00  0.00     0.023 A 
ATOM     68  C   UNL A   1      38.519  29.290  29.077  1.00  0.00     0.031 A 
ATOM     69  C   UNL A   1      39.263  28.463  31.211  1.00  0.00     0.131 A 
ATOM     70  C   UNL A   1      37.268  29.568  29.648  1.00  0.00     0.055 A 
ATOM     71  C   UNL A   1      37.989  28.659  31.752  1.00  0.00     0.041 A 
ATOM     72  F   UNL A   1      40.214  27.983  32.028  1.00  0.00    -0.206 F 
ATOM     73  C   UNL A   1      36.987  29.230  30.973  1.00  0.00     0.022 A 
BRANCH  70  74
ATOM     74  S   UNL A   1      36.065  30.520  28.680  1.00  0.00     0.124 S 
ATOM     75  O   UNL A   1      36.931  31.206  27.725  1.00  0.00    -0.237 OA
ATOM     76  O   UNL A   1      35.207  29.476  28.129  1.00  0.00    -0.237 OA
ATOM     77  O   UNL A   1      35.434  31.387  29.673  1.00  0.00    -0.744 OA
ENDBRANCH  70  74
ENDBRANCH  53  67
BRANCH  54  78
ATOM     78  C   UNL A   1      48.524  27.131  25.687  1.00  0.00     0.023 A 
ATOM     79  C   UNL A   1      49.630  26.629  26.392  1.00  0.00     0.031 A 
ATOM     80  C   UNL A   1      48.701  27.455  24.330  1.00  0.00     0.131 A 
ATOM     81  C   UNL A   1      50.872  26.507  25.751  1.00  0.00     0.055 A 
ATOM     82  C   UNL A   1      49.925  27.280  23.681  1.00  0.00     0.041 A 
ATOM     83  F   UNL A   1      47.676  27.935  23.608  1.00  0.00    -0.206 F 
ATOM     84  C   UNL A   1      51.023  26.814  24.397  1.00  0.00     0.022 A 
BRANCH  81  85
ATOM     85  S   UNL A   1      52.314  26.015  26.736  1.00  0.00     0.124 S 
ATOM     86  O   UNL A   1      52.575  24.671  26.232  1.00  0.00    -0.237 OA
ATOM     87  O   UNL A   1      53.291  27.037  26.376  1.00  0.00    -0.237 OA
ATOM     88  O   UNL A   1      51.824  26.082  28.111  1.00  0.00    -0.744 OA
ENDBRANCH  81  85
ENDBRANCH  54  78
BRANCH  66  89
ATOM     89  C   UNL A   1      45.679  32.576  28.992  1.00  0.00     0.023 A 
ATOM     90  C   UNL A   1      46.347  32.815  30.207  1.00  0.00     0.031 A 
ATOM     91  C   UNL A   1      45.497  33.661  28.116  1.00  0.00     0.131 A 
ATOM     92  C   UNL A   1      46.743  34.118  30.543  1.00  0.00     0.055 A 
ATOM     93  C   UNL A   1      45.958  34.941  28.424  1.00  0.00     0.041 A 
ATOM     94  F   UNL A   1      44.863  33.495  26.944  1.00  0.00    -0.206 F 
ATOM     95  C   UNL A   1      46.570  35.179  29.651  1.00  0.00     0.022 A 
BRANCH  92  96
ATOM     96  S   UNL A   1      47.381  34.430  32.212  1.00  0.00     0.124 S 
ATOM     97  O   UNL A   1      47.848  33.107  32.610  1.00  0.00    -0.237 OA
ATOM     98  O   UNL A   1      48.417  35.427  31.969  1.00  0.00    -0.237 OA
ATOM     99  O   UNL A   1      46.210  34.918  32.940  1.00  0.00    -0.744 OA
ENDBRANCH  92  96
ENDBRANCH  66  89
ENDBRANCH  40  41
ENDBRANCH  32  35
ENDBRANCH  30  31
ENDBRANCH  29  30
ENDBRANCH  28  29
ENDBRANCH   1  28
TORSDOF 22
ENDMDL
