MODEL 1
REMARK VINA RESULT:     -10.7      0.000      0.000
REMARK SMILES Cc1ccc(C(=O)NCCCCCCNC(=O)c2ccc(-c3c4nc(c(-c5cc(S(=O)(=O)[O-])ccc5F)c5ccc([nH]5)c(-c5cc(S(=O)(=O)[O-])ccc5F)c5nc(c(-c6cc(S(=O)(=O)[O-])ccc6F)c6ccc3[nH]6)C=C5)C=C4)cc2)cc1S(=O)(=O)N(CC1CC1)C(C)C
REMARK SMILES IDX 11 1 10 2 9 3 8 4 6 5 7 6 5 8 1 9 2 10 3 11 82 12 4 13 81 14
REMARK SMILES IDX 83 15 84 16 85 17 86 18 87 19 88 20 89 21 90 22 91 23 92 24
REMARK SMILES IDX 93 25 12 26 13 27 14 28 15 29 16 30 17 32 18 33 19 34 80 35
REMARK SMILES IDX 20 36 79 37 21 38 22 39 23 40 73 41 24 42 78 43 72 44 74 45
REMARK SMILES IDX 25 46 77 47 71 48 70 49 26 51 58 52 38 53 57 54 39 55 42 56
REMARK SMILES IDX 56 57 75 58 40 59 41 60 55 62 76 63 43 64 27 65 28 66 36 67
REMARK SMILES IDX 29 68 35 69 37 70 34 71 30 72 31 73 32 74 33 75 59 76 60 77
REMARK SMILES IDX 68 78 61 79 67 80 69 81 66 82 62 83 63 84 64 85 65 86 44 87
REMARK SMILES IDX 45 88 53 89 46 90 52 91 54 92 51 93 47 94 48 95 49 96 50 97
REMARK H PARENT 8 7 15 31 74 50 42 61
REMARK Flexibility Score: inf
ROOT
ATOM      1  C   UNL A   1      35.426  30.829  27.637  1.00  0.00     0.002 C 
ENDROOT
BRANCH   1   2
ATOM      2  C   UNL A   1      35.260  29.324  27.370  1.00  0.00     0.021 C 
BRANCH   2   3
ATOM      3  C   UNL A   1      33.912  28.948  26.749  1.00  0.00     0.116 C 
BRANCH   3   4
ATOM      4  N   UNL A   1      33.891  29.274  25.332  1.00  0.00    -0.352 N 
ATOM      5  C   UNL A   1      33.409  28.622  24.225  1.00  0.00     0.251 C 
ATOM      6  O   UNL A   1      33.481  29.192  23.134  1.00  0.00    -0.269 OA
ATOM      7  H   UNL A   1      34.308  30.141  25.124  1.00  0.00     0.163 HD
BRANCH   5   8
ATOM      8  C   UNL A   1      32.710  27.307  24.291  1.00  0.00     0.041 A 
ATOM      9  C   UNL A   1      30.907  23.522  25.368  1.00  0.00     0.046 C 
ATOM     10  C   UNL A   1      31.523  24.796  24.870  1.00  0.00    -0.031 A 
ATOM     11  C   UNL A   1      31.003  25.990  25.405  1.00  0.00     0.005 A 
ATOM     12  C   UNL A   1      32.570  24.896  23.933  1.00  0.00     0.086 A 
ATOM     13  C   UNL A   1      31.609  27.220  25.148  1.00  0.00     0.014 A 
ATOM     14  C   UNL A   1      33.108  26.161  23.604  1.00  0.00     0.035 A 
BRANCH  12  15
ATOM     15  S   UNL A   1      33.585  23.510  23.406  1.00  0.00     0.243 S 
ATOM     16  O   UNL A   1      32.747  22.627  22.618  1.00  0.00    -0.207 OA
ATOM     17  O   UNL A   1      34.717  24.160  22.782  1.00  0.00    -0.207 OA
BRANCH  15  18
ATOM     18  N   UNL A   1      34.118  22.647  24.761  1.00  0.00    -0.195 NA
BRANCH  18  19
ATOM     19  C   UNL A   1      34.567  21.237  24.649  1.00  0.00     0.106 C 
BRANCH  19  20
ATOM     20  C   UNL A   1      33.595  20.138  24.947  1.00  0.00     0.004 C 
ATOM     21  C   UNL A   1      32.757  19.351  23.966  1.00  0.00     0.005 C 
ATOM     22  C   UNL A   1      33.995  18.733  24.532  1.00  0.00     0.005 C 
ENDBRANCH  19  20
ENDBRANCH  18  19
BRANCH  18  23
ATOM     23  C   UNL A   1      34.763  23.387  25.912  1.00  0.00     0.067 C 
ATOM     24  C   UNL A   1      34.324  22.868  27.276  1.00  0.00     0.025 C 
ATOM     25  C   UNL A   1      36.289  23.446  25.864  1.00  0.00     0.025 C 
ENDBRANCH  18  23
ENDBRANCH  15  18
ENDBRANCH  12  15
ENDBRANCH   5   8
ENDBRANCH   3   4
ENDBRANCH   2   3
ENDBRANCH   1   2
BRANCH   1  26
ATOM     26  C   UNL A   1      34.150  31.585  28.048  1.00  0.00     0.002 C 
BRANCH  26  27
ATOM     27  C   UNL A   1      34.369  32.927  28.746  1.00  0.00     0.021 C 
BRANCH  27  28
ATOM     28  C   UNL A   1      34.420  32.828  30.266  1.00  0.00     0.116 C 
BRANCH  28  29
ATOM     29  N   UNL A   1      35.435  33.674  30.885  1.00  0.00    -0.352 N 
ATOM     30  C   UNL A   1      36.763  33.389  31.144  1.00  0.00     0.251 C 
ATOM     31  H   UNL A   1      35.134  34.571  31.155  1.00  0.00     0.163 HD
ATOM     32  O   UNL A   1      37.480  34.172  31.763  1.00  0.00    -0.269 OA
BRANCH  30  33
ATOM     33  C   UNL A   1      37.365  32.184  30.526  1.00  0.00     0.039 A 
ATOM     34  C   UNL A   1      37.580  31.082  31.364  1.00  0.00     0.014 A 
ATOM     35  C   UNL A   1      37.944  32.236  29.262  1.00  0.00     0.014 A 
ATOM     36  C   UNL A   1      38.574  30.164  31.038  1.00  0.00     0.010 A 
ATOM     37  C   UNL A   1      38.995  31.386  28.984  1.00  0.00     0.010 A 
ATOM     38  C   UNL A   1      39.350  30.394  29.902  1.00  0.00    -0.014 A 
BRANCH  38  39
ATOM     39  C   UNL A   1      40.625  29.731  29.673  1.00  0.00     0.031 A 
ATOM     40  C   UNL A   1      40.671  28.345  29.185  1.00  0.00     0.074 A 
ATOM     41  C   UNL A   1      41.781  30.390  29.902  1.00  0.00     0.049 A 
ATOM     42  N   UNL A   1      41.596  27.503  29.503  1.00  0.00    -0.248 NA
ATOM     43  C   UNL A   1      39.644  27.783  28.315  1.00  0.00     0.031 C 
ATOM     44  C   UNL A   1      43.131  29.965  29.539  1.00  0.00     0.029 A 
ATOM     45  N   UNL A   1      41.975  31.486  30.735  1.00  0.00    -0.354 N 
ATOM     46  C   UNL A   1      41.465  26.426  28.665  1.00  0.00     0.074 A 
ATOM     47  C   UNL A   1      40.188  26.600  28.010  1.00  0.00     0.031 C 
ATOM     48  C   UNL A   1      44.011  30.606  30.322  1.00  0.00     0.029 A 
ATOM     49  C   UNL A   1      43.253  31.359  31.305  1.00  0.00     0.049 A 
ATOM     50  H   UNL A   1      41.335  32.216  30.898  1.00  0.00     0.167 HD
ATOM     51  C   UNL A   1      42.512  25.579  28.471  1.00  0.00     0.034 A 
ATOM     52  C   UNL A   1      43.416  31.281  32.657  1.00  0.00     0.034 A 
ATOM     53  C   UNL A   1      43.697  25.986  29.217  1.00  0.00     0.049 A 
ATOM     54  C   UNL A   1      44.074  29.998  33.112  1.00  0.00     0.074 A 
ATOM     55  C   UNL A   1      44.850  26.662  28.849  1.00  0.00     0.029 A 
ATOM     56  N   UNL A   1      43.683  25.968  30.606  1.00  0.00    -0.354 N 
ATOM     57  N   UNL A   1      44.185  28.925  32.379  1.00  0.00    -0.248 NA
ATOM     58  C   UNL A   1      44.644  29.823  34.442  1.00  0.00     0.031 C 
ATOM     59  C   UNL A   1      45.522  27.067  30.030  1.00  0.00     0.029 A 
ATOM     60  C   UNL A   1      44.792  26.617  31.116  1.00  0.00     0.049 A 
ATOM     61  H   UNL A   1      42.978  25.551  31.153  1.00  0.00     0.167 HD
ATOM     62  C   UNL A   1      44.807  27.930  33.097  1.00  0.00     0.074 A 
ATOM     63  C   UNL A   1      45.086  28.554  34.379  1.00  0.00     0.031 C 
ATOM     64  C   UNL A   1      45.021  26.688  32.556  1.00  0.00     0.034 A 
BRANCH  51  65
ATOM     65  C   UNL A   1      42.527  24.595  27.331  1.00  0.00     0.023 A 
ATOM     66  C   UNL A   1      41.741  23.431  27.401  1.00  0.00     0.031 A 
ATOM     67  C   UNL A   1      43.327  24.734  26.182  1.00  0.00     0.131 A 
ATOM     68  C   UNL A   1      41.843  22.422  26.428  1.00  0.00     0.055 A 
ATOM     69  C   UNL A   1      43.468  23.709  25.236  1.00  0.00     0.041 A 
ATOM     70  F   UNL A   1      43.994  25.871  25.932  1.00  0.00    -0.206 F 
ATOM     71  C   UNL A   1      42.735  22.537  25.366  1.00  0.00     0.022 A 
BRANCH  68  72
ATOM     72  S   UNL A   1      40.789  20.954  26.579  1.00  0.00     0.124 S 
ATOM     73  O   UNL A   1      40.815  20.699  28.015  1.00  0.00    -0.237 OA
ATOM     74  O   UNL A   1      39.522  21.425  26.030  1.00  0.00    -0.237 OA
ATOM     75  O   UNL A   1      41.480  19.955  25.764  1.00  0.00    -0.744 OA
ENDBRANCH  68  72
ENDBRANCH  51  65
BRANCH  52  76
ATOM     76  C   UNL A   1      42.387  32.053  33.414  1.00  0.00     0.023 A 
ATOM     77  C   UNL A   1      41.262  31.336  33.880  1.00  0.00     0.031 A 
ATOM     78  C   UNL A   1      42.677  33.281  34.019  1.00  0.00     0.131 A 
ATOM     79  C   UNL A   1      40.580  31.759  35.028  1.00  0.00     0.055 A 
ATOM     80  C   UNL A   1      41.946  33.738  35.124  1.00  0.00     0.041 A 
ATOM     81  F   UNL A   1      43.746  33.996  33.638  1.00  0.00    -0.206 F 
ATOM     82  C   UNL A   1      40.925  32.952  35.665  1.00  0.00     0.022 A 
BRANCH  79  83
ATOM     83  S   UNL A   1      39.445  30.595  35.842  1.00  0.00     0.124 S 
ATOM     84  O   UNL A   1      38.996  31.363  36.998  1.00  0.00    -0.237 OA
ATOM     85  O   UNL A   1      38.438  30.354  34.811  1.00  0.00    -0.237 OA
ATOM     86  O   UNL A   1      40.291  29.441  36.141  1.00  0.00    -0.744 OA
ENDBRANCH  79  83
ENDBRANCH  52  76
BRANCH  64  87
ATOM     87  C   UNL A   1      45.538  25.439  33.261  1.00  0.00     0.023 A 
ATOM     88  C   UNL A   1      46.893  25.173  33.503  1.00  0.00     0.031 A 
ATOM     89  C   UNL A   1      44.641  24.457  33.763  1.00  0.00     0.131 A 
ATOM     90  C   UNL A   1      47.311  23.993  34.152  1.00  0.00     0.055 A 
ATOM     91  C   UNL A   1      45.052  23.311  34.455  1.00  0.00     0.041 A 
ATOM     92  F   UNL A   1      43.312  24.561  33.618  1.00  0.00    -0.206 F 
ATOM     93  C   UNL A   1      46.399  23.067  34.647  1.00  0.00     0.022 A 
BRANCH  90  94
ATOM     94  S   UNL A   1      49.091  23.680  34.298  1.00  0.00     0.124 S 
ATOM     95  O   UNL A   1      49.448  24.504  35.449  1.00  0.00    -0.237 OA
ATOM     96  O   UNL A   1      49.137  22.238  34.513  1.00  0.00    -0.237 OA
ATOM     97  O   UNL A   1      49.628  24.135  33.016  1.00  0.00    -0.744 OA
ENDBRANCH  90  94
ENDBRANCH  64  87
ENDBRANCH  38  39
ENDBRANCH  30  33
ENDBRANCH  28  29
ENDBRANCH  27  28
ENDBRANCH  26  27
ENDBRANCH   1  26
TORSDOF 21
ENDMDL
MODEL 2
REMARK VINA RESULT:     -10.4      1.751      2.197
REMARK SMILES Cc1ccc(C(=O)NCCCCCCNC(=O)c2ccc(-c3c4nc(c(-c5cc(S(=O)(=O)[O-])ccc5F)c5ccc([nH]5)c(-c5cc(S(=O)(=O)[O-])ccc5F)c5nc(c(-c6cc(S(=O)(=O)[O-])ccc6F)c6ccc3[nH]6)C=C5)C=C4)cc2)cc1S(=O)(=O)N(CC1CC1)C(C)C
REMARK SMILES IDX 11 1 10 2 9 3 8 4 6 5 7 6 5 8 1 9 2 10 3 11 82 12 4 13 81 14
REMARK SMILES IDX 83 15 84 16 85 17 86 18 87 19 88 20 89 21 90 22 91 23 92 24
REMARK SMILES IDX 93 25 12 26 13 27 14 28 15 29 16 30 17 32 18 33 19 34 80 35
REMARK SMILES IDX 20 36 79 37 21 38 22 39 23 40 73 41 24 42 78 43 72 44 74 45
REMARK SMILES IDX 25 46 77 47 71 48 70 49 26 51 58 52 38 53 57 54 39 55 42 56
REMARK SMILES IDX 56 57 75 58 40 59 41 60 55 62 76 63 43 64 27 65 28 66 36 67
REMARK SMILES IDX 29 68 35 69 37 70 34 71 30 72 31 73 32 74 33 75 59 76 60 77
REMARK SMILES IDX 68 78 61 79 67 80 69 81 66 82 62 83 63 84 64 85 65 86 44 87
REMARK SMILES IDX 45 88 53 89 46 90 52 91 54 92 51 93 47 94 48 95 49 96 50 97
REMARK H PARENT 8 7 15 31 74 50 42 61
REMARK Flexibility Score: inf
ROOT
ATOM      1  C   UNL A   1      35.109  29.914  27.405  1.00  0.00     0.002 C 
ENDROOT
BRANCH   1   2
ATOM      2  C   UNL A   1      34.420  28.758  26.660  1.00  0.00     0.021 C 
BRANCH   2   3
ATOM      3  C   UNL A   1      33.318  29.208  25.698  1.00  0.00     0.116 C 
BRANCH   3   4
ATOM      4  N   UNL A   1      33.768  29.107  24.318  1.00  0.00    -0.352 N 
ATOM      5  C   UNL A   1      33.617  28.149  23.348  1.00  0.00     0.251 C 
ATOM      6  O   UNL A   1      34.069  28.380  22.225  1.00  0.00    -0.269 OA
ATOM      7  H   UNL A   1      34.288  29.888  24.019  1.00  0.00     0.163 HD
BRANCH   5   8
ATOM      8  C   UNL A   1      32.845  26.891  23.556  1.00  0.00     0.041 A 
ATOM      9  C   UNL A   1      30.827  23.359  25.038  1.00  0.00     0.046 C 
ATOM     10  C   UNL A   1      31.516  24.532  24.404  1.00  0.00    -0.031 A 
ATOM     11  C   UNL A   1      31.061  25.806  24.794  1.00  0.00     0.005 A 
ATOM     12  C   UNL A   1      32.571  24.467  23.474  1.00  0.00     0.086 A 
ATOM     13  C   UNL A   1      31.737  26.964  24.405  1.00  0.00     0.014 A 
ATOM     14  C   UNL A   1      33.181  25.654  23.008  1.00  0.00     0.035 A 
BRANCH  12  15
ATOM     15  S   UNL A   1      33.509  22.975  23.119  1.00  0.00     0.243 S 
ATOM     16  O   UNL A   1      32.576  21.866  23.090  1.00  0.00    -0.207 OA
ATOM     17  O   UNL A   1      34.231  23.329  21.915  1.00  0.00    -0.207 OA
BRANCH  15  18
ATOM     18  N   UNL A   1      34.617  22.689  24.367  1.00  0.00    -0.195 NA
BRANCH  18  19
ATOM     19  C   UNL A   1      35.965  22.135  24.087  1.00  0.00     0.106 C 
BRANCH  19  20
ATOM     20  C   UNL A   1      36.541  21.117  25.022  1.00  0.00     0.004 C 
ATOM     21  C   UNL A   1      37.679  20.158  24.758  1.00  0.00     0.005 C 
ATOM     22  C   UNL A   1      37.933  21.391  25.565  1.00  0.00     0.005 C 
ENDBRANCH  19  20
ENDBRANCH  18  19
BRANCH  18  23
ATOM     23  C   UNL A   1      34.569  23.538  25.617  1.00  0.00     0.067 C 
ATOM     24  C   UNL A   1      34.365  22.719  26.887  1.00  0.00     0.025 C 
ATOM     25  C   UNL A   1      35.764  24.470  25.807  1.00  0.00     0.025 C 
ENDBRANCH  18  23
ENDBRANCH  15  18
ENDBRANCH  12  15
ENDBRANCH   5   8
ENDBRANCH   3   4
ENDBRANCH   2   3
ENDBRANCH   1   2
BRANCH   1  26
ATOM     26  C   UNL A   1      34.279  31.199  27.570  1.00  0.00     0.002 C 
BRANCH  26  27
ATOM     27  C   UNL A   1      34.889  32.274  28.468  1.00  0.00     0.021 C 
BRANCH  27  28
ATOM     28  C   UNL A   1      34.905  31.901  29.947  1.00  0.00     0.116 C 
BRANCH  28  29
ATOM     29  N   UNL A   1      35.858  32.669  30.744  1.00  0.00    -0.352 N 
ATOM     30  C   UNL A   1      37.132  32.317  31.150  1.00  0.00     0.251 C 
ATOM     31  H   UNL A   1      35.551  33.558  31.032  1.00  0.00     0.163 HD
ATOM     32  O   UNL A   1      37.786  33.032  31.905  1.00  0.00    -0.269 OA
BRANCH  30  33
ATOM     33  C   UNL A   1      37.772  31.131  30.534  1.00  0.00     0.039 A 
ATOM     34  C   UNL A   1      37.863  29.978  31.326  1.00  0.00     0.014 A 
ATOM     35  C   UNL A   1      38.494  31.236  29.350  1.00  0.00     0.014 A 
ATOM     36  C   UNL A   1      38.865  29.050  31.062  1.00  0.00     0.010 A 
ATOM     37  C   UNL A   1      39.550  30.370  29.144  1.00  0.00     0.010 A 
ATOM     38  C   UNL A   1      39.772  29.318  30.037  1.00  0.00    -0.014 A 
BRANCH  38  39
ATOM     39  C   UNL A   1      41.049  28.631  29.916  1.00  0.00     0.031 A 
ATOM     40  C   UNL A   1      41.127  27.300  29.295  1.00  0.00     0.074 A 
ATOM     41  C   UNL A   1      42.179  29.216  30.370  1.00  0.00     0.049 A 
ATOM     42  N   UNL A   1      41.976  26.394  29.646  1.00  0.00    -0.248 NA
ATOM     43  C   UNL A   1      40.217  26.871  28.238  1.00  0.00     0.031 C 
ATOM     44  C   UNL A   1      43.554  28.775  30.152  1.00  0.00     0.029 A 
ATOM     45  N   UNL A   1      42.282  30.213  31.333  1.00  0.00    -0.354 N 
ATOM     46  C   UNL A   1      41.935  25.413  28.688  1.00  0.00     0.074 A 
ATOM     47  C   UNL A   1      40.768  25.705  27.886  1.00  0.00     0.031 C 
ATOM     48  C   UNL A   1      44.332  29.296  31.112  1.00  0.00     0.029 A 
ATOM     49  C   UNL A   1      43.463  29.977  32.056  1.00  0.00     0.049 A 
ATOM     50  H   UNL A   1      41.645  30.948  31.482  1.00  0.00     0.167 HD
ATOM     51  C   UNL A   1      42.976  24.548  28.551  1.00  0.00     0.034 A 
ATOM     52  C   UNL A   1      43.432  29.756  33.401  1.00  0.00     0.034 A 
ATOM     53  C   UNL A   1      44.055  24.829  29.491  1.00  0.00     0.049 A 
ATOM     54  C   UNL A   1      43.986  28.408  33.804  1.00  0.00     0.074 A 
ATOM     55  C   UNL A   1      45.266  25.491  29.358  1.00  0.00     0.029 A 
ATOM     56  N   UNL A   1      43.845  24.671  30.856  1.00  0.00    -0.354 N 
ATOM     57  N   UNL A   1      44.171  27.411  32.984  1.00  0.00    -0.248 NA
ATOM     58  C   UNL A   1      44.359  28.075  35.174  1.00  0.00     0.031 C 
ATOM     59  C   UNL A   1      45.776  25.747  30.657  1.00  0.00     0.029 A 
ATOM     60  C   UNL A   1      44.889  25.219  31.579  1.00  0.00     0.049 A 
ATOM     61  H   UNL A   1      43.060  24.230  31.254  1.00  0.00     0.167 HD
ATOM     62  C   UNL A   1      44.659  26.323  33.671  1.00  0.00     0.074 A 
ATOM     63  C   UNL A   1      44.772  26.802  35.038  1.00  0.00     0.031 C 
ATOM     64  C   UNL A   1      44.914  25.134  33.035  1.00  0.00     0.034 A 
BRANCH  51  65
ATOM     65  C   UNL A   1      43.126  23.685  27.327  1.00  0.00     0.023 A 
ATOM     66  C   UNL A   1      42.698  22.345  27.358  1.00  0.00     0.031 A 
ATOM     67  C   UNL A   1      43.721  24.116  26.126  1.00  0.00     0.131 A 
ATOM     68  C   UNL A   1      42.956  21.471  26.288  1.00  0.00     0.055 A 
ATOM     69  C   UNL A   1      44.024  23.236  25.078  1.00  0.00     0.041 A 
ATOM     70  F   UNL A   1      44.021  25.409  25.925  1.00  0.00    -0.206 F 
ATOM     71  C   UNL A   1      43.655  21.900  25.163  1.00  0.00     0.022 A 
BRANCH  68  72
ATOM     72  S   UNL A   1      42.364  19.761  26.395  1.00  0.00     0.124 S 
ATOM     73  O   UNL A   1      41.195  19.781  25.522  1.00  0.00    -0.237 OA
ATOM     74  O   UNL A   1      43.516  19.004  25.915  1.00  0.00    -0.237 OA
ATOM     75  O   UNL A   1      42.066  19.593  27.818  1.00  0.00    -0.744 OA
ENDBRANCH  68  72
ENDBRANCH  51  65
BRANCH  52  76
ATOM     76  C   UNL A   1      42.328  30.488  34.088  1.00  0.00     0.023 A 
ATOM     77  C   UNL A   1      42.530  31.863  34.340  1.00  0.00     0.031 A 
ATOM     78  C   UNL A   1      41.014  30.005  34.102  1.00  0.00     0.131 A 
ATOM     79  C   UNL A   1      41.437  32.736  34.416  1.00  0.00     0.055 A 
ATOM     80  C   UNL A   1      39.923  30.872  34.250  1.00  0.00     0.041 A 
ATOM     81  F   UNL A   1      40.756  28.714  33.844  1.00  0.00    -0.206 F 
ATOM     82  C   UNL A   1      40.130  32.250  34.358  1.00  0.00     0.022 A 
BRANCH  79  83
ATOM     83  S   UNL A   1      41.743  34.523  34.295  1.00  0.00     0.124 S 
ATOM     84  O   UNL A   1      41.126  35.024  35.518  1.00  0.00    -0.237 OA
ATOM     85  O   UNL A   1      43.201  34.597  34.243  1.00  0.00    -0.237 OA
ATOM     86  O   UNL A   1      41.076  34.903  33.051  1.00  0.00    -0.744 OA
ENDBRANCH  79  83
ENDBRANCH  52  76
BRANCH  64  87
ATOM     87  C   UNL A   1      45.295  23.800  33.668  1.00  0.00     0.023 A 
ATOM     88  C   UNL A   1      46.605  23.428  33.999  1.00  0.00     0.031 A 
ATOM     89  C   UNL A   1      44.301  22.840  34.004  1.00  0.00     0.131 A 
ATOM     90  C   UNL A   1      46.895  22.174  34.575  1.00  0.00     0.055 A 
ATOM     91  C   UNL A   1      44.583  21.617  34.625  1.00  0.00     0.041 A 
ATOM     92  F   UNL A   1      42.999  23.042  33.758  1.00  0.00    -0.206 F 
ATOM     93  C   UNL A   1      45.891  21.271  34.907  1.00  0.00     0.022 A 
BRANCH  90  94
ATOM     94  S   UNL A   1      48.634  21.736  34.842  1.00  0.00     0.124 S 
ATOM     95  O   UNL A   1      48.730  20.452  34.153  1.00  0.00    -0.237 OA
ATOM     96  O   UNL A   1      49.336  22.847  34.209  1.00  0.00    -0.237 OA
ATOM     97  O   UNL A   1      48.754  21.672  36.298  1.00  0.00    -0.744 OA
ENDBRANCH  90  94
ENDBRANCH  64  87
ENDBRANCH  38  39
ENDBRANCH  30  33
ENDBRANCH  28  29
ENDBRANCH  27  28
ENDBRANCH  26  27
ENDBRANCH   1  26
TORSDOF 21
ENDMDL
MODEL 3
REMARK VINA RESULT:      -9.8      2.158      2.910
REMARK SMILES Cc1ccc(C(=O)NCCCCCCNC(=O)c2ccc(-c3c4nc(c(-c5cc(S(=O)(=O)[O-])ccc5F)c5ccc([nH]5)c(-c5cc(S(=O)(=O)[O-])ccc5F)c5nc(c(-c6cc(S(=O)(=O)[O-])ccc6F)c6ccc3[nH]6)C=C5)C=C4)cc2)cc1S(=O)(=O)N(CC1CC1)C(C)C
REMARK SMILES IDX 11 1 10 2 9 3 8 4 6 5 7 6 5 8 1 9 2 10 3 11 82 12 4 13 81 14
REMARK SMILES IDX 83 15 84 16 85 17 86 18 87 19 88 20 89 21 90 22 91 23 92 24
REMARK SMILES IDX 93 25 12 26 13 27 14 28 15 29 16 30 17 32 18 33 19 34 80 35
REMARK SMILES IDX 20 36 79 37 21 38 22 39 23 40 73 41 24 42 78 43 72 44 74 45
REMARK SMILES IDX 25 46 77 47 71 48 70 49 26 51 58 52 38 53 57 54 39 55 42 56
REMARK SMILES IDX 56 57 75 58 40 59 41 60 55 62 76 63 43 64 27 65 28 66 36 67
REMARK SMILES IDX 29 68 35 69 37 70 34 71 30 72 31 73 32 74 33 75 59 76 60 77
REMARK SMILES IDX 68 78 61 79 67 80 69 81 66 82 62 83 63 84 64 85 65 86 44 87
REMARK SMILES IDX 45 88 53 89 46 90 52 91 54 92 51 93 47 94 48 95 49 96 50 97
REMARK H PARENT 8 7 15 31 74 50 42 61
REMARK Flexibility Score: inf
ROOT
ATOM      1  C   UNL A   1      35.178  32.998  29.145  1.00  0.00     0.002 C 
ENDROOT
BRANCH   1   2
ATOM      2  C   UNL A   1      34.144  33.181  28.022  1.00  0.00     0.021 C 
BRANCH   2   3
ATOM      3  C   UNL A   1      33.663  31.868  27.401  1.00  0.00     0.116 C 
BRANCH   3   4
ATOM      4  N   UNL A   1      34.708  30.858  27.462  1.00  0.00    -0.352 N 
ATOM      5  C   UNL A   1      34.730  29.512  27.199  1.00  0.00     0.251 C 
ATOM      6  O   UNL A   1      35.808  28.919  27.282  1.00  0.00    -0.269 OA
ATOM      7  H   UNL A   1      35.579  31.214  27.752  1.00  0.00     0.163 HD
BRANCH   5   8
ATOM      8  C   UNL A   1      33.540  28.753  26.719  1.00  0.00     0.041 A 
ATOM      9  C   UNL A   1      30.278  25.994  26.025  1.00  0.00     0.046 C 
ATOM     10  C   UNL A   1      31.388  26.996  26.145  1.00  0.00    -0.031 A 
ATOM     11  C   UNL A   1      31.404  27.769  27.321  1.00  0.00     0.005 A 
ATOM     12  C   UNL A   1      32.407  27.216  25.198  1.00  0.00     0.086 A 
ATOM     13  C   UNL A   1      32.480  28.607  27.619  1.00  0.00     0.014 A 
ATOM     14  C   UNL A   1      33.438  28.144  25.469  1.00  0.00     0.035 A 
BRANCH  12  15
ATOM     15  S   UNL A   1      32.757  26.115  23.822  1.00  0.00     0.243 S 
ATOM     16  O   UNL A   1      31.491  25.753  23.215  1.00  0.00    -0.207 OA
ATOM     17  O   UNL A   1      33.726  26.864  23.050  1.00  0.00    -0.207 OA
BRANCH  15  18
ATOM     18  N   UNL A   1      33.482  24.697  24.397  1.00  0.00    -0.195 NA
BRANCH  18  19
ATOM     19  C   UNL A   1      32.741  23.754  25.271  1.00  0.00     0.106 C 
BRANCH  19  20
ATOM     20  C   UNL A   1      33.164  23.603  26.699  1.00  0.00     0.004 C 
ATOM     21  C   UNL A   1      32.669  22.593  27.709  1.00  0.00     0.005 C 
ATOM     22  C   UNL A   1      33.991  22.377  27.046  1.00  0.00     0.005 C 
ENDBRANCH  19  20
ENDBRANCH  18  19
BRANCH  18  23
ATOM     23  C   UNL A   1      34.565  24.028  23.581  1.00  0.00     0.067 C 
ATOM     24  C   UNL A   1      35.863  23.834  24.355  1.00  0.00     0.025 C 
ATOM     25  C   UNL A   1      34.159  22.701  22.940  1.00  0.00     0.025 C 
ENDBRANCH  18  23
ENDBRANCH  15  18
ENDBRANCH  12  15
ENDBRANCH   5   8
ENDBRANCH   3   4
ENDBRANCH   2   3
ENDBRANCH   1   2
BRANCH   1  26
ATOM     26  C   UNL A   1      34.609  32.742  30.552  1.00  0.00     0.002 C 
BRANCH  26  27
ATOM     27  C   UNL A   1      34.191  33.985  31.336  1.00  0.00     0.021 C 
BRANCH  27  28
ATOM     28  C   UNL A   1      34.173  33.781  32.847  1.00  0.00     0.116 C 
BRANCH  28  29
ATOM     29  N   UNL A   1      35.196  34.538  33.563  1.00  0.00    -0.352 N 
ATOM     30  C   UNL A   1      36.548  34.274  33.682  1.00  0.00     0.251 C 
ATOM     31  H   UNL A   1      34.879  35.347  34.024  1.00  0.00     0.163 HD
ATOM     32  O   UNL A   1      37.274  34.954  34.403  1.00  0.00    -0.269 OA
BRANCH  30  33
ATOM     33  C   UNL A   1      37.151  33.247  32.801  1.00  0.00     0.039 A 
ATOM     34  C   UNL A   1      37.184  31.934  33.289  1.00  0.00     0.014 A 
ATOM     35  C   UNL A   1      37.896  33.606  31.682  1.00  0.00     0.014 A 
ATOM     36  C   UNL A   1      38.154  31.056  32.814  1.00  0.00     0.010 A 
ATOM     37  C   UNL A   1      38.921  32.773  31.279  1.00  0.00     0.010 A 
ATOM     38  C   UNL A   1      39.088  31.527  31.891  1.00  0.00    -0.014 A 
BRANCH  38  39
ATOM     39  C   UNL A   1      40.339  30.837  31.615  1.00  0.00     0.031 A 
ATOM     40  C   UNL A   1      40.356  29.618  30.793  1.00  0.00     0.074 A 
ATOM     41  C   UNL A   1      41.501  31.318  32.108  1.00  0.00     0.049 A 
ATOM     42  N   UNL A   1      41.190  28.648  30.967  1.00  0.00    -0.248 NA
ATOM     43  C   UNL A   1      39.397  29.379  29.720  1.00  0.00     0.031 C 
ATOM     44  C   UNL A   1      42.854  30.884  31.771  1.00  0.00     0.029 A 
ATOM     45  N   UNL A   1      41.667  32.151  33.209  1.00  0.00    -0.354 N 
ATOM     46  C   UNL A   1      41.086  27.829  29.872  1.00  0.00     0.074 A 
ATOM     47  C   UNL A   1      39.901  28.269  29.171  1.00  0.00     0.031 C 
ATOM     48  C   UNL A   1      43.681  31.232  32.769  1.00  0.00     0.029 A 
ATOM     49  C   UNL A   1      42.866  31.778  33.839  1.00  0.00     0.049 A 
ATOM     50  H   UNL A   1      41.058  32.869  33.495  1.00  0.00     0.167 HD
ATOM     51  C   UNL A   1      42.096  26.972  29.562  1.00  0.00     0.034 A 
ATOM     52  C   UNL A   1      42.876  31.352  35.135  1.00  0.00     0.034 A 
ATOM     53  C   UNL A   1      43.216  27.078  30.491  1.00  0.00     0.049 A 
ATOM     54  C   UNL A   1      43.404  29.945  35.303  1.00  0.00     0.074 A 
ATOM     55  C   UNL A   1      44.440  27.724  30.414  1.00  0.00     0.029 A 
ATOM     56  N   UNL A   1      43.050  26.716  31.822  1.00  0.00    -0.354 N 
ATOM     57  N   UNL A   1      43.531  29.083  34.332  1.00  0.00    -0.248 NA
ATOM     58  C   UNL A   1      43.816  29.396  36.589  1.00  0.00     0.031 C 
ATOM     59  C   UNL A   1      45.003  27.764  31.715  1.00  0.00     0.029 A 
ATOM     60  C   UNL A   1      44.134  27.120  32.579  1.00  0.00     0.049 A 
ATOM     61  H   UNL A   1      42.266  26.236  32.178  1.00  0.00     0.167 HD
ATOM     62  C   UNL A   1      44.011  27.891  34.824  1.00  0.00     0.074 A 
ATOM     63  C   UNL A   1      44.186  28.150  36.243  1.00  0.00     0.031 C 
ATOM     64  C   UNL A   1      44.208  26.810  34.003  1.00  0.00     0.034 A 
BRANCH  51  65
ATOM     65  C   UNL A   1      42.177  26.306  28.214  1.00  0.00     0.023 A 
ATOM     66  C   UNL A   1      41.855  24.942  28.087  1.00  0.00     0.031 A 
ATOM     67  C   UNL A   1      42.606  26.953  27.040  1.00  0.00     0.131 A 
ATOM     68  C   UNL A   1      42.061  24.254  26.879  1.00  0.00     0.055 A 
ATOM     69  C   UNL A   1      42.859  26.259  25.848  1.00  0.00     0.041 A 
ATOM     70  F   UNL A   1      42.786  28.282  27.006  1.00  0.00    -0.206 F 
ATOM     71  C   UNL A   1      42.601  24.896  25.769  1.00  0.00     0.022 A 
BRANCH  68  72
ATOM     72  S   UNL A   1      41.613  22.499  26.787  1.00  0.00     0.124 S 
ATOM     73  O   UNL A   1      41.832  22.050  28.158  1.00  0.00    -0.237 OA
ATOM     74  O   UNL A   1      40.224  22.558  26.341  1.00  0.00    -0.237 OA
ATOM     75  O   UNL A   1      42.553  21.960  25.805  1.00  0.00    -0.744 OA
ENDBRANCH  68  72
ENDBRANCH  51  65
BRANCH  52  76
ATOM     76  C   UNL A   1      41.819  31.994  35.970  1.00  0.00     0.023 A 
ATOM     77  C   UNL A   1      41.976  33.368  36.258  1.00  0.00     0.031 A 
ATOM     78  C   UNL A   1      40.542  31.437  36.106  1.00  0.00     0.131 A 
ATOM     79  C   UNL A   1      40.854  34.174  36.490  1.00  0.00     0.055 A 
ATOM     80  C   UNL A   1      39.430  32.236  36.410  1.00  0.00     0.041 A 
ATOM     81  F   UNL A   1      40.324  30.145  35.823  1.00  0.00    -0.206 F 
ATOM     82  C   UNL A   1      39.576  33.618  36.554  1.00  0.00     0.022 A 
BRANCH  79  83
ATOM     83  S   UNL A   1      41.051  35.980  36.414  1.00  0.00     0.124 S 
ATOM     84  O   UNL A   1      42.032  36.136  35.345  1.00  0.00    -0.237 OA
ATOM     85  O   UNL A   1      39.698  36.438  36.106  1.00  0.00    -0.237 OA
ATOM     86  O   UNL A   1      41.517  36.332  37.753  1.00  0.00    -0.744 OA
ENDBRANCH  79  83
ENDBRANCH  52  76
BRANCH  64  87
ATOM     87  C   UNL A   1      44.572  25.385  34.407  1.00  0.00     0.023 A 
ATOM     88  C   UNL A   1      45.885  24.909  34.528  1.00  0.00     0.031 A 
ATOM     89  C   UNL A   1      43.563  24.437  34.732  1.00  0.00     0.131 A 
ATOM     90  C   UNL A   1      46.157  23.576  34.897  1.00  0.00     0.055 A 
ATOM     91  C   UNL A   1      43.835  23.129  35.150  1.00  0.00     0.041 A 
ATOM     92  F   UNL A   1      42.257  24.732  34.671  1.00  0.00    -0.206 F 
ATOM     93  C   UNL A   1      45.142  22.685  35.227  1.00  0.00     0.022 A 
BRANCH  90  94
ATOM     94  S   UNL A   1      47.883  23.023  34.895  1.00  0.00     0.124 S 
ATOM     95  O   UNL A   1      47.764  21.662  34.377  1.00  0.00    -0.237 OA
ATOM     96  O   UNL A   1      48.518  23.985  34.002  1.00  0.00    -0.237 OA
ATOM     97  O   UNL A   1      48.280  23.121  36.299  1.00  0.00    -0.744 OA
ENDBRANCH  90  94
ENDBRANCH  64  87
ENDBRANCH  38  39
ENDBRANCH  30  33
ENDBRANCH  28  29
ENDBRANCH  27  28
ENDBRANCH  26  27
ENDBRANCH   1  26
TORSDOF 21
ENDMDL
