MODEL 1
REMARK VINA RESULT:     -11.7      0.000      0.000
REMARK SMILES C[C@@H](C(=O)NCCCCCCNC(=O)c1ccc(-c2c3nc(c(-c4cc(S(=O)(=O)[O-])ccc4F)c4ccc([nH]4)c(-c4cc(S(=O)(=O)[O-])ccc4F)c4nc(c(-c5cc(S(=O)(=O)[O-])ccc5F)c5ccc2[nH]5)C=C4)C=C3)cc1)c1ccc(-c2ccn(C(F)F)c(=O)c2)cc1
REMARK SMILES IDX 8 1 7 2 6 3 5 4 3 5 4 6 2 8 1 9 78 10 79 11 93 12 80 13
REMARK SMILES IDX 92 14 81 15 82 16 83 17 91 18 84 19 89 20 85 21 90 22 86 23
REMARK SMILES IDX 87 24 88 25 9 26 10 27 11 28 12 29 13 30 14 32 15 33 16 34
REMARK SMILES IDX 77 35 17 36 76 37 18 38 19 39 20 40 70 41 21 42 75 43 69 44
REMARK SMILES IDX 71 45 22 46 74 47 68 48 67 49 23 51 55 52 35 53 54 54 36 55
REMARK SMILES IDX 39 56 53 57 72 58 37 59 38 60 52 62 73 63 40 64 24 65 25 66
REMARK SMILES IDX 33 67 26 68 32 69 34 70 31 71 27 72 28 73 29 74 30 75 56 76
REMARK SMILES IDX 57 77 65 78 58 79 64 80 66 81 63 82 59 83 60 84 61 85 62 86
REMARK SMILES IDX 41 87 42 88 50 89 43 90 49 91 51 92 48 93 44 94 45 95 46 96
REMARK SMILES IDX 47 97
REMARK H PARENT 5 7 12 31 71 50 39 61
REMARK Flexibility Score: inf
ROOT
ATOM      1  C   UNL A   1      34.134  25.493  25.865  1.00  0.00     0.002 C 
ENDROOT
BRANCH   1   2
ATOM      2  C   UNL A   1      33.628  24.288  26.673  1.00  0.00     0.021 C 
BRANCH   2   3
ATOM      3  C   UNL A   1      33.921  22.941  26.008  1.00  0.00     0.116 C 
BRANCH   3   4
ATOM      4  N   UNL A   1      34.568  23.154  24.730  1.00  0.00    -0.356 N 
ATOM      5  C   UNL A   1      34.102  22.934  23.468  1.00  0.00     0.227 C 
ATOM      6  O   UNL A   1      34.933  22.966  22.558  1.00  0.00    -0.274 OA
ATOM      7  H   UNL A   1      35.484  23.513  24.780  1.00  0.00     0.163 HD
BRANCH   5   8
ATOM      8  C   UNL A   1      32.593  22.731  23.227  1.00  0.00     0.105 C 
ATOM      9  C   UNL A   1      32.310  21.857  21.999  1.00  0.00     0.023 C 
BRANCH   8  10
ATOM     10  C   UNL A   1      31.871  24.079  23.170  1.00  0.00    -0.036 A 
ATOM     11  C   UNL A   1      32.226  25.085  22.258  1.00  0.00     0.005 A 
ATOM     12  C   UNL A   1      30.847  24.347  24.093  1.00  0.00     0.005 A 
ATOM     13  C   UNL A   1      31.558  26.309  22.246  1.00  0.00     0.009 A 
ATOM     14  C   UNL A   1      30.185  25.576  24.091  1.00  0.00     0.009 A 
ATOM     15  C   UNL A   1      30.526  26.559  23.156  1.00  0.00    -0.018 A 
BRANCH  15  16
ATOM     16  C   UNL A   1      29.800  27.837  23.122  1.00  0.00    -0.011 A 
ATOM     17  C   UNL A   1      30.463  29.124  23.088  1.00  0.00     0.027 A 
ATOM     18  C   UNL A   1      28.457  27.787  23.144  1.00  0.00     0.080 A 
ATOM     19  C   UNL A   1      29.746  30.253  23.108  1.00  0.00     0.095 A 
ATOM     20  C   UNL A   1      27.647  29.033  23.153  1.00  0.00     0.255 A 
ATOM     21  N   UNL A   1      28.364  30.220  23.150  1.00  0.00    -0.258 N 
ATOM     22  O   UNL A   1      26.425  28.939  23.170  1.00  0.00    -0.269 OA
BRANCH  21  23
ATOM     23  C   UNL A   1      27.603  31.437  23.218  1.00  0.00     0.451 C 
ATOM     24  F   UNL A   1      26.945  31.544  24.398  1.00  0.00    -0.185 F 
ATOM     25  F   UNL A   1      28.408  32.520  23.088  1.00  0.00    -0.185 F 
ENDBRANCH  21  23
ENDBRANCH  15  16
ENDBRANCH   8  10
ENDBRANCH   5   8
ENDBRANCH   3   4
ENDBRANCH   2   3
ENDBRANCH   1   2
BRANCH   1  26
ATOM     26  C   UNL A   1      33.126  26.636  25.722  1.00  0.00     0.002 C 
BRANCH  26  27
ATOM     27  C   UNL A   1      33.370  27.820  26.658  1.00  0.00     0.021 C 
BRANCH  27  28
ATOM     28  C   UNL A   1      34.258  28.909  26.066  1.00  0.00     0.116 C 
BRANCH  28  29
ATOM     29  N   UNL A   1      33.873  30.230  26.538  1.00  0.00    -0.352 N 
ATOM     30  C   UNL A   1      34.393  30.958  27.579  1.00  0.00     0.251 C 
ATOM     31  H   UNL A   1      33.140  30.662  26.043  1.00  0.00     0.163 HD
ATOM     32  O   UNL A   1      33.799  31.951  27.992  1.00  0.00    -0.269 OA
BRANCH  30  33
ATOM     33  C   UNL A   1      35.656  30.522  28.211  1.00  0.00     0.039 A 
ATOM     34  C   UNL A   1      35.606  29.735  29.363  1.00  0.00     0.014 A 
ATOM     35  C   UNL A   1      36.888  30.878  27.652  1.00  0.00     0.014 A 
ATOM     36  C   UNL A   1      36.793  29.251  29.919  1.00  0.00     0.010 A 
ATOM     37  C   UNL A   1      38.060  30.329  28.160  1.00  0.00     0.010 A 
ATOM     38  C   UNL A   1      38.026  29.512  29.301  1.00  0.00    -0.014 A 
BRANCH  38  39
ATOM     39  C   UNL A   1      39.293  28.945  29.833  1.00  0.00     0.031 A 
ATOM     40  C   UNL A   1      39.985  29.608  30.992  1.00  0.00     0.074 A 
ATOM     41  C   UNL A   1      39.859  27.884  29.223  1.00  0.00     0.049 A 
ATOM     42  N   UNL A   1      41.142  29.330  31.536  1.00  0.00    -0.248 NA
ATOM     43  C   UNL A   1      39.296  30.758  31.595  1.00  0.00     0.031 C 
ATOM     44  C   UNL A   1      39.304  27.185  28.062  1.00  0.00     0.029 A 
ATOM     45  N   UNL A   1      41.031  27.220  29.481  1.00  0.00    -0.354 N 
ATOM     46  C   UNL A   1      41.329  30.280  32.535  1.00  0.00     0.074 A 
ATOM     47  C   UNL A   1      40.195  31.180  32.471  1.00  0.00     0.031 C 
ATOM     48  C   UNL A   1      40.128  26.183  27.717  1.00  0.00     0.029 A 
ATOM     49  C   UNL A   1      41.296  26.200  28.595  1.00  0.00     0.049 A 
ATOM     50  H   UNL A   1      41.628  27.450  30.230  1.00  0.00     0.167 HD
ATOM     51  C   UNL A   1      42.339  30.378  33.434  1.00  0.00     0.034 A 
ATOM     52  C   UNL A   1      42.367  25.389  28.481  1.00  0.00     0.034 A 
ATOM     53  C   UNL A   1      43.458  29.468  33.480  1.00  0.00     0.049 A 
ATOM     54  C   UNL A   1      43.496  25.533  29.468  1.00  0.00     0.074 A 
ATOM     55  C   UNL A   1      44.503  29.432  34.385  1.00  0.00     0.029 A 
ATOM     56  N   UNL A   1      43.688  28.442  32.569  1.00  0.00    -0.354 N 
ATOM     57  N   UNL A   1      43.629  26.396  30.450  1.00  0.00    -0.248 NA
ATOM     58  C   UNL A   1      44.614  24.590  29.341  1.00  0.00     0.031 C 
ATOM     59  C   UNL A   1      45.407  28.447  33.974  1.00  0.00     0.029 A 
ATOM     60  C   UNL A   1      44.882  27.799  32.867  1.00  0.00     0.049 A 
ATOM     61  H   UNL A   1      43.092  28.206  31.822  1.00  0.00     0.167 HD
ATOM     62  C   UNL A   1      44.832  26.080  31.074  1.00  0.00     0.074 A 
ATOM     63  C   UNL A   1      45.379  24.942  30.365  1.00  0.00     0.031 C 
ATOM     64  C   UNL A   1      45.427  26.673  32.141  1.00  0.00     0.034 A 
BRANCH  51  65
ATOM     65  C   UNL A   1      42.291  31.534  34.410  1.00  0.00     0.023 A 
ATOM     66  C   UNL A   1      41.445  31.520  35.534  1.00  0.00     0.031 A 
ATOM     67  C   UNL A   1      43.066  32.686  34.188  1.00  0.00     0.131 A 
ATOM     68  C   UNL A   1      41.319  32.668  36.331  1.00  0.00     0.055 A 
ATOM     69  C   UNL A   1      43.009  33.790  35.043  1.00  0.00     0.041 A 
ATOM     70  F   UNL A   1      43.877  32.771  33.122  1.00  0.00    -0.206 F 
ATOM     71  C   UNL A   1      42.116  33.793  36.111  1.00  0.00     0.022 A 
BRANCH  68  72
ATOM     72  S   UNL A   1      39.966  32.734  37.539  1.00  0.00     0.124 S 
ATOM     73  O   UNL A   1      39.461  34.091  37.342  1.00  0.00    -0.237 OA
ATOM     74  O   UNL A   1      39.093  31.656  37.092  1.00  0.00    -0.237 OA
ATOM     75  O   UNL A   1      40.638  32.508  38.817  1.00  0.00    -0.744 OA
ENDBRANCH  68  72
ENDBRANCH  51  65
BRANCH  52  76
ATOM     76  C   UNL A   1      42.433  24.393  27.372  1.00  0.00     0.023 A 
ATOM     77  C   UNL A   1      41.682  23.208  27.408  1.00  0.00     0.031 A 
ATOM     78  C   UNL A   1      43.269  24.610  26.263  1.00  0.00     0.131 A 
ATOM     79  C   UNL A   1      41.808  22.269  26.370  1.00  0.00     0.055 A 
ATOM     80  C   UNL A   1      43.350  23.700  25.208  1.00  0.00     0.041 A 
ATOM     81  F   UNL A   1      44.007  25.729  26.176  1.00  0.00    -0.206 F 
ATOM     82  C   UNL A   1      42.624  22.515  25.263  1.00  0.00     0.022 A 
BRANCH  79  83
ATOM     83  S   UNL A   1      40.944  20.681  26.523  1.00  0.00     0.124 S 
ATOM     84  O   UNL A   1      41.806  19.799  25.743  1.00  0.00    -0.237 OA
ATOM     85  O   UNL A   1      40.949  20.472  27.966  1.00  0.00    -0.237 OA
ATOM     86  O   UNL A   1      39.633  20.950  25.937  1.00  0.00    -0.744 OA
ENDBRANCH  79  83
ENDBRANCH  52  76
BRANCH  64  87
ATOM     87  C   UNL A   1      46.720  26.070  32.639  1.00  0.00     0.023 A 
ATOM     88  C   UNL A   1      46.741  25.012  33.565  1.00  0.00     0.031 A 
ATOM     89  C   UNL A   1      47.951  26.557  32.166  1.00  0.00     0.131 A 
ATOM     90  C   UNL A   1      47.968  24.509  34.023  1.00  0.00     0.055 A 
ATOM     91  C   UNL A   1      49.167  26.009  32.575  1.00  0.00     0.041 A 
ATOM     92  F   UNL A   1      47.992  27.570  31.285  1.00  0.00    -0.206 F 
ATOM     93  C   UNL A   1      49.180  24.986  33.518  1.00  0.00     0.022 A 
BRANCH  90  94
ATOM     94  S   UNL A   1      47.964  23.279  35.357  1.00  0.00     0.124 S 
ATOM     95  O   UNL A   1      49.389  23.127  35.632  1.00  0.00    -0.237 OA
ATOM     96  O   UNL A   1      47.182  23.945  36.393  1.00  0.00    -0.237 OA
ATOM     97  O   UNL A   1      47.321  22.115  34.749  1.00  0.00    -0.744 OA
ENDBRANCH  90  94
ENDBRANCH  64  87
ENDBRANCH  38  39
ENDBRANCH  30  33
ENDBRANCH  28  29
ENDBRANCH  27  28
ENDBRANCH  26  27
ENDBRANCH   1  26
TORSDOF 19
ENDMDL
MODEL 2
REMARK VINA RESULT:     -11.1      1.815      2.128
REMARK SMILES C[C@@H](C(=O)NCCCCCCNC(=O)c1ccc(-c2c3nc(c(-c4cc(S(=O)(=O)[O-])ccc4F)c4ccc([nH]4)c(-c4cc(S(=O)(=O)[O-])ccc4F)c4nc(c(-c5cc(S(=O)(=O)[O-])ccc5F)c5ccc2[nH]5)C=C4)C=C3)cc1)c1ccc(-c2ccn(C(F)F)c(=O)c2)cc1
REMARK SMILES IDX 8 1 7 2 6 3 5 4 3 5 4 6 2 8 1 9 78 10 79 11 93 12 80 13
REMARK SMILES IDX 92 14 81 15 82 16 83 17 91 18 84 19 89 20 85 21 90 22 86 23
REMARK SMILES IDX 87 24 88 25 9 26 10 27 11 28 12 29 13 30 14 32 15 33 16 34
REMARK SMILES IDX 77 35 17 36 76 37 18 38 19 39 20 40 70 41 21 42 75 43 69 44
REMARK SMILES IDX 71 45 22 46 74 47 68 48 67 49 23 51 55 52 35 53 54 54 36 55
REMARK SMILES IDX 39 56 53 57 72 58 37 59 38 60 52 62 73 63 40 64 24 65 25 66
REMARK SMILES IDX 33 67 26 68 32 69 34 70 31 71 27 72 28 73 29 74 30 75 56 76
REMARK SMILES IDX 57 77 65 78 58 79 64 80 66 81 63 82 59 83 60 84 61 85 62 86
REMARK SMILES IDX 41 87 42 88 50 89 43 90 49 91 51 92 48 93 44 94 45 95 46 96
REMARK SMILES IDX 47 97
REMARK H PARENT 5 7 12 31 71 50 39 61
REMARK Flexibility Score: inf
ROOT
ATOM      1  C   UNL A   1      33.923  25.276  26.116  1.00  0.00     0.002 C 
ENDROOT
BRANCH   1   2
ATOM      2  C   UNL A   1      33.261  24.090  26.835  1.00  0.00     0.021 C 
BRANCH   2   3
ATOM      3  C   UNL A   1      33.606  22.733  26.217  1.00  0.00     0.116 C 
BRANCH   3   4
ATOM      4  N   UNL A   1      34.352  22.927  24.991  1.00  0.00    -0.356 N 
ATOM      5  C   UNL A   1      33.980  22.707  23.699  1.00  0.00     0.227 C 
ATOM      6  O   UNL A   1      34.878  22.718  22.854  1.00  0.00    -0.274 OA
ATOM      7  H   UNL A   1      35.268  23.269  25.109  1.00  0.00     0.163 HD
BRANCH   5   8
ATOM      8  C   UNL A   1      32.490  22.531  23.345  1.00  0.00     0.105 C 
ATOM      9  C   UNL A   1      32.288  21.752  22.039  1.00  0.00     0.023 C 
BRANCH   8  10
ATOM     10  C   UNL A   1      31.773  23.883  23.340  1.00  0.00    -0.036 A 
ATOM     11  C   UNL A   1      30.682  24.160  24.178  1.00  0.00     0.005 A 
ATOM     12  C   UNL A   1      32.186  24.873  22.433  1.00  0.00     0.005 A 
ATOM     13  C   UNL A   1      30.041  25.398  24.133  1.00  0.00     0.009 A 
ATOM     14  C   UNL A   1      31.538  26.109  22.379  1.00  0.00     0.009 A 
ATOM     15  C   UNL A   1      30.471  26.384  23.241  1.00  0.00    -0.018 A 
BRANCH  15  16
ATOM     16  C   UNL A   1      29.817  27.700  23.218  1.00  0.00    -0.011 A 
ATOM     17  C   UNL A   1      30.543  28.948  23.335  1.00  0.00     0.027 A 
ATOM     18  C   UNL A   1      28.478  27.725  23.102  1.00  0.00     0.080 A 
ATOM     19  C   UNL A   1      29.885  30.112  23.358  1.00  0.00     0.095 A 
ATOM     20  C   UNL A   1      27.734  29.011  23.111  1.00  0.00     0.255 A 
ATOM     21  N   UNL A   1      28.506  30.154  23.258  1.00  0.00    -0.258 N 
ATOM     22  O   UNL A   1      26.513  28.985  22.999  1.00  0.00    -0.269 OA
BRANCH  21  23
ATOM     23  C   UNL A   1      27.803  31.405  23.330  1.00  0.00     0.451 C 
ATOM     24  F   UNL A   1      27.092  31.509  24.479  1.00  0.00    -0.185 F 
ATOM     25  F   UNL A   1      28.666  32.450  23.275  1.00  0.00    -0.185 F 
ENDBRANCH  21  23
ENDBRANCH  15  16
ENDBRANCH   8  10
ENDBRANCH   5   8
ENDBRANCH   3   4
ENDBRANCH   2   3
ENDBRANCH   1   2
BRANCH   1  26
ATOM     26  C   UNL A   1      33.016  26.495  25.925  1.00  0.00     0.002 C 
BRANCH  26  27
ATOM     27  C   UNL A   1      33.384  27.702  26.789  1.00  0.00     0.021 C 
BRANCH  27  28
ATOM     28  C   UNL A   1      34.213  28.756  26.063  1.00  0.00     0.116 C 
BRANCH  28  29
ATOM     29  N   UNL A   1      33.862  30.102  26.489  1.00  0.00    -0.352 N 
ATOM     30  C   UNL A   1      34.410  30.858  27.495  1.00  0.00     0.251 C 
ATOM     31  H   UNL A   1      33.130  30.530  25.987  1.00  0.00     0.163 HD
ATOM     32  O   UNL A   1      33.841  31.878  27.877  1.00  0.00    -0.269 OA
BRANCH  30  33
ATOM     33  C   UNL A   1      35.673  30.421  28.126  1.00  0.00     0.039 A 
ATOM     34  C   UNL A   1      35.626  29.737  29.343  1.00  0.00     0.014 A 
ATOM     35  C   UNL A   1      36.900  30.672  27.506  1.00  0.00     0.014 A 
ATOM     36  C   UNL A   1      36.807  29.249  29.905  1.00  0.00     0.010 A 
ATOM     37  C   UNL A   1      38.064  30.117  28.026  1.00  0.00     0.010 A 
ATOM     38  C   UNL A   1      38.031  29.401  29.233  1.00  0.00    -0.014 A 
BRANCH  38  39
ATOM     39  C   UNL A   1      39.289  28.825  29.776  1.00  0.00     0.031 A 
ATOM     40  C   UNL A   1      39.992  29.501  30.922  1.00  0.00     0.074 A 
ATOM     41  C   UNL A   1      39.836  27.742  29.189  1.00  0.00     0.049 A 
ATOM     42  N   UNL A   1      41.145  29.215  31.471  1.00  0.00    -0.248 NA
ATOM     43  C   UNL A   1      39.323  30.674  31.500  1.00  0.00     0.031 C 
ATOM     44  C   UNL A   1      39.270  27.028  28.043  1.00  0.00     0.029 A 
ATOM     45  N   UNL A   1      40.998  27.064  29.461  1.00  0.00    -0.354 N 
ATOM     46  C   UNL A   1      41.348  30.183  32.449  1.00  0.00     0.074 A 
ATOM     47  C   UNL A   1      40.229  31.099  32.367  1.00  0.00     0.031 C 
ATOM     48  C   UNL A   1      40.077  26.006  27.720  1.00  0.00     0.029 A 
ATOM     49  C   UNL A   1      41.245  26.022  28.596  1.00  0.00     0.049 A 
ATOM     50  H   UNL A   1      41.599  27.300  30.204  1.00  0.00     0.167 HD
ATOM     51  C   UNL A   1      42.360  30.283  33.346  1.00  0.00     0.034 A 
ATOM     52  C   UNL A   1      42.302  25.191  28.499  1.00  0.00     0.034 A 
ATOM     53  C   UNL A   1      43.464  29.355  33.411  1.00  0.00     0.049 A 
ATOM     54  C   UNL A   1      43.435  25.337  29.483  1.00  0.00     0.074 A 
ATOM     55  C   UNL A   1      44.509  29.322  34.316  1.00  0.00     0.029 A 
ATOM     56  N   UNL A   1      43.677  28.307  32.522  1.00  0.00    -0.354 N 
ATOM     57  N   UNL A   1      43.582  26.218  30.446  1.00  0.00    -0.248 NA
ATOM     58  C   UNL A   1      44.537  24.373  29.375  1.00  0.00     0.031 C 
ATOM     59  C   UNL A   1      45.396  28.314  33.925  1.00  0.00     0.029 A 
ATOM     60  C   UNL A   1      44.860  27.652  32.832  1.00  0.00     0.049 A 
ATOM     61  H   UNL A   1      43.077  28.066  31.780  1.00  0.00     0.167 HD
ATOM     62  C   UNL A   1      44.781  25.896  31.076  1.00  0.00     0.074 A 
ATOM     63  C   UNL A   1      45.309  24.734  30.391  1.00  0.00     0.031 C 
ATOM     64  C   UNL A   1      45.386  26.501  32.131  1.00  0.00     0.034 A 
BRANCH  51  65
ATOM     65  C   UNL A   1      42.332  31.460  34.297  1.00  0.00     0.023 A 
ATOM     66  C   UNL A   1      42.980  32.672  33.995  1.00  0.00     0.031 A 
ATOM     67  C   UNL A   1      41.690  31.355  35.543  1.00  0.00     0.131 A 
ATOM     68  C   UNL A   1      43.058  33.685  34.962  1.00  0.00     0.055 A 
ATOM     69  C   UNL A   1      41.686  32.406  36.463  1.00  0.00     0.041 A 
ATOM     70  F   UNL A   1      41.072  30.218  35.901  1.00  0.00    -0.206 F 
ATOM     71  C   UNL A   1      42.391  33.573  36.183  1.00  0.00     0.022 A 
BRANCH  68  72
ATOM     72  S   UNL A   1      44.196  35.068  34.672  1.00  0.00     0.124 S 
ATOM     73  O   UNL A   1      43.301  36.217  34.789  1.00  0.00    -0.237 OA
ATOM     74  O   UNL A   1      45.170  34.905  35.745  1.00  0.00    -0.237 OA
ATOM     75  O   UNL A   1      44.702  34.818  33.324  1.00  0.00    -0.744 OA
ENDBRANCH  68  72
ENDBRANCH  51  65
BRANCH  52  76
ATOM     76  C   UNL A   1      42.352  24.171  27.412  1.00  0.00     0.023 A 
ATOM     77  C   UNL A   1      41.806  22.890  27.585  1.00  0.00     0.031 A 
ATOM     78  C   UNL A   1      42.966  24.464  26.181  1.00  0.00     0.131 A 
ATOM     79  C   UNL A   1      41.915  21.938  26.558  1.00  0.00     0.055 A 
ATOM     80  C   UNL A   1      43.023  23.533  25.143  1.00  0.00     0.041 A 
ATOM     81  F   UNL A   1      43.501  25.676  25.960  1.00  0.00    -0.206 F 
ATOM     82  C   UNL A   1      42.505  22.256  25.333  1.00  0.00     0.022 A 
BRANCH  79  83
ATOM     83  S   UNL A   1      41.340  20.246  26.872  1.00  0.00     0.124 S 
ATOM     84  O   UNL A   1      42.570  19.479  26.709  1.00  0.00    -0.237 OA
ATOM     85  O   UNL A   1      40.824  20.350  28.232  1.00  0.00    -0.237 OA
ATOM     86  O   UNL A   1      40.330  20.034  25.838  1.00  0.00    -0.744 OA
ENDBRANCH  79  83
ENDBRANCH  52  76
BRANCH  64  87
ATOM     87  C   UNL A   1      46.669  25.887  32.640  1.00  0.00     0.023 A 
ATOM     88  C   UNL A   1      47.926  26.259  32.132  1.00  0.00     0.031 A 
ATOM     89  C   UNL A   1      46.629  24.921  33.661  1.00  0.00     0.131 A 
ATOM     90  C   UNL A   1      49.086  25.634  32.613  1.00  0.00     0.055 A 
ATOM     91  C   UNL A   1      47.792  24.351  34.182  1.00  0.00     0.041 A 
ATOM     92  F   UNL A   1      45.456  24.523  34.180  1.00  0.00    -0.206 F 
ATOM     93  C   UNL A   1      49.029  24.698  33.650  1.00  0.00     0.022 A 
BRANCH  90  94
ATOM     94  S   UNL A   1      50.671  25.994  31.807  1.00  0.00     0.124 S 
ATOM     95  O   UNL A   1      50.415  25.570  30.434  1.00  0.00    -0.237 OA
ATOM     96  O   UNL A   1      50.808  27.432  32.015  1.00  0.00    -0.237 OA
ATOM     97  O   UNL A   1      51.627  25.169  32.544  1.00  0.00    -0.744 OA
ENDBRANCH  90  94
ENDBRANCH  64  87
ENDBRANCH  38  39
ENDBRANCH  30  33
ENDBRANCH  28  29
ENDBRANCH  27  28
ENDBRANCH  26  27
ENDBRANCH   1  26
TORSDOF 19
ENDMDL
MODEL 3
REMARK VINA RESULT:     -10.8      1.356      7.524
REMARK SMILES C[C@@H](C(=O)NCCCCCCNC(=O)c1ccc(-c2c3nc(c(-c4cc(S(=O)(=O)[O-])ccc4F)c4ccc([nH]4)c(-c4cc(S(=O)(=O)[O-])ccc4F)c4nc(c(-c5cc(S(=O)(=O)[O-])ccc5F)c5ccc2[nH]5)C=C4)C=C3)cc1)c1ccc(-c2ccn(C(F)F)c(=O)c2)cc1
REMARK SMILES IDX 8 1 7 2 6 3 5 4 3 5 4 6 2 8 1 9 78 10 79 11 93 12 80 13
REMARK SMILES IDX 92 14 81 15 82 16 83 17 91 18 84 19 89 20 85 21 90 22 86 23
REMARK SMILES IDX 87 24 88 25 9 26 10 27 11 28 12 29 13 30 14 32 15 33 16 34
REMARK SMILES IDX 77 35 17 36 76 37 18 38 19 39 20 40 70 41 21 42 75 43 69 44
REMARK SMILES IDX 71 45 22 46 74 47 68 48 67 49 23 51 55 52 35 53 54 54 36 55
REMARK SMILES IDX 39 56 53 57 72 58 37 59 38 60 52 62 73 63 40 64 24 65 25 66
REMARK SMILES IDX 33 67 26 68 32 69 34 70 31 71 27 72 28 73 29 74 30 75 56 76
REMARK SMILES IDX 57 77 65 78 58 79 64 80 66 81 63 82 59 83 60 84 61 85 62 86
REMARK SMILES IDX 41 87 42 88 50 89 43 90 49 91 51 92 48 93 44 94 45 95 46 96
REMARK SMILES IDX 47 97
REMARK H PARENT 5 7 12 31 71 50 39 61
REMARK Flexibility Score: inf
ROOT
ATOM      1  C   UNL A   1      34.146  25.375  25.988  1.00  0.00     0.002 C 
ENDROOT
BRANCH   1   2
ATOM      2  C   UNL A   1      33.416  24.119  26.485  1.00  0.00     0.021 C 
BRANCH   2   3
ATOM      3  C   UNL A   1      33.890  22.829  25.810  1.00  0.00     0.116 C 
BRANCH   3   4
ATOM      4  N   UNL A   1      34.656  23.150  24.623  1.00  0.00    -0.356 N 
ATOM      5  C   UNL A   1      34.296  23.095  23.311  1.00  0.00     0.227 C 
ATOM      6  O   UNL A   1      35.205  23.185  22.483  1.00  0.00    -0.274 OA
ATOM      7  H   UNL A   1      35.579  23.453  24.791  1.00  0.00     0.163 HD
BRANCH   5   8
ATOM      8  C   UNL A   1      32.807  22.998  22.923  1.00  0.00     0.105 C 
ATOM      9  C   UNL A   1      32.598  22.288  21.579  1.00  0.00     0.023 C 
BRANCH   8  10
ATOM     10  C   UNL A   1      32.148  24.379  22.968  1.00  0.00    -0.036 A 
ATOM     11  C   UNL A   1      30.908  24.600  23.587  1.00  0.00     0.005 A 
ATOM     12  C   UNL A   1      32.776  25.459  22.327  1.00  0.00     0.005 A 
ATOM     13  C   UNL A   1      30.328  25.869  23.593  1.00  0.00     0.009 A 
ATOM     14  C   UNL A   1      32.191  26.726  22.322  1.00  0.00     0.009 A 
ATOM     15  C   UNL A   1      30.970  26.942  22.969  1.00  0.00    -0.018 A 
BRANCH  15  16
ATOM     16  C   UNL A   1      30.374  28.286  23.005  1.00  0.00    -0.011 A 
ATOM     17  C   UNL A   1      30.606  29.226  24.082  1.00  0.00     0.027 A 
ATOM     18  C   UNL A   1      29.563  28.631  21.991  1.00  0.00     0.080 A 
ATOM     19  C   UNL A   1      29.995  30.416  24.081  1.00  0.00     0.095 A 
ATOM     20  C   UNL A   1      28.888  29.955  21.969  1.00  0.00     0.255 A 
ATOM     21  N   UNL A   1      29.142  30.779  23.054  1.00  0.00    -0.258 N 
ATOM     22  O   UNL A   1      28.159  30.227  21.021  1.00  0.00    -0.269 OA
BRANCH  21  23
ATOM     23  C   UNL A   1      28.453  32.040  23.085  1.00  0.00     0.451 C 
ATOM     24  F   UNL A   1      27.297  31.957  23.788  1.00  0.00    -0.185 F 
ATOM     25  F   UNL A   1      29.223  32.999  23.656  1.00  0.00    -0.185 F 
ENDBRANCH  21  23
ENDBRANCH  15  16
ENDBRANCH   8  10
ENDBRANCH   5   8
ENDBRANCH   3   4
ENDBRANCH   2   3
ENDBRANCH   1   2
BRANCH   1  26
ATOM     26  C   UNL A   1      33.248  26.598  25.783  1.00  0.00     0.002 C 
BRANCH  26  27
ATOM     27  C   UNL A   1      33.573  27.785  26.691  1.00  0.00     0.021 C 
BRANCH  27  28
ATOM     28  C   UNL A   1      34.134  28.997  25.955  1.00  0.00     0.116 C 
BRANCH  28  29
ATOM     29  N   UNL A   1      33.858  30.233  26.669  1.00  0.00    -0.352 N 
ATOM     30  C   UNL A   1      34.503  30.761  27.759  1.00  0.00     0.251 C 
ATOM     31  H   UNL A   1      33.105  30.765  26.323  1.00  0.00     0.163 HD
ATOM     32  O   UNL A   1      33.997  31.691  28.382  1.00  0.00    -0.269 OA
BRANCH  30  33
ATOM     33  C   UNL A   1      35.795  30.184  28.188  1.00  0.00     0.039 A 
ATOM     34  C   UNL A   1      36.897  30.269  27.334  1.00  0.00     0.014 A 
ATOM     35  C   UNL A   1      35.918  29.575  29.440  1.00  0.00     0.014 A 
ATOM     36  C   UNL A   1      38.139  29.800  27.766  1.00  0.00     0.010 A 
ATOM     37  C   UNL A   1      37.171  29.183  29.897  1.00  0.00     0.010 A 
ATOM     38  C   UNL A   1      38.296  29.288  29.063  1.00  0.00    -0.014 A 
BRANCH  38  39
ATOM     39  C   UNL A   1      39.624  28.852  29.569  1.00  0.00     0.031 A 
ATOM     40  C   UNL A   1      40.324  27.684  28.932  1.00  0.00     0.074 A 
ATOM     41  C   UNL A   1      40.160  29.458  30.647  1.00  0.00     0.049 A 
ATOM     42  N   UNL A   1      41.435  27.089  29.287  1.00  0.00    -0.248 NA
ATOM     43  C   UNL A   1      39.668  27.085  27.761  1.00  0.00     0.031 C 
ATOM     44  C   UNL A   1      39.553  30.573  31.377  1.00  0.00     0.029 A 
ATOM     45  N   UNL A   1      41.326  29.212  31.329  1.00  0.00    -0.354 N 
ATOM     46  C   UNL A   1      41.602  26.036  28.393  1.00  0.00     0.074 A 
ATOM     47  C   UNL A   1      40.442  26.037  27.526  1.00  0.00     0.031 C 
ATOM     48  C   UNL A   1      40.356  30.922  32.395  1.00  0.00     0.029 A 
ATOM     49  C   UNL A   1      41.507  30.024  32.426  1.00  0.00     0.049 A 
ATOM     50  H   UNL A   1      41.972  28.520  31.059  1.00  0.00     0.167 HD
ATOM     51  C   UNL A   1      42.637  25.166  28.292  1.00  0.00     0.034 A 
ATOM     52  C   UNL A   1      42.473  30.029  33.366  1.00  0.00     0.034 A 
ATOM     53  C   UNL A   1      43.785  25.185  29.167  1.00  0.00     0.049 A 
ATOM     54  C   UNL A   1      43.599  29.034  33.258  1.00  0.00     0.074 A 
ATOM     55  C   UNL A   1      44.919  24.396  29.117  1.00  0.00     0.029 A 
ATOM     56  N   UNL A   1      43.937  26.028  30.263  1.00  0.00    -0.354 N 
ATOM     57  N   UNL A   1      43.778  28.084  32.368  1.00  0.00    -0.248 NA
ATOM     58  C   UNL A   1      44.658  29.115  34.271  1.00  0.00     0.031 C 
ATOM     59  C   UNL A   1      45.713  24.698  30.229  1.00  0.00     0.029 A 
ATOM     60  C   UNL A   1      45.125  25.744  30.922  1.00  0.00     0.049 A 
ATOM     61  H   UNL A   1      43.295  26.724  30.533  1.00  0.00     0.167 HD
ATOM     62  C   UNL A   1      44.984  27.473  32.700  1.00  0.00     0.074 A 
ATOM     63  C   UNL A   1      45.494  28.170  33.863  1.00  0.00     0.031 C 
ATOM     64  C   UNL A   1      45.616  26.436  32.093  1.00  0.00     0.034 A 
BRANCH  51  65
ATOM     65  C   UNL A   1      42.546  24.099  27.222  1.00  0.00     0.023 A 
ATOM     66  C   UNL A   1      41.834  22.903  27.426  1.00  0.00     0.031 A 
ATOM     67  C   UNL A   1      43.220  24.258  25.999  1.00  0.00     0.131 A 
ATOM     68  C   UNL A   1      41.896  21.878  26.471  1.00  0.00     0.055 A 
ATOM     69  C   UNL A   1      43.195  23.272  25.009  1.00  0.00     0.041 A 
ATOM     70  F   UNL A   1      43.935  25.367  25.750  1.00  0.00    -0.206 F 
ATOM     71  C   UNL A   1      42.548  22.065  25.251  1.00  0.00     0.022 A 
BRANCH  68  72
ATOM     72  S   UNL A   1      41.273  20.236  26.927  1.00  0.00     0.124 S 
ATOM     73  O   UNL A   1      40.804  20.467  28.291  1.00  0.00    -0.237 OA
ATOM     74  O   UNL A   1      40.238  20.003  25.926  1.00  0.00    -0.237 OA
ATOM     75  O   UNL A   1      42.452  19.380  26.819  1.00  0.00    -0.744 OA
ENDBRANCH  68  72
ENDBRANCH  51  65
BRANCH  52  76
ATOM     76  C   UNL A   1      42.398  30.989  34.506  1.00  0.00     0.023 A 
ATOM     77  C   UNL A   1      42.950  32.276  34.416  1.00  0.00     0.031 A 
ATOM     78  C   UNL A   1      41.783  30.618  35.715  1.00  0.00     0.131 A 
ATOM     79  C   UNL A   1      42.905  33.135  35.527  1.00  0.00     0.055 A 
ATOM     80  C   UNL A   1      41.693  31.494  36.798  1.00  0.00     0.041 A 
ATOM     81  F   UNL A   1      41.237  29.400  35.854  1.00  0.00    -0.206 F 
ATOM     82  C   UNL A   1      42.266  32.759  36.711  1.00  0.00     0.022 A 
BRANCH  79  83
ATOM     83  S   UNL A   1      43.763  34.730  35.429  1.00  0.00     0.124 S 
ATOM     84  O   UNL A   1      45.122  34.317  35.096  1.00  0.00    -0.237 OA
ATOM     85  O   UNL A   1      43.021  35.409  34.373  1.00  0.00    -0.237 OA
ATOM     86  O   UNL A   1      43.592  35.290  36.769  1.00  0.00    -0.744 OA
ENDBRANCH  79  83
ENDBRANCH  52  76
BRANCH  64  87
ATOM     87  C   UNL A   1      46.958  26.021  32.649  1.00  0.00     0.023 A 
ATOM     88  C   UNL A   1      47.076  25.078  33.685  1.00  0.00     0.031 A 
ATOM     89  C   UNL A   1      48.139  26.572  32.122  1.00  0.00     0.131 A 
ATOM     90  C   UNL A   1      48.342  24.751  34.192  1.00  0.00     0.055 A 
ATOM     91  C   UNL A   1      49.400  26.194  32.586  1.00  0.00     0.041 A 
ATOM     92  F   UNL A   1      48.088  27.482  31.135  1.00  0.00    -0.206 F 
ATOM     93  C   UNL A   1      49.506  25.287  33.635  1.00  0.00     0.022 A 
BRANCH  90  94
ATOM     94  S   UNL A   1      48.449  23.680  35.653  1.00  0.00     0.124 S 
ATOM     95  O   UNL A   1      49.768  24.016  36.179  1.00  0.00    -0.237 OA
ATOM     96  O   UNL A   1      47.312  24.126  36.451  1.00  0.00    -0.237 OA
ATOM     97  O   UNL A   1      48.326  22.332  35.100  1.00  0.00    -0.744 OA
ENDBRANCH  90  94
ENDBRANCH  64  87
ENDBRANCH  38  39
ENDBRANCH  30  33
ENDBRANCH  28  29
ENDBRANCH  27  28
ENDBRANCH  26  27
ENDBRANCH   1  26
TORSDOF 19
ENDMDL
