MODEL 1
REMARK VINA RESULT:     -11.5      0.000      0.000
REMARK SMILES CC(C)[C@@H](C)[N@@H+]1[C@@H](C(=O)NCCCCCCNC(=O)c2ccc(-c3c4nc(c(-c5cc(S(=O)(=O)[O-])ccc5F)c5ccc([nH]5)c(-c5cc(S(=O)(=O)[O-])ccc5F)c5nc(c(-c6cc(S(=O)(=O)[O-])ccc6F)c6ccc3[nH]6)C=C5)C=C4)cc2)C[C@H]2CCCC[C@H]21
REMARK SMILES IDX 14 1 13 2 12 3 11 4 10 5 8 6 9 7 7 9 6 10 89 11 83 13 84 14
REMARK SMILES IDX 88 15 85 16 87 17 86 18 4 19 5 20 2 21 1 22 3 23 15 24 16 25
REMARK SMILES IDX 17 26 18 27 19 29 20 30 21 31 82 32 22 33 81 34 23 35 24 36
REMARK SMILES IDX 25 37 75 38 26 39 80 40 74 41 76 42 27 43 79 44 73 45 72 46
REMARK SMILES IDX 28 48 60 49 40 50 59 51 41 52 44 53 58 54 77 55 42 56 43 57
REMARK SMILES IDX 57 59 78 60 45 61 29 62 30 63 38 64 31 65 37 66 39 67 36 68
REMARK SMILES IDX 32 69 33 70 34 71 35 72 61 73 62 74 70 75 63 76 69 77 71 78
REMARK SMILES IDX 68 79 64 80 65 81 66 82 67 83 46 84 47 85 55 86 48 87 54 88
REMARK SMILES IDX 56 89 53 90 49 91 50 92 51 93 52 94
REMARK H PARENT 10 8 6 12 17 28 76 47 44 58
REMARK Flexibility Score: inf
ROOT
ATOM      1  C   UNL A   1      31.535  30.451  26.098  1.00  0.00     0.002 C 
ENDROOT
BRANCH   1   2
ATOM      2  C   UNL A   1      32.471  29.570  26.930  1.00  0.00     0.002 C 
BRANCH   2   3
ATOM      3  C   UNL A   1      31.811  28.325  27.526  1.00  0.00     0.021 C 
BRANCH   3   4
ATOM      4  C   UNL A   1      31.279  27.346  26.485  1.00  0.00     0.116 C 
BRANCH   4   5
ATOM      5  N   UNL A   1      31.182  26.004  27.026  1.00  0.00    -0.351 N 
ATOM      6  C   UNL A   1      31.844  24.865  26.675  1.00  0.00     0.278 C 
ATOM      7  O   UNL A   1      31.546  23.830  27.274  1.00  0.00    -0.268 OA
ATOM      8  H   UNL A   1      30.536  25.899  27.762  1.00  0.00     0.163 HD
BRANCH   6   9
ATOM      9  C   UNL A   1      32.937  24.937  25.599  1.00  0.00     0.275 C 
ATOM     10  N   UNL A   1      32.392  24.609  24.234  1.00  0.00    -0.320 N 
ATOM     11  C   UNL A   1      33.102  23.404  23.784  1.00  0.00     0.188 C 
ATOM     12  H   UNL A   1      31.411  24.335  24.190  1.00  0.00     0.349 HD
ATOM     13  C   UNL A   1      34.060  23.946  25.886  1.00  0.00     0.085 C 
ATOM     14  C   UNL A   1      34.456  23.494  24.489  1.00  0.00     0.054 C 
ATOM     15  C   UNL A   1      32.326  22.129  24.195  1.00  0.00     0.065 C 
ATOM     16  C   UNL A   1      35.278  22.214  24.465  1.00  0.00     0.010 C 
ATOM     17  C   UNL A   1      33.184  20.865  24.103  1.00  0.00     0.006 C 
ATOM     18  C   UNL A   1      34.482  20.989  24.895  1.00  0.00     0.001 C 
BRANCH  10  19
ATOM     19  C   UNL A   1      32.317  25.834  23.396  1.00  0.00     0.184 C 
ATOM     20  C   UNL A   1      30.858  25.865  22.885  1.00  0.00     0.075 C 
BRANCH  19  21
ATOM     21  C   UNL A   1      33.304  26.109  22.205  1.00  0.00     0.041 C 
ATOM     22  C   UNL A   1      32.627  25.778  20.853  1.00  0.00     0.013 C 
ATOM     23  C   UNL A   1      33.761  27.573  22.089  1.00  0.00     0.013 C 
ENDBRANCH  19  21
ENDBRANCH  10  19
ENDBRANCH   6   9
ENDBRANCH   4   5
ENDBRANCH   3   4
ENDBRANCH   2   3
ENDBRANCH   1   2
BRANCH   1  24
ATOM     24  C   UNL A   1      31.492  31.920  26.524  1.00  0.00     0.021 C 
BRANCH  24  25
ATOM     25  C   UNL A   1      32.780  32.427  27.161  1.00  0.00     0.116 C 
BRANCH  25  26
ATOM     26  N   UNL A   1      32.670  33.819  27.563  1.00  0.00    -0.352 N 
ATOM     27  C   UNL A   1      33.320  34.476  28.575  1.00  0.00     0.251 C 
ATOM     28  H   UNL A   1      32.042  34.365  27.036  1.00  0.00     0.163 HD
ATOM     29  O   UNL A   1      32.938  35.590  28.927  1.00  0.00    -0.269 OA
BRANCH  27  30
ATOM     30  C   UNL A   1      34.461  33.823  29.251  1.00  0.00     0.039 A 
ATOM     31  C   UNL A   1      34.215  32.765  30.126  1.00  0.00     0.014 A 
ATOM     32  C   UNL A   1      35.770  34.251  29.009  1.00  0.00     0.014 A 
ATOM     33  C   UNL A   1      35.289  32.096  30.715  1.00  0.00     0.010 A 
ATOM     34  C   UNL A   1      36.839  33.532  29.532  1.00  0.00     0.010 A 
ATOM     35  C   UNL A   1      36.611  32.450  30.396  1.00  0.00    -0.014 A 
BRANCH  35  36
ATOM     36  C   UNL A   1      37.765  31.707  30.966  1.00  0.00     0.031 A 
ATOM     37  C   UNL A   1      38.239  32.004  32.362  1.00  0.00     0.074 A 
ATOM     38  C   UNL A   1      38.416  30.802  30.208  1.00  0.00     0.049 A 
ATOM     39  N   UNL A   1      39.258  31.508  33.015  1.00  0.00    -0.248 NA
ATOM     40  C   UNL A   1      37.481  33.017  33.111  1.00  0.00     0.031 C 
ATOM     41  C   UNL A   1      38.068  30.450  28.830  1.00  0.00     0.029 A 
ATOM     42  N   UNL A   1      39.503  30.014  30.488  1.00  0.00    -0.354 N 
ATOM     43  C   UNL A   1      39.267  32.149  34.249  1.00  0.00     0.074 A 
ATOM     44  C   UNL A   1      38.199  33.126  34.218  1.00  0.00     0.031 C 
ATOM     45  C   UNL A   1      38.901  29.489  28.400  1.00  0.00     0.029 A 
ATOM     46  C   UNL A   1      39.874  29.194  29.447  1.00  0.00     0.049 A 
ATOM     47  H   UNL A   1      39.974  30.032  31.352  1.00  0.00     0.167 HD
ATOM     48  C   UNL A   1      40.070  31.923  35.319  1.00  0.00     0.034 A 
ATOM     49  C   UNL A   1      40.887  28.312  29.344  1.00  0.00     0.034 A 
ATOM     50  C   UNL A   1      41.134  30.948  35.328  1.00  0.00     0.049 A 
ATOM     51  C   UNL A   1      41.809  28.123  30.523  1.00  0.00     0.074 A 
ATOM     52  C   UNL A   1      41.986  30.610  36.366  1.00  0.00     0.029 A 
ATOM     53  N   UNL A   1      41.501  30.158  34.244  1.00  0.00    -0.354 N 
ATOM     54  N   UNL A   1      41.780  28.707  31.699  1.00  0.00    -0.248 NA
ATOM     55  C   UNL A   1      42.896  27.151  30.360  1.00  0.00     0.031 C 
ATOM     56  C   UNL A   1      42.916  29.681  35.886  1.00  0.00     0.029 A 
ATOM     57  C   UNL A   1      42.591  29.367  34.577  1.00  0.00     0.049 A 
ATOM     58  H   UNL A   1      41.053  30.162  33.367  1.00  0.00     0.167 HD
ATOM     59  C   UNL A   1      42.824  28.144  32.428  1.00  0.00     0.074 A 
ATOM     60  C   UNL A   1      43.453  27.169  31.562  1.00  0.00     0.031 C 
ATOM     61  C   UNL A   1      43.222  28.406  33.700  1.00  0.00     0.034 A 
BRANCH  48  62
ATOM     62  C   UNL A   1      39.838  32.774  36.548  1.00  0.00     0.023 A 
ATOM     63  C   UNL A   1      39.033  32.327  37.612  1.00  0.00     0.031 A 
ATOM     64  C   UNL A   1      40.386  34.065  36.641  1.00  0.00     0.131 A 
ATOM     65  C   UNL A   1      38.719  33.195  38.667  1.00  0.00     0.055 A 
ATOM     66  C   UNL A   1      40.148  34.889  37.743  1.00  0.00     0.041 A 
ATOM     67  F   UNL A   1      41.144  34.560  35.650  1.00  0.00    -0.206 F 
ATOM     68  C   UNL A   1      39.293  34.464  38.756  1.00  0.00     0.022 A 
BRANCH  65  69
ATOM     69  S   UNL A   1      37.405  32.709  39.821  1.00  0.00     0.124 S 
ATOM     70  O   UNL A   1      37.924  31.446  40.342  1.00  0.00    -0.237 OA
ATOM     71  O   UNL A   1      37.380  33.825  40.758  1.00  0.00    -0.237 OA
ATOM     72  O   UNL A   1      36.227  32.583  38.965  1.00  0.00    -0.744 OA
ENDBRANCH  65  69
ENDBRANCH  48  62
BRANCH  49  73
ATOM     73  C   UNL A   1      41.090  27.539  28.085  1.00  0.00     0.023 A 
ATOM     74  C   UNL A   1      40.777  26.172  28.022  1.00  0.00     0.031 A 
ATOM     75  C   UNL A   1      41.632  28.144  26.938  1.00  0.00     0.131 A 
ATOM     76  C   UNL A   1      41.049  25.444  26.853  1.00  0.00     0.055 A 
ATOM     77  C   UNL A   1      41.848  27.430  25.758  1.00  0.00     0.041 A 
ATOM     78  F   UNL A   1      41.948  29.449  26.942  1.00  0.00    -0.206 F 
ATOM     79  C   UNL A   1      41.568  26.068  25.716  1.00  0.00     0.022 A 
BRANCH  76  80
ATOM     80  S   UNL A   1      40.796  23.649  26.870  1.00  0.00     0.124 S 
ATOM     81  O   UNL A   1      41.083  23.322  28.262  1.00  0.00    -0.237 OA
ATOM     82  O   UNL A   1      39.400  23.537  26.458  1.00  0.00    -0.237 OA
ATOM     83  O   UNL A   1      41.771  23.160  25.898  1.00  0.00    -0.744 OA
ENDBRANCH  76  80
ENDBRANCH  49  73
BRANCH  61  84
ATOM     84  C   UNL A   1      44.368  27.587  34.244  1.00  0.00     0.023 A 
ATOM     85  C   UNL A   1      44.178  26.295  34.764  1.00  0.00     0.031 A 
ATOM     86  C   UNL A   1      45.672  28.115  34.253  1.00  0.00     0.131 A 
ATOM     87  C   UNL A   1      45.261  25.599  35.324  1.00  0.00     0.055 A 
ATOM     88  C   UNL A   1      46.757  27.391  34.746  1.00  0.00     0.041 A 
ATOM     89  F   UNL A   1      45.914  29.347  33.774  1.00  0.00    -0.206 F 
ATOM     90  C   UNL A   1      46.552  26.131  35.300  1.00  0.00     0.022 A 
BRANCH  87  91
ATOM     91  S   UNL A   1      44.940  24.032  36.180  1.00  0.00     0.124 S 
ATOM     92  O   UNL A   1      44.516  24.490  37.500  1.00  0.00    -0.237 OA
ATOM     93  O   UNL A   1      43.902  23.429  35.351  1.00  0.00    -0.237 OA
ATOM     94  O   UNL A   1      46.233  23.352  36.146  1.00  0.00    -0.744 OA
ENDBRANCH  87  91
ENDBRANCH  61  84
ENDBRANCH  35  36
ENDBRANCH  27  30
ENDBRANCH  25  26
ENDBRANCH  24  25
ENDBRANCH   1  24
TORSDOF 18
ENDMDL
MODEL 2
REMARK VINA RESULT:     -11.5      2.757      3.569
REMARK SMILES CC(C)[C@@H](C)[N@@H+]1[C@@H](C(=O)NCCCCCCNC(=O)c2ccc(-c3c4nc(c(-c5cc(S(=O)(=O)[O-])ccc5F)c5ccc([nH]5)c(-c5cc(S(=O)(=O)[O-])ccc5F)c5nc(c(-c6cc(S(=O)(=O)[O-])ccc6F)c6ccc3[nH]6)C=C5)C=C4)cc2)C[C@H]2CCCC[C@H]21
REMARK SMILES IDX 14 1 13 2 12 3 11 4 10 5 8 6 9 7 7 9 6 10 89 11 83 13 84 14
REMARK SMILES IDX 88 15 85 16 87 17 86 18 4 19 5 20 2 21 1 22 3 23 15 24 16 25
REMARK SMILES IDX 17 26 18 27 19 29 20 30 21 31 82 32 22 33 81 34 23 35 24 36
REMARK SMILES IDX 25 37 75 38 26 39 80 40 74 41 76 42 27 43 79 44 73 45 72 46
REMARK SMILES IDX 28 48 60 49 40 50 59 51 41 52 44 53 58 54 77 55 42 56 43 57
REMARK SMILES IDX 57 59 78 60 45 61 29 62 30 63 38 64 31 65 37 66 39 67 36 68
REMARK SMILES IDX 32 69 33 70 34 71 35 72 61 73 62 74 70 75 63 76 69 77 71 78
REMARK SMILES IDX 68 79 64 80 65 81 66 82 67 83 46 84 47 85 55 86 48 87 54 88
REMARK SMILES IDX 56 89 53 90 49 91 50 92 51 93 52 94
REMARK H PARENT 10 8 6 12 17 28 76 47 44 58
REMARK Flexibility Score: inf
ROOT
ATOM      1  C   UNL A   1      32.052  29.314  24.936  1.00  0.00     0.002 C 
ENDROOT
BRANCH   1   2
ATOM      2  C   UNL A   1      30.869  28.353  25.079  1.00  0.00     0.002 C 
BRANCH   2   3
ATOM      3  C   UNL A   1      31.075  27.235  26.103  1.00  0.00     0.021 C 
BRANCH   3   4
ATOM      4  C   UNL A   1      30.274  25.971  25.812  1.00  0.00     0.116 C 
BRANCH   4   5
ATOM      5  N   UNL A   1      30.746  24.855  26.607  1.00  0.00    -0.351 N 
ATOM      6  C   UNL A   1      31.881  24.109  26.488  1.00  0.00     0.278 C 
ATOM      7  O   UNL A   1      32.032  23.176  27.280  1.00  0.00    -0.268 OA
ATOM      8  H   UNL A   1      30.154  24.594  27.350  1.00  0.00     0.163 HD
BRANCH   6   9
ATOM      9  C   UNL A   1      32.916  24.488  25.419  1.00  0.00     0.275 C 
ATOM     10  N   UNL A   1      32.848  23.566  24.231  1.00  0.00    -0.320 N 
ATOM     11  C   UNL A   1      34.150  22.892  24.155  1.00  0.00     0.188 C 
ATOM     12  H   UNL A   1      32.185  22.793  24.293  1.00  0.00     0.349 HD
ATOM     13  C   UNL A   1      34.336  24.408  25.971  1.00  0.00     0.085 C 
ATOM     14  C   UNL A   1      35.120  23.902  24.771  1.00  0.00     0.054 C 
ATOM     15  C   UNL A   1      34.125  21.564  24.951  1.00  0.00     0.065 C 
ATOM     16  C   UNL A   1      36.491  23.343  25.121  1.00  0.00     0.010 C 
ATOM     17  C   UNL A   1      35.527  21.020  25.231  1.00  0.00     0.006 C 
ATOM     18  C   UNL A   1      36.418  22.049  25.921  1.00  0.00     0.001 C 
BRANCH  10  19
ATOM     19  C   UNL A   1      32.259  24.268  23.061  1.00  0.00     0.184 C 
ATOM     20  C   UNL A   1      32.900  23.579  21.833  1.00  0.00     0.075 C 
BRANCH  19  21
ATOM     21  C   UNL A   1      32.321  25.829  22.888  1.00  0.00     0.041 C 
ATOM     22  C   UNL A   1      33.633  26.244  22.180  1.00  0.00     0.013 C 
ATOM     23  C   UNL A   1      31.188  26.415  22.031  1.00  0.00     0.013 C 
ENDBRANCH  19  21
ENDBRANCH  10  19
ENDBRANCH   6   9
ENDBRANCH   4   5
ENDBRANCH   3   4
ENDBRANCH   2   3
ENDBRANCH   1   2
BRANCH   1  24
ATOM     24  C   UNL A   1      33.428  28.648  25.003  1.00  0.00     0.021 C 
BRANCH  24  25
ATOM     25  C   UNL A   1      34.259  29.045  26.216  1.00  0.00     0.116 C 
BRANCH  25  26
ATOM     26  N   UNL A   1      33.948  30.391  26.666  1.00  0.00    -0.352 N 
ATOM     27  C   UNL A   1      34.527  31.117  27.674  1.00  0.00     0.251 C 
ATOM     28  H   UNL A   1      33.221  30.844  26.179  1.00  0.00     0.163 HD
ATOM     29  O   UNL A   1      33.989  32.147  28.074  1.00  0.00    -0.269 OA
BRANCH  27  30
ATOM     30  C   UNL A   1      35.783  30.638  28.287  1.00  0.00     0.039 A 
ATOM     31  C   UNL A   1      35.717  29.732  29.347  1.00  0.00     0.014 A 
ATOM     32  C   UNL A   1      37.021  31.074  27.806  1.00  0.00     0.014 A 
ATOM     33  C   UNL A   1      36.897  29.219  29.888  1.00  0.00     0.010 A 
ATOM     34  C   UNL A   1      38.192  30.499  28.291  1.00  0.00     0.010 A 
ATOM     35  C   UNL A   1      38.143  29.570  29.341  1.00  0.00    -0.014 A 
BRANCH  35  36
ATOM     36  C   UNL A   1      39.404  28.984  29.864  1.00  0.00     0.031 A 
ATOM     37  C   UNL A   1      40.072  29.583  31.072  1.00  0.00     0.074 A 
ATOM     38  C   UNL A   1      39.974  27.945  29.221  1.00  0.00     0.049 A 
ATOM     39  N   UNL A   1      41.201  29.254  31.644  1.00  0.00    -0.248 NA
ATOM     40  C   UNL A   1      39.390  30.724  31.700  1.00  0.00     0.031 C 
ATOM     41  C   UNL A   1      39.437  27.298  28.022  1.00  0.00     0.029 A 
ATOM     42  N   UNL A   1      41.127  27.251  29.485  1.00  0.00    -0.354 N 
ATOM     43  C   UNL A   1      41.369  30.147  32.696  1.00  0.00     0.074 A 
ATOM     44  C   UNL A   1      40.263  31.080  32.629  1.00  0.00     0.031 C 
ATOM     45  C   UNL A   1      40.238  26.278  27.679  1.00  0.00     0.029 A 
ATOM     46  C   UNL A   1      41.373  26.230  28.595  1.00  0.00     0.049 A 
ATOM     47  H   UNL A   1      41.723  27.463  30.238  1.00  0.00     0.167 HD
ATOM     48  C   UNL A   1      42.335  30.169  33.647  1.00  0.00     0.034 A 
ATOM     49  C   UNL A   1      42.400  25.360  28.522  1.00  0.00     0.034 A 
ATOM     50  C   UNL A   1      43.433  29.234  33.693  1.00  0.00     0.049 A 
ATOM     51  C   UNL A   1      43.499  25.444  29.551  1.00  0.00     0.074 A 
ATOM     52  C   UNL A   1      44.449  29.141  34.630  1.00  0.00     0.029 A 
ATOM     53  N   UNL A   1      43.667  28.233  32.757  1.00  0.00    -0.354 N 
ATOM     54  N   UNL A   1      43.622  26.268  30.566  1.00  0.00    -0.248 NA
ATOM     55  C   UNL A   1      44.593  24.474  29.427  1.00  0.00     0.031 C 
ATOM     56  C   UNL A   1      45.337  28.142  34.215  1.00  0.00     0.029 A 
ATOM     57  C   UNL A   1      44.831  27.547  33.071  1.00  0.00     0.049 A 
ATOM     58  H   UNL A   1      43.091  28.040  31.982  1.00  0.00     0.167 HD
ATOM     59  C   UNL A   1      44.791  25.891  31.222  1.00  0.00     0.074 A 
ATOM     60  C   UNL A   1      45.325  24.759  30.493  1.00  0.00     0.031 C 
ATOM     61  C   UNL A   1      45.365  26.428  32.329  1.00  0.00     0.034 A 
BRANCH  48  62
ATOM     62  C   UNL A   1      42.254  31.263  34.689  1.00  0.00     0.023 A 
ATOM     63  C   UNL A   1      41.243  31.274  35.668  1.00  0.00     0.031 A 
ATOM     64  C   UNL A   1      43.164  32.334  34.678  1.00  0.00     0.131 A 
ATOM     65  C   UNL A   1      41.108  32.376  36.525  1.00  0.00     0.055 A 
ATOM     66  C   UNL A   1      43.083  33.381  35.599  1.00  0.00     0.041 A 
ATOM     67  F   UNL A   1      44.138  32.396  33.756  1.00  0.00    -0.206 F 
ATOM     68  C   UNL A   1      42.037  33.417  36.517  1.00  0.00     0.022 A 
BRANCH  65  69
ATOM     69  S   UNL A   1      39.596  32.514  37.518  1.00  0.00     0.124 S 
ATOM     70  O   UNL A   1      38.806  31.396  37.008  1.00  0.00    -0.237 OA
ATOM     71  O   UNL A   1      40.099  32.373  38.880  1.00  0.00    -0.237 OA
ATOM     72  O   UNL A   1      39.080  33.838  37.175  1.00  0.00    -0.744 OA
ENDBRANCH  65  69
ENDBRANCH  48  62
BRANCH  49  73
ATOM     73  C   UNL A   1      42.444  24.335  27.440  1.00  0.00     0.023 A 
ATOM     74  C   UNL A   1      41.648  23.181  27.509  1.00  0.00     0.031 A 
ATOM     75  C   UNL A   1      43.306  24.475  26.339  1.00  0.00     0.131 A 
ATOM     76  C   UNL A   1      41.763  22.191  26.521  1.00  0.00     0.055 A 
ATOM     77  C   UNL A   1      43.376  23.515  25.328  1.00  0.00     0.041 A 
ATOM     78  F   UNL A   1      44.089  25.560  26.221  1.00  0.00    -0.206 F 
ATOM     79  C   UNL A   1      42.610  22.357  25.423  1.00  0.00     0.022 A 
BRANCH  76  80
ATOM     80  S   UNL A   1      40.850  20.639  26.737  1.00  0.00     0.124 S 
ATOM     81  O   UNL A   1      41.686  19.699  25.999  1.00  0.00    -0.237 OA
ATOM     82  O   UNL A   1      40.844  20.492  28.189  1.00  0.00    -0.237 OA
ATOM     83  O   UNL A   1      39.549  20.924  26.137  1.00  0.00    -0.744 OA
ENDBRANCH  76  80
ENDBRANCH  49  73
BRANCH  61  84
ATOM     84  C   UNL A   1      46.619  25.761  32.845  1.00  0.00     0.023 A 
ATOM     85  C   UNL A   1      47.884  26.027  32.292  1.00  0.00     0.031 A 
ATOM     86  C   UNL A   1      46.543  24.834  33.901  1.00  0.00     0.131 A 
ATOM     87  C   UNL A   1      49.010  25.330  32.755  1.00  0.00     0.055 A 
ATOM     88  C   UNL A   1      47.677  24.197  34.404  1.00  0.00     0.041 A 
ATOM     89  F   UNL A   1      45.361  24.536  34.464  1.00  0.00    -0.206 F 
ATOM     90  C   UNL A   1      48.918  24.432  33.821  1.00  0.00     0.022 A 
BRANCH  87  91
ATOM     91  S   UNL A   1      50.584  25.535  31.876  1.00  0.00     0.124 S 
ATOM     92  O   UNL A   1      50.729  24.244  31.211  1.00  0.00    -0.237 OA
ATOM     93  O   UNL A   1      50.309  26.673  31.005  1.00  0.00    -0.237 OA
ATOM     94  O   UNL A   1      51.545  25.792  32.947  1.00  0.00    -0.744 OA
ENDBRANCH  87  91
ENDBRANCH  61  84
ENDBRANCH  35  36
ENDBRANCH  27  30
ENDBRANCH  25  26
ENDBRANCH  24  25
ENDBRANCH   1  24
TORSDOF 18
ENDMDL
MODEL 3
REMARK VINA RESULT:     -11.4      2.439      3.753
REMARK SMILES CC(C)[C@@H](C)[N@@H+]1[C@@H](C(=O)NCCCCCCNC(=O)c2ccc(-c3c4nc(c(-c5cc(S(=O)(=O)[O-])ccc5F)c5ccc([nH]5)c(-c5cc(S(=O)(=O)[O-])ccc5F)c5nc(c(-c6cc(S(=O)(=O)[O-])ccc6F)c6ccc3[nH]6)C=C5)C=C4)cc2)C[C@H]2CCCC[C@H]21
REMARK SMILES IDX 14 1 13 2 12 3 11 4 10 5 8 6 9 7 7 9 6 10 89 11 83 13 84 14
REMARK SMILES IDX 88 15 85 16 87 17 86 18 4 19 5 20 2 21 1 22 3 23 15 24 16 25
REMARK SMILES IDX 17 26 18 27 19 29 20 30 21 31 82 32 22 33 81 34 23 35 24 36
REMARK SMILES IDX 25 37 75 38 26 39 80 40 74 41 76 42 27 43 79 44 73 45 72 46
REMARK SMILES IDX 28 48 60 49 40 50 59 51 41 52 44 53 58 54 77 55 42 56 43 57
REMARK SMILES IDX 57 59 78 60 45 61 29 62 30 63 38 64 31 65 37 66 39 67 36 68
REMARK SMILES IDX 32 69 33 70 34 71 35 72 61 73 62 74 70 75 63 76 69 77 71 78
REMARK SMILES IDX 68 79 64 80 65 81 66 82 67 83 46 84 47 85 55 86 48 87 54 88
REMARK SMILES IDX 56 89 53 90 49 91 50 92 51 93 52 94
REMARK H PARENT 10 8 6 12 17 28 76 47 44 58
REMARK Flexibility Score: inf
ROOT
ATOM      1  C   UNL A   1      33.356  29.173  24.758  1.00  0.00     0.002 C 
ENDROOT
BRANCH   1   2
ATOM      2  C   UNL A   1      32.033  28.727  24.130  1.00  0.00     0.002 C 
BRANCH   2   3
ATOM      3  C   UNL A   1      32.151  28.208  22.696  1.00  0.00     0.021 C 
BRANCH   3   4
ATOM      4  C   UNL A   1      33.491  27.553  22.381  1.00  0.00     0.116 C 
BRANCH   4   5
ATOM      5  N   UNL A   1      33.311  26.229  21.819  1.00  0.00    -0.351 N 
ATOM      6  C   UNL A   1      33.528  25.002  22.374  1.00  0.00     0.278 C 
ATOM      7  O   UNL A   1      33.331  24.016  21.660  1.00  0.00    -0.268 OA
ATOM      8  H   UNL A   1      32.980  26.213  20.892  1.00  0.00     0.163 HD
BRANCH   6   9
ATOM      9  C   UNL A   1      33.960  24.912  23.844  1.00  0.00     0.275 C 
ATOM     10  N   UNL A   1      34.506  23.549  24.178  1.00  0.00    -0.320 N 
ATOM     11  C   UNL A   1      33.617  22.986  25.202  1.00  0.00     0.188 C 
ATOM     12  H   UNL A   1      34.479  22.853  23.433  1.00  0.00     0.349 HD
ATOM     13  C   UNL A   1      32.784  25.168  24.782  1.00  0.00     0.085 C 
ATOM     14  C   UNL A   1      33.076  24.216  25.931  1.00  0.00     0.054 C 
ATOM     15  C   UNL A   1      32.481  22.164  24.546  1.00  0.00     0.065 C 
ATOM     16  C   UNL A   1      31.879  23.953  26.832  1.00  0.00     0.010 C 
ATOM     17  C   UNL A   1      31.327  21.883  25.511  1.00  0.00     0.006 C 
ATOM     18  C   UNL A   1      30.778  23.159  26.141  1.00  0.00     0.001 C 
BRANCH  10  19
ATOM     19  C   UNL A   1      35.979  23.612  24.366  1.00  0.00     0.184 C 
ATOM     20  C   UNL A   1      36.560  22.914  23.114  1.00  0.00     0.075 C 
BRANCH  19  21
ATOM     21  C   UNL A   1      36.694  23.070  25.657  1.00  0.00     0.041 C 
ATOM     22  C   UNL A   1      37.252  21.648  25.411  1.00  0.00     0.013 C 
ATOM     23  C   UNL A   1      37.897  23.911  26.113  1.00  0.00     0.013 C 
ENDBRANCH  19  21
ENDBRANCH  10  19
ENDBRANCH   6   9
ENDBRANCH   4   5
ENDBRANCH   3   4
ENDBRANCH   2   3
ENDBRANCH   1   2
BRANCH   1  24
ATOM     24  C   UNL A   1      33.723  28.452  26.057  1.00  0.00     0.021 C 
BRANCH  24  25
ATOM     25  C   UNL A   1      33.164  29.103  27.316  1.00  0.00     0.116 C 
BRANCH  25  26
ATOM     26  N   UNL A   1      33.336  30.546  27.297  1.00  0.00    -0.352 N 
ATOM     27  C   UNL A   1      34.359  31.298  27.814  1.00  0.00     0.251 C 
ATOM     28  H   UNL A   1      32.619  31.054  26.852  1.00  0.00     0.163 HD
ATOM     29  O   UNL A   1      34.233  32.516  27.917  1.00  0.00    -0.269 OA
BRANCH  27  30
ATOM     30  C   UNL A   1      35.596  30.628  28.267  1.00  0.00     0.039 A 
ATOM     31  C   UNL A   1      36.795  30.902  27.608  1.00  0.00     0.014 A 
ATOM     32  C   UNL A   1      35.571  29.742  29.348  1.00  0.00     0.014 A 
ATOM     33  C   UNL A   1      37.981  30.329  28.070  1.00  0.00     0.010 A 
ATOM     34  C   UNL A   1      36.763  29.238  29.857  1.00  0.00     0.010 A 
ATOM     35  C   UNL A   1      37.981  29.521  29.220  1.00  0.00    -0.014 A 
BRANCH  35  36
ATOM     36  C   UNL A   1      39.243  28.956  29.763  1.00  0.00     0.031 A 
ATOM     37  C   UNL A   1      39.886  29.570  30.976  1.00  0.00     0.074 A 
ATOM     38  C   UNL A   1      39.836  27.922  29.132  1.00  0.00     0.049 A 
ATOM     39  N   UNL A   1      41.012  29.260  31.565  1.00  0.00    -0.248 NA
ATOM     40  C   UNL A   1      39.179  30.704  31.590  1.00  0.00     0.031 C 
ATOM     41  C   UNL A   1      39.325  27.262  27.930  1.00  0.00     0.029 A 
ATOM     42  N   UNL A   1      40.996  27.246  29.415  1.00  0.00    -0.354 N 
ATOM     43  C   UNL A   1      41.153  30.160  32.615  1.00  0.00     0.074 A 
ATOM     44  C   UNL A   1      40.035  31.077  32.529  1.00  0.00     0.031 C 
ATOM     45  C   UNL A   1      40.145  26.252  27.602  1.00  0.00     0.029 A 
ATOM     46  C   UNL A   1      41.268  26.224  28.534  1.00  0.00     0.049 A 
ATOM     47  H   UNL A   1      41.579  27.470  30.175  1.00  0.00     0.167 HD
ATOM     48  C   UNL A   1      42.106  30.201  33.579  1.00  0.00     0.034 A 
ATOM     49  C   UNL A   1      42.308  25.369  28.478  1.00  0.00     0.034 A 
ATOM     50  C   UNL A   1      43.216  29.281  33.644  1.00  0.00     0.049 A 
ATOM     51  C   UNL A   1      43.392  25.473  29.522  1.00  0.00     0.074 A 
ATOM     52  C   UNL A   1      44.221  29.207  34.594  1.00  0.00     0.029 A 
ATOM     53  N   UNL A   1      43.478  28.280  32.715  1.00  0.00    -0.354 N 
ATOM     54  N   UNL A   1      43.490  26.305  30.533  1.00  0.00    -0.248 NA
ATOM     55  C   UNL A   1      44.502  24.519  29.416  1.00  0.00     0.031 C 
ATOM     56  C   UNL A   1      45.129  28.220  34.197  1.00  0.00     0.029 A 
ATOM     57  C   UNL A   1      44.647  27.612  33.049  1.00  0.00     0.049 A 
ATOM     58  H   UNL A   1      42.914  28.075  31.935  1.00  0.00     0.167 HD
ATOM     59  C   UNL A   1      44.655  25.947  31.207  1.00  0.00     0.074 A 
ATOM     60  C   UNL A   1      45.216  24.820  30.491  1.00  0.00     0.031 C 
ATOM     61  C   UNL A   1      45.207  26.497  32.319  1.00  0.00     0.034 A 
BRANCH  48  62
ATOM     62  C   UNL A   1      41.995  31.298  34.614  1.00  0.00     0.023 A 
ATOM     63  C   UNL A   1      40.957  31.312  35.564  1.00  0.00     0.031 A 
ATOM     64  C   UNL A   1      42.905  32.369  34.626  1.00  0.00     0.131 A 
ATOM     65  C   UNL A   1      40.797  32.417  36.413  1.00  0.00     0.055 A 
ATOM     66  C   UNL A   1      42.797  33.419  35.540  1.00  0.00     0.041 A 
ATOM     67  F   UNL A   1      43.905  32.428  33.732  1.00  0.00    -0.206 F 
ATOM     68  C   UNL A   1      41.726  33.458  36.428  1.00  0.00     0.022 A 
BRANCH  65  69
ATOM     69  S   UNL A   1      39.257  32.558  37.362  1.00  0.00     0.124 S 
ATOM     70  O   UNL A   1      38.603  33.680  36.695  1.00  0.00    -0.237 OA
ATOM     71  O   UNL A   1      38.644  31.250  37.164  1.00  0.00    -0.237 OA
ATOM     72  O   UNL A   1      39.717  32.833  38.722  1.00  0.00    -0.744 OA
ENDBRANCH  65  69
ENDBRANCH  48  62
BRANCH  49  73
ATOM     73  C   UNL A   1      42.382  24.340  27.401  1.00  0.00     0.023 A 
ATOM     74  C   UNL A   1      41.807  23.071  27.578  1.00  0.00     0.031 A 
ATOM     75  C   UNL A   1      43.056  24.595  26.195  1.00  0.00     0.131 A 
ATOM     76  C   UNL A   1      41.956  22.091  26.586  1.00  0.00     0.055 A 
ATOM     77  C   UNL A   1      43.153  23.635  25.185  1.00  0.00     0.041 A 
ATOM     78  F   UNL A   1      43.623  25.792  25.972  1.00  0.00    -0.206 F 
ATOM     79  C   UNL A   1      42.611  22.369  25.384  1.00  0.00     0.022 A 
BRANCH  76  80
ATOM     80  S   UNL A   1      41.354  20.415  26.925  1.00  0.00     0.124 S 
ATOM     81  O   UNL A   1      42.575  19.629  26.792  1.00  0.00    -0.237 OA
ATOM     82  O   UNL A   1      40.821  20.552  28.276  1.00  0.00    -0.237 OA
ATOM     83  O   UNL A   1      40.353  20.196  25.882  1.00  0.00    -0.744 OA
ENDBRANCH  76  80
ENDBRANCH  49  73
BRANCH  61  84
ATOM     84  C   UNL A   1      46.463  25.851  32.855  1.00  0.00     0.023 A 
ATOM     85  C   UNL A   1      46.420  24.738  33.711  1.00  0.00     0.031 A 
ATOM     86  C   UNL A   1      47.726  26.368  32.509  1.00  0.00     0.131 A 
ATOM     87  C   UNL A   1      47.610  24.216  34.241  1.00  0.00     0.055 A 
ATOM     88  C   UNL A   1      48.908  25.801  32.982  1.00  0.00     0.041 A 
ATOM     89  F   UNL A   1      47.829  27.434  31.698  1.00  0.00    -0.206 F 
ATOM     90  C   UNL A   1      48.855  24.727  33.866  1.00  0.00     0.022 A 
BRANCH  87  91
ATOM     91  S   UNL A   1      47.506  22.924  35.510  1.00  0.00     0.124 S 
ATOM     92  O   UNL A   1      47.320  21.722  34.703  1.00  0.00    -0.237 OA
ATOM     93  O   UNL A   1      48.794  23.044  36.186  1.00  0.00    -0.237 OA
ATOM     94  O   UNL A   1      46.348  23.319  36.309  1.00  0.00    -0.744 OA
ENDBRANCH  87  91
ENDBRANCH  61  84
ENDBRANCH  35  36
ENDBRANCH  27  30
ENDBRANCH  25  26
ENDBRANCH  24  25
ENDBRANCH   1  24
TORSDOF 18
ENDMDL
