MODEL 1
REMARK VINA RESULT:      -9.1      0.000      0.000
REMARK SMILES O=C(NCCCCCCNC(=O)[C@H]1O[C@@H](Oc2c(-c3cc(O)c(O)c(O)c3)oc3cc(O)cc(O)c3c2=O)[C@H](O)[C@@H](O)[C@@H]1O)c1ccc(-c2c3nc(c(-c4cc(S(=O)(=O)[O-])ccc4F)c4ccc([nH]4)c(-c4cc(S(=O)(=O)[O-])ccc4F)c4nc(c(-c5cc(S(=O)(=O)[O-])ccc5F)c5ccc2[nH]5)C=C4)C=C3)cc1
REMARK SMILES IDX 7 1 6 2 5 3 4 4 3 5 1 6 2 7 45 9 46 10 107 11 47 12 106 13
REMARK SMILES IDX 48 14 49 15 50 16 100 17 51 18 105 19 99 20 101 21 52 22
REMARK SMILES IDX 104 23 98 24 97 25 53 27 85 28 65 29 84 30 66 31 69 32 83 33
REMARK SMILES IDX 102 34 67 35 68 36 82 38 103 39 70 40 54 41 55 42 63 43
REMARK SMILES IDX 56 44 62 45 64 46 61 47 57 48 58 49 59 50 60 51 86 52 87 53
REMARK SMILES IDX 95 54 88 55 94 56 96 57 93 58 89 59 90 60 91 61 92 62 71 63
REMARK SMILES IDX 72 64 80 65 73 66 79 67 81 68 78 69 74 70 75 71 76 72 77 73
REMARK SMILES IDX 8 74 9 75 10 76 11 77 12 79 13 80 14 81 43 82 15 83 41 84
REMARK SMILES IDX 39 85 44 86 16 88 17 89 18 90 37 91 28 92 36 93 38 94 29 95
REMARK SMILES IDX 34 96 30 97 33 98 31 99 19 100 20 101 27 102 21 103 25 104
REMARK SMILES IDX 23 105 22 106 26 108 24 110 35 112 32 114 42 116 40 118
REMARK H PARENT 3 8 101 26 69 37 10 78 44 87 22 107 26 109 24 111 35 113
REMARK H PARENT 32 115 42 117 40 119
REMARK Flexibility Score: inf
ROOT
ATOM      1  C   UNL A   1      45.568  33.709  33.125  1.00  0.00     0.002 C 
ENDROOT
BRANCH   1   2
ATOM      2  C   UNL A   1      47.055  33.434  32.890  1.00  0.00     0.002 C 
BRANCH   2   3
ATOM      3  C   UNL A   1      48.014  34.480  33.462  1.00  0.00     0.021 C 
BRANCH   3   4
ATOM      4  C   UNL A   1      49.421  33.974  33.749  1.00  0.00     0.116 C 
BRANCH   4   5
ATOM      5  N   UNL A   1      50.418  34.566  32.872  1.00  0.00    -0.352 N 
ATOM      6  O   UNL A   1      51.911  34.626  31.180  1.00  0.00    -0.269 OA
ATOM      7  C   UNL A   1      50.961  34.061  31.716  1.00  0.00     0.251 C 
ATOM      8  H   UNL A   1      50.749  35.453  33.143  1.00  0.00     0.163 HD
BRANCH   7   9
ATOM      9  C   UNL A   1      50.406  32.820  31.134  1.00  0.00     0.039 A 
ATOM     10  C   UNL A   1      49.295  32.871  30.289  1.00  0.00     0.014 A 
ATOM     11  C   UNL A   1      50.993  31.592  31.450  1.00  0.00     0.014 A 
ATOM     12  C   UNL A   1      48.682  31.691  29.888  1.00  0.00     0.010 A 
ATOM     13  C   UNL A   1      50.426  30.408  30.968  1.00  0.00     0.010 A 
ATOM     14  C   UNL A   1      49.244  30.445  30.212  1.00  0.00    -0.014 A 
BRANCH  14  15
ATOM     15  C   UNL A   1      48.595  29.207  29.709  1.00  0.00     0.031 A 
ATOM     16  C   UNL A   1      47.700  28.381  30.593  1.00  0.00     0.074 A 
ATOM     17  C   UNL A   1      48.790  28.853  28.423  1.00  0.00     0.049 A 
ATOM     18  N   UNL A   1      47.026  27.296  30.302  1.00  0.00    -0.248 NA
ATOM     19  C   UNL A   1      47.553  28.822  31.986  1.00  0.00     0.031 C 
ATOM     20  C   UNL A   1      49.643  29.576  27.475  1.00  0.00     0.029 A 
ATOM     21  N   UNL A   1      48.270  27.825  27.681  1.00  0.00    -0.354 N 
ATOM     22  C   UNL A   1      46.392  26.911  31.479  1.00  0.00     0.074 A 
ATOM     23  C   UNL A   1      46.792  27.863  32.496  1.00  0.00     0.031 C 
ATOM     24  C   UNL A   1      49.538  29.006  26.265  1.00  0.00     0.029 A 
ATOM     25  C   UNL A   1      48.671  27.838  26.365  1.00  0.00     0.049 A 
ATOM     26  H   UNL A   1      47.667  27.141  28.054  1.00  0.00     0.167 HD
ATOM     27  C   UNL A   1      45.552  25.866  31.687  1.00  0.00     0.034 A 
ATOM     28  C   UNL A   1      48.386  26.998  25.353  1.00  0.00     0.034 A 
ATOM     29  C   UNL A   1      45.158  24.932  30.656  1.00  0.00     0.049 A 
ATOM     30  C   UNL A   1      47.476  25.830  25.619  1.00  0.00     0.074 A 
ATOM     31  C   UNL A   1      44.281  23.865  30.747  1.00  0.00     0.029 A 
ATOM     32  N   UNL A   1      45.626  24.946  29.347  1.00  0.00    -0.354 N 
ATOM     33  N   UNL A   1      46.866  25.495  26.732  1.00  0.00    -0.248 NA
ATOM     34  C   UNL A   1      47.215  24.931  24.490  1.00  0.00     0.031 C 
ATOM     35  C   UNL A   1      44.272  23.194  29.518  1.00  0.00     0.029 A 
ATOM     36  C   UNL A   1      45.083  23.886  28.633  1.00  0.00     0.049 A 
ATOM     37  H   UNL A   1      46.253  25.610  28.979  1.00  0.00     0.167 HD
ATOM     38  C   UNL A   1      46.129  24.355  26.429  1.00  0.00     0.074 A 
ATOM     39  C   UNL A   1      46.355  24.076  25.025  1.00  0.00     0.031 C 
ATOM     40  C   UNL A   1      45.334  23.608  27.238  1.00  0.00     0.034 A 
BRANCH  27  41
ATOM     41  C   UNL A   1      45.044  25.650  33.095  1.00  0.00     0.023 A 
ATOM     42  C   UNL A   1      43.844  26.224  33.551  1.00  0.00     0.031 A 
ATOM     43  C   UNL A   1      45.786  24.876  34.006  1.00  0.00     0.131 A 
ATOM     44  C   UNL A   1      43.464  26.082  34.896  1.00  0.00     0.055 A 
ATOM     45  C   UNL A   1      45.361  24.670  35.320  1.00  0.00     0.041 A 
ATOM     46  F   UNL A   1      46.950  24.316  33.637  1.00  0.00    -0.206 F 
ATOM     47  C   UNL A   1      44.202  25.289  35.777  1.00  0.00     0.022 A 
BRANCH  44  48
ATOM     48  S   UNL A   1      42.073  27.070  35.512  1.00  0.00     0.124 S 
ATOM     49  O   UNL A   1      40.929  26.253  35.114  1.00  0.00    -0.237 OA
ATOM     50  O   UNL A   1      42.342  27.135  36.944  1.00  0.00    -0.237 OA
ATOM     51  O   UNL A   1      42.205  28.335  34.794  1.00  0.00    -0.744 OA
ENDBRANCH  44  48
ENDBRANCH  27  41
BRANCH  28  52
ATOM     52  C   UNL A   1      48.979  27.218  24.005  1.00  0.00     0.023 A 
ATOM     53  C   UNL A   1      50.327  26.921  23.751  1.00  0.00     0.031 A 
ATOM     54  C   UNL A   1      48.211  27.751  22.954  1.00  0.00     0.131 A 
ATOM     55  C   UNL A   1      50.876  27.193  22.489  1.00  0.00     0.055 A 
ATOM     56  C   UNL A   1      48.747  27.968  21.685  1.00  0.00     0.041 A 
ATOM     57  F   UNL A   1      46.914  28.047  23.142  1.00  0.00    -0.206 F 
ATOM     58  C   UNL A   1      50.093  27.701  21.451  1.00  0.00     0.022 A 
BRANCH  55  59
ATOM     59  S   UNL A   1      52.655  26.940  22.246  1.00  0.00     0.124 S 
ATOM     60  O   UNL A   1      53.126  28.306  22.045  1.00  0.00    -0.237 OA
ATOM     61  O   UNL A   1      53.046  26.304  23.500  1.00  0.00    -0.237 OA
ATOM     62  O   UNL A   1      52.717  26.078  21.067  1.00  0.00    -0.744 OA
ENDBRANCH  55  59
ENDBRANCH  28  52
BRANCH  40  63
ATOM     63  C   UNL A   1      44.625  22.440  26.595  1.00  0.00     0.023 A 
ATOM     64  C   UNL A   1      45.330  21.329  26.098  1.00  0.00     0.031 A 
ATOM     65  C   UNL A   1      43.227  22.460  26.441  1.00  0.00     0.131 A 
ATOM     66  C   UNL A   1      44.643  20.318  25.408  1.00  0.00     0.055 A 
ATOM     67  C   UNL A   1      42.544  21.420  25.810  1.00  0.00     0.041 A 
ATOM     68  F   UNL A   1      42.504  23.498  26.893  1.00  0.00    -0.206 F 
ATOM     69  C   UNL A   1      43.253  20.349  25.275  1.00  0.00     0.022 A 
BRANCH  66  70
ATOM     70  S   UNL A   1      45.606  19.018  24.587  1.00  0.00     0.124 S 
ATOM     71  O   UNL A   1      44.873  18.840  23.338  1.00  0.00    -0.237 OA
ATOM     72  O   UNL A   1      46.925  19.634  24.470  1.00  0.00    -0.237 OA
ATOM     73  O   UNL A   1      45.529  17.894  25.518  1.00  0.00    -0.744 OA
ENDBRANCH  66  70
ENDBRANCH  40  63
ENDBRANCH  14  15
ENDBRANCH   7   9
ENDBRANCH   4   5
ENDBRANCH   3   4
ENDBRANCH   2   3
ENDBRANCH   1   2
BRANCH   1  74
ATOM     74  C   UNL A   1      44.705  33.752  31.863  1.00  0.00     0.021 C 
BRANCH  74  75
ATOM     75  C   UNL A   1      45.382  33.204  30.606  1.00  0.00     0.116 C 
BRANCH  75  76
ATOM     76  N   UNL A   1      44.774  33.712  29.382  1.00  0.00    -0.354 N 
ATOM     77  C   UNL A   1      44.433  33.028  28.238  1.00  0.00     0.252 C 
ATOM     78  H   UNL A   1      44.580  34.678  29.373  1.00  0.00     0.163 HD
ATOM     79  O   UNL A   1      43.972  33.655  27.285  1.00  0.00    -0.272 OA
BRANCH  77  80
ATOM     80  C   UNL A   1      44.609  31.500  28.227  1.00  0.00     0.242 C 
ATOM     81  O   UNL A   1      43.565  30.747  28.869  1.00  0.00    -0.324 OA
ATOM     82  C   UNL A   1      44.710  30.970  26.793  1.00  0.00     0.184 C 
ATOM     83  C   UNL A   1      44.003  29.411  29.147  1.00  0.00     0.340 C 
ATOM     84  C   UNL A   1      45.287  29.560  26.885  1.00  0.00     0.181 C 
ATOM     85  C   UNL A   1      44.505  28.689  27.866  1.00  0.00     0.214 C 
BRANCH  82  86
ATOM     86  O   UNL A   1      45.553  31.713  25.916  1.00  0.00    -0.387 OA
ATOM     87  H   UNL A   1      46.372  31.949  26.379  1.00  0.00     0.211 HD
ENDBRANCH  82  86
BRANCH  83  88
ATOM     88  O   UNL A   1      43.036  28.555  29.801  1.00  0.00    -0.454 OA
BRANCH  88  89
ATOM     89  C   UNL A   1      41.818  29.110  30.156  1.00  0.00     0.214 A 
ATOM     90  C   UNL A   1      40.669  28.888  29.481  1.00  0.00     0.181 A 
ATOM     91  C   UNL A   1      41.724  29.792  31.484  1.00  0.00     0.239 A 
ATOM     92  O   UNL A   1      39.431  29.370  29.845  1.00  0.00    -0.452 OA
ATOM     93  C   UNL A   1      40.362  30.174  31.944  1.00  0.00     0.111 A 
ATOM     94  O   UNL A   1      42.731  29.970  32.161  1.00  0.00    -0.285 OA
ATOM     95  C   UNL A   1      39.292  29.944  31.078  1.00  0.00     0.146 A 
ATOM     96  C   UNL A   1      40.092  30.729  33.205  1.00  0.00     0.134 A 
ATOM     97  C   UNL A   1      37.985  30.275  31.441  1.00  0.00     0.094 A 
ATOM     98  C   UNL A   1      38.780  31.057  33.579  1.00  0.00     0.093 A 
ATOM     99  C   UNL A   1      37.738  30.827  32.688  1.00  0.00     0.123 A 
BRANCH  90 100
ATOM    100  C   UNL A   1      40.624  28.150  28.207  1.00  0.00     0.029 A 
ATOM    101  C   UNL A   1      41.241  28.717  27.075  1.00  0.00     0.062 A 
ATOM    102  C   UNL A   1      40.118  26.840  28.144  1.00  0.00     0.062 A 
ATOM    103  C   UNL A   1      41.472  27.924  25.958  1.00  0.00     0.162 A 
ATOM    104  C   UNL A   1      40.339  26.073  27.007  1.00  0.00     0.162 A 
ATOM    105  C   UNL A   1      41.055  26.599  25.938  1.00  0.00     0.200 A 
BRANCH 103 106
ATOM    106  O   UNL A   1      42.206  28.434  24.926  1.00  0.00    -0.504 OA
ATOM    107  H   UNL A   1      43.011  28.026  24.676  1.00  0.00     0.293 HD
ENDBRANCH 103 106
BRANCH 104 108
ATOM    108  O   UNL A   1      39.921  24.774  26.995  1.00  0.00    -0.504 OA
ATOM    109  H   UNL A   1      40.421  24.125  26.540  1.00  0.00     0.293 HD
ENDBRANCH 104 108
BRANCH 105 110
ATOM    110  O   UNL A   1      41.450  25.783  24.914  1.00  0.00    -0.502 OA
ATOM    111  H   UNL A   1      41.695  24.896  25.090  1.00  0.00     0.293 HD
ENDBRANCH 105 110
ENDBRANCH  90 100
BRANCH  96 112
ATOM    112  O   UNL A   1      41.095  30.942  34.106  1.00  0.00    -0.507 OA
ATOM    113  H   UNL A   1      41.948  31.190  33.808  1.00  0.00     0.293 HD
ENDBRANCH  96 112
BRANCH  99 114
ATOM    114  O   UNL A   1      36.446  31.120  33.006  1.00  0.00    -0.508 OA
ATOM    115  H   UNL A   1      36.231  31.953  33.377  1.00  0.00     0.293 HD
ENDBRANCH  99 114
ENDBRANCH  88  89
ENDBRANCH  83  88
BRANCH  84 116
ATOM    116  O   UNL A   1      45.281  28.986  25.557  1.00  0.00    -0.387 OA
ATOM    117  H   UNL A   1      45.065  28.043  25.612  1.00  0.00     0.211 HD
ENDBRANCH  84 116
BRANCH  85 118
ATOM    118  O   UNL A   1      45.246  27.494  28.143  1.00  0.00    -0.384 OA
ATOM    119  H   UNL A   1      45.471  27.052  27.309  1.00  0.00     0.211 HD
ENDBRANCH  85 118
ENDBRANCH  77  80
ENDBRANCH  75  76
ENDBRANCH  74  75
ENDBRANCH   1  74
TORSDOF 27
ENDMDL
MODEL 2
REMARK VINA RESULT:      -9.0      6.236     11.351
REMARK SMILES O=C(NCCCCCCNC(=O)[C@H]1O[C@@H](Oc2c(-c3cc(O)c(O)c(O)c3)oc3cc(O)cc(O)c3c2=O)[C@H](O)[C@@H](O)[C@@H]1O)c1ccc(-c2c3nc(c(-c4cc(S(=O)(=O)[O-])ccc4F)c4ccc([nH]4)c(-c4cc(S(=O)(=O)[O-])ccc4F)c4nc(c(-c5cc(S(=O)(=O)[O-])ccc5F)c5ccc2[nH]5)C=C4)C=C3)cc1
REMARK SMILES IDX 7 1 6 2 5 3 4 4 3 5 1 6 2 7 45 9 46 10 107 11 47 12 106 13
REMARK SMILES IDX 48 14 49 15 50 16 100 17 51 18 105 19 99 20 101 21 52 22
REMARK SMILES IDX 104 23 98 24 97 25 53 27 85 28 65 29 84 30 66 31 69 32 83 33
REMARK SMILES IDX 102 34 67 35 68 36 82 38 103 39 70 40 54 41 55 42 63 43
REMARK SMILES IDX 56 44 62 45 64 46 61 47 57 48 58 49 59 50 60 51 86 52 87 53
REMARK SMILES IDX 95 54 88 55 94 56 96 57 93 58 89 59 90 60 91 61 92 62 71 63
REMARK SMILES IDX 72 64 80 65 73 66 79 67 81 68 78 69 74 70 75 71 76 72 77 73
REMARK SMILES IDX 8 74 9 75 10 76 11 77 12 79 13 80 14 81 43 82 15 83 41 84
REMARK SMILES IDX 39 85 44 86 16 88 17 89 18 90 37 91 28 92 36 93 38 94 29 95
REMARK SMILES IDX 34 96 30 97 33 98 31 99 19 100 20 101 27 102 21 103 25 104
REMARK SMILES IDX 23 105 22 106 26 108 24 110 35 112 32 114 42 116 40 118
REMARK H PARENT 3 8 101 26 69 37 10 78 44 87 22 107 26 109 24 111 35 113
REMARK H PARENT 32 115 42 117 40 119
REMARK Flexibility Score: inf
ROOT
ATOM      1  C   UNL A   1      37.280  21.797  24.376  1.00  0.00     0.002 C 
ENDROOT
BRANCH   1   2
ATOM      2  C   UNL A   1      37.280  20.427  25.059  1.00  0.00     0.002 C 
BRANCH   2   3
ATOM      3  C   UNL A   1      38.595  19.651  24.971  1.00  0.00     0.021 C 
BRANCH   3   4
ATOM      4  C   UNL A   1      39.681  20.116  25.932  1.00  0.00     0.116 C 
BRANCH   4   5
ATOM      5  N   UNL A   1      40.676  19.086  26.191  1.00  0.00    -0.352 N 
ATOM      6  O   UNL A   1      42.747  18.235  26.472  1.00  0.00    -0.269 OA
ATOM      7  C   UNL A   1      42.022  19.226  26.427  1.00  0.00     0.251 C 
ATOM      8  H   UNL A   1      40.337  18.162  26.201  1.00  0.00     0.163 HD
BRANCH   7   9
ATOM      9  C   UNL A   1      42.593  20.578  26.604  1.00  0.00     0.039 A 
ATOM     10  C   UNL A   1      42.684  21.145  27.877  1.00  0.00     0.014 A 
ATOM     11  C   UNL A   1      43.025  21.292  25.484  1.00  0.00     0.014 A 
ATOM     12  C   UNL A   1      43.061  22.475  28.013  1.00  0.00     0.010 A 
ATOM     13  C   UNL A   1      43.491  22.602  25.635  1.00  0.00     0.010 A 
ATOM     14  C   UNL A   1      43.480  23.217  26.897  1.00  0.00    -0.014 A 
BRANCH  14  15
ATOM     15  C   UNL A   1      43.939  24.617  27.090  1.00  0.00     0.031 A 
ATOM     16  C   UNL A   1      43.023  25.667  27.658  1.00  0.00     0.074 A 
ATOM     17  C   UNL A   1      45.216  24.925  26.785  1.00  0.00     0.049 A 
ATOM     18  N   UNL A   1      43.274  26.923  27.928  1.00  0.00    -0.248 NA
ATOM     19  C   UNL A   1      41.643  25.256  27.949  1.00  0.00     0.031 C 
ATOM     20  C   UNL A   1      46.192  23.989  26.222  1.00  0.00     0.029 A 
ATOM     21  N   UNL A   1      45.921  26.092  26.928  1.00  0.00    -0.354 N 
ATOM     22  C   UNL A   1      42.081  27.462  28.399  1.00  0.00     0.074 A 
ATOM     23  C   UNL A   1      41.097  26.399  28.345  1.00  0.00     0.031 C 
ATOM     24  C   UNL A   1      47.383  24.599  26.127  1.00  0.00     0.029 A 
ATOM     25  C   UNL A   1      47.240  25.987  26.551  1.00  0.00     0.049 A 
ATOM     26  H   UNL A   1      45.522  26.926  27.267  1.00  0.00     0.167 HD
ATOM     27  C   UNL A   1      41.834  28.721  28.840  1.00  0.00     0.034 A 
ATOM     28  C   UNL A   1      48.223  26.905  26.535  1.00  0.00     0.034 A 
ATOM     29  C   UNL A   1      42.832  29.765  28.894  1.00  0.00     0.049 A 
ATOM     30  C   UNL A   1      47.914  28.301  27.000  1.00  0.00     0.074 A 
ATOM     31  C   UNL A   1      42.702  31.061  29.362  1.00  0.00     0.029 A 
ATOM     32  N   UNL A   1      44.146  29.637  28.455  1.00  0.00    -0.354 N 
ATOM     33  N   UNL A   1      46.786  28.786  27.466  1.00  0.00    -0.248 NA
ATOM     34  C   UNL A   1      49.012  29.271  26.941  1.00  0.00     0.031 C 
ATOM     35  C   UNL A   1      43.909  31.735  29.142  1.00  0.00     0.029 A 
ATOM     36  C   UNL A   1      44.822  30.839  28.609  1.00  0.00     0.049 A 
ATOM     37  H   UNL A   1      44.539  28.813  28.087  1.00  0.00     0.167 HD
ATOM     38  C   UNL A   1      47.048  30.117  27.776  1.00  0.00     0.074 A 
ATOM     39  C   UNL A   1      48.444  30.347  27.465  1.00  0.00     0.031 C 
ATOM     40  C   UNL A   1      46.210  31.061  28.276  1.00  0.00     0.034 A 
BRANCH  27  41
ATOM     41  C   UNL A   1      40.416  29.051  29.249  1.00  0.00     0.023 A 
ATOM     42  C   UNL A   1      39.999  29.008  30.592  1.00  0.00     0.031 A 
ATOM     43  C   UNL A   1      39.457  29.387  28.277  1.00  0.00     0.131 A 
ATOM     44  C   UNL A   1      38.648  29.221  30.914  1.00  0.00     0.055 A 
ATOM     45  C   UNL A   1      38.133  29.678  28.612  1.00  0.00     0.041 A 
ATOM     46  F   UNL A   1      39.789  29.426  26.976  1.00  0.00    -0.206 F 
ATOM     47  C   UNL A   1      37.718  29.579  29.936  1.00  0.00     0.022 A 
BRANCH  44  48
ATOM     48  S   UNL A   1      38.098  28.876  32.608  1.00  0.00     0.124 S 
ATOM     49  O   UNL A   1      38.301  27.432  32.698  1.00  0.00    -0.237 OA
ATOM     50  O   UNL A   1      39.000  29.699  33.407  1.00  0.00    -0.237 OA
ATOM     51  O   UNL A   1      36.700  29.301  32.608  1.00  0.00    -0.744 OA
ENDBRANCH  44  48
ENDBRANCH  27  41
BRANCH  28  52
ATOM     52  C   UNL A   1      49.583  26.541  26.047  1.00  0.00     0.023 A 
ATOM     53  C   UNL A   1      50.063  27.025  24.820  1.00  0.00     0.031 A 
ATOM     54  C   UNL A   1      50.414  25.685  26.792  1.00  0.00     0.131 A 
ATOM     55  C   UNL A   1      51.323  26.620  24.356  1.00  0.00     0.055 A 
ATOM     56  C   UNL A   1      51.689  25.329  26.351  1.00  0.00     0.041 A 
ATOM     57  F   UNL A   1      50.004  25.200  27.974  1.00  0.00    -0.206 F 
ATOM     58  C   UNL A   1      52.145  25.787  25.119  1.00  0.00     0.022 A 
BRANCH  55  59
ATOM     59  S   UNL A   1      51.845  27.141  22.700  1.00  0.00     0.124 S 
ATOM     60  O   UNL A   1      50.565  27.376  22.044  1.00  0.00    -0.237 OA
ATOM     61  O   UNL A   1      52.645  28.327  22.993  1.00  0.00    -0.237 OA
ATOM     62  O   UNL A   1      52.599  25.992  22.204  1.00  0.00    -0.744 OA
ENDBRANCH  55  59
ENDBRANCH  28  52
BRANCH  40  63
ATOM     63  C   UNL A   1      46.811  32.419  28.550  1.00  0.00     0.023 A 
ATOM     64  C   UNL A   1      46.929  33.393  27.542  1.00  0.00     0.031 A 
ATOM     65  C   UNL A   1      47.310  32.726  29.828  1.00  0.00     0.131 A 
ATOM     66  C   UNL A   1      47.594  34.599  27.811  1.00  0.00     0.055 A 
ATOM     67  C   UNL A   1      47.913  33.953  30.105  1.00  0.00     0.041 A 
ATOM     68  F   UNL A   1      47.227  31.832  30.827  1.00  0.00    -0.206 F 
ATOM     69  C   UNL A   1      48.073  34.891  29.090  1.00  0.00     0.022 A 
BRANCH  66  70
ATOM     70  S   UNL A   1      47.927  35.733  26.435  1.00  0.00     0.124 S 
ATOM     71  O   UNL A   1      48.392  34.822  25.395  1.00  0.00    -0.237 OA
ATOM     72  O   UNL A   1      46.620  36.343  26.210  1.00  0.00    -0.237 OA
ATOM     73  O   UNL A   1      48.946  36.634  26.972  1.00  0.00    -0.744 OA
ENDBRANCH  66  70
ENDBRANCH  40  63
ENDBRANCH  14  15
ENDBRANCH   7   9
ENDBRANCH   4   5
ENDBRANCH   3   4
ENDBRANCH   2   3
ENDBRANCH   1   2
BRANCH   1  74
ATOM     74  C   UNL A   1      36.208  22.772  24.868  1.00  0.00     0.021 C 
BRANCH  74  75
ATOM     75  C   UNL A   1      35.099  22.134  25.705  1.00  0.00     0.116 C 
BRANCH  75  76
ATOM     76  N   UNL A   1      34.140  21.400  24.889  1.00  0.00    -0.354 N 
ATOM     77  C   UNL A   1      32.829  21.710  24.607  1.00  0.00     0.252 C 
ATOM     78  H   UNL A   1      34.476  20.568  24.482  1.00  0.00     0.163 HD
ATOM     79  O   UNL A   1      32.164  20.925  23.931  1.00  0.00    -0.272 OA
BRANCH  77  80
ATOM     80  C   UNL A   1      32.274  23.049  25.122  1.00  0.00     0.242 C 
ATOM     81  O   UNL A   1      32.261  24.126  24.169  1.00  0.00    -0.324 OA
ATOM     82  C   UNL A   1      30.834  22.890  25.619  1.00  0.00     0.184 C 
ATOM     83  C   UNL A   1      32.107  25.387  24.834  1.00  0.00     0.340 C 
ATOM     84  C   UNL A   1      30.524  24.119  26.470  1.00  0.00     0.181 C 
ATOM     85  C   UNL A   1      30.836  25.416  25.727  1.00  0.00     0.214 C 
BRANCH  82  86
ATOM     86  O   UNL A   1      30.581  21.744  26.428  1.00  0.00    -0.387 OA
ATOM     87  H   UNL A   1      31.402  21.470  26.866  1.00  0.00     0.211 HD
ENDBRANCH  82  86
BRANCH  83  88
ATOM     88  O   UNL A   1      32.086  26.552  23.975  1.00  0.00    -0.454 OA
BRANCH  88  89
ATOM     89  C   UNL A   1      32.294  27.789  24.559  1.00  0.00     0.214 A 
ATOM     90  C   UNL A   1      31.358  28.762  24.610  1.00  0.00     0.181 A 
ATOM     91  C   UNL A   1      33.532  27.970  25.382  1.00  0.00     0.239 A 
ATOM     92  O   UNL A   1      31.512  29.977  25.240  1.00  0.00    -0.452 OA
ATOM     93  C   UNL A   1      33.622  29.220  26.185  1.00  0.00     0.111 A 
ATOM     94  O   UNL A   1      34.388  27.093  25.414  1.00  0.00    -0.285 OA
ATOM     95  C   UNL A   1      32.598  30.158  26.051  1.00  0.00     0.146 A 
ATOM     96  C   UNL A   1      34.666  29.496  27.083  1.00  0.00     0.134 A 
ATOM     97  C   UNL A   1      32.614  31.354  26.773  1.00  0.00     0.094 A 
ATOM     98  C   UNL A   1      34.684  30.691  27.817  1.00  0.00     0.093 A 
ATOM     99  C   UNL A   1      33.655  31.610  27.651  1.00  0.00     0.123 A 
BRANCH  90 100
ATOM    100  C   UNL A   1      30.065  28.658  23.914  1.00  0.00     0.029 A 
ATOM    101  C   UNL A   1      29.333  27.459  24.022  1.00  0.00     0.062 A 
ATOM    102  C   UNL A   1      29.488  29.774  23.283  1.00  0.00     0.062 A 
ATOM    103  C   UNL A   1      27.999  27.439  23.634  1.00  0.00     0.162 A 
ATOM    104  C   UNL A   1      28.159  29.724  22.880  1.00  0.00     0.162 A 
ATOM    105  C   UNL A   1      27.405  28.576  23.099  1.00  0.00     0.200 A 
BRANCH 103 106
ATOM    106  O   UNL A   1      27.255  26.323  23.884  1.00  0.00    -0.504 OA
ATOM    107  H   UNL A   1      26.425  26.209  23.466  1.00  0.00     0.293 HD
ENDBRANCH 103 106
BRANCH 104 108
ATOM    108  O   UNL A   1      27.587  30.844  22.351  1.00  0.00    -0.504 OA
ATOM    109  H   UNL A   1      26.707  31.073  22.581  1.00  0.00     0.293 HD
ENDBRANCH 104 108
BRANCH 105 110
ATOM    110  O   UNL A   1      26.053  28.599  22.896  1.00  0.00    -0.502 OA
ATOM    111  H   UNL A   1      25.474  28.292  23.566  1.00  0.00     0.293 HD
ENDBRANCH 105 110
ENDBRANCH  90 100
BRANCH  96 112
ATOM    112  O   UNL A   1      35.675  28.598  27.281  1.00  0.00    -0.507 OA
ATOM    113  H   UNL A   1      36.469  28.669  26.788  1.00  0.00     0.293 HD
ENDBRANCH  96 112
BRANCH  99 114
ATOM    114  O   UNL A   1      33.622  32.782  28.346  1.00  0.00    -0.508 OA
ATOM    115  H   UNL A   1      32.919  32.955  28.941  1.00  0.00     0.293 HD
ENDBRANCH  99 114
ENDBRANCH  88  89
ENDBRANCH  83  88
BRANCH  84 116
ATOM    116  O   UNL A   1      29.131  24.058  26.855  1.00  0.00    -0.387 OA
ATOM    117  H   UNL A   1      28.710  24.914  26.684  1.00  0.00     0.211 HD
ENDBRANCH  84 116
BRANCH  85 118
ATOM    118  O   UNL A   1      30.817  26.514  26.649  1.00  0.00    -0.384 OA
ATOM    119  H   UNL A   1      31.704  26.638  27.023  1.00  0.00     0.211 HD
ENDBRANCH  85 118
ENDBRANCH  77  80
ENDBRANCH  75  76
ENDBRANCH  74  75
ENDBRANCH   1  74
TORSDOF 27
ENDMDL
MODEL 3
REMARK VINA RESULT:      -8.9      6.645     13.923
REMARK SMILES O=C(NCCCCCCNC(=O)[C@H]1O[C@@H](Oc2c(-c3cc(O)c(O)c(O)c3)oc3cc(O)cc(O)c3c2=O)[C@H](O)[C@@H](O)[C@@H]1O)c1ccc(-c2c3nc(c(-c4cc(S(=O)(=O)[O-])ccc4F)c4ccc([nH]4)c(-c4cc(S(=O)(=O)[O-])ccc4F)c4nc(c(-c5cc(S(=O)(=O)[O-])ccc5F)c5ccc2[nH]5)C=C4)C=C3)cc1
REMARK SMILES IDX 7 1 6 2 5 3 4 4 3 5 1 6 2 7 45 9 46 10 107 11 47 12 106 13
REMARK SMILES IDX 48 14 49 15 50 16 100 17 51 18 105 19 99 20 101 21 52 22
REMARK SMILES IDX 104 23 98 24 97 25 53 27 85 28 65 29 84 30 66 31 69 32 83 33
REMARK SMILES IDX 102 34 67 35 68 36 82 38 103 39 70 40 54 41 55 42 63 43
REMARK SMILES IDX 56 44 62 45 64 46 61 47 57 48 58 49 59 50 60 51 86 52 87 53
REMARK SMILES IDX 95 54 88 55 94 56 96 57 93 58 89 59 90 60 91 61 92 62 71 63
REMARK SMILES IDX 72 64 80 65 73 66 79 67 81 68 78 69 74 70 75 71 76 72 77 73
REMARK SMILES IDX 8 74 9 75 10 76 11 77 12 79 13 80 14 81 43 82 15 83 41 84
REMARK SMILES IDX 39 85 44 86 16 88 17 89 18 90 37 91 28 92 36 93 38 94 29 95
REMARK SMILES IDX 34 96 30 97 33 98 31 99 19 100 20 101 27 102 21 103 25 104
REMARK SMILES IDX 23 105 22 106 26 108 24 110 35 112 32 114 42 116 40 118
REMARK H PARENT 3 8 101 26 69 37 10 78 44 87 22 107 26 109 24 111 35 113
REMARK H PARENT 32 115 42 117 40 119
REMARK Flexibility Score: inf
ROOT
ATOM      1  C   UNL A   1      38.429  22.070  25.812  1.00  0.00     0.002 C 
ENDROOT
BRANCH   1   2
ATOM      2  C   UNL A   1      39.595  22.715  26.563  1.00  0.00     0.002 C 
BRANCH   2   3
ATOM      3  C   UNL A   1      39.265  24.019  27.290  1.00  0.00     0.021 C 
BRANCH   3   4
ATOM      4  C   UNL A   1      39.928  25.263  26.713  1.00  0.00     0.116 C 
BRANCH   4   5
ATOM      5  N   UNL A   1      41.010  24.944  25.794  1.00  0.00    -0.352 N 
ATOM      6  O   UNL A   1      42.886  25.321  24.598  1.00  0.00    -0.269 OA
ATOM      7  C   UNL A   1      42.150  25.660  25.521  1.00  0.00     0.251 C 
ATOM      8  H   UNL A   1      40.911  24.098  25.300  1.00  0.00     0.163 HD
BRANCH   7   9
ATOM      9  C   UNL A   1      42.473  26.851  26.335  1.00  0.00     0.039 A 
ATOM     10  C   UNL A   1      43.138  26.715  27.555  1.00  0.00     0.014 A 
ATOM     11  C   UNL A   1      42.091  28.116  25.880  1.00  0.00     0.014 A 
ATOM     12  C   UNL A   1      43.283  27.818  28.387  1.00  0.00     0.010 A 
ATOM     13  C   UNL A   1      42.322  29.239  26.680  1.00  0.00     0.010 A 
ATOM     14  C   UNL A   1      42.888  29.095  27.957  1.00  0.00    -0.014 A 
BRANCH  14  15
ATOM     15  C   UNL A   1      43.119  30.262  28.848  1.00  0.00     0.031 A 
ATOM     16  C   UNL A   1      44.415  31.025  28.813  1.00  0.00     0.074 A 
ATOM     17  C   UNL A   1      42.124  30.654  29.668  1.00  0.00     0.049 A 
ATOM     18  N   UNL A   1      44.765  32.088  29.493  1.00  0.00    -0.248 NA
ATOM     19  C   UNL A   1      45.456  30.525  27.906  1.00  0.00     0.031 C 
ATOM     20  C   UNL A   1      40.826  29.984  29.791  1.00  0.00     0.029 A 
ATOM     21  N   UNL A   1      42.029  31.717  30.527  1.00  0.00    -0.354 N 
ATOM     22  C   UNL A   1      46.074  32.372  29.116  1.00  0.00     0.074 A 
ATOM     23  C   UNL A   1      46.464  31.346  28.170  1.00  0.00     0.031 C 
ATOM     24  C   UNL A   1      40.045  30.687  30.624  1.00  0.00     0.029 A 
ATOM     25  C   UNL A   1      40.806  31.813  31.152  1.00  0.00     0.049 A 
ATOM     26  H   UNL A   1      42.765  32.352  30.684  1.00  0.00     0.167 HD
ATOM     27  C   UNL A   1      46.870  33.396  29.517  1.00  0.00     0.034 A 
ATOM     28  C   UNL A   1      40.351  32.699  32.056  1.00  0.00     0.034 A 
ATOM     29  C   UNL A   1      46.458  34.415  30.456  1.00  0.00     0.049 A 
ATOM     30  C   UNL A   1      41.264  33.805  32.506  1.00  0.00     0.074 A 
ATOM     31  C   UNL A   1      47.167  35.518  30.899  1.00  0.00     0.029 A 
ATOM     32  N   UNL A   1      45.230  34.450  31.108  1.00  0.00    -0.354 N 
ATOM     33  N   UNL A   1      42.490  34.073  32.120  1.00  0.00    -0.248 NA
ATOM     34  C   UNL A   1      40.730  34.730  33.511  1.00  0.00     0.031 C 
ATOM     35  C   UNL A   1      46.400  36.178  31.866  1.00  0.00     0.029 A 
ATOM     36  C   UNL A   1      45.178  35.534  31.972  1.00  0.00     0.049 A 
ATOM     37  H   UNL A   1      44.504  33.799  30.976  1.00  0.00     0.167 HD
ATOM     38  C   UNL A   1      42.866  35.214  32.822  1.00  0.00     0.074 A 
ATOM     39  C   UNL A   1      41.728  35.593  33.635  1.00  0.00     0.031 C 
ATOM     40  C   UNL A   1      44.044  35.889  32.794  1.00  0.00     0.034 A 
BRANCH  27  41
ATOM     41  C   UNL A   1      48.283  33.432  28.980  1.00  0.00     0.023 A 
ATOM     42  C   UNL A   1      48.589  33.987  27.725  1.00  0.00     0.031 A 
ATOM     43  C   UNL A   1      49.340  32.876  29.724  1.00  0.00     0.131 A 
ATOM     44  C   UNL A   1      49.898  33.906  27.221  1.00  0.00     0.055 A 
ATOM     45  C   UNL A   1      50.654  32.872  29.254  1.00  0.00     0.041 A 
ATOM     46  F   UNL A   1      49.109  32.313  30.922  1.00  0.00    -0.206 F 
ATOM     47  C   UNL A   1      50.937  33.374  27.987  1.00  0.00     0.022 A 
BRANCH  44  48
ATOM     48  S   UNL A   1      50.191  34.371  25.492  1.00  0.00     0.124 S 
ATOM     49  O   UNL A   1      50.805  33.157  24.959  1.00  0.00    -0.237 OA
ATOM     50  O   UNL A   1      48.846  34.670  25.013  1.00  0.00    -0.237 OA
ATOM     51  O   UNL A   1      51.088  35.520  25.592  1.00  0.00    -0.744 OA
ENDBRANCH  44  48
ENDBRANCH  27  41
BRANCH  28  52
ATOM     52  C   UNL A   1      38.974  32.566  32.609  1.00  0.00     0.023 A 
ATOM     53  C   UNL A   1      37.860  33.029  31.892  1.00  0.00     0.031 A 
ATOM     54  C   UNL A   1      38.754  31.992  33.874  1.00  0.00     0.131 A 
ATOM     55  C   UNL A   1      36.580  32.946  32.461  1.00  0.00     0.055 A 
ATOM     56  C   UNL A   1      37.473  31.861  34.412  1.00  0.00     0.041 A 
ATOM     57  F   UNL A   1      39.785  31.528  34.598  1.00  0.00    -0.206 F 
ATOM     58  C   UNL A   1      36.378  32.352  33.708  1.00  0.00     0.022 A 
BRANCH  55  59
ATOM     59  S   UNL A   1      35.187  33.693  31.573  1.00  0.00     0.124 S 
ATOM     60  O   UNL A   1      34.855  34.821  32.435  1.00  0.00    -0.237 OA
ATOM     61  O   UNL A   1      35.790  34.024  30.286  1.00  0.00    -0.237 OA
ATOM     62  O   UNL A   1      34.194  32.621  31.535  1.00  0.00    -0.744 OA
ENDBRANCH  55  59
ENDBRANCH  28  52
BRANCH  40  63
ATOM     63  C   UNL A   1      44.129  37.132  33.647  1.00  0.00     0.023 A 
ATOM     64  C   UNL A   1      43.699  38.385  33.174  1.00  0.00     0.031 A 
ATOM     65  C   UNL A   1      44.688  37.067  34.935  1.00  0.00     0.131 A 
ATOM     66  C   UNL A   1      43.900  39.533  33.956  1.00  0.00     0.055 A 
ATOM     67  C   UNL A   1      44.826  38.203  35.734  1.00  0.00     0.041 A 
ATOM     68  F   UNL A   1      45.119  35.897  35.436  1.00  0.00    -0.206 F 
ATOM     69  C   UNL A   1      44.446  39.447  35.239  1.00  0.00     0.022 A 
BRANCH  66  70
ATOM     70  S   UNL A   1      43.542  41.155  33.227  1.00  0.00     0.124 S 
ATOM     71  O   UNL A   1      44.117  42.064  34.212  1.00  0.00    -0.237 OA
ATOM     72  O   UNL A   1      44.237  41.081  31.946  1.00  0.00    -0.237 OA
ATOM     73  O   UNL A   1      42.083  41.177  33.139  1.00  0.00    -0.744 OA
ENDBRANCH  66  70
ENDBRANCH  40  63
ENDBRANCH  14  15
ENDBRANCH   7   9
ENDBRANCH   4   5
ENDBRANCH   3   4
ENDBRANCH   2   3
ENDBRANCH   1   2
BRANCH   1  74
ATOM     74  C   UNL A   1      37.388  23.045  25.258  1.00  0.00     0.021 C 
BRANCH  74  75
ATOM     75  C   UNL A   1      35.976  22.855  25.813  1.00  0.00     0.116 C 
BRANCH  75  76
ATOM     76  N   UNL A   1      35.164  21.980  24.977  1.00  0.00    -0.354 N 
ATOM     77  C   UNL A   1      33.821  22.062  24.689  1.00  0.00     0.252 C 
ATOM     78  H   UNL A   1      35.642  21.226  24.560  1.00  0.00     0.163 HD
ATOM     79  O   UNL A   1      33.307  21.185  23.994  1.00  0.00    -0.272 OA
BRANCH  77  80
ATOM     80  C   UNL A   1      33.038  23.275  25.219  1.00  0.00     0.242 C 
ATOM     81  O   UNL A   1      32.866  24.360  24.291  1.00  0.00    -0.324 OA
ATOM     82  C   UNL A   1      31.634  22.865  25.674  1.00  0.00     0.184 C 
ATOM     83  C   UNL A   1      32.488  25.559  24.980  1.00  0.00     0.340 C 
ATOM     84  C   UNL A   1      31.104  24.002  26.545  1.00  0.00     0.181 C 
ATOM     85  C   UNL A   1      31.211  25.352  25.840  1.00  0.00     0.214 C 
BRANCH  82  86
ATOM     86  O   UNL A   1      31.558  21.671  26.450  1.00  0.00    -0.387 OA
ATOM     87  H   UNL A   1      30.966  21.814  27.204  1.00  0.00     0.211 HD
ENDBRANCH  82  86
BRANCH  83  88
ATOM     88  O   UNL A   1      32.291  26.727  24.149  1.00  0.00    -0.454 OA
BRANCH  88  89
ATOM     89  C   UNL A   1      32.477  27.971  24.727  1.00  0.00     0.214 A 
ATOM     90  C   UNL A   1      31.537  28.942  24.733  1.00  0.00     0.181 A 
ATOM     91  C   UNL A   1      33.684  28.164  25.590  1.00  0.00     0.239 A 
ATOM     92  O   UNL A   1      31.666  30.164  25.356  1.00  0.00    -0.452 OA
ATOM     93  C   UNL A   1      33.743  29.423  26.382  1.00  0.00     0.111 A 
ATOM     94  O   UNL A   1      34.540  27.290  25.661  1.00  0.00    -0.285 OA
ATOM     95  C   UNL A   1      32.722  30.356  26.202  1.00  0.00     0.146 A 
ATOM     96  C   UNL A   1      34.754  29.710  27.314  1.00  0.00     0.134 A 
ATOM     97  C   UNL A   1      32.710  31.559  26.912  1.00  0.00     0.094 A 
ATOM     98  C   UNL A   1      34.744  30.913  28.035  1.00  0.00     0.093 A 
ATOM     99  C   UNL A   1      33.719  31.828  27.823  1.00  0.00     0.123 A 
BRANCH  90 100
ATOM    100  C   UNL A   1      30.269  28.827  23.994  1.00  0.00     0.029 A 
ATOM    101  C   UNL A   1      29.608  27.583  23.973  1.00  0.00     0.062 A 
ATOM    102  C   UNL A   1      29.641  29.961  23.449  1.00  0.00     0.062 A 
ATOM    103  C   UNL A   1      28.288  27.522  23.546  1.00  0.00     0.162 A 
ATOM    104  C   UNL A   1      28.327  29.871  23.005  1.00  0.00     0.162 A 
ATOM    105  C   UNL A   1      27.640  28.667  23.098  1.00  0.00     0.200 A 
BRANCH 103 106
ATOM    106  O   UNL A   1      27.607  26.346  23.672  1.00  0.00    -0.504 OA
ATOM    107  H   UNL A   1      28.052  25.531  23.553  1.00  0.00     0.293 HD
ENDBRANCH 103 106
BRANCH 104 108
ATOM    108  O   UNL A   1      27.701  31.000  22.562  1.00  0.00    -0.504 OA
ATOM    109  H   UNL A   1      26.916  30.931  22.056  1.00  0.00     0.293 HD
ENDBRANCH 104 108
BRANCH 105 110
ATOM    110  O   UNL A   1      26.293  28.629  22.859  1.00  0.00    -0.502 OA
ATOM    111  H   UNL A   1      25.910  29.226  22.247  1.00  0.00     0.293 HD
ENDBRANCH 105 110
ENDBRANCH  90 100
BRANCH  96 112
ATOM    112  O   UNL A   1      35.758  28.817  27.556  1.00  0.00    -0.507 OA
ATOM    113  H   UNL A   1      36.069  28.264  26.867  1.00  0.00     0.293 HD
ENDBRANCH  96 112
BRANCH  99 114
ATOM    114  O   UNL A   1      33.659  33.007  28.504  1.00  0.00    -0.508 OA
ATOM    115  H   UNL A   1      33.919  33.043  29.404  1.00  0.00     0.293 HD
ENDBRANCH  99 114
ENDBRANCH  88  89
ENDBRANCH  83  88
BRANCH  84 116
ATOM    116  O   UNL A   1      29.733  23.699  26.891  1.00  0.00    -0.387 OA
ATOM    117  H   UNL A   1      29.160  24.432  26.618  1.00  0.00     0.211 HD
ENDBRANCH  84 116
BRANCH  85 118
ATOM    118  O   UNL A   1      30.988  26.406  26.786  1.00  0.00    -0.384 OA
ATOM    119  H   UNL A   1      31.744  26.463  27.391  1.00  0.00     0.211 HD
ENDBRANCH  85 118
ENDBRANCH  77  80
ENDBRANCH  75  76
ENDBRANCH  74  75
ENDBRANCH   1  74
TORSDOF 27
ENDMDL
