MODEL 1
REMARK VINA RESULT:     -11.7      0.000      0.000
REMARK SMILES Cc1cc(C(=O)NCCCCCCNC(=O)c2ccc(-c3c4nc(c(-c5cc(S(=O)(=O)[O-])ccc5F)c5ccc([nH]5)c(-c5cc(S(=O)(=O)[O-])ccc5F)c5nc(c(-c6cc(S(=O)(=O)[O-])ccc6F)c6ccc3[nH]6)C=C5)C=C4)cc2)nc(N2CCN(c3ccccc3Cl)CC2)n1
REMARK SMILES IDX 11 1 10 2 9 3 8 4 7 5 5 6 6 7 4 9 1 10 2 11 3 12 95 13 81 14
REMARK SMILES IDX 80 15 82 16 83 17 94 18 84 19 93 20 85 21 86 22 87 23 91 24
REMARK SMILES IDX 88 25 90 26 92 27 89 28 12 29 13 30 14 31 15 32 16 34 17 35
REMARK SMILES IDX 18 36 79 37 19 38 78 39 20 40 21 41 22 42 72 43 23 44 77 45
REMARK SMILES IDX 71 46 73 47 24 48 76 49 70 50 69 51 25 53 57 54 37 55 56 56
REMARK SMILES IDX 38 57 41 58 55 59 74 60 39 61 40 62 54 64 75 65 42 66 26 67
REMARK SMILES IDX 27 68 35 69 28 70 34 71 36 72 33 73 29 74 30 75 31 76 32 77
REMARK SMILES IDX 58 78 59 79 67 80 60 81 66 82 68 83 65 84 61 85 62 86 63 87
REMARK SMILES IDX 64 88 43 89 44 90 52 91 45 92 51 93 53 94 50 95 46 96 47 97
REMARK SMILES IDX 48 98 49 99
REMARK H PARENT 7 8 14 33 73 52 41 63
REMARK Flexibility Score: inf
ROOT
ATOM      1  C   UNL A   1      40.323  21.884  27.208  1.00  0.00     0.002 C 
ENDROOT
BRANCH   1   2
ATOM      2  C   UNL A   1      39.961  23.007  26.227  1.00  0.00     0.002 C 
BRANCH   2   3
ATOM      3  C   UNL A   1      38.590  23.647  26.481  1.00  0.00     0.021 C 
BRANCH   3   4
ATOM      4  C   UNL A   1      37.444  22.812  25.910  1.00  0.00     0.116 C 
BRANCH   4   5
ATOM      5  N   UNL A   1      37.398  22.996  24.479  1.00  0.00    -0.351 N 
ATOM      6  C   UNL A   1      36.387  22.895  23.560  1.00  0.00     0.270 C 
ATOM      7  O   UNL A   1      36.730  22.956  22.376  1.00  0.00    -0.268 OA
ATOM      8  H   UNL A   1      38.265  23.245  24.085  1.00  0.00     0.163 HD
BRANCH   6   9
ATOM      9  C   UNL A   1      34.930  22.794  23.912  1.00  0.00     0.133 A 
ATOM     10  C   UNL A   1      32.178  20.745  25.372  1.00  0.00     0.067 C 
ATOM     11  C   UNL A   1      32.968  21.879  24.788  1.00  0.00     0.044 A 
ATOM     12  C   UNL A   1      34.258  21.675  24.338  1.00  0.00     0.058 A 
ATOM     13  N   UNL A   1      32.348  23.075  24.700  1.00  0.00    -0.218 NA
ATOM     14  C   UNL A   1      33.028  24.072  24.125  1.00  0.00     0.226 A 
ATOM     15  N   UNL A   1      34.306  23.973  23.772  1.00  0.00    -0.208 NA
BRANCH  14  16
ATOM     16  N   UNL A   1      32.424  25.258  23.810  1.00  0.00    -0.337 N 
ATOM     17  C   UNL A   1      31.958  26.167  24.848  1.00  0.00     0.141 C 
ATOM     18  C   UNL A   1      31.605  25.187  22.590  1.00  0.00     0.141 C 
ATOM     19  C   UNL A   1      31.803  27.588  24.242  1.00  0.00     0.138 C 
ATOM     20  C   UNL A   1      31.408  26.589  21.992  1.00  0.00     0.138 C 
ATOM     21  N   UNL A   1      30.971  27.529  23.033  1.00  0.00    -0.367 N 
BRANCH  21  22
ATOM     22  C   UNL A   1      29.960  28.432  22.794  1.00  0.00     0.056 A 
ATOM     23  C   UNL A   1      30.264  29.679  22.227  1.00  0.00     0.027 A 
ATOM     24  C   UNL A   1      28.609  28.171  23.106  1.00  0.00     0.064 A 
ATOM     25  C   UNL A   1      29.268  30.628  21.976  1.00  0.00     0.002 A 
ATOM     26  C   UNL A   1      27.614  29.122  22.864  1.00  0.00     0.023 A 
ATOM     27  Cl  UNL A   1      28.112  26.700  23.876  1.00  0.00    -0.082 Cl
ATOM     28  C   UNL A   1      27.943  30.351  22.298  1.00  0.00     0.002 A 
ENDBRANCH  21  22
ENDBRANCH  14  16
ENDBRANCH   6   9
ENDBRANCH   4   5
ENDBRANCH   3   4
ENDBRANCH   2   3
ENDBRANCH   1   2
BRANCH   1  29
ATOM     29  C   UNL A   1      40.575  20.524  26.549  1.00  0.00     0.021 C 
BRANCH  29  30
ATOM     30  C   UNL A   1      41.770  19.775  27.128  1.00  0.00     0.116 C 
BRANCH  30  31
ATOM     31  N   UNL A   1      42.679  19.347  26.078  1.00  0.00    -0.352 N 
ATOM     32  C   UNL A   1      43.492  20.108  25.277  1.00  0.00     0.251 C 
ATOM     33  H   UNL A   1      42.718  18.376  25.920  1.00  0.00     0.163 HD
ATOM     34  O   UNL A   1      43.977  19.622  24.262  1.00  0.00    -0.269 OA
BRANCH  32  35
ATOM     35  C   UNL A   1      43.763  21.515  25.642  1.00  0.00     0.039 A 
ATOM     36  C   UNL A   1      43.400  22.529  24.755  1.00  0.00     0.014 A 
ATOM     37  C   UNL A   1      44.387  21.827  26.855  1.00  0.00     0.014 A 
ATOM     38  C   UNL A   1      43.616  23.863  25.108  1.00  0.00     0.010 A 
ATOM     39  C   UNL A   1      44.534  23.158  27.235  1.00  0.00     0.010 A 
ATOM     40  C   UNL A   1      44.157  24.190  26.363  1.00  0.00    -0.014 A 
BRANCH  40  41
ATOM     41  C   UNL A   1      44.346  25.604  26.775  1.00  0.00     0.031 A 
ATOM     42  C   UNL A   1      45.706  26.240  26.682  1.00  0.00     0.074 A 
ATOM     43  C   UNL A   1      43.305  26.294  27.283  1.00  0.00     0.049 A 
ATOM     44  N   UNL A   1      46.090  27.433  27.057  1.00  0.00    -0.248 NA
ATOM     45  C   UNL A   1      46.785  25.413  26.118  1.00  0.00     0.031 C 
ATOM     46  C   UNL A   1      41.947  25.771  27.452  1.00  0.00     0.029 A 
ATOM     47  N   UNL A   1      43.225  27.578  27.758  1.00  0.00    -0.354 N 
ATOM     48  C   UNL A   1      47.453  27.496  26.789  1.00  0.00     0.074 A 
ATOM     49  C   UNL A   1      47.839  26.199  26.274  1.00  0.00     0.031 C 
ATOM     50  C   UNL A   1      41.165  26.734  27.964  1.00  0.00     0.029 A 
ATOM     51  C   UNL A   1      41.971  27.925  28.210  1.00  0.00     0.049 A 
ATOM     52  H   UNL A   1      43.992  28.195  27.775  1.00  0.00     0.167 HD
ATOM     53  C   UNL A   1      48.298  28.546  26.937  1.00  0.00     0.034 A 
ATOM     54  C   UNL A   1      41.528  29.068  28.770  1.00  0.00     0.034 A 
ATOM     55  C   UNL A   1      47.891  29.836  27.436  1.00  0.00     0.049 A 
ATOM     56  C   UNL A   1      42.496  30.211  28.954  1.00  0.00     0.074 A 
ATOM     57  C   UNL A   1      48.650  30.986  27.573  1.00  0.00     0.029 A 
ATOM     58  N   UNL A   1      46.615  30.148  27.891  1.00  0.00    -0.354 N 
ATOM     59  N   UNL A   1      43.772  30.271  28.645  1.00  0.00    -0.248 NA
ATOM     60  C   UNL A   1      41.962  31.441  29.550  1.00  0.00     0.031 C 
ATOM     61  C   UNL A   1      47.858  31.967  28.178  1.00  0.00     0.029 A 
ATOM     62  C   UNL A   1      46.578  31.460  28.342  1.00  0.00     0.049 A 
ATOM     63  H   UNL A   1      45.850  29.529  27.893  1.00  0.00     0.167 HD
ATOM     64  C   UNL A   1      44.180  31.560  28.977  1.00  0.00     0.074 A 
ATOM     65  C   UNL A   1      43.014  32.244  29.494  1.00  0.00     0.031 C 
ATOM     66  C   UNL A   1      45.408  32.128  28.861  1.00  0.00     0.034 A 
BRANCH  53  67
ATOM     67  C   UNL A   1      49.750  28.332  26.581  1.00  0.00     0.023 A 
ATOM     68  C   UNL A   1      50.237  28.559  25.281  1.00  0.00     0.031 A 
ATOM     69  C   UNL A   1      50.663  27.884  27.553  1.00  0.00     0.131 A 
ATOM     70  C   UNL A   1      51.576  28.272  24.973  1.00  0.00     0.055 A 
ATOM     71  C   UNL A   1      52.012  27.679  27.261  1.00  0.00     0.041 A 
ATOM     72  F   UNL A   1      50.254  27.627  28.806  1.00  0.00    -0.206 F 
ATOM     73  C   UNL A   1      52.473  27.860  25.960  1.00  0.00     0.022 A 
BRANCH  70  74
ATOM     74  S   UNL A   1      52.093  28.313  23.235  1.00  0.00     0.124 S 
ATOM     75  O   UNL A   1      51.456  29.542  22.767  1.00  0.00    -0.237 OA
ATOM     76  O   UNL A   1      53.547  28.345  23.339  1.00  0.00    -0.237 OA
ATOM     77  O   UNL A   1      51.533  27.081  22.682  1.00  0.00    -0.744 OA
ENDBRANCH  70  74
ENDBRANCH  53  67
BRANCH  54  78
ATOM     78  C   UNL A   1      40.108  29.197  29.211  1.00  0.00     0.023 A 
ATOM     79  C   UNL A   1      39.769  29.155  30.573  1.00  0.00     0.031 A 
ATOM     80  C   UNL A   1      39.062  29.307  28.277  1.00  0.00     0.131 A 
ATOM     81  C   UNL A   1      38.420  29.163  30.960  1.00  0.00     0.055 A 
ATOM     82  C   UNL A   1      37.725  29.375  28.670  1.00  0.00     0.041 A 
ATOM     83  F   UNL A   1      39.328  29.354  26.962  1.00  0.00    -0.206 F 
ATOM     84  C   UNL A   1      37.396  29.286  30.019  1.00  0.00     0.022 A 
BRANCH  81  85
ATOM     85  S   UNL A   1      38.018  28.897  32.710  1.00  0.00     0.124 S 
ATOM     86  O   UNL A   1      39.040  29.699  33.372  1.00  0.00    -0.237 OA
ATOM     87  O   UNL A   1      36.653  29.405  32.786  1.00  0.00    -0.237 OA
ATOM     88  O   UNL A   1      38.154  27.451  32.873  1.00  0.00    -0.744 OA
ENDBRANCH  81  85
ENDBRANCH  54  78
BRANCH  66  89
ATOM     89  C   UNL A   1      45.532  33.580  29.255  1.00  0.00     0.023 A 
ATOM     90  C   UNL A   1      45.118  34.619  28.402  1.00  0.00     0.031 A 
ATOM     91  C   UNL A   1      46.083  33.928  30.502  1.00  0.00     0.131 A 
ATOM     92  C   UNL A   1      45.318  35.955  28.782  1.00  0.00     0.055 A 
ATOM     93  C   UNL A   1      46.216  35.258  30.902  1.00  0.00     0.041 A 
ATOM     94  F   UNL A   1      46.498  32.978  31.355  1.00  0.00    -0.206 F 
ATOM     95  C   UNL A   1      45.846  36.281  30.033  1.00  0.00     0.022 A 
BRANCH  92  96
ATOM     96  S   UNL A   1      44.967  37.264  27.576  1.00  0.00     0.124 S 
ATOM     97  O   UNL A   1      44.105  36.574  26.622  1.00  0.00    -0.237 OA
ATOM     98  O   UNL A   1      44.320  38.281  28.399  1.00  0.00    -0.237 OA
ATOM     99  O   UNL A   1      46.289  37.627  27.070  1.00  0.00    -0.744 OA
ENDBRANCH  92  96
ENDBRANCH  66  89
ENDBRANCH  40  41
ENDBRANCH  32  35
ENDBRANCH  30  31
ENDBRANCH  29  30
ENDBRANCH   1  29
TORSDOF 18
ENDMDL
MODEL 2
REMARK VINA RESULT:     -11.7      5.884     11.651
REMARK SMILES Cc1cc(C(=O)NCCCCCCNC(=O)c2ccc(-c3c4nc(c(-c5cc(S(=O)(=O)[O-])ccc5F)c5ccc([nH]5)c(-c5cc(S(=O)(=O)[O-])ccc5F)c5nc(c(-c6cc(S(=O)(=O)[O-])ccc6F)c6ccc3[nH]6)C=C5)C=C4)cc2)nc(N2CCN(c3ccccc3Cl)CC2)n1
REMARK SMILES IDX 11 1 10 2 9 3 8 4 7 5 5 6 6 7 4 9 1 10 2 11 3 12 95 13 81 14
REMARK SMILES IDX 80 15 82 16 83 17 94 18 84 19 93 20 85 21 86 22 87 23 91 24
REMARK SMILES IDX 88 25 90 26 92 27 89 28 12 29 13 30 14 31 15 32 16 34 17 35
REMARK SMILES IDX 18 36 79 37 19 38 78 39 20 40 21 41 22 42 72 43 23 44 77 45
REMARK SMILES IDX 71 46 73 47 24 48 76 49 70 50 69 51 25 53 57 54 37 55 56 56
REMARK SMILES IDX 38 57 41 58 55 59 74 60 39 61 40 62 54 64 75 65 42 66 26 67
REMARK SMILES IDX 27 68 35 69 28 70 34 71 36 72 33 73 29 74 30 75 31 76 32 77
REMARK SMILES IDX 58 78 59 79 67 80 60 81 66 82 68 83 65 84 61 85 62 86 63 87
REMARK SMILES IDX 64 88 43 89 44 90 52 91 45 92 51 93 53 94 50 95 46 96 47 97
REMARK SMILES IDX 48 98 49 99
REMARK H PARENT 7 8 14 33 73 52 41 63
REMARK Flexibility Score: inf
ROOT
ATOM      1  C   UNL A   1      34.890  32.575  27.975  1.00  0.00     0.002 C 
ENDROOT
BRANCH   1   2
ATOM      2  C   UNL A   1      34.862  31.170  28.591  1.00  0.00     0.002 C 
BRANCH   2   3
ATOM      3  C   UNL A   1      35.316  30.055  27.638  1.00  0.00     0.021 C 
BRANCH   3   4
ATOM      4  C   UNL A   1      34.185  29.570  26.732  1.00  0.00     0.116 C 
BRANCH   4   5
ATOM      5  N   UNL A   1      33.213  28.865  27.532  1.00  0.00    -0.351 N 
ATOM      6  C   UNL A   1      32.079  28.164  27.216  1.00  0.00     0.270 C 
ATOM      7  O   UNL A   1      31.376  27.822  28.171  1.00  0.00    -0.268 OA
ATOM      8  H   UNL A   1      33.402  28.893  28.498  1.00  0.00     0.163 HD
BRANCH   6   9
ATOM      9  C   UNL A   1      31.707  27.741  25.823  1.00  0.00     0.133 A 
ATOM     10  C   UNL A   1      30.728  28.771  22.376  1.00  0.00     0.067 C 
ATOM     11  C   UNL A   1      31.143  27.959  23.568  1.00  0.00     0.044 A 
ATOM     12  C   UNL A   1      31.226  28.542  24.817  1.00  0.00     0.058 A 
ATOM     13  N   UNL A   1      31.394  26.650  23.358  1.00  0.00    -0.218 NA
ATOM     14  C   UNL A   1      31.705  25.911  24.428  1.00  0.00     0.226 A 
ATOM     15  N   UNL A   1      31.907  26.428  25.636  1.00  0.00    -0.208 NA
BRANCH  14  16
ATOM     16  N   UNL A   1      31.781  24.547  24.355  1.00  0.00    -0.337 N 
ATOM     17  C   UNL A   1      31.926  23.735  25.556  1.00  0.00     0.141 C 
ATOM     18  C   UNL A   1      32.482  24.066  23.154  1.00  0.00     0.141 C 
ATOM     19  C   UNL A   1      31.479  22.282  25.239  1.00  0.00     0.138 C 
ATOM     20  C   UNL A   1      32.082  22.615  22.842  1.00  0.00     0.138 C 
ATOM     21  N   UNL A   1      32.188  21.788  24.051  1.00  0.00    -0.367 N 
BRANCH  21  22
ATOM     22  C   UNL A   1      32.752  20.533  24.003  1.00  0.00     0.056 A 
ATOM     23  C   UNL A   1      32.153  19.532  23.226  1.00  0.00     0.027 A 
ATOM     24  C   UNL A   1      33.920  20.190  24.719  1.00  0.00     0.064 A 
ATOM     25  C   UNL A   1      32.689  18.242  23.158  1.00  0.00     0.002 A 
ATOM     26  C   UNL A   1      34.452  18.899  24.659  1.00  0.00     0.023 A 
ATOM     27  Cl  UNL A   1      34.715  21.314  25.773  1.00  0.00    -0.082 Cl
ATOM     28  C   UNL A   1      33.837  17.925  23.877  1.00  0.00     0.002 A 
ENDBRANCH  21  22
ENDBRANCH  14  16
ENDBRANCH   6   9
ENDBRANCH   4   5
ENDBRANCH   3   4
ENDBRANCH   2   3
ENDBRANCH   1   2
BRANCH   1  29
ATOM     29  C   UNL A   1      33.595  33.372  28.156  1.00  0.00     0.021 C 
BRANCH  29  30
ATOM     30  C   UNL A   1      33.813  34.876  28.283  1.00  0.00     0.116 C 
BRANCH  30  31
ATOM     31  N   UNL A   1      33.192  35.396  29.489  1.00  0.00    -0.352 N 
ATOM     32  C   UNL A   1      33.389  35.018  30.794  1.00  0.00     0.251 C 
ATOM     33  H   UNL A   1      32.539  36.119  29.352  1.00  0.00     0.163 HD
ATOM     34  O   UNL A   1      32.586  35.357  31.656  1.00  0.00    -0.269 OA
BRANCH  32  35
ATOM     35  C   UNL A   1      34.566  34.193  31.142  1.00  0.00     0.039 A 
ATOM     36  C   UNL A   1      35.840  34.655  30.811  1.00  0.00     0.014 A 
ATOM     37  C   UNL A   1      34.405  32.960  31.783  1.00  0.00     0.014 A 
ATOM     38  C   UNL A   1      36.960  33.901  31.170  1.00  0.00     0.010 A 
ATOM     39  C   UNL A   1      35.524  32.248  32.204  1.00  0.00     0.010 A 
ATOM     40  C   UNL A   1      36.814  32.707  31.896  1.00  0.00    -0.014 A 
BRANCH  40  41
ATOM     41  C   UNL A   1      37.995  31.920  32.330  1.00  0.00     0.031 A 
ATOM     42  C   UNL A   1      38.673  32.236  33.636  1.00  0.00     0.074 A 
ATOM     43  C   UNL A   1      38.490  30.960  31.522  1.00  0.00     0.049 A 
ATOM     44  N   UNL A   1      39.755  31.715  34.155  1.00  0.00    -0.248 NA
ATOM     45  C   UNL A   1      38.069  33.301  34.453  1.00  0.00     0.031 C 
ATOM     46  C   UNL A   1      37.936  30.588  30.218  1.00  0.00     0.029 A 
ATOM     47  N   UNL A   1      39.569  30.128  31.672  1.00  0.00    -0.354 N 
ATOM     48  C   UNL A   1      39.969  32.395  35.350  1.00  0.00     0.074 A 
ATOM     49  C   UNL A   1      38.937  33.406  35.447  1.00  0.00     0.031 C 
ATOM     50  C   UNL A   1      38.663  29.584  29.702  1.00  0.00     0.029 A 
ATOM     51  C   UNL A   1      39.763  29.274  30.609  1.00  0.00     0.049 A 
ATOM     52  H   UNL A   1      40.152  30.140  32.465  1.00  0.00     0.167 HD
ATOM     53  C   UNL A   1      40.924  32.179  36.288  1.00  0.00     0.034 A 
ATOM     54  C   UNL A   1      40.724  28.357  30.387  1.00  0.00     0.034 A 
ATOM     55  C   UNL A   1      41.934  31.156  36.180  1.00  0.00     0.049 A 
ATOM     56  C   UNL A   1      41.795  28.158  31.432  1.00  0.00     0.074 A 
ATOM     57  C   UNL A   1      42.913  30.812  37.097  1.00  0.00     0.029 A 
ATOM     58  N   UNL A   1      42.103  30.315  35.087  1.00  0.00    -0.354 N 
ATOM     59  N   UNL A   1      41.952  28.775  32.582  1.00  0.00    -0.248 NA
ATOM     60  C   UNL A   1      42.810  27.135  31.155  1.00  0.00     0.031 C 
ATOM     61  C   UNL A   1      43.718  29.820  36.529  1.00  0.00     0.029 A 
ATOM     62  C   UNL A   1      43.192  29.481  35.292  1.00  0.00     0.049 A 
ATOM     63  H   UNL A   1      41.534  30.312  34.284  1.00  0.00     0.167 HD
ATOM     64  C   UNL A   1      43.062  28.184  33.179  1.00  0.00     0.074 A 
ATOM     65  C   UNL A   1      43.524  27.157  32.270  1.00  0.00     0.031 C 
ATOM     66  C   UNL A   1      43.646  28.463  34.373  1.00  0.00     0.034 A 
BRANCH  53  67
ATOM     67  C   UNL A   1      40.936  33.086  37.496  1.00  0.00     0.023 A 
ATOM     68  C   UNL A   1      40.253  32.756  38.680  1.00  0.00     0.031 A 
ATOM     69  C   UNL A   1      41.634  34.308  37.461  1.00  0.00     0.131 A 
ATOM     70  C   UNL A   1      40.225  33.662  39.750  1.00  0.00     0.055 A 
ATOM     71  C   UNL A   1      41.670  35.168  38.559  1.00  0.00     0.041 A 
ATOM     72  F   UNL A   1      42.285  34.691  36.351  1.00  0.00    -0.206 F 
ATOM     73  C   UNL A   1      40.951  34.854  39.708  1.00  0.00     0.022 A 
BRANCH  70  74
ATOM     74  S   UNL A   1      39.113  33.324  41.142  1.00  0.00     0.124 S 
ATOM     75  O   UNL A   1      38.073  34.330  40.940  1.00  0.00    -0.237 OA
ATOM     76  O   UNL A   1      38.720  31.940  40.904  1.00  0.00    -0.237 OA
ATOM     77  O   UNL A   1      39.958  33.540  42.316  1.00  0.00    -0.744 OA
ENDBRANCH  70  74
ENDBRANCH  53  67
BRANCH  54  78
ATOM     78  C   UNL A   1      40.738  27.559  29.126  1.00  0.00     0.023 A 
ATOM     79  C   UNL A   1      41.654  27.844  28.102  1.00  0.00     0.031 A 
ATOM     80  C   UNL A   1      39.798  26.537  28.900  1.00  0.00     0.131 A 
ATOM     81  C   UNL A   1      41.575  27.160  26.880  1.00  0.00     0.055 A 
ATOM     82  C   UNL A   1      39.762  25.817  27.706  1.00  0.00     0.041 A 
ATOM     83  F   UNL A   1      38.899  26.219  29.846  1.00  0.00    -0.206 F 
ATOM     84  C   UNL A   1      40.644  26.138  26.679  1.00  0.00     0.022 A 
BRANCH  81  85
ATOM     85  S   UNL A   1      42.638  27.700  25.512  1.00  0.00     0.124 S 
ATOM     86  O   UNL A   1      41.902  28.852  25.004  1.00  0.00    -0.237 OA
ATOM     87  O   UNL A   1      43.891  27.991  26.201  1.00  0.00    -0.237 OA
ATOM     88  O   UNL A   1      42.670  26.538  24.627  1.00  0.00    -0.744 OA
ENDBRANCH  81  85
ENDBRANCH  54  78
BRANCH  66  89
ATOM     89  C   UNL A   1      44.817  27.603  34.782  1.00  0.00     0.023 A 
ATOM     90  C   UNL A   1      44.641  26.351  35.395  1.00  0.00     0.031 A 
ATOM     91  C   UNL A   1      46.132  28.052  34.562  1.00  0.00     0.131 A 
ATOM     92  C   UNL A   1      45.760  25.618  35.821  1.00  0.00     0.055 A 
ATOM     93  C   UNL A   1      47.241  27.289  34.927  1.00  0.00     0.041 A 
ATOM     94  F   UNL A   1      46.360  29.243  33.983  1.00  0.00    -0.206 F 
ATOM     95  C   UNL A   1      47.058  26.070  35.574  1.00  0.00     0.022 A 
BRANCH  92  96
ATOM     96  S   UNL A   1      45.493  24.109  36.793  1.00  0.00     0.124 S 
ATOM     97  O   UNL A   1      45.083  24.649  38.085  1.00  0.00    -0.237 OA
ATOM     98  O   UNL A   1      44.453  23.427  36.030  1.00  0.00    -0.237 OA
ATOM     99  O   UNL A   1      46.800  23.457  36.778  1.00  0.00    -0.744 OA
ENDBRANCH  92  96
ENDBRANCH  66  89
ENDBRANCH  40  41
ENDBRANCH  32  35
ENDBRANCH  30  31
ENDBRANCH  29  30
ENDBRANCH   1  29
TORSDOF 18
ENDMDL
MODEL 3
REMARK VINA RESULT:     -11.5      5.770     10.367
REMARK SMILES Cc1cc(C(=O)NCCCCCCNC(=O)c2ccc(-c3c4nc(c(-c5cc(S(=O)(=O)[O-])ccc5F)c5ccc([nH]5)c(-c5cc(S(=O)(=O)[O-])ccc5F)c5nc(c(-c6cc(S(=O)(=O)[O-])ccc6F)c6ccc3[nH]6)C=C5)C=C4)cc2)nc(N2CCN(c3ccccc3Cl)CC2)n1
REMARK SMILES IDX 11 1 10 2 9 3 8 4 7 5 5 6 6 7 4 9 1 10 2 11 3 12 95 13 81 14
REMARK SMILES IDX 80 15 82 16 83 17 94 18 84 19 93 20 85 21 86 22 87 23 91 24
REMARK SMILES IDX 88 25 90 26 92 27 89 28 12 29 13 30 14 31 15 32 16 34 17 35
REMARK SMILES IDX 18 36 79 37 19 38 78 39 20 40 21 41 22 42 72 43 23 44 77 45
REMARK SMILES IDX 71 46 73 47 24 48 76 49 70 50 69 51 25 53 57 54 37 55 56 56
REMARK SMILES IDX 38 57 41 58 55 59 74 60 39 61 40 62 54 64 75 65 42 66 26 67
REMARK SMILES IDX 27 68 35 69 28 70 34 71 36 72 33 73 29 74 30 75 31 76 32 77
REMARK SMILES IDX 58 78 59 79 67 80 60 81 66 82 68 83 65 84 61 85 62 86 63 87
REMARK SMILES IDX 64 88 43 89 44 90 52 91 45 92 51 93 53 94 50 95 46 96 47 97
REMARK SMILES IDX 48 98 49 99
REMARK H PARENT 7 8 14 33 73 52 41 63
REMARK Flexibility Score: inf
ROOT
ATOM      1  C   UNL A   1      30.965  31.313  25.274  1.00  0.00     0.002 C 
ENDROOT
BRANCH   1   2
ATOM      2  C   UNL A   1      29.779  31.901  24.498  1.00  0.00     0.002 C 
BRANCH   2   3
ATOM      3  C   UNL A   1      29.081  30.904  23.563  1.00  0.00     0.021 C 
BRANCH   3   4
ATOM      4  C   UNL A   1      29.968  29.704  23.227  1.00  0.00     0.116 C 
BRANCH   4   5
ATOM      5  N   UNL A   1      29.222  28.491  23.459  1.00  0.00    -0.351 N 
ATOM      6  C   UNL A   1      29.571  27.267  23.966  1.00  0.00     0.270 C 
ATOM      7  O   UNL A   1      28.714  26.384  23.872  1.00  0.00    -0.268 OA
ATOM      8  H   UNL A   1      28.274  28.556  23.203  1.00  0.00     0.163 HD
BRANCH   6   9
ATOM      9  C   UNL A   1      30.865  26.981  24.673  1.00  0.00     0.133 A 
ATOM     10  C   UNL A   1      33.716  28.305  26.680  1.00  0.00     0.067 C 
ATOM     11  C   UNL A   1      32.763  27.387  25.972  1.00  0.00     0.044 A 
ATOM     12  C   UNL A   1      31.740  27.900  25.199  1.00  0.00     0.058 A 
ATOM     13  N   UNL A   1      32.977  26.061  26.107  1.00  0.00    -0.218 NA
ATOM     14  C   UNL A   1      32.168  25.241  25.429  1.00  0.00     0.226 A 
ATOM     15  N   UNL A   1      31.101  25.663  24.757  1.00  0.00    -0.208 NA
BRANCH  14  16
ATOM     16  N   UNL A   1      32.423  23.901  25.339  1.00  0.00    -0.337 N 
ATOM     17  C   UNL A   1      33.645  23.406  24.719  1.00  0.00     0.141 C 
ATOM     18  C   UNL A   1      31.212  23.090  25.131  1.00  0.00     0.141 C 
ATOM     19  C   UNL A   1      33.902  21.953  25.202  1.00  0.00     0.138 C 
ATOM     20  C   UNL A   1      31.455  21.637  25.569  1.00  0.00     0.138 C 
ATOM     21  N   UNL A   1      32.704  21.132  24.982  1.00  0.00    -0.367 N 
BRANCH  21  22
ATOM     22  C   UNL A   1      32.769  19.870  24.434  1.00  0.00     0.056 A 
ATOM     23  C   UNL A   1      33.217  18.797  25.218  1.00  0.00     0.027 A 
ATOM     24  C   UNL A   1      32.413  19.596  23.097  1.00  0.00     0.064 A 
ATOM     25  C   UNL A   1      33.307  17.502  24.697  1.00  0.00     0.002 A 
ATOM     26  C   UNL A   1      32.511  18.304  22.572  1.00  0.00     0.023 A 
ATOM     27  Cl  UNL A   1      31.914  20.846  22.004  1.00  0.00    -0.082 Cl
ATOM     28  C   UNL A   1      32.957  17.256  23.373  1.00  0.00     0.002 A 
ENDBRANCH  21  22
ENDBRANCH  14  16
ENDBRANCH   6   9
ENDBRANCH   4   5
ENDBRANCH   3   4
ENDBRANCH   2   3
ENDBRANCH   1   2
BRANCH   1  29
ATOM     29  C   UNL A   1      31.100  31.828  26.710  1.00  0.00     0.021 C 
BRANCH  29  30
ATOM     30  C   UNL A   1      32.487  32.370  27.038  1.00  0.00     0.116 C 
BRANCH  30  31
ATOM     31  N   UNL A   1      32.428  33.774  27.410  1.00  0.00    -0.352 N 
ATOM     32  C   UNL A   1      33.099  34.431  28.410  1.00  0.00     0.251 C 
ATOM     33  H   UNL A   1      31.822  34.331  26.870  1.00  0.00     0.163 HD
ATOM     34  O   UNL A   1      32.725  35.542  28.768  1.00  0.00    -0.269 OA
BRANCH  32  35
ATOM     35  C   UNL A   1      34.262  33.783  29.054  1.00  0.00     0.039 A 
ATOM     36  C   UNL A   1      35.547  34.223  28.736  1.00  0.00     0.014 A 
ATOM     37  C   UNL A   1      34.078  32.734  29.961  1.00  0.00     0.014 A 
ATOM     38  C   UNL A   1      36.650  33.644  29.368  1.00  0.00     0.010 A 
ATOM     39  C   UNL A   1      35.173  32.210  30.643  1.00  0.00     0.010 A 
ATOM     40  C   UNL A   1      36.470  32.654  30.348  1.00  0.00    -0.014 A 
BRANCH  40  41
ATOM     41  C   UNL A   1      37.628  32.063  31.066  1.00  0.00     0.031 A 
ATOM     42  C   UNL A   1      38.404  30.934  30.445  1.00  0.00     0.074 A 
ATOM     43  C   UNL A   1      37.943  32.507  32.301  1.00  0.00     0.049 A 
ATOM     44  N   UNL A   1      39.397  30.240  30.940  1.00  0.00    -0.248 NA
ATOM     45  C   UNL A   1      37.990  30.511  29.097  1.00  0.00     0.031 C 
ATOM     46  C   UNL A   1      37.241  33.574  33.018  1.00  0.00     0.029 A 
ATOM     47  N   UNL A   1      38.926  32.115  33.172  1.00  0.00    -0.354 N 
ATOM     48  C   UNL A   1      39.716  29.291  29.974  1.00  0.00     0.074 A 
ATOM     49  C   UNL A   1      38.772  29.463  28.890  1.00  0.00     0.031 C 
ATOM     50  C   UNL A   1      37.834  33.769  34.206  1.00  0.00     0.029 A 
ATOM     51  C   UNL A   1      38.924  32.811  34.360  1.00  0.00     0.049 A 
ATOM     52  H   UNL A   1      39.573  31.402  32.969  1.00  0.00     0.167 HD
ATOM     53  C   UNL A   1      40.719  28.378  29.982  1.00  0.00     0.034 A 
ATOM     54  C   UNL A   1      39.703  32.682  35.452  1.00  0.00     0.034 A 
ATOM     55  C   UNL A   1      41.660  28.234  31.066  1.00  0.00     0.049 A 
ATOM     56  C   UNL A   1      40.790  31.636  35.450  1.00  0.00     0.074 A 
ATOM     57  C   UNL A   1      42.748  27.383  31.153  1.00  0.00     0.029 A 
ATOM     58  N   UNL A   1      41.622  28.951  32.255  1.00  0.00    -0.354 N 
ATOM     59  N   UNL A   1      41.113  30.781  34.505  1.00  0.00    -0.248 NA
ATOM     60  C   UNL A   1      41.625  31.545  36.654  1.00  0.00     0.031 C 
ATOM     61  C   UNL A   1      43.320  27.530  32.421  1.00  0.00     0.029 A 
ATOM     62  C   UNL A   1      42.644  28.534  33.095  1.00  0.00     0.049 A 
ATOM     63  H   UNL A   1      40.965  29.652  32.471  1.00  0.00     0.167 HD
ATOM     64  C   UNL A   1      42.212  30.078  34.991  1.00  0.00     0.074 A 
ATOM     65  C   UNL A   1      42.504  30.619  36.301  1.00  0.00     0.031 C 
ATOM     66  C   UNL A   1      42.920  29.079  34.404  1.00  0.00     0.034 A 
BRANCH  53  67
ATOM     67  C   UNL A   1      40.828  27.449  28.797  1.00  0.00     0.023 A 
ATOM     68  C   UNL A   1      41.838  27.596  27.829  1.00  0.00     0.031 A 
ATOM     69  C   UNL A   1      39.903  26.403  28.625  1.00  0.00     0.131 A 
ATOM     70  C   UNL A   1      41.857  26.760  26.703  1.00  0.00     0.055 A 
ATOM     71  C   UNL A   1      39.977  25.522  27.545  1.00  0.00     0.041 A 
ATOM     72  F   UNL A   1      38.902  26.226  29.503  1.00  0.00    -0.206 F 
ATOM     73  C   UNL A   1      40.950  25.707  26.567  1.00  0.00     0.022 A 
BRANCH  70  74
ATOM     74  S   UNL A   1      42.998  27.155  25.350  1.00  0.00     0.124 S 
ATOM     75  O   UNL A   1      42.263  28.201  24.641  1.00  0.00    -0.237 OA
ATOM     76  O   UNL A   1      44.195  27.586  26.061  1.00  0.00    -0.237 OA
ATOM     77  O   UNL A   1      43.123  25.892  24.625  1.00  0.00    -0.744 OA
ENDBRANCH  70  74
ENDBRANCH  53  67
BRANCH  54  78
ATOM     78  C   UNL A   1      39.486  33.548  36.648  1.00  0.00     0.023 A 
ATOM     79  C   UNL A   1      38.921  33.028  37.823  1.00  0.00     0.031 A 
ATOM     80  C   UNL A   1      39.787  34.922  36.616  1.00  0.00     0.131 A 
ATOM     81  C   UNL A   1      38.619  33.883  38.894  1.00  0.00     0.055 A 
ATOM     82  C   UNL A   1      39.542  35.758  37.706  1.00  0.00     0.041 A 
ATOM     83  F   UNL A   1      40.332  35.473  35.520  1.00  0.00    -0.206 F 
ATOM     84  C   UNL A   1      38.938  35.242  38.849  1.00  0.00     0.022 A 
BRANCH  81  85
ATOM     85  S   UNL A   1      37.700  33.213  40.308  1.00  0.00     0.124 S 
ATOM     86  O   UNL A   1      38.612  32.181  40.789  1.00  0.00    -0.237 OA
ATOM     87  O   UNL A   1      37.555  34.390  41.158  1.00  0.00    -0.237 OA
ATOM     88  O   UNL A   1      36.462  32.723  39.706  1.00  0.00    -0.744 OA
ENDBRANCH  81  85
ENDBRANCH  54  78
BRANCH  66  89
ATOM     89  C   UNL A   1      44.112  28.546  35.161  1.00  0.00     0.023 A 
ATOM     90  C   UNL A   1      43.974  27.612  36.203  1.00  0.00     0.031 A 
ATOM     91  C   UNL A   1      45.408  28.989  34.839  1.00  0.00     0.131 A 
ATOM     92  C   UNL A   1      45.104  27.198  36.925  1.00  0.00     0.055 A 
ATOM     93  C   UNL A   1      46.535  28.523  35.516  1.00  0.00     0.041 A 
ATOM     94  F   UNL A   1      45.600  29.883  33.855  1.00  0.00    -0.206 F 
ATOM     95  C   UNL A   1      46.384  27.633  36.576  1.00  0.00     0.022 A 
BRANCH  92  96
ATOM     96  S   UNL A   1      44.866  26.158  38.392  1.00  0.00     0.124 S 
ATOM     97  O   UNL A   1      45.250  24.841  37.896  1.00  0.00    -0.237 OA
ATOM     98  O   UNL A   1      45.779  26.766  39.356  1.00  0.00    -0.237 OA
ATOM     99  O   UNL A   1      43.447  26.318  38.699  1.00  0.00    -0.744 OA
ENDBRANCH  92  96
ENDBRANCH  66  89
ENDBRANCH  40  41
ENDBRANCH  32  35
ENDBRANCH  30  31
ENDBRANCH  29  30
ENDBRANCH   1  29
TORSDOF 18
ENDMDL
