MODEL 1
REMARK VINA RESULT:     -11.5      0.000      0.000
REMARK SMILES Cn1cncc1COc1c(F)cc(C(=O)NCCCCCCNC(=O)c2ccc(-c3c4nc(c(-c5cc(S(=O)(=O)[O-])ccc5F)c5ccc([nH]5)c(-c5cc(S(=O)(=O)[O-])ccc5F)c5nc(c(-c6cc(S(=O)(=O)[O-])ccc6F)c6ccc3[nH]6)C=C5)C=C4)cc2)cc1F
REMARK SMILES IDX 19 1 18 2 17 3 16 4 14 5 15 6 13 8 9 9 10 10 90 11 11 12
REMARK SMILES IDX 12 13 89 14 91 15 8 16 7 17 6 18 1 19 2 20 3 21 4 22 5 23
REMARK SMILES IDX 20 24 21 25 22 26 23 27 24 28 25 30 26 31 27 32 88 33 28 34
REMARK SMILES IDX 87 35 29 36 30 37 31 38 81 39 32 40 86 41 80 42 82 43 33 44
REMARK SMILES IDX 85 45 79 46 78 47 34 49 66 50 46 51 65 52 47 53 50 54 64 55
REMARK SMILES IDX 83 56 48 57 49 58 63 60 84 61 51 62 35 63 36 64 44 65 37 66
REMARK SMILES IDX 43 67 45 68 42 69 38 70 39 71 40 72 41 73 67 74 68 75 76 76
REMARK SMILES IDX 69 77 75 78 77 79 74 80 70 81 71 82 72 83 73 84 52 85 53 86
REMARK SMILES IDX 61 87 54 88 60 89 62 90 59 91 55 92 56 93 57 94 58 95
REMARK H PARENT 16 7 23 29 82 48 50 59
REMARK Flexibility Score: inf
ROOT
ATOM      1  C   UNL A   1      33.159  29.121  27.161  1.00  0.00     0.002 C 
ENDROOT
BRANCH   1   2
ATOM      2  C   UNL A   1      33.589  28.047  26.157  1.00  0.00     0.021 C 
BRANCH   2   3
ATOM      3  C   UNL A   1      33.050  26.650  26.483  1.00  0.00     0.116 C 
BRANCH   3   4
ATOM      4  N   UNL A   1      33.230  25.745  25.358  1.00  0.00    -0.352 N 
ATOM      5  C   UNL A   1      32.573  25.618  24.160  1.00  0.00     0.251 C 
ATOM      6  O   UNL A   1      33.015  24.816  23.337  1.00  0.00    -0.269 OA
ATOM      7  H   UNL A   1      33.962  25.099  25.481  1.00  0.00     0.163 HD
BRANCH   5   8
ATOM      8  C   UNL A   1      31.373  26.422  23.800  1.00  0.00     0.045 A 
ATOM      9  C   UNL A   1      29.167  28.030  23.067  1.00  0.00     0.191 A 
ATOM     10  C   UNL A   1      29.006  26.890  23.846  1.00  0.00     0.168 A 
ATOM     11  C   UNL A   1      30.439  28.306  22.575  1.00  0.00     0.168 A 
ATOM     12  F   UNL A   1      27.796  26.483  24.242  1.00  0.00    -0.203 F 
ATOM     13  C   UNL A   1      30.084  26.093  24.207  1.00  0.00     0.057 A 
ATOM     14  C   UNL A   1      31.537  27.518  22.937  1.00  0.00     0.057 A 
ATOM     15  F   UNL A   1      30.629  29.330  21.732  1.00  0.00    -0.203 F 
BRANCH   9  16
ATOM     16  O   UNL A   1      28.090  28.773  22.661  1.00  0.00    -0.481 OA
BRANCH  16  17
ATOM     17  C   UNL A   1      28.124  30.134  23.134  1.00  0.00     0.285 C 
BRANCH  17  18
ATOM     18  C   UNL A   1      28.072  31.068  21.977  1.00  0.00     0.075 A 
ATOM     19  C   UNL A   1      28.796  33.179  23.159  1.00  0.00     0.151 C 
ATOM     20  N   UNL A   1      28.326  32.418  22.028  1.00  0.00    -0.335 N 
ATOM     21  C   UNL A   1      28.046  32.944  20.798  1.00  0.00     0.199 A 
ATOM     22  N   UNL A   1      27.706  32.009  19.943  1.00  0.00    -0.245 NA
ATOM     23  C   UNL A   1      27.726  30.842  20.657  1.00  0.00     0.138 A 
ENDBRANCH  17  18
ENDBRANCH  16  17
ENDBRANCH   9  16
ENDBRANCH   5   8
ENDBRANCH   3   4
ENDBRANCH   2   3
ENDBRANCH   1   2
BRANCH   1  24
ATOM     24  C   UNL A   1      31.792  29.756  26.877  1.00  0.00     0.002 C 
BRANCH  24  25
ATOM     25  C   UNL A   1      31.821  31.263  26.609  1.00  0.00     0.021 C 
BRANCH  25  26
ATOM     26  C   UNL A   1      33.012  31.985  27.234  1.00  0.00     0.116 C 
BRANCH  26  27
ATOM     27  N   UNL A   1      32.711  33.386  27.488  1.00  0.00    -0.352 N 
ATOM     28  C   UNL A   1      33.172  34.207  28.489  1.00  0.00     0.251 C 
ATOM     29  H   UNL A   1      32.087  33.805  26.853  1.00  0.00     0.163 HD
ATOM     30  O   UNL A   1      32.606  35.269  28.720  1.00  0.00    -0.269 OA
BRANCH  28  31
ATOM     31  C   UNL A   1      34.342  33.788  29.290  1.00  0.00     0.039 A 
ATOM     32  C   UNL A   1      34.156  32.927  30.373  1.00  0.00     0.014 A 
ATOM     33  C   UNL A   1      35.621  34.243  28.960  1.00  0.00     0.014 A 
ATOM     34  C   UNL A   1      35.267  32.461  31.080  1.00  0.00     0.010 A 
ATOM     35  C   UNL A   1      36.731  33.721  29.618  1.00  0.00     0.010 A 
ATOM     36  C   UNL A   1      36.565  32.819  30.680  1.00  0.00    -0.014 A 
BRANCH  36  37
ATOM     37  C   UNL A   1      37.765  32.248  31.344  1.00  0.00     0.031 A 
ATOM     38  C   UNL A   1      38.509  31.109  30.705  1.00  0.00     0.074 A 
ATOM     39  C   UNL A   1      38.134  32.705  32.556  1.00  0.00     0.049 A 
ATOM     40  N   UNL A   1      39.511  30.410  31.171  1.00  0.00    -0.248 NA
ATOM     41  C   UNL A   1      38.047  30.684  29.374  1.00  0.00     0.031 C 
ATOM     42  C   UNL A   1      37.470  33.787  33.288  1.00  0.00     0.029 A 
ATOM     43  N   UNL A   1      39.146  32.313  33.397  1.00  0.00    -0.354 N 
ATOM     44  C   UNL A   1      39.794  29.455  30.199  1.00  0.00     0.074 A 
ATOM     45  C   UNL A   1      38.818  29.631  29.145  1.00  0.00     0.031 C 
ATOM     46  C   UNL A   1      38.105  33.985  34.454  1.00  0.00     0.029 A 
ATOM     47  C   UNL A   1      39.182  33.009  34.583  1.00  0.00     0.049 A 
ATOM     48  H   UNL A   1      39.787  31.600  33.171  1.00  0.00     0.167 HD
ATOM     49  C   UNL A   1      40.789  28.535  30.181  1.00  0.00     0.034 A 
ATOM     50  C   UNL A   1      39.975  32.863  35.664  1.00  0.00     0.034 A 
ATOM     51  C   UNL A   1      41.752  28.376  31.242  1.00  0.00     0.049 A 
ATOM     52  C   UNL A   1      41.035  31.789  35.645  1.00  0.00     0.074 A 
ATOM     53  C   UNL A   1      42.832  27.513  31.303  1.00  0.00     0.029 A 
ATOM     54  N   UNL A   1      41.743  29.084  32.439  1.00  0.00    -0.354 N 
ATOM     55  N   UNL A   1      41.325  30.931  34.694  1.00  0.00    -0.248 NA
ATOM     56  C   UNL A   1      41.876  31.666  36.842  1.00  0.00     0.031 C 
ATOM     57  C   UNL A   1      43.424  27.638  32.564  1.00  0.00     0.029 A 
ATOM     58  C   UNL A   1      42.771  28.644  33.260  1.00  0.00     0.049 A 
ATOM     59  H   UNL A   1      41.101  29.793  32.670  1.00  0.00     0.167 HD
ATOM     60  C   UNL A   1      42.400  30.185  35.170  1.00  0.00     0.074 A 
ATOM     61  C   UNL A   1      42.717  30.707  36.483  1.00  0.00     0.031 C 
ATOM     62  C   UNL A   1      43.067  29.164  34.575  1.00  0.00     0.034 A 
BRANCH  49  63
ATOM     63  C   UNL A   1      40.862  27.611  28.988  1.00  0.00     0.023 A 
ATOM     64  C   UNL A   1      41.820  27.786  27.974  1.00  0.00     0.031 A 
ATOM     65  C   UNL A   1      39.949  26.549  28.852  1.00  0.00     0.131 A 
ATOM     66  C   UNL A   1      41.795  26.966  26.836  1.00  0.00     0.055 A 
ATOM     67  C   UNL A   1      39.985  25.682  27.758  1.00  0.00     0.041 A 
ATOM     68  F   UNL A   1      38.997  26.343  29.776  1.00  0.00    -0.206 F 
ATOM     69  C   UNL A   1      40.902  25.897  26.734  1.00  0.00     0.022 A 
BRANCH  66  70
ATOM     70  S   UNL A   1      42.849  27.408  25.428  1.00  0.00     0.124 S 
ATOM     71  O   UNL A   1      44.070  27.847  26.101  1.00  0.00    -0.237 OA
ATOM     72  O   UNL A   1      42.940  26.152  24.695  1.00  0.00    -0.237 OA
ATOM     73  O   UNL A   1      42.099  28.470  24.759  1.00  0.00    -0.744 OA
ENDBRANCH  66  70
ENDBRANCH  49  63
BRANCH  50  74
ATOM     74  C   UNL A   1      39.788  33.728  36.864  1.00  0.00     0.023 A 
ATOM     75  C   UNL A   1      39.134  33.244  38.008  1.00  0.00     0.031 A 
ATOM     76  C   UNL A   1      40.217  35.068  36.869  1.00  0.00     0.131 A 
ATOM     77  C   UNL A   1      38.885  34.105  39.089  1.00  0.00     0.055 A 
ATOM     78  C   UNL A   1      40.020  35.902  37.970  1.00  0.00     0.041 A 
ATOM     79  F   UNL A   1      40.849  35.583  35.803  1.00  0.00    -0.206 F 
ATOM     80  C   UNL A   1      39.337  35.426  39.084  1.00  0.00     0.022 A 
BRANCH  77  81
ATOM     81  S   UNL A   1      37.870  33.499  40.466  1.00  0.00     0.124 S 
ATOM     82  O   UNL A   1      36.747  32.892  39.761  1.00  0.00    -0.237 OA
ATOM     83  O   UNL A   1      38.786  32.580  41.133  1.00  0.00    -0.237 OA
ATOM     84  O   UNL A   1      37.555  34.714  41.215  1.00  0.00    -0.744 OA
ENDBRANCH  77  81
ENDBRANCH  50  74
BRANCH  62  85
ATOM     85  C   UNL A   1      44.233  28.570  35.328  1.00  0.00     0.023 A 
ATOM     86  C   UNL A   1      44.054  27.578  36.308  1.00  0.00     0.031 A 
ATOM     87  C   UNL A   1      45.544  28.999  35.055  1.00  0.00     0.131 A 
ATOM     88  C   UNL A   1      45.161  27.083  37.013  1.00  0.00     0.055 A 
ATOM     89  C   UNL A   1      46.649  28.456  35.713  1.00  0.00     0.041 A 
ATOM     90  F   UNL A   1      45.775  29.948  34.133  1.00  0.00    -0.206 F 
ATOM     91  C   UNL A   1      46.459  27.501  36.707  1.00  0.00     0.022 A 
BRANCH  88  92
ATOM     92  S   UNL A   1      44.877  25.947  38.397  1.00  0.00     0.124 S 
ATOM     93  O   UNL A   1      44.075  26.765  39.301  1.00  0.00    -0.237 OA
ATOM     94  O   UNL A   1      44.180  24.838  37.755  1.00  0.00    -0.237 OA
ATOM     95  O   UNL A   1      46.225  25.639  38.871  1.00  0.00    -0.744 OA
ENDBRANCH  88  92
ENDBRANCH  62  85
ENDBRANCH  36  37
ENDBRANCH  28  31
ENDBRANCH  26  27
ENDBRANCH  25  26
ENDBRANCH  24  25
ENDBRANCH   1  24
TORSDOF 19
ENDMDL
MODEL 2
REMARK VINA RESULT:     -11.3      2.291      4.286
REMARK SMILES Cn1cncc1COc1c(F)cc(C(=O)NCCCCCCNC(=O)c2ccc(-c3c4nc(c(-c5cc(S(=O)(=O)[O-])ccc5F)c5ccc([nH]5)c(-c5cc(S(=O)(=O)[O-])ccc5F)c5nc(c(-c6cc(S(=O)(=O)[O-])ccc6F)c6ccc3[nH]6)C=C5)C=C4)cc2)cc1F
REMARK SMILES IDX 19 1 18 2 17 3 16 4 14 5 15 6 13 8 9 9 10 10 90 11 11 12
REMARK SMILES IDX 12 13 89 14 91 15 8 16 7 17 6 18 1 19 2 20 3 21 4 22 5 23
REMARK SMILES IDX 20 24 21 25 22 26 23 27 24 28 25 30 26 31 27 32 88 33 28 34
REMARK SMILES IDX 87 35 29 36 30 37 31 38 81 39 32 40 86 41 80 42 82 43 33 44
REMARK SMILES IDX 85 45 79 46 78 47 34 49 66 50 46 51 65 52 47 53 50 54 64 55
REMARK SMILES IDX 83 56 48 57 49 58 63 60 84 61 51 62 35 63 36 64 44 65 37 66
REMARK SMILES IDX 43 67 45 68 42 69 38 70 39 71 40 72 41 73 67 74 68 75 76 76
REMARK SMILES IDX 69 77 75 78 77 79 74 80 70 81 71 82 72 83 73 84 52 85 53 86
REMARK SMILES IDX 61 87 54 88 60 89 62 90 59 91 55 92 56 93 57 94 58 95
REMARK H PARENT 16 7 23 29 82 48 50 59
REMARK Flexibility Score: inf
ROOT
ATOM      1  C   UNL A   1      31.856  29.581  25.275  1.00  0.00     0.002 C 
ENDROOT
BRANCH   1   2
ATOM      2  C   UNL A   1      33.254  29.316  24.707  1.00  0.00     0.021 C 
BRANCH   2   3
ATOM      3  C   UNL A   1      33.283  29.185  23.181  1.00  0.00     0.116 C 
BRANCH   3   4
ATOM      4  N   UNL A   1      31.941  29.248  22.625  1.00  0.00    -0.352 N 
ATOM      5  C   UNL A   1      30.983  28.289  22.411  1.00  0.00     0.251 C 
ATOM      6  O   UNL A   1      29.875  28.652  22.015  1.00  0.00    -0.269 OA
ATOM      7  H   UNL A   1      31.667  30.153  22.348  1.00  0.00     0.163 HD
BRANCH   5   8
ATOM      8  C   UNL A   1      31.210  26.839  22.662  1.00  0.00     0.045 A 
ATOM      9  C   UNL A   1      31.691  24.078  23.029  1.00  0.00     0.191 A 
ATOM     10  C   UNL A   1      30.978  24.821  23.964  1.00  0.00     0.168 A 
ATOM     11  C   UNL A   1      32.246  24.756  21.949  1.00  0.00     0.168 A 
ATOM     12  F   UNL A   1      30.530  24.270  25.096  1.00  0.00    -0.203 F 
ATOM     13  C   UNL A   1      30.741  26.178  23.792  1.00  0.00     0.057 A 
ATOM     14  C   UNL A   1      32.009  26.121  21.757  1.00  0.00     0.057 A 
ATOM     15  F   UNL A   1      33.031  24.108  21.077  1.00  0.00    -0.203 F 
BRANCH   9  16
ATOM     16  O   UNL A   1      31.975  22.755  23.239  1.00  0.00    -0.481 OA
BRANCH  16  17
ATOM     17  C   UNL A   1      33.150  22.543  24.046  1.00  0.00     0.285 C 
BRANCH  17  18
ATOM     18  C   UNL A   1      33.302  21.093  24.339  1.00  0.00     0.075 A 
ATOM     19  C   UNL A   1      35.744  21.089  24.984  1.00  0.00     0.151 C 
ATOM     20  N   UNL A   1      34.473  20.470  24.703  1.00  0.00    -0.335 N 
ATOM     21  C   UNL A   1      34.234  19.125  24.752  1.00  0.00     0.199 A 
ATOM     22  N   UNL A   1      32.972  18.853  24.520  1.00  0.00    -0.245 NA
ATOM     23  C   UNL A   1      32.382  20.063  24.271  1.00  0.00     0.138 A 
ENDBRANCH  17  18
ENDBRANCH  16  17
ENDBRANCH   9  16
ENDBRANCH   5   8
ENDBRANCH   3   4
ENDBRANCH   2   3
ENDBRANCH   1   2
BRANCH   1  24
ATOM     24  C   UNL A   1      31.839  30.188  26.684  1.00  0.00     0.002 C 
BRANCH  24  25
ATOM     25  C   UNL A   1      31.735  31.714  26.730  1.00  0.00     0.021 C 
BRANCH  25  26
ATOM     26  C   UNL A   1      32.948  32.405  27.349  1.00  0.00     0.116 C 
BRANCH  26  27
ATOM     27  N   UNL A   1      32.685  33.813  27.605  1.00  0.00    -0.352 N 
ATOM     28  C   UNL A   1      33.185  34.626  28.594  1.00  0.00     0.251 C 
ATOM     29  H   UNL A   1      32.058  34.245  26.982  1.00  0.00     0.163 HD
ATOM     30  O   UNL A   1      32.650  35.700  28.834  1.00  0.00    -0.269 OA
BRANCH  28  31
ATOM     31  C   UNL A   1      34.362  34.181  29.372  1.00  0.00     0.039 A 
ATOM     32  C   UNL A   1      34.168  33.523  30.587  1.00  0.00     0.014 A 
ATOM     33  C   UNL A   1      35.653  34.411  28.890  1.00  0.00     0.014 A 
ATOM     34  C   UNL A   1      35.272  33.026  31.285  1.00  0.00     0.010 A 
ATOM     35  C   UNL A   1      36.745  33.853  29.548  1.00  0.00     0.010 A 
ATOM     36  C   UNL A   1      36.565  33.148  30.748  1.00  0.00    -0.014 A 
BRANCH  36  37
ATOM     37  C   UNL A   1      37.741  32.530  31.413  1.00  0.00     0.031 A 
ATOM     38  C   UNL A   1      38.462  31.386  30.757  1.00  0.00     0.074 A 
ATOM     39  C   UNL A   1      38.106  32.950  32.640  1.00  0.00     0.049 A 
ATOM     40  N   UNL A   1      39.439  30.650  31.220  1.00  0.00    -0.248 NA
ATOM     41  C   UNL A   1      38.006  31.003  29.412  1.00  0.00     0.031 C 
ATOM     42  C   UNL A   1      37.462  34.033  33.388  1.00  0.00     0.029 A 
ATOM     43  N   UNL A   1      39.097  32.513  33.484  1.00  0.00    -0.354 N 
ATOM     44  C   UNL A   1      39.709  29.710  30.230  1.00  0.00     0.074 A 
ATOM     45  C   UNL A   1      38.751  29.935  29.168  1.00  0.00     0.031 C 
ATOM     46  C   UNL A   1      38.088  34.188  34.565  1.00  0.00     0.029 A 
ATOM     47  C   UNL A   1      39.137  33.181  34.685  1.00  0.00     0.049 A 
ATOM     48  H   UNL A   1      39.721  31.788  33.249  1.00  0.00     0.167 HD
ATOM     49  C   UNL A   1      40.679  28.764  30.203  1.00  0.00     0.034 A 
ATOM     50  C   UNL A   1      39.912  32.989  35.771  1.00  0.00     0.034 A 
ATOM     51  C   UNL A   1      41.625  28.556  31.272  1.00  0.00     0.049 A 
ATOM     52  C   UNL A   1      40.943  31.888  35.741  1.00  0.00     0.074 A 
ATOM     53  C   UNL A   1      42.681  27.663  31.326  1.00  0.00     0.029 A 
ATOM     54  N   UNL A   1      41.620  29.237  32.484  1.00  0.00    -0.354 N 
ATOM     55  N   UNL A   1      41.222  31.044  34.775  1.00  0.00    -0.248 NA
ATOM     56  C   UNL A   1      41.766  31.716  36.946  1.00  0.00     0.031 C 
ATOM     57  C   UNL A   1      43.260  27.744  32.597  1.00  0.00     0.029 A 
ATOM     58  C   UNL A   1      42.625  28.751  33.307  1.00  0.00     0.049 A 
ATOM     59  H   UNL A   1      40.994  29.958  32.723  1.00  0.00     0.167 HD
ATOM     60  C   UNL A   1      42.271  30.259  35.247  1.00  0.00     0.074 A 
ATOM     61  C   UNL A   1      42.585  30.743  36.575  1.00  0.00     0.031 C 
ATOM     62  C   UNL A   1      42.918  29.234  34.637  1.00  0.00     0.034 A 
BRANCH  49  63
ATOM     63  C   UNL A   1      40.742  27.865  28.991  1.00  0.00     0.023 A 
ATOM     64  C   UNL A   1      41.690  28.063  27.971  1.00  0.00     0.031 A 
ATOM     65  C   UNL A   1      39.831  26.804  28.841  1.00  0.00     0.131 A 
ATOM     66  C   UNL A   1      41.656  27.267  26.817  1.00  0.00     0.055 A 
ATOM     67  C   UNL A   1      39.858  25.960  27.730  1.00  0.00     0.041 A 
ATOM     68  F   UNL A   1      38.888  26.577  29.770  1.00  0.00    -0.206 F 
ATOM     69  C   UNL A   1      40.764  26.198  26.701  1.00  0.00     0.022 A 
BRANCH  66  70
ATOM     70  S   UNL A   1      42.695  27.740  25.408  1.00  0.00     0.124 S 
ATOM     71  O   UNL A   1      43.913  28.191  26.079  1.00  0.00    -0.237 OA
ATOM     72  O   UNL A   1      42.801  26.494  24.660  1.00  0.00    -0.237 OA
ATOM     73  O   UNL A   1      41.925  28.798  24.755  1.00  0.00    -0.744 OA
ENDBRANCH  66  70
ENDBRANCH  49  63
BRANCH  50  74
ATOM     74  C   UNL A   1      39.732  33.832  36.989  1.00  0.00     0.023 A 
ATOM     75  C   UNL A   1      40.583  34.918  37.249  1.00  0.00     0.031 A 
ATOM     76  C   UNL A   1      38.736  33.536  37.937  1.00  0.00     0.131 A 
ATOM     77  C   UNL A   1      40.455  35.637  38.448  1.00  0.00     0.055 A 
ATOM     78  C   UNL A   1      38.573  34.293  39.099  1.00  0.00     0.041 A 
ATOM     79  F   UNL A   1      37.893  32.511  37.740  1.00  0.00    -0.206 F 
ATOM     80  C   UNL A   1      39.446  35.342  39.367  1.00  0.00     0.022 A 
BRANCH  77  81
ATOM     81  S   UNL A   1      41.692  36.906  38.835  1.00  0.00     0.124 S 
ATOM     82  O   UNL A   1      42.459  36.259  39.894  1.00  0.00    -0.237 OA
ATOM     83  O   UNL A   1      42.371  37.067  37.554  1.00  0.00    -0.237 OA
ATOM     84  O   UNL A   1      40.885  38.049  39.258  1.00  0.00    -0.744 OA
ENDBRANCH  77  81
ENDBRANCH  50  74
BRANCH  62  85
ATOM     85  C   UNL A   1      44.058  28.592  35.390  1.00  0.00     0.023 A 
ATOM     86  C   UNL A   1      43.849  27.526  36.282  1.00  0.00     0.031 A 
ATOM     87  C   UNL A   1      45.374  29.052  35.207  1.00  0.00     0.131 A 
ATOM     88  C   UNL A   1      44.932  26.986  36.992  1.00  0.00     0.055 A 
ATOM     89  C   UNL A   1      46.457  28.468  35.868  1.00  0.00     0.041 A 
ATOM     90  F   UNL A   1      45.633  30.072  34.373  1.00  0.00    -0.206 F 
ATOM     91  C   UNL A   1      46.237  27.437  36.775  1.00  0.00     0.022 A 
BRANCH  88  92
ATOM     92  S   UNL A   1      44.603  25.743  38.271  1.00  0.00     0.124 S 
ATOM     93  O   UNL A   1      44.137  24.609  37.479  1.00  0.00    -0.237 OA
ATOM     94  O   UNL A   1      45.911  25.586  38.900  1.00  0.00    -0.237 OA
ATOM     95  O   UNL A   1      43.586  26.374  39.110  1.00  0.00    -0.744 OA
ENDBRANCH  88  92
ENDBRANCH  62  85
ENDBRANCH  36  37
ENDBRANCH  28  31
ENDBRANCH  26  27
ENDBRANCH  25  26
ENDBRANCH  24  25
ENDBRANCH   1  24
TORSDOF 19
ENDMDL
MODEL 3
REMARK VINA RESULT:     -11.3      0.791      7.734
REMARK SMILES Cn1cncc1COc1c(F)cc(C(=O)NCCCCCCNC(=O)c2ccc(-c3c4nc(c(-c5cc(S(=O)(=O)[O-])ccc5F)c5ccc([nH]5)c(-c5cc(S(=O)(=O)[O-])ccc5F)c5nc(c(-c6cc(S(=O)(=O)[O-])ccc6F)c6ccc3[nH]6)C=C5)C=C4)cc2)cc1F
REMARK SMILES IDX 19 1 18 2 17 3 16 4 14 5 15 6 13 8 9 9 10 10 90 11 11 12
REMARK SMILES IDX 12 13 89 14 91 15 8 16 7 17 6 18 1 19 2 20 3 21 4 22 5 23
REMARK SMILES IDX 20 24 21 25 22 26 23 27 24 28 25 30 26 31 27 32 88 33 28 34
REMARK SMILES IDX 87 35 29 36 30 37 31 38 81 39 32 40 86 41 80 42 82 43 33 44
REMARK SMILES IDX 85 45 79 46 78 47 34 49 66 50 46 51 65 52 47 53 50 54 64 55
REMARK SMILES IDX 83 56 48 57 49 58 63 60 84 61 51 62 35 63 36 64 44 65 37 66
REMARK SMILES IDX 43 67 45 68 42 69 38 70 39 71 40 72 41 73 67 74 68 75 76 76
REMARK SMILES IDX 69 77 75 78 77 79 74 80 70 81 71 82 72 83 73 84 52 85 53 86
REMARK SMILES IDX 61 87 54 88 60 89 62 90 59 91 55 92 56 93 57 94 58 95
REMARK H PARENT 16 7 23 29 82 48 50 59
REMARK Flexibility Score: inf
ROOT
ATOM      1  C   UNL A   1      32.780  30.317  27.214  1.00  0.00     0.002 C 
ENDROOT
BRANCH   1   2
ATOM      2  C   UNL A   1      33.452  29.294  26.292  1.00  0.00     0.021 C 
BRANCH   2   3
ATOM      3  C   UNL A   1      33.186  27.839  26.689  1.00  0.00     0.116 C 
BRANCH   3   4
ATOM      4  N   UNL A   1      33.676  26.921  25.673  1.00  0.00    -0.352 N 
ATOM      5  C   UNL A   1      33.209  26.588  24.426  1.00  0.00     0.251 C 
ATOM      6  O   UNL A   1      33.897  25.844  23.727  1.00  0.00    -0.269 OA
ATOM      7  H   UNL A   1      34.500  26.447  25.928  1.00  0.00     0.163 HD
BRANCH   5   8
ATOM      8  C   UNL A   1      31.928  27.106  23.870  1.00  0.00     0.045 A 
ATOM      9  C   UNL A   1      29.556  28.186  22.777  1.00  0.00     0.191 A 
ATOM     10  C   UNL A   1      29.539  27.028  23.545  1.00  0.00     0.168 A 
ATOM     11  C   UNL A   1      30.793  28.749  22.480  1.00  0.00     0.168 A 
ATOM     12  F   UNL A   1      28.406  26.352  23.760  1.00  0.00    -0.203 F 
ATOM     13  C   UNL A   1      30.700  26.489  24.083  1.00  0.00     0.057 A 
ATOM     14  C   UNL A   1      31.971  28.224  23.021  1.00  0.00     0.057 A 
ATOM     15  F   UNL A   1      30.874  29.802  21.655  1.00  0.00    -0.203 F 
BRANCH   9  16
ATOM     16  O   UNL A   1      28.415  28.673  22.196  1.00  0.00    -0.481 OA
BRANCH  16  17
ATOM     17  C   UNL A   1      27.622  29.483  23.086  1.00  0.00     0.285 C 
BRANCH  17  18
ATOM     18  C   UNL A   1      27.924  30.922  22.857  1.00  0.00     0.075 A 
ATOM     19  C   UNL A   1      27.899  30.919  20.331  1.00  0.00     0.151 C 
ATOM     20  N   UNL A   1      28.090  31.517  21.628  1.00  0.00    -0.335 N 
ATOM     21  C   UNL A   1      28.485  32.809  21.839  1.00  0.00     0.199 A 
ATOM     22  N   UNL A   1      28.506  33.101  23.118  1.00  0.00    -0.245 NA
ATOM     23  C   UNL A   1      28.153  31.945  23.759  1.00  0.00     0.138 A 
ENDBRANCH  17  18
ENDBRANCH  16  17
ENDBRANCH   9  16
ENDBRANCH   5   8
ENDBRANCH   3   4
ENDBRANCH   2   3
ENDBRANCH   1   2
BRANCH   1  24
ATOM     24  C   UNL A   1      31.606  31.076  26.584  1.00  0.00     0.002 C 
BRANCH  24  25
ATOM     25  C   UNL A   1      31.698  32.601  26.677  1.00  0.00     0.021 C 
BRANCH  25  26
ATOM     26  C   UNL A   1      32.821  33.106  27.581  1.00  0.00     0.116 C 
BRANCH  26  27
ATOM     27  N   UNL A   1      32.594  34.483  27.991  1.00  0.00    -0.352 N 
ATOM     28  C   UNL A   1      33.078  35.155  29.088  1.00  0.00     0.251 C 
ATOM     29  H   UNL A   1      32.010  35.009  27.399  1.00  0.00     0.163 HD
ATOM     30  O   UNL A   1      32.569  36.214  29.433  1.00  0.00    -0.269 OA
BRANCH  28  31
ATOM     31  C   UNL A   1      34.204  34.577  29.854  1.00  0.00     0.039 A 
ATOM     32  C   UNL A   1      33.944  33.916  31.055  1.00  0.00     0.014 A 
ATOM     33  C   UNL A   1      35.512  34.687  29.374  1.00  0.00     0.014 A 
ATOM     34  C   UNL A   1      34.993  33.295  31.739  1.00  0.00     0.010 A 
ATOM     35  C   UNL A   1      36.542  34.007  30.017  1.00  0.00     0.010 A 
ATOM     36  C   UNL A   1      36.292  33.298  31.202  1.00  0.00    -0.014 A 
BRANCH  36  37
ATOM     37  C   UNL A   1      37.399  32.550  31.851  1.00  0.00     0.031 A 
ATOM     38  C   UNL A   1      37.916  32.985  33.194  1.00  0.00     0.074 A 
ATOM     39  C   UNL A   1      37.987  31.532  31.193  1.00  0.00     0.049 A 
ATOM     40  N   UNL A   1      38.936  32.530  33.874  1.00  0.00    -0.248 NA
ATOM     41  C   UNL A   1      37.205  34.095  33.846  1.00  0.00     0.031 C 
ATOM     42  C   UNL A   1      37.591  31.039  29.871  1.00  0.00     0.029 A 
ATOM     43  N   UNL A   1      39.051  30.733  31.535  1.00  0.00    -0.354 N 
ATOM     44  C   UNL A   1      38.999  33.304  35.028  1.00  0.00     0.074 A 
ATOM     45  C   UNL A   1      37.948  34.294  34.925  1.00  0.00     0.031 C 
ATOM     46  C   UNL A   1      38.384  30.013  29.527  1.00  0.00     0.029 A 
ATOM     47  C   UNL A   1      39.383  29.810  30.571  1.00  0.00     0.049 A 
ATOM     48  H   UNL A   1      39.530  30.814  32.391  1.00  0.00     0.167 HD
ATOM     49  C   UNL A   1      39.840  33.182  36.084  1.00  0.00     0.034 A 
ATOM     50  C   UNL A   1      40.392  28.917  30.521  1.00  0.00     0.034 A 
ATOM     51  C   UNL A   1      40.881  32.188  36.169  1.00  0.00     0.049 A 
ATOM     52  C   UNL A   1      41.354  28.845  31.681  1.00  0.00     0.074 A 
ATOM     53  C   UNL A   1      41.755  31.942  37.213  1.00  0.00     0.029 A 
ATOM     54  N   UNL A   1      41.203  31.284  35.162  1.00  0.00    -0.354 N 
ATOM     55  N   UNL A   1      41.365  29.547  32.790  1.00  0.00    -0.248 NA
ATOM     56  C   UNL A   1      42.437  27.857  31.583  1.00  0.00     0.031 C 
ATOM     57  C   UNL A   1      42.655  30.950  36.809  1.00  0.00     0.029 A 
ATOM     58  C   UNL A   1      42.290  30.512  35.546  1.00  0.00     0.049 A 
ATOM     59  H   UNL A   1      40.729  31.204  34.303  1.00  0.00     0.167 HD
ATOM     60  C   UNL A   1      42.440  29.066  33.533  1.00  0.00     0.074 A 
ATOM     61  C   UNL A   1      43.040  28.003  32.754  1.00  0.00     0.031 C 
ATOM     62  C   UNL A   1      42.888  29.464  34.751  1.00  0.00     0.034 A 
BRANCH  49  63
ATOM     63  C   UNL A   1      39.686  34.172  37.216  1.00  0.00     0.023 A 
ATOM     64  C   UNL A   1      39.196  33.784  38.475  1.00  0.00     0.031 A 
ATOM     65  C   UNL A   1      40.016  35.526  37.029  1.00  0.00     0.131 A 
ATOM     66  C   UNL A   1      38.977  34.749  39.470  1.00  0.00     0.055 A 
ATOM     67  C   UNL A   1      39.878  36.466  38.052  1.00  0.00     0.041 A 
ATOM     68  F   UNL A   1      40.468  35.962  35.842  1.00  0.00    -0.206 F 
ATOM     69  C   UNL A   1      39.341  36.083  39.277  1.00  0.00     0.022 A 
BRANCH  66  70
ATOM     70  S   UNL A   1      38.075  34.260  40.965  1.00  0.00     0.124 S 
ATOM     71  O   UNL A   1      37.649  35.557  41.489  1.00  0.00    -0.237 OA
ATOM     72  O   UNL A   1      37.019  33.407  40.433  1.00  0.00    -0.237 OA
ATOM     73  O   UNL A   1      39.087  33.575  41.768  1.00  0.00    -0.744 OA
ENDBRANCH  66  70
ENDBRANCH  49  63
BRANCH  50  74
ATOM     74  C   UNL A   1      40.568  28.040  29.327  1.00  0.00     0.023 A 
ATOM     75  C   UNL A   1      41.513  28.348  28.337  1.00  0.00     0.031 A 
ATOM     76  C   UNL A   1      39.761  26.903  29.135  1.00  0.00     0.131 A 
ATOM     77  C   UNL A   1      41.595  27.560  27.177  1.00  0.00     0.055 A 
ATOM     78  C   UNL A   1      39.888  26.089  28.009  1.00  0.00     0.041 A 
ATOM     79  F   UNL A   1      38.842  26.559  30.051  1.00  0.00    -0.206 F 
ATOM     80  C   UNL A   1      40.800  26.424  27.014  1.00  0.00     0.022 A 
BRANCH  77  81
ATOM     81  S   UNL A   1      42.691  28.101  25.836  1.00  0.00     0.124 S 
ATOM     82  O   UNL A   1      42.122  27.403  24.689  1.00  0.00    -0.237 OA
ATOM     83  O   UNL A   1      42.511  29.548  25.864  1.00  0.00    -0.237 OA
ATOM     84  O   UNL A   1      44.007  27.631  26.264  1.00  0.00    -0.744 OA
ENDBRANCH  77  81
ENDBRANCH  50  74
BRANCH  62  85
ATOM     85  C   UNL A   1      44.065  28.717  35.331  1.00  0.00     0.023 A 
ATOM     86  C   UNL A   1      43.896  27.669  36.253  1.00  0.00     0.031 A 
ATOM     87  C   UNL A   1      45.375  29.057  34.951  1.00  0.00     0.131 A 
ATOM     88  C   UNL A   1      45.019  27.030  36.798  1.00  0.00     0.055 A 
ATOM     89  C   UNL A   1      46.487  28.374  35.447  1.00  0.00     0.041 A 
ATOM     90  F   UNL A   1      45.598  30.054  34.079  1.00  0.00    -0.206 F 
ATOM     91  C   UNL A   1      46.312  27.362  36.386  1.00  0.00     0.022 A 
BRANCH  88  92
ATOM     92  S   UNL A   1      44.774  25.815  38.122  1.00  0.00     0.124 S 
ATOM     93  O   UNL A   1      44.248  24.668  37.388  1.00  0.00    -0.237 OA
ATOM     94  O   UNL A   1      46.121  25.662  38.661  1.00  0.00    -0.237 OA
ATOM     95  O   UNL A   1      43.820  26.469  39.016  1.00  0.00    -0.744 OA
ENDBRANCH  88  92
ENDBRANCH  62  85
ENDBRANCH  36  37
ENDBRANCH  28  31
ENDBRANCH  26  27
ENDBRANCH  25  26
ENDBRANCH  24  25
ENDBRANCH   1  24
TORSDOF 19
ENDMDL
