MODEL 1
REMARK VINA RESULT:     -11.8      0.000      0.000
REMARK SMILES Cc1ccc(OCC(=O)NC(=S)Nc2ccc(C(=O)NCCCCCCNC(=O)c3ccc(-c4c5nc(c(-c6cc(S(=O)(=O)[O-])ccc6F)c6ccc([nH]6)c(-c6cc(S(=O)(=O)[O-])ccc6F)c6nc(c(-c7cc(S(=O)(=O)[O-])ccc7F)c7ccc4[nH]7)C=C6)C=C5)cc3)cc2)cc1
REMARK SMILES IDX 22 1 21 2 20 3 18 4 19 5 17 7 14 8 15 9 94 10 16 11 93 12
REMARK SMILES IDX 13 13 11 15 12 16 10 17 8 18 9 19 7 21 6 22 5 23 1 24 2 25
REMARK SMILES IDX 3 26 96 27 4 28 95 29 23 30 24 31 25 32 26 33 27 34 28 35
REMARK SMILES IDX 29 37 30 38 31 39 92 40 32 41 91 42 33 43 34 44 35 45 85 46
REMARK SMILES IDX 36 47 90 48 84 49 86 50 37 51 89 52 83 53 82 54 38 56 70 57
REMARK SMILES IDX 50 58 69 59 51 60 54 61 68 62 87 63 52 64 53 65 67 67 88 68
REMARK SMILES IDX 55 69 39 70 40 71 48 72 41 73 47 74 49 75 46 76 42 77 43 78
REMARK SMILES IDX 44 79 45 80 71 81 72 82 80 83 73 84 79 85 81 86 78 87 74 88
REMARK SMILES IDX 75 89 76 90 77 91 56 92 57 93 65 94 58 95 64 96 66 97 63 98
REMARK SMILES IDX 59 99 60 100 61 101 62 102
REMARK H PARENT 20 6 13 14 10 20 27 36 86 55 54 66
REMARK Flexibility Score: inf
ROOT
ATOM      1  C   UNL A   1      34.182  21.805  24.703  1.00  0.00     0.021 C 
ENDROOT
BRANCH   1   2
ATOM      2  C   UNL A   1      32.676  21.548  24.774  1.00  0.00     0.116 C 
BRANCH   2   3
ATOM      3  N   UNL A   1      32.115  21.877  26.077  1.00  0.00    -0.352 N 
ATOM      4  C   UNL A   1      31.708  23.088  26.583  1.00  0.00     0.251 C 
ATOM      5  O   UNL A   1      31.055  23.151  27.621  1.00  0.00    -0.269 OA
ATOM      6  H   UNL A   1      32.011  21.114  26.690  1.00  0.00     0.163 HD
BRANCH   4   7
ATOM      7  C   UNL A   1      31.995  24.332  25.843  1.00  0.00     0.039 A 
ATOM      8  C   UNL A   1      32.453  26.818  24.690  1.00  0.00     0.040 A 
ATOM      9  C   UNL A   1      31.366  26.047  24.269  1.00  0.00     0.027 A 
ATOM     10  C   UNL A   1      33.393  26.285  25.577  1.00  0.00     0.027 A 
ATOM     11  C   UNL A   1      31.113  24.816  24.874  1.00  0.00     0.016 A 
ATOM     12  C   UNL A   1      33.176  25.024  26.135  1.00  0.00     0.016 A 
BRANCH   8  13
ATOM     13  N   UNL A   1      32.537  28.129  24.211  1.00  0.00    -0.332 N 
ATOM     14  H   UNL A   1      33.449  28.474  24.076  1.00  0.00     0.169 HD
BRANCH  13  15
ATOM     15  C   UNL A   1      31.541  28.986  23.909  1.00  0.00     0.177 C 
ATOM     16  S   UNL A   1      30.560  28.667  22.591  1.00  0.00    -0.040 S 
BRANCH  15  17
ATOM     17  N   UNL A   1      31.251  30.093  24.671  1.00  0.00    -0.300 N 
ATOM     18  C   UNL A   1      31.518  30.621  25.926  1.00  0.00     0.264 C 
ATOM     19  O   UNL A   1      31.119  31.773  26.143  1.00  0.00    -0.271 OA
ATOM     20  H   UNL A   1      30.667  30.704  24.165  1.00  0.00     0.172 HD
BRANCH  18  21
ATOM     21  C   UNL A   1      32.233  29.841  27.027  1.00  0.00     0.329 C 
BRANCH  21  22
ATOM     22  O   UNL A   1      33.591  29.584  26.718  1.00  0.00    -0.484 OA
BRANCH  22  23
ATOM     23  C   UNL A   1      34.548  30.367  27.303  1.00  0.00     0.120 A 
ATOM     24  C   UNL A   1      37.264  33.321  28.909  1.00  0.00     0.044 C 
ATOM     25  C   UNL A   1      36.327  32.275  28.378  1.00  0.00    -0.051 A 
ATOM     26  C   UNL A   1      34.952  32.526  28.345  1.00  0.00     0.007 A 
ATOM     27  C   UNL A   1      36.800  31.048  27.900  1.00  0.00     0.007 A 
ATOM     28  C   UNL A   1      34.076  31.582  27.801  1.00  0.00     0.047 A 
ATOM     29  C   UNL A   1      35.916  30.098  27.370  1.00  0.00     0.047 A 
ENDBRANCH  22  23
ENDBRANCH  21  22
ENDBRANCH  18  21
ENDBRANCH  15  17
ENDBRANCH  13  15
ENDBRANCH   8  13
ENDBRANCH   4   7
ENDBRANCH   2   3
ENDBRANCH   1   2
BRANCH   1  30
ATOM     30  C   UNL A   1      34.631  22.818  23.638  1.00  0.00     0.002 C 
BRANCH  30  31
ATOM     31  C   UNL A   1      36.024  23.445  23.817  1.00  0.00     0.002 C 
BRANCH  31  32
ATOM     32  C   UNL A   1      36.988  22.690  24.732  1.00  0.00     0.021 C 
BRANCH  32  33
ATOM     33  C   UNL A   1      37.490  23.500  25.925  1.00  0.00     0.116 C 
BRANCH  33  34
ATOM     34  N   UNL A   1      38.693  22.964  26.556  1.00  0.00    -0.352 N 
ATOM     35  C   UNL A   1      39.647  23.613  27.332  1.00  0.00     0.251 C 
ATOM     36  H   UNL A   1      38.852  22.003  26.413  1.00  0.00     0.163 HD
ATOM     37  O   UNL A   1      40.645  23.036  27.714  1.00  0.00    -0.269 OA
BRANCH  35  38
ATOM     38  C   UNL A   1      39.380  25.005  27.777  1.00  0.00     0.039 A 
ATOM     39  C   UNL A   1      39.758  26.050  26.923  1.00  0.00     0.014 A 
ATOM     40  C   UNL A   1      38.976  25.273  29.079  1.00  0.00     0.014 A 
ATOM     41  C   UNL A   1      39.960  27.324  27.451  1.00  0.00     0.010 A 
ATOM     42  C   UNL A   1      39.285  26.500  29.627  1.00  0.00     0.010 A 
ATOM     43  C   UNL A   1      39.833  27.508  28.827  1.00  0.00    -0.014 A 
BRANCH  43  44
ATOM     44  C   UNL A   1      40.404  28.642  29.543  1.00  0.00     0.031 A 
ATOM     45  C   UNL A   1      39.544  29.651  30.195  1.00  0.00     0.074 A 
ATOM     46  C   UNL A   1      41.742  28.693  29.723  1.00  0.00     0.049 A 
ATOM     47  N   UNL A   1      39.932  30.845  30.493  1.00  0.00    -0.248 NA
ATOM     48  C   UNL A   1      38.150  29.401  30.542  1.00  0.00     0.031 C 
ATOM     49  C   UNL A   1      42.481  29.526  30.669  1.00  0.00     0.029 A 
ATOM     50  N   UNL A   1      42.728  28.137  28.913  1.00  0.00    -0.354 N 
ATOM     51  C   UNL A   1      38.983  31.399  31.319  1.00  0.00     0.074 A 
ATOM     52  C   UNL A   1      37.863  30.490  31.264  1.00  0.00     0.031 C 
ATOM     53  C   UNL A   1      43.754  29.628  30.258  1.00  0.00     0.029 A 
ATOM     54  C   UNL A   1      43.842  28.990  28.957  1.00  0.00     0.049 A 
ATOM     55  H   UNL A   1      42.656  27.300  28.403  1.00  0.00     0.167 HD
ATOM     56  C   UNL A   1      39.302  32.489  32.075  1.00  0.00     0.034 A 
ATOM     57  C   UNL A   1      44.309  29.591  27.825  1.00  0.00     0.034 A 
ATOM     58  C   UNL A   1      40.667  32.943  31.820  1.00  0.00     0.049 A 
ATOM     59  C   UNL A   1      44.244  31.100  27.872  1.00  0.00     0.074 A 
ATOM     60  C   UNL A   1      41.858  32.772  32.509  1.00  0.00     0.029 A 
ATOM     61  N   UNL A   1      41.007  33.447  30.570  1.00  0.00    -0.354 N 
ATOM     62  N   UNL A   1      43.517  31.777  28.719  1.00  0.00    -0.248 NA
ATOM     63  C   UNL A   1      44.992  31.965  26.967  1.00  0.00     0.031 C 
ATOM     64  C   UNL A   1      42.921  33.131  31.643  1.00  0.00     0.029 A 
ATOM     65  C   UNL A   1      42.378  33.546  30.440  1.00  0.00     0.049 A 
ATOM     66  H   UNL A   1      40.358  33.698  29.873  1.00  0.00     0.167 HD
ATOM     67  C   UNL A   1      43.665  33.122  28.485  1.00  0.00     0.074 A 
ATOM     68  C   UNL A   1      44.619  33.184  27.392  1.00  0.00     0.031 C 
ATOM     69  C   UNL A   1      42.980  34.057  29.215  1.00  0.00     0.034 A 
BRANCH  56  70
ATOM     70  C   UNL A   1      38.487  32.943  33.264  1.00  0.00     0.023 A 
ATOM     71  C   UNL A   1      38.641  32.279  34.499  1.00  0.00     0.031 A 
ATOM     72  C   UNL A   1      37.531  33.976  33.246  1.00  0.00     0.131 A 
ATOM     73  C   UNL A   1      37.807  32.562  35.595  1.00  0.00     0.055 A 
ATOM     74  C   UNL A   1      36.663  34.223  34.320  1.00  0.00     0.041 A 
ATOM     75  F   UNL A   1      37.425  34.814  32.206  1.00  0.00    -0.206 F 
ATOM     76  C   UNL A   1      36.789  33.504  35.499  1.00  0.00     0.022 A 
BRANCH  73  77
ATOM     77  S   UNL A   1      38.078  31.673  37.153  1.00  0.00     0.124 S 
ATOM     78  O   UNL A   1      38.168  30.287  36.707  1.00  0.00    -0.237 OA
ATOM     79  O   UNL A   1      39.312  32.276  37.643  1.00  0.00    -0.237 OA
ATOM     80  O   UNL A   1      36.884  31.991  37.936  1.00  0.00    -0.744 OA
ENDBRANCH  73  77
ENDBRANCH  56  70
BRANCH  57  81
ATOM     81  C   UNL A   1      44.142  28.747  26.608  1.00  0.00     0.023 A 
ATOM     82  C   UNL A   1      45.088  27.719  26.409  1.00  0.00     0.031 A 
ATOM     83  C   UNL A   1      42.921  28.655  25.927  1.00  0.00     0.131 A 
ATOM     84  C   UNL A   1      44.741  26.568  25.689  1.00  0.00     0.055 A 
ATOM     85  C   UNL A   1      42.602  27.530  25.154  1.00  0.00     0.041 A 
ATOM     86  F   UNL A   1      41.968  29.583  26.104  1.00  0.00    -0.206 F 
ATOM     87  C   UNL A   1      43.496  26.460  25.068  1.00  0.00     0.022 A 
BRANCH  84  88
ATOM     88  S   UNL A   1      45.839  25.124  25.810  1.00  0.00     0.124 S 
ATOM     89  O   UNL A   1      46.646  25.454  26.979  1.00  0.00    -0.237 OA
ATOM     90  O   UNL A   1      44.892  24.023  25.977  1.00  0.00    -0.237 OA
ATOM     91  O   UNL A   1      46.551  25.122  24.534  1.00  0.00    -0.744 OA
ENDBRANCH  84  88
ENDBRANCH  57  81
BRANCH  69  92
ATOM     92  C   UNL A   1      42.888  35.544  28.918  1.00  0.00     0.023 A 
ATOM     93  C   UNL A   1      43.719  36.508  29.505  1.00  0.00     0.031 A 
ATOM     94  C   UNL A   1      41.974  36.043  27.952  1.00  0.00     0.131 A 
ATOM     95  C   UNL A   1      43.578  37.877  29.210  1.00  0.00     0.055 A 
ATOM     96  C   UNL A   1      41.889  37.395  27.602  1.00  0.00     0.041 A 
ATOM     97  F   UNL A   1      41.130  35.238  27.289  1.00  0.00    -0.206 F 
ATOM     98  C   UNL A   1      42.682  38.328  28.247  1.00  0.00     0.022 A 
BRANCH  95  99
ATOM     99  S   UNL A   1      44.553  39.063  30.172  1.00  0.00     0.124 S 
ATOM    100  O   UNL A   1      44.636  40.198  29.255  1.00  0.00    -0.237 OA
ATOM    101  O   UNL A   1      43.721  39.265  31.355  1.00  0.00    -0.237 OA
ATOM    102  O   UNL A   1      45.813  38.364  30.410  1.00  0.00    -0.744 OA
ENDBRANCH  95  99
ENDBRANCH  69  92
ENDBRANCH  43  44
ENDBRANCH  35  38
ENDBRANCH  33  34
ENDBRANCH  32  33
ENDBRANCH  31  32
ENDBRANCH  30  31
ENDBRANCH   1  30
TORSDOF 22
ENDMDL
MODEL 2
REMARK VINA RESULT:     -11.5      3.310      4.913
REMARK SMILES Cc1ccc(OCC(=O)NC(=S)Nc2ccc(C(=O)NCCCCCCNC(=O)c3ccc(-c4c5nc(c(-c6cc(S(=O)(=O)[O-])ccc6F)c6ccc([nH]6)c(-c6cc(S(=O)(=O)[O-])ccc6F)c6nc(c(-c7cc(S(=O)(=O)[O-])ccc7F)c7ccc4[nH]7)C=C6)C=C5)cc3)cc2)cc1
REMARK SMILES IDX 22 1 21 2 20 3 18 4 19 5 17 7 14 8 15 9 94 10 16 11 93 12
REMARK SMILES IDX 13 13 11 15 12 16 10 17 8 18 9 19 7 21 6 22 5 23 1 24 2 25
REMARK SMILES IDX 3 26 96 27 4 28 95 29 23 30 24 31 25 32 26 33 27 34 28 35
REMARK SMILES IDX 29 37 30 38 31 39 92 40 32 41 91 42 33 43 34 44 35 45 85 46
REMARK SMILES IDX 36 47 90 48 84 49 86 50 37 51 89 52 83 53 82 54 38 56 70 57
REMARK SMILES IDX 50 58 69 59 51 60 54 61 68 62 87 63 52 64 53 65 67 67 88 68
REMARK SMILES IDX 55 69 39 70 40 71 48 72 41 73 47 74 49 75 46 76 42 77 43 78
REMARK SMILES IDX 44 79 45 80 71 81 72 82 80 83 73 84 79 85 81 86 78 87 74 88
REMARK SMILES IDX 75 89 76 90 77 91 56 92 57 93 65 94 58 95 64 96 66 97 63 98
REMARK SMILES IDX 59 99 60 100 61 101 62 102
REMARK H PARENT 20 6 13 14 10 20 27 36 86 55 54 66
REMARK Flexibility Score: inf
ROOT
ATOM      1  C   UNL A   1      36.348  20.598  24.781  1.00  0.00     0.021 C 
ENDROOT
BRANCH   1   2
ATOM      2  C   UNL A   1      35.196  20.982  25.710  1.00  0.00     0.116 C 
BRANCH   2   3
ATOM      3  N   UNL A   1      34.152  19.967  25.753  1.00  0.00    -0.352 N 
ATOM      4  C   UNL A   1      32.859  20.010  25.291  1.00  0.00     0.251 C 
ATOM      5  O   UNL A   1      32.182  18.988  25.213  1.00  0.00    -0.269 OA
ATOM      6  H   UNL A   1      34.414  19.119  26.178  1.00  0.00     0.163 HD
BRANCH   4   7
ATOM      7  C   UNL A   1      32.286  21.284  24.816  1.00  0.00     0.039 A 
ATOM      8  C   UNL A   1      30.945  23.562  23.961  1.00  0.00     0.040 A 
ATOM      9  C   UNL A   1      31.638  22.777  23.036  1.00  0.00     0.027 A 
ATOM     10  C   UNL A   1      31.046  23.294  25.329  1.00  0.00     0.027 A 
ATOM     11  C   UNL A   1      32.279  21.612  23.458  1.00  0.00     0.016 A 
ATOM     12  C   UNL A   1      31.743  22.164  25.759  1.00  0.00     0.016 A 
BRANCH   8  13
ATOM     13  N   UNL A   1      30.142  24.591  23.459  1.00  0.00    -0.332 N 
ATOM     14  H   UNL A   1      29.773  24.441  22.559  1.00  0.00     0.169 HD
BRANCH  13  15
ATOM     15  C   UNL A   1      29.803  25.761  24.038  1.00  0.00     0.177 C 
ATOM     16  S   UNL A   1      29.893  25.905  25.703  1.00  0.00    -0.040 S 
BRANCH  15  17
ATOM     17  N   UNL A   1      29.437  26.873  23.317  1.00  0.00    -0.300 N 
ATOM     18  C   UNL A   1      29.813  28.198  23.141  1.00  0.00     0.264 C 
ATOM     19  O   UNL A   1      29.236  28.825  22.241  1.00  0.00    -0.271 OA
ATOM     20  H   UNL A   1      28.664  26.663  22.745  1.00  0.00     0.172 HD
BRANCH  18  21
ATOM     21  C   UNL A   1      30.851  28.897  24.014  1.00  0.00     0.329 C 
BRANCH  21  22
ATOM     22  O   UNL A   1      32.162  28.792  23.488  1.00  0.00    -0.484 OA
BRANCH  22  23
ATOM     23  C   UNL A   1      32.782  27.573  23.528  1.00  0.00     0.120 A 
ATOM     24  C   UNL A   1      35.106  23.972  24.091  1.00  0.00     0.044 C 
ATOM     25  C   UNL A   1      34.272  25.204  23.888  1.00  0.00    -0.051 A 
ATOM     26  C   UNL A   1      33.936  26.004  24.983  1.00  0.00     0.007 A 
ATOM     27  C   UNL A   1      33.826  25.581  22.616  1.00  0.00     0.007 A 
ATOM     28  C   UNL A   1      33.208  27.183  24.799  1.00  0.00     0.047 A 
ATOM     29  C   UNL A   1      33.081  26.756  22.438  1.00  0.00     0.047 A 
ENDBRANCH  22  23
ENDBRANCH  21  22
ENDBRANCH  18  21
ENDBRANCH  15  17
ENDBRANCH  13  15
ENDBRANCH   8  13
ENDBRANCH   4   7
ENDBRANCH   2   3
ENDBRANCH   1   2
BRANCH   1  30
ATOM     30  C   UNL A   1      37.756  20.931  25.301  1.00  0.00     0.002 C 
BRANCH  30  31
ATOM     31  C   UNL A   1      38.016  22.386  25.725  1.00  0.00     0.002 C 
BRANCH  31  32
ATOM     32  C   UNL A   1      39.424  22.699  26.231  1.00  0.00     0.021 C 
BRANCH  32  33
ATOM     33  C   UNL A   1      40.073  21.571  27.029  1.00  0.00     0.116 C 
BRANCH  33  34
ATOM     34  N   UNL A   1      41.009  20.750  26.265  1.00  0.00    -0.352 N 
ATOM     35  C   UNL A   1      42.360  20.958  26.011  1.00  0.00     0.251 C 
ATOM     36  H   UNL A   1      40.629  19.931  25.875  1.00  0.00     0.163 HD
ATOM     37  O   UNL A   1      42.982  20.216  25.277  1.00  0.00    -0.269 OA
BRANCH  35  38
ATOM     38  C   UNL A   1      43.065  22.048  26.732  1.00  0.00     0.039 A 
ATOM     39  C   UNL A   1      43.050  22.024  28.133  1.00  0.00     0.014 A 
ATOM     40  C   UNL A   1      43.532  23.168  26.053  1.00  0.00     0.014 A 
ATOM     41  C   UNL A   1      43.273  23.205  28.839  1.00  0.00     0.010 A 
ATOM     42  C   UNL A   1      43.638  24.359  26.739  1.00  0.00     0.010 A 
ATOM     43  C   UNL A   1      43.450  24.389  28.125  1.00  0.00    -0.014 A 
BRANCH  43  44
ATOM     44  C   UNL A   1      43.278  25.715  28.710  1.00  0.00     0.031 A 
ATOM     45  C   UNL A   1      41.994  26.439  28.608  1.00  0.00     0.074 A 
ATOM     46  C   UNL A   1      44.271  26.226  29.469  1.00  0.00     0.049 A 
ATOM     47  N   UNL A   1      41.875  27.717  28.737  1.00  0.00    -0.248 NA
ATOM     48  C   UNL A   1      40.728  25.773  28.321  1.00  0.00     0.031 C 
ATOM     49  C   UNL A   1      44.190  27.347  30.401  1.00  0.00     0.029 A 
ATOM     50  N   UNL A   1      45.633  25.954  29.378  1.00  0.00    -0.354 N 
ATOM     51  C   UNL A   1      40.535  28.001  28.858  1.00  0.00     0.074 A 
ATOM     52  C   UNL A   1      39.859  26.770  28.524  1.00  0.00     0.031 C 
ATOM     53  C   UNL A   1      45.424  27.827  30.616  1.00  0.00     0.029 A 
ATOM     54  C   UNL A   1      46.323  27.129  29.714  1.00  0.00     0.049 A 
ATOM     55  H   UNL A   1      46.038  25.094  29.125  1.00  0.00     0.167 HD
ATOM     56  C   UNL A   1      40.147  29.205  29.370  1.00  0.00     0.034 A 
ATOM     57  C   UNL A   1      47.152  27.735  28.816  1.00  0.00     0.034 A 
ATOM     58  C   UNL A   1      41.293  30.060  29.670  1.00  0.00     0.049 A 
ATOM     59  C   UNL A   1      46.716  29.133  28.443  1.00  0.00     0.074 A 
ATOM     60  C   UNL A   1      41.953  30.365  30.850  1.00  0.00     0.029 A 
ATOM     61  N   UNL A   1      42.100  30.522  28.637  1.00  0.00    -0.354 N 
ATOM     62  N   UNL A   1      45.519  29.610  28.653  1.00  0.00    -0.248 NA
ATOM     63  C   UNL A   1      47.594  30.105  27.800  1.00  0.00     0.031 C 
ATOM     64  C   UNL A   1      43.190  30.970  30.516  1.00  0.00     0.029 A 
ATOM     65  C   UNL A   1      43.271  31.059  29.137  1.00  0.00     0.049 A 
ATOM     66  H   UNL A   1      41.870  30.472  27.682  1.00  0.00     0.167 HD
ATOM     67  C   UNL A   1      45.443  30.897  28.180  1.00  0.00     0.074 A 
ATOM     68  C   UNL A   1      46.778  31.165  27.678  1.00  0.00     0.031 C 
ATOM     69  C   UNL A   1      44.280  31.618  28.245  1.00  0.00     0.034 A 
BRANCH  56  70
ATOM     70  C   UNL A   1      38.753  29.477  29.887  1.00  0.00     0.023 A 
ATOM     71  C   UNL A   1      37.946  30.427  29.226  1.00  0.00     0.031 A 
ATOM     72  C   UNL A   1      38.177  28.879  31.024  1.00  0.00     0.131 A 
ATOM     73  C   UNL A   1      36.702  30.825  29.746  1.00  0.00     0.055 A 
ATOM     74  C   UNL A   1      36.962  29.312  31.574  1.00  0.00     0.041 A 
ATOM     75  F   UNL A   1      38.747  27.825  31.625  1.00  0.00    -0.206 F 
ATOM     76  C   UNL A   1      36.223  30.301  30.942  1.00  0.00     0.022 A 
BRANCH  73  77
ATOM     77  S   UNL A   1      35.719  32.043  28.830  1.00  0.00     0.124 S 
ATOM     78  O   UNL A   1      36.687  33.108  28.594  1.00  0.00    -0.237 OA
ATOM     79  O   UNL A   1      35.297  31.282  27.659  1.00  0.00    -0.237 OA
ATOM     80  O   UNL A   1      34.645  32.382  29.763  1.00  0.00    -0.744 OA
ENDBRANCH  73  77
ENDBRANCH  56  70
BRANCH  57  81
ATOM     81  C   UNL A   1      47.846  26.768  27.920  1.00  0.00     0.023 A 
ATOM     82  C   UNL A   1      47.532  26.831  26.547  1.00  0.00     0.031 A 
ATOM     83  C   UNL A   1      49.040  26.134  28.292  1.00  0.00     0.131 A 
ATOM     84  C   UNL A   1      48.469  26.422  25.587  1.00  0.00     0.055 A 
ATOM     85  C   UNL A   1      49.945  25.668  27.329  1.00  0.00     0.041 A 
ATOM     86  F   UNL A   1      49.410  26.075  29.580  1.00  0.00    -0.206 F 
ATOM     87  C   UNL A   1      49.682  25.850  25.970  1.00  0.00     0.022 A 
BRANCH  84  88
ATOM     88  S   UNL A   1      48.179  26.899  23.856  1.00  0.00     0.124 S 
ATOM     89  O   UNL A   1      49.277  27.826  23.609  1.00  0.00    -0.237 OA
ATOM     90  O   UNL A   1      48.257  25.615  23.161  1.00  0.00    -0.237 OA
ATOM     91  O   UNL A   1      46.845  27.495  23.880  1.00  0.00    -0.744 OA
ENDBRANCH  84  88
ENDBRANCH  57  81
BRANCH  69  92
ATOM     92  C   UNL A   1      44.005  32.951  27.572  1.00  0.00     0.023 A 
ATOM     93  C   UNL A   1      43.595  34.101  28.261  1.00  0.00     0.031 A 
ATOM     94  C   UNL A   1      44.219  33.127  26.179  1.00  0.00     0.131 A 
ATOM     95  C   UNL A   1      43.334  35.309  27.586  1.00  0.00     0.055 A 
ATOM     96  C   UNL A   1      44.035  34.349  25.522  1.00  0.00     0.041 A 
ATOM     97  F   UNL A   1      44.634  32.124  25.392  1.00  0.00    -0.206 F 
ATOM     98  C   UNL A   1      43.570  35.448  26.222  1.00  0.00     0.022 A 
BRANCH  95  99
ATOM     99  S   UNL A   1      42.610  36.676  28.529  1.00  0.00     0.124 S 
ATOM    100  O   UNL A   1      42.645  37.764  27.555  1.00  0.00    -0.237 OA
ATOM    101  O   UNL A   1      41.284  36.161  28.856  1.00  0.00    -0.237 OA
ATOM    102  O   UNL A   1      43.516  36.831  29.665  1.00  0.00    -0.744 OA
ENDBRANCH  95  99
ENDBRANCH  69  92
ENDBRANCH  43  44
ENDBRANCH  35  38
ENDBRANCH  33  34
ENDBRANCH  32  33
ENDBRANCH  31  32
ENDBRANCH  30  31
ENDBRANCH   1  30
TORSDOF 22
ENDMDL
MODEL 3
REMARK VINA RESULT:     -11.5      2.746      3.346
REMARK SMILES Cc1ccc(OCC(=O)NC(=S)Nc2ccc(C(=O)NCCCCCCNC(=O)c3ccc(-c4c5nc(c(-c6cc(S(=O)(=O)[O-])ccc6F)c6ccc([nH]6)c(-c6cc(S(=O)(=O)[O-])ccc6F)c6nc(c(-c7cc(S(=O)(=O)[O-])ccc7F)c7ccc4[nH]7)C=C6)C=C5)cc3)cc2)cc1
REMARK SMILES IDX 22 1 21 2 20 3 18 4 19 5 17 7 14 8 15 9 94 10 16 11 93 12
REMARK SMILES IDX 13 13 11 15 12 16 10 17 8 18 9 19 7 21 6 22 5 23 1 24 2 25
REMARK SMILES IDX 3 26 96 27 4 28 95 29 23 30 24 31 25 32 26 33 27 34 28 35
REMARK SMILES IDX 29 37 30 38 31 39 92 40 32 41 91 42 33 43 34 44 35 45 85 46
REMARK SMILES IDX 36 47 90 48 84 49 86 50 37 51 89 52 83 53 82 54 38 56 70 57
REMARK SMILES IDX 50 58 69 59 51 60 54 61 68 62 87 63 52 64 53 65 67 67 88 68
REMARK SMILES IDX 55 69 39 70 40 71 48 72 41 73 47 74 49 75 46 76 42 77 43 78
REMARK SMILES IDX 44 79 45 80 71 81 72 82 80 83 73 84 79 85 81 86 78 87 74 88
REMARK SMILES IDX 75 89 76 90 77 91 56 92 57 93 65 94 58 95 64 96 66 97 63 98
REMARK SMILES IDX 59 99 60 100 61 101 62 102
REMARK H PARENT 20 6 13 14 10 20 27 36 86 55 54 66
REMARK Flexibility Score: inf
ROOT
ATOM      1  C   UNL A   1      35.149  21.296  25.977  1.00  0.00     0.021 C 
ENDROOT
BRANCH   1   2
ATOM      2  C   UNL A   1      33.697  20.823  26.046  1.00  0.00     0.116 C 
BRANCH   2   3
ATOM      3  N   UNL A   1      32.937  21.508  27.083  1.00  0.00    -0.352 N 
ATOM      4  C   UNL A   1      32.264  22.706  27.039  1.00  0.00     0.251 C 
ATOM      5  O   UNL A   1      31.493  23.030  27.938  1.00  0.00    -0.269 OA
ATOM      6  H   UNL A   1      32.899  21.042  27.948  1.00  0.00     0.163 HD
BRANCH   4   7
ATOM      7  C   UNL A   1      32.410  23.593  25.869  1.00  0.00     0.039 A 
ATOM      8  C   UNL A   1      32.809  25.039  23.531  1.00  0.00     0.040 A 
ATOM      9  C   UNL A   1      33.578  25.324  24.662  1.00  0.00     0.027 A 
ATOM     10  C   UNL A   1      31.744  24.138  23.611  1.00  0.00     0.027 A 
ATOM     11  C   UNL A   1      33.405  24.573  25.825  1.00  0.00     0.016 A 
ATOM     12  C   UNL A   1      31.527  23.432  24.795  1.00  0.00     0.016 A 
BRANCH   8  13
ATOM     13  N   UNL A   1      33.169  25.667  22.334  1.00  0.00    -0.332 N 
ATOM     14  H   UNL A   1      34.119  25.909  22.249  1.00  0.00     0.169 HD
BRANCH  13  15
ATOM     15  C   UNL A   1      32.392  25.986  21.278  1.00  0.00     0.177 C 
ATOM     16  S   UNL A   1      32.589  25.154  19.838  1.00  0.00    -0.040 S 
BRANCH  15  17
ATOM     17  N   UNL A   1      31.397  26.931  21.341  1.00  0.00    -0.300 N 
ATOM     18  C   UNL A   1      30.796  27.785  22.256  1.00  0.00     0.264 C 
ATOM     19  O   UNL A   1      29.972  28.593  21.805  1.00  0.00    -0.271 OA
ATOM     20  H   UNL A   1      30.976  27.035  20.456  1.00  0.00     0.172 HD
BRANCH  18  21
ATOM     21  C   UNL A   1      31.080  27.739  23.754  1.00  0.00     0.329 C 
BRANCH  21  22
ATOM     22  O   UNL A   1      30.761  28.956  24.405  1.00  0.00    -0.484 OA
BRANCH  22  23
ATOM     23  C   UNL A   1      31.612  29.416  25.373  1.00  0.00     0.120 A 
ATOM     24  C   UNL A   1      34.220  31.430  28.170  1.00  0.00     0.044 C 
ATOM     25  C   UNL A   1      33.306  30.708  27.223  1.00  0.00    -0.051 A 
ATOM     26  C   UNL A   1      32.129  31.325  26.787  1.00  0.00     0.007 A 
ATOM     27  C   UNL A   1      33.609  29.426  26.752  1.00  0.00     0.007 A 
ATOM     28  C   UNL A   1      31.300  30.686  25.861  1.00  0.00     0.047 A 
ATOM     29  C   UNL A   1      32.765  28.782  25.836  1.00  0.00     0.047 A 
ENDBRANCH  22  23
ENDBRANCH  21  22
ENDBRANCH  18  21
ENDBRANCH  15  17
ENDBRANCH  13  15
ENDBRANCH   8  13
ENDBRANCH   4   7
ENDBRANCH   2   3
ENDBRANCH   1   2
BRANCH   1  30
ATOM     30  C   UNL A   1      35.842  21.108  24.617  1.00  0.00     0.002 C 
BRANCH  30  31
ATOM     31  C   UNL A   1      37.197  21.808  24.425  1.00  0.00     0.002 C 
BRANCH  31  32
ATOM     32  C   UNL A   1      38.180  21.705  25.591  1.00  0.00     0.021 C 
BRANCH  32  33
ATOM     33  C   UNL A   1      38.711  23.046  26.090  1.00  0.00     0.116 C 
BRANCH  33  34
ATOM     34  N   UNL A   1      40.082  23.005  26.591  1.00  0.00    -0.352 N 
ATOM     35  C   UNL A   1      40.867  24.033  27.101  1.00  0.00     0.251 C 
ATOM     36  H   UNL A   1      40.513  22.121  26.565  1.00  0.00     0.163 HD
ATOM     37  O   UNL A   1      42.030  23.849  27.398  1.00  0.00    -0.269 OA
BRANCH  35  38
ATOM     38  C   UNL A   1      40.233  25.348  27.376  1.00  0.00     0.039 A 
ATOM     39  C   UNL A   1      40.599  26.434  26.570  1.00  0.00     0.014 A 
ATOM     40  C   UNL A   1      39.474  25.549  28.523  1.00  0.00     0.014 A 
ATOM     41  C   UNL A   1      40.412  27.731  27.045  1.00  0.00     0.010 A 
ATOM     42  C   UNL A   1      39.394  26.822  29.047  1.00  0.00     0.010 A 
ATOM     43  C   UNL A   1      39.915  27.907  28.335  1.00  0.00    -0.014 A 
BRANCH  43  44
ATOM     44  C   UNL A   1      40.059  29.146  29.091  1.00  0.00     0.031 A 
ATOM     45  C   UNL A   1      38.993  30.169  29.100  1.00  0.00     0.074 A 
ATOM     46  C   UNL A   1      41.131  29.296  29.900  1.00  0.00     0.049 A 
ATOM     47  N   UNL A   1      39.186  31.409  29.398  1.00  0.00    -0.248 NA
ATOM     48  C   UNL A   1      37.610  29.877  28.743  1.00  0.00     0.031 C 
ATOM     49  C   UNL A   1      41.306  30.271  30.973  1.00  0.00     0.029 A 
ATOM     50  N   UNL A   1      42.387  28.713  29.759  1.00  0.00    -0.354 N 
ATOM     51  C   UNL A   1      37.955  31.995  29.570  1.00  0.00     0.074 A 
ATOM     52  C   UNL A   1      37.006  31.020  29.085  1.00  0.00     0.031 C 
ATOM     53  C   UNL A   1      42.615  30.403  31.235  1.00  0.00     0.029 A 
ATOM     54  C   UNL A   1      43.335  29.629  30.239  1.00  0.00     0.049 A 
ATOM     55  H   UNL A   1      42.575  27.821  29.390  1.00  0.00     0.167 HD
ATOM     56  C   UNL A   1      37.860  33.179  30.240  1.00  0.00     0.034 A 
ATOM     57  C   UNL A   1      44.306  30.127  29.419  1.00  0.00     0.034 A 
ATOM     58  C   UNL A   1      39.174  33.682  30.638  1.00  0.00     0.049 A 
ATOM     59  C   UNL A   1      44.232  31.625  29.238  1.00  0.00     0.074 A 
ATOM     60  C   UNL A   1      39.863  33.659  31.840  1.00  0.00     0.029 A 
ATOM     61  N   UNL A   1      40.091  34.063  29.666  1.00  0.00    -0.354 N 
ATOM     62  N   UNL A   1      43.183  32.348  29.522  1.00  0.00    -0.248 NA
ATOM     63  C   UNL A   1      45.334  32.428  28.719  1.00  0.00     0.031 C 
ATOM     64  C   UNL A   1      41.217  33.982  31.574  1.00  0.00     0.029 A 
ATOM     65  C   UNL A   1      41.346  34.227  30.218  1.00  0.00     0.049 A 
ATOM     66  H   UNL A   1      39.876  34.196  28.714  1.00  0.00     0.167 HD
ATOM     67  C   UNL A   1      43.433  33.666  29.224  1.00  0.00     0.074 A 
ATOM     68  C   UNL A   1      44.804  33.662  28.747  1.00  0.00     0.031 C 
ATOM     69  C   UNL A   1      42.480  34.634  29.397  1.00  0.00     0.034 A 
BRANCH  56  70
ATOM     70  C   UNL A   1      36.564  33.714  30.804  1.00  0.00     0.023 A 
ATOM     71  C   UNL A   1      35.604  34.259  29.926  1.00  0.00     0.031 A 
ATOM     72  C   UNL A   1      36.228  33.754  32.170  1.00  0.00     0.131 A 
ATOM     73  C   UNL A   1      34.448  34.902  30.406  1.00  0.00     0.055 A 
ATOM     74  C   UNL A   1      35.104  34.439  32.654  1.00  0.00     0.041 A 
ATOM     75  F   UNL A   1      36.950  33.097  33.088  1.00  0.00    -0.206 F 
ATOM     76  C   UNL A   1      34.213  35.031  31.771  1.00  0.00     0.022 A 
BRANCH  73  77
ATOM     77  S   UNL A   1      33.256  35.566  29.212  1.00  0.00     0.124 S 
ATOM     78  O   UNL A   1      34.058  36.546  28.487  1.00  0.00    -0.237 OA
ATOM     79  O   UNL A   1      32.865  34.374  28.468  1.00  0.00    -0.237 OA
ATOM     80  O   UNL A   1      32.208  36.134  30.060  1.00  0.00    -0.744 OA
ENDBRANCH  73  77
ENDBRANCH  56  70
BRANCH  57  81
ATOM     81  C   UNL A   1      44.763  29.145  28.396  1.00  0.00     0.023 A 
ATOM     82  C   UNL A   1      45.629  28.121  28.835  1.00  0.00     0.031 A 
ATOM     83  C   UNL A   1      44.073  28.948  27.192  1.00  0.00     0.131 A 
ATOM     84  C   UNL A   1      45.660  26.887  28.172  1.00  0.00     0.055 A 
ATOM     85  C   UNL A   1      44.157  27.734  26.496  1.00  0.00     0.041 A 
ATOM     86  F   UNL A   1      43.207  29.869  26.742  1.00  0.00    -0.206 F 
ATOM     87  C   UNL A   1      44.918  26.681  27.008  1.00  0.00     0.022 A 
BRANCH  84  88
ATOM     88  S   UNL A   1      46.472  25.491  29.006  1.00  0.00     0.124 S 
ATOM     89  O   UNL A   1      47.811  25.529  28.429  1.00  0.00    -0.237 OA
ATOM     90  O   UNL A   1      46.373  25.868  30.415  1.00  0.00    -0.237 OA
ATOM     91  O   UNL A   1      45.656  24.340  28.628  1.00  0.00    -0.744 OA
ENDBRANCH  84  88
ENDBRANCH  57  81
BRANCH  69  92
ATOM     92  C   UNL A   1      42.553  36.070  28.908  1.00  0.00     0.023 A 
ATOM     93  C   UNL A   1      43.287  37.075  29.552  1.00  0.00     0.031 A 
ATOM     94  C   UNL A   1      41.919  36.467  27.701  1.00  0.00     0.131 A 
ATOM     95  C   UNL A   1      43.306  38.397  29.068  1.00  0.00     0.055 A 
ATOM     96  C   UNL A   1      42.003  37.763  27.179  1.00  0.00     0.041 A 
ATOM     97  F   UNL A   1      41.200  35.611  26.961  1.00  0.00    -0.206 F 
ATOM     98  C   UNL A   1      42.685  38.746  27.874  1.00  0.00     0.022 A 
BRANCH  95  99
ATOM     99  S   UNL A   1      44.108  39.667  30.082  1.00  0.00     0.124 S 
ATOM    100  O   UNL A   1      43.560  39.384  31.407  1.00  0.00    -0.237 OA
ATOM    101  O   UNL A   1      45.524  39.361  29.904  1.00  0.00    -0.237 OA
ATOM    102  O   UNL A   1      43.662  40.922  29.482  1.00  0.00    -0.744 OA
ENDBRANCH  95  99
ENDBRANCH  69  92
ENDBRANCH  43  44
ENDBRANCH  35  38
ENDBRANCH  33  34
ENDBRANCH  32  33
ENDBRANCH  31  32
ENDBRANCH  30  31
ENDBRANCH   1  30
TORSDOF 22
ENDMDL
