MODEL 1
REMARK VINA RESULT:     -10.9      0.000      0.000
REMARK SMILES CCC[C@H](C)C[NH+]1CC(n2cc(C(=O)NCCCCCCNC(=O)c3ccc(-c4c5nc(c(-c6cc(S(=O)(=O)[O-])ccc6F)c6ccc([nH]6)c(-c6cc(S(=O)(=O)[O-])ccc6F)c6nc(c(-c7cc(S(=O)(=O)[O-])ccc7F)c7ccc4[nH]7)C=C6)C=C5)cc3)nn2)C1
REMARK SMILES IDX 17 1 16 2 15 3 13 4 14 5 12 7 10 8 11 9 89 10 88 11 9 12
REMARK SMILES IDX 7 13 8 14 90 15 6 17 4 18 5 19 3 20 2 21 1 22 18 23 19 24
REMARK SMILES IDX 20 25 21 26 22 27 23 28 24 30 25 31 26 32 87 33 27 34 86 35
REMARK SMILES IDX 28 36 29 37 30 38 80 39 31 40 85 41 79 42 81 43 32 44 84 45
REMARK SMILES IDX 78 46 77 47 33 49 65 50 45 51 64 52 46 53 49 54 63 55 82 56
REMARK SMILES IDX 47 57 48 58 62 60 83 61 50 62 34 63 35 64 43 65 36 66 42 67
REMARK SMILES IDX 44 68 41 69 37 70 38 71 39 72 40 73 66 74 67 75 75 76 68 77
REMARK SMILES IDX 74 78 76 79 73 80 69 81 70 82 71 83 72 84 51 85 52 86 60 87
REMARK SMILES IDX 53 88 59 89 61 90 58 91 54 92 55 93 56 94 57 95
REMARK H PARENT 15 6 7 16 22 29 81 48 49 59
REMARK Flexibility Score: inf
ROOT
ATOM      1  C   UNL A   1      31.454  28.068  24.938  1.00  0.00     0.021 C 
ENDROOT
BRANCH   1   2
ATOM      2  C   UNL A   1      31.530  27.170  26.171  1.00  0.00     0.116 C 
BRANCH   2   3
ATOM      3  N   UNL A   1      30.268  26.503  26.408  1.00  0.00    -0.351 N 
ATOM      4  C   UNL A   1      29.946  25.172  26.526  1.00  0.00     0.273 C 
ATOM      5  O   UNL A   1      28.794  24.909  26.872  1.00  0.00    -0.267 OA
ATOM      6  H   UNL A   1      29.500  27.112  26.502  1.00  0.00     0.163 HD
BRANCH   4   7
ATOM      7  C   UNL A   1      30.939  24.127  26.299  1.00  0.00     0.170 A 
ATOM      8  N   UNL A   1      32.373  22.681  25.544  1.00  0.00    -0.237 N 
ATOM      9  C   UNL A   1      31.360  23.504  25.139  1.00  0.00     0.145 A 
ATOM     10  N   UNL A   1      32.507  22.699  26.878  1.00  0.00    -0.066 NA
ATOM     11  N   UNL A   1      31.626  23.566  27.355  1.00  0.00    -0.125 NA
BRANCH   8  12
ATOM     12  C   UNL A   1      33.172  21.898  24.655  1.00  0.00     0.218 C 
ATOM     13  N   UNL A   1      33.745  19.893  24.447  1.00  0.00    -0.331 N 
ATOM     14  C   UNL A   1      32.505  20.618  24.115  1.00  0.00     0.295 C 
ATOM     15  C   UNL A   1      34.136  20.940  25.403  1.00  0.00     0.295 C 
ATOM     16  H   UNL A   1      34.420  19.629  23.731  1.00  0.00     0.348 HD
BRANCH  13  17
ATOM     17  C   UNL A   1      33.489  18.556  24.990  1.00  0.00     0.265 C 
BRANCH  17  18
ATOM     18  C   UNL A   1      33.146  17.308  24.128  1.00  0.00     0.041 C 
ATOM     19  C   UNL A   1      33.952  17.090  22.844  1.00  0.00     0.013 C 
BRANCH  18  20
ATOM     20  C   UNL A   1      33.154  16.033  25.022  1.00  0.00     0.009 C 
BRANCH  20  21
ATOM     21  C   UNL A   1      34.441  15.194  25.075  1.00  0.00    -0.003 C 
ATOM     22  C   UNL A   1      35.679  15.918  25.577  1.00  0.00     0.004 C 
ENDBRANCH  20  21
ENDBRANCH  18  20
ENDBRANCH  17  18
ENDBRANCH  13  17
ENDBRANCH   8  12
ENDBRANCH   4   7
ENDBRANCH   2   3
ENDBRANCH   1   2
BRANCH   1  23
ATOM     23  C   UNL A   1      32.493  29.197  24.936  1.00  0.00     0.002 C 
BRANCH  23  24
ATOM     24  C   UNL A   1      32.338  30.248  26.049  1.00  0.00     0.002 C 
BRANCH  24  25
ATOM     25  C   UNL A   1      33.193  30.037  27.308  1.00  0.00     0.021 C 
BRANCH  25  26
ATOM     26  C   UNL A   1      34.577  30.656  27.214  1.00  0.00     0.116 C 
BRANCH  26  27
ATOM     27  N   UNL A   1      34.653  31.948  27.892  1.00  0.00    -0.352 N 
ATOM     28  C   UNL A   1      35.330  32.265  29.058  1.00  0.00     0.251 C 
ATOM     29  H   UNL A   1      34.161  32.687  27.466  1.00  0.00     0.163 HD
ATOM     30  O   UNL A   1      34.994  33.229  29.723  1.00  0.00    -0.269 OA
BRANCH  28  31
ATOM     31  C   UNL A   1      36.463  31.409  29.465  1.00  0.00     0.039 A 
ATOM     32  C   UNL A   1      36.277  30.078  29.845  1.00  0.00     0.014 A 
ATOM     33  C   UNL A   1      37.739  31.966  29.438  1.00  0.00     0.014 A 
ATOM     34  C   UNL A   1      37.403  29.301  30.121  1.00  0.00     0.010 A 
ATOM     35  C   UNL A   1      38.844  31.161  29.535  1.00  0.00     0.010 A 
ATOM     36  C   UNL A   1      38.688  29.845  29.941  1.00  0.00    -0.014 A 
BRANCH  36  37
ATOM     37  C   UNL A   1      39.886  29.011  30.024  1.00  0.00     0.031 A 
ATOM     38  C   UNL A   1      40.268  28.696  31.423  1.00  0.00     0.074 A 
ATOM     39  C   UNL A   1      40.471  28.413  28.961  1.00  0.00     0.049 A 
ATOM     40  N   UNL A   1      41.198  29.260  32.117  1.00  0.00    -0.248 NA
ATOM     41  C   UNL A   1      39.389  27.823  32.220  1.00  0.00     0.031 C 
ATOM     42  C   UNL A   1      40.015  28.402  27.565  1.00  0.00     0.029 A 
ATOM     43  N   UNL A   1      41.570  27.606  28.914  1.00  0.00    -0.354 N 
ATOM     44  C   UNL A   1      41.215  28.592  33.335  1.00  0.00     0.074 A 
ATOM     45  C   UNL A   1      39.946  27.923  33.430  1.00  0.00     0.031 C 
ATOM     46  C   UNL A   1      40.691  27.462  26.865  1.00  0.00     0.029 A 
ATOM     47  C   UNL A   1      41.749  26.929  27.705  1.00  0.00     0.049 A 
ATOM     48  H   UNL A   1      42.190  27.508  29.673  1.00  0.00     0.167 HD
ATOM     49  C   UNL A   1      42.390  28.403  33.998  1.00  0.00     0.034 A 
ATOM     50  C   UNL A   1      42.711  26.014  27.399  1.00  0.00     0.034 A 
ATOM     51  C   UNL A   1      43.435  29.210  33.404  1.00  0.00     0.049 A 
ATOM     52  C   UNL A   1      43.833  26.283  28.325  1.00  0.00     0.074 A 
ATOM     53  C   UNL A   1      43.696  30.556  33.269  1.00  0.00     0.029 A 
ATOM     54  N   UNL A   1      44.193  28.563  32.457  1.00  0.00    -0.354 N 
ATOM     55  N   UNL A   1      44.512  27.397  28.317  1.00  0.00    -0.248 NA
ATOM     56  C   UNL A   1      43.925  25.512  29.556  1.00  0.00     0.031 C 
ATOM     57  C   UNL A   1      44.331  30.691  31.997  1.00  0.00     0.029 A 
ATOM     58  C   UNL A   1      44.511  29.422  31.438  1.00  0.00     0.049 A 
ATOM     59  H   UNL A   1      44.469  27.618  32.505  1.00  0.00     0.167 HD
ATOM     60  C   UNL A   1      44.738  27.685  29.653  1.00  0.00     0.074 A 
ATOM     61  C   UNL A   1      44.493  26.425  30.350  1.00  0.00     0.031 C 
ATOM     62  C   UNL A   1      44.812  28.981  30.083  1.00  0.00     0.034 A 
BRANCH  49  63
ATOM     63  C   UNL A   1      42.736  27.189  34.840  1.00  0.00     0.023 A 
ATOM     64  C   UNL A   1      43.516  26.185  34.228  1.00  0.00     0.031 A 
ATOM     65  C   UNL A   1      42.116  26.824  36.056  1.00  0.00     0.131 A 
ATOM     66  C   UNL A   1      43.582  24.888  34.767  1.00  0.00     0.055 A 
ATOM     67  C   UNL A   1      42.234  25.550  36.619  1.00  0.00     0.041 A 
ATOM     68  F   UNL A   1      41.283  27.634  36.718  1.00  0.00    -0.206 F 
ATOM     69  C   UNL A   1      42.946  24.564  35.962  1.00  0.00     0.022 A 
BRANCH  66  70
ATOM     70  S   UNL A   1      44.384  23.584  33.797  1.00  0.00     0.124 S 
ATOM     71  O   UNL A   1      45.257  22.971  34.792  1.00  0.00    -0.237 OA
ATOM     72  O   UNL A   1      43.241  22.788  33.362  1.00  0.00    -0.237 OA
ATOM     73  O   UNL A   1      45.065  24.322  32.737  1.00  0.00    -0.744 OA
ENDBRANCH  66  70
ENDBRANCH  49  63
BRANCH  50  74
ATOM     74  C   UNL A   1      42.561  24.733  26.642  1.00  0.00     0.023 A 
ATOM     75  C   UNL A   1      43.520  24.261  25.712  1.00  0.00     0.031 A 
ATOM     76  C   UNL A   1      41.572  23.810  27.046  1.00  0.00     0.131 A 
ATOM     77  C   UNL A   1      43.468  22.922  25.245  1.00  0.00     0.055 A 
ATOM     78  C   UNL A   1      41.533  22.489  26.589  1.00  0.00     0.041 A 
ATOM     79  F   UNL A   1      40.659  24.135  27.974  1.00  0.00    -0.206 F 
ATOM     80  C   UNL A   1      42.488  22.035  25.696  1.00  0.00     0.022 A 
BRANCH  77  81
ATOM     81  S   UNL A   1      44.734  22.273  24.096  1.00  0.00     0.124 S 
ATOM     82  O   UNL A   1      44.936  20.916  24.590  1.00  0.00    -0.237 OA
ATOM     83  O   UNL A   1      44.080  22.405  22.800  1.00  0.00    -0.237 OA
ATOM     84  O   UNL A   1      45.873  23.173  24.299  1.00  0.00    -0.744 OA
ENDBRANCH  77  81
ENDBRANCH  50  74
BRANCH  62  85
ATOM     85  C   UNL A   1      45.116  30.053  29.054  1.00  0.00     0.023 A 
ATOM     86  C   UNL A   1      46.401  30.461  28.626  1.00  0.00     0.031 A 
ATOM     87  C   UNL A   1      44.004  30.643  28.425  1.00  0.00     0.131 A 
ATOM     88  C   UNL A   1      46.528  31.431  27.609  1.00  0.00     0.055 A 
ATOM     89  C   UNL A   1      44.134  31.581  27.404  1.00  0.00     0.041 A 
ATOM     90  F   UNL A   1      42.757  30.292  28.781  1.00  0.00    -0.206 F 
ATOM     91  C   UNL A   1      45.397  31.983  26.994  1.00  0.00     0.022 A 
BRANCH  88  92
ATOM     92  S   UNL A   1      48.168  32.030  27.078  1.00  0.00     0.124 S 
ATOM     93  O   UNL A   1      47.856  32.995  26.030  1.00  0.00    -0.237 OA
ATOM     94  O   UNL A   1      48.718  32.583  28.313  1.00  0.00    -0.237 OA
ATOM     95  O   UNL A   1      48.838  30.815  26.606  1.00  0.00    -0.744 OA
ENDBRANCH  88  92
ENDBRANCH  62  85
ENDBRANCH  36  37
ENDBRANCH  28  31
ENDBRANCH  26  27
ENDBRANCH  25  26
ENDBRANCH  24  25
ENDBRANCH  23  24
ENDBRANCH   1  23
TORSDOF 21
ENDMDL
MODEL 2
REMARK VINA RESULT:     -10.6      2.947      3.609
REMARK SMILES CCC[C@H](C)C[NH+]1CC(n2cc(C(=O)NCCCCCCNC(=O)c3ccc(-c4c5nc(c(-c6cc(S(=O)(=O)[O-])ccc6F)c6ccc([nH]6)c(-c6cc(S(=O)(=O)[O-])ccc6F)c6nc(c(-c7cc(S(=O)(=O)[O-])ccc7F)c7ccc4[nH]7)C=C6)C=C5)cc3)nn2)C1
REMARK SMILES IDX 17 1 16 2 15 3 13 4 14 5 12 7 10 8 11 9 89 10 88 11 9 12
REMARK SMILES IDX 7 13 8 14 90 15 6 17 4 18 5 19 3 20 2 21 1 22 18 23 19 24
REMARK SMILES IDX 20 25 21 26 22 27 23 28 24 30 25 31 26 32 87 33 27 34 86 35
REMARK SMILES IDX 28 36 29 37 30 38 80 39 31 40 85 41 79 42 81 43 32 44 84 45
REMARK SMILES IDX 78 46 77 47 33 49 65 50 45 51 64 52 46 53 49 54 63 55 82 56
REMARK SMILES IDX 47 57 48 58 62 60 83 61 50 62 34 63 35 64 43 65 36 66 42 67
REMARK SMILES IDX 44 68 41 69 37 70 38 71 39 72 40 73 66 74 67 75 75 76 68 77
REMARK SMILES IDX 74 78 76 79 73 80 69 81 70 82 71 83 72 84 51 85 52 86 60 87
REMARK SMILES IDX 53 88 59 89 61 90 58 91 54 92 55 93 56 94 57 95
REMARK H PARENT 15 6 7 16 22 29 81 48 49 59
REMARK Flexibility Score: inf
ROOT
ATOM      1  C   UNL A   1      33.043  30.401  27.024  1.00  0.00     0.021 C 
ENDROOT
BRANCH   1   2
ATOM      2  C   UNL A   1      32.096  29.422  26.333  1.00  0.00     0.116 C 
BRANCH   2   3
ATOM      3  N   UNL A   1      31.291  30.093  25.334  1.00  0.00    -0.351 N 
ATOM      4  C   UNL A   1      30.650  29.625  24.212  1.00  0.00     0.273 C 
ATOM      5  O   UNL A   1      29.913  30.417  23.624  1.00  0.00    -0.267 OA
ATOM      6  H   UNL A   1      31.182  31.059  25.486  1.00  0.00     0.163 HD
BRANCH   4   7
ATOM      7  C   UNL A   1      30.801  28.242  23.772  1.00  0.00     0.170 A 
ATOM      8  N   UNL A   1      31.410  26.318  22.969  1.00  0.00    -0.237 N 
ATOM      9  C   UNL A   1      31.713  27.649  22.919  1.00  0.00     0.145 A 
ATOM     10  N   UNL A   1      30.316  26.098  23.712  1.00  0.00    -0.066 NA
ATOM     11  N   UNL A   1      29.922  27.267  24.197  1.00  0.00    -0.125 NA
BRANCH   8  12
ATOM     12  C   UNL A   1      32.160  25.300  22.303  1.00  0.00     0.218 C 
ATOM     13  N   UNL A   1      33.516  23.788  22.820  1.00  0.00    -0.331 N 
ATOM     14  C   UNL A   1      32.048  23.888  22.909  1.00  0.00     0.295 C 
ATOM     15  C   UNL A   1      33.641  25.252  22.761  1.00  0.00     0.295 C 
ATOM     16  H   UNL A   1      33.973  23.243  22.088  1.00  0.00     0.348 HD
BRANCH  13  17
ATOM     17  C   UNL A   1      34.108  23.113  23.977  1.00  0.00     0.265 C 
BRANCH  17  18
ATOM     18  C   UNL A   1      35.419  22.277  23.933  1.00  0.00     0.041 C 
ATOM     19  C   UNL A   1      36.656  22.931  23.311  1.00  0.00     0.013 C 
BRANCH  18  20
ATOM     20  C   UNL A   1      35.731  21.715  25.351  1.00  0.00     0.009 C 
BRANCH  20  21
ATOM     21  C   UNL A   1      35.070  22.393  26.561  1.00  0.00    -0.003 C 
ATOM     22  C   UNL A   1      34.026  21.565  27.292  1.00  0.00     0.004 C 
ENDBRANCH  20  21
ENDBRANCH  18  20
ENDBRANCH  17  18
ENDBRANCH  13  17
ENDBRANCH   8  12
ENDBRANCH   4   7
ENDBRANCH   2   3
ENDBRANCH   1   2
BRANCH   1  23
ATOM     23  C   UNL A   1      34.317  29.742  27.570  1.00  0.00     0.002 C 
BRANCH  23  24
ATOM     24  C   UNL A   1      35.588  30.608  27.526  1.00  0.00     0.002 C 
BRANCH  24  25
ATOM     25  C   UNL A   1      35.499  31.983  28.203  1.00  0.00     0.021 C 
BRANCH  25  26
ATOM     26  C   UNL A   1      36.799  32.769  28.159  1.00  0.00     0.116 C 
BRANCH  26  27
ATOM     27  N   UNL A   1      36.939  33.674  29.297  1.00  0.00    -0.352 N 
ATOM     28  C   UNL A   1      37.379  33.378  30.577  1.00  0.00     0.251 C 
ATOM     29  H   UNL A   1      36.689  34.612  29.135  1.00  0.00     0.163 HD
ATOM     30  O   UNL A   1      37.071  34.092  31.515  1.00  0.00    -0.269 OA
BRANCH  28  31
ATOM     31  C   UNL A   1      38.228  32.185  30.767  1.00  0.00     0.039 A 
ATOM     32  C   UNL A   1      37.685  30.946  31.113  1.00  0.00     0.014 A 
ATOM     33  C   UNL A   1      39.599  32.326  30.570  1.00  0.00     0.014 A 
ATOM     34  C   UNL A   1      38.534  29.841  31.179  1.00  0.00     0.010 A 
ATOM     35  C   UNL A   1      40.398  31.217  30.461  1.00  0.00     0.010 A 
ATOM     36  C   UNL A   1      39.890  29.980  30.827  1.00  0.00    -0.014 A 
BRANCH  36  37
ATOM     37  C   UNL A   1      40.764  28.817  30.690  1.00  0.00     0.031 A 
ATOM     38  C   UNL A   1      41.332  28.370  31.986  1.00  0.00     0.074 A 
ATOM     39  C   UNL A   1      40.889  28.090  29.556  1.00  0.00     0.049 A 
ATOM     40  N   UNL A   1      42.518  28.606  32.434  1.00  0.00    -0.248 NA
ATOM     41  C   UNL A   1      40.428  27.794  32.996  1.00  0.00     0.031 C 
ATOM     42  C   UNL A   1      40.155  28.249  28.293  1.00  0.00     0.029 A 
ATOM     43  N   UNL A   1      41.651  26.986  29.311  1.00  0.00    -0.354 N 
ATOM     44  C   UNL A   1      42.600  27.940  33.650  1.00  0.00     0.074 A 
ATOM     45  C   UNL A   1      41.242  27.692  34.051  1.00  0.00     0.031 C 
ATOM     46  C   UNL A   1      40.340  27.162  27.510  1.00  0.00     0.029 A 
ATOM     47  C   UNL A   1      41.343  26.312  28.126  1.00  0.00     0.049 A 
ATOM     48  H   UNL A   1      42.363  26.685  29.921  1.00  0.00     0.167 HD
ATOM     49  C   UNL A   1      43.777  27.385  34.051  1.00  0.00     0.034 A 
ATOM     50  C   UNL A   1      41.888  25.152  27.664  1.00  0.00     0.034 A 
ATOM     51  C   UNL A   1      44.859  27.843  33.206  1.00  0.00     0.049 A 
ATOM     52  C   UNL A   1      43.215  25.043  28.310  1.00  0.00     0.074 A 
ATOM     53  C   UNL A   1      45.482  29.046  32.953  1.00  0.00     0.029 A 
ATOM     54  N   UNL A   1      45.156  27.014  32.150  1.00  0.00    -0.354 N 
ATOM     55  N   UNL A   1      44.181  25.894  28.101  1.00  0.00    -0.248 NA
ATOM     56  C   UNL A   1      43.337  24.256  29.527  1.00  0.00     0.031 C 
ATOM     57  C   UNL A   1      45.830  29.006  31.568  1.00  0.00     0.029 A 
ATOM     58  C   UNL A   1      45.487  27.755  31.046  1.00  0.00     0.049 A 
ATOM     59  H   UNL A   1      45.134  26.030  32.183  1.00  0.00     0.167 HD
ATOM     60  C   UNL A   1      44.773  26.071  29.340  1.00  0.00     0.074 A 
ATOM     61  C   UNL A   1      44.317  24.932  30.134  1.00  0.00     0.031 C 
ATOM     62  C   UNL A   1      45.332  27.271  29.681  1.00  0.00     0.034 A 
BRANCH  49  63
ATOM     63  C   UNL A   1      43.915  26.106  34.856  1.00  0.00     0.023 A 
ATOM     64  C   UNL A   1      44.503  26.212  36.134  1.00  0.00     0.031 A 
ATOM     65  C   UNL A   1      43.795  24.793  34.346  1.00  0.00     0.131 A 
ATOM     66  C   UNL A   1      45.009  25.078  36.796  1.00  0.00     0.055 A 
ATOM     67  C   UNL A   1      44.245  23.663  35.035  1.00  0.00     0.041 A 
ATOM     68  F   UNL A   1      43.332  24.531  33.119  1.00  0.00    -0.206 F 
ATOM     69  C   UNL A   1      44.882  23.802  36.255  1.00  0.00     0.022 A 
BRANCH  66  70
ATOM     70  S   UNL A   1      45.979  25.317  38.308  1.00  0.00     0.124 S 
ATOM     71  O   UNL A   1      46.599  26.614  38.060  1.00  0.00    -0.237 OA
ATOM     72  O   UNL A   1      44.945  25.281  39.337  1.00  0.00    -0.237 OA
ATOM     73  O   UNL A   1      46.893  24.178  38.306  1.00  0.00    -0.744 OA
ENDBRANCH  66  70
ENDBRANCH  49  63
BRANCH  50  74
ATOM     74  C   UNL A   1      41.191  23.996  27.020  1.00  0.00     0.023 A 
ATOM     75  C   UNL A   1      41.806  22.737  26.805  1.00  0.00     0.031 A 
ATOM     76  C   UNL A   1      39.790  24.045  26.856  1.00  0.00     0.131 A 
ATOM     77  C   UNL A   1      41.023  21.605  26.461  1.00  0.00     0.055 A 
ATOM     78  C   UNL A   1      39.023  22.924  26.526  1.00  0.00     0.041 A 
ATOM     79  F   UNL A   1      39.103  25.171  27.102  1.00  0.00    -0.206 F 
ATOM     80  C   UNL A   1      39.635  21.696  26.338  1.00  0.00     0.022 A 
BRANCH  77  81
ATOM     81  S   UNL A   1      41.787  19.958  26.244  1.00  0.00     0.124 S 
ATOM     82  O   UNL A   1      42.827  20.225  25.258  1.00  0.00    -0.237 OA
ATOM     83  O   UNL A   1      42.235  19.639  27.595  1.00  0.00    -0.237 OA
ATOM     84  O   UNL A   1      40.681  19.130  25.757  1.00  0.00    -0.744 OA
ENDBRANCH  77  81
ENDBRANCH  50  74
BRANCH  62  85
ATOM     85  C   UNL A   1      45.712  28.219  28.559  1.00  0.00     0.023 A 
ATOM     86  C   UNL A   1      44.993  29.369  28.157  1.00  0.00     0.031 A 
ATOM     87  C   UNL A   1      46.931  27.955  27.908  1.00  0.00     0.131 A 
ATOM     88  C   UNL A   1      45.503  30.195  27.133  1.00  0.00     0.055 A 
ATOM     89  C   UNL A   1      47.444  28.786  26.916  1.00  0.00     0.041 A 
ATOM     90  F   UNL A   1      47.664  26.882  28.250  1.00  0.00    -0.206 F 
ATOM     91  C   UNL A   1      46.730  29.908  26.520  1.00  0.00     0.022 A 
BRANCH  88  92
ATOM     92  S   UNL A   1      44.572  31.648  26.543  1.00  0.00     0.124 S 
ATOM     93  O   UNL A   1      44.357  32.430  27.756  1.00  0.00    -0.237 OA
ATOM     94  O   UNL A   1      45.481  32.230  25.560  1.00  0.00    -0.237 OA
ATOM     95  O   UNL A   1      43.355  31.065  25.973  1.00  0.00    -0.744 OA
ENDBRANCH  88  92
ENDBRANCH  62  85
ENDBRANCH  36  37
ENDBRANCH  28  31
ENDBRANCH  26  27
ENDBRANCH  25  26
ENDBRANCH  24  25
ENDBRANCH  23  24
ENDBRANCH   1  23
TORSDOF 21
ENDMDL
MODEL 3
REMARK VINA RESULT:     -10.3      2.363      3.150
REMARK SMILES CCC[C@H](C)C[NH+]1CC(n2cc(C(=O)NCCCCCCNC(=O)c3ccc(-c4c5nc(c(-c6cc(S(=O)(=O)[O-])ccc6F)c6ccc([nH]6)c(-c6cc(S(=O)(=O)[O-])ccc6F)c6nc(c(-c7cc(S(=O)(=O)[O-])ccc7F)c7ccc4[nH]7)C=C6)C=C5)cc3)nn2)C1
REMARK SMILES IDX 17 1 16 2 15 3 13 4 14 5 12 7 10 8 11 9 89 10 88 11 9 12
REMARK SMILES IDX 7 13 8 14 90 15 6 17 4 18 5 19 3 20 2 21 1 22 18 23 19 24
REMARK SMILES IDX 20 25 21 26 22 27 23 28 24 30 25 31 26 32 87 33 27 34 86 35
REMARK SMILES IDX 28 36 29 37 30 38 80 39 31 40 85 41 79 42 81 43 32 44 84 45
REMARK SMILES IDX 78 46 77 47 33 49 65 50 45 51 64 52 46 53 49 54 63 55 82 56
REMARK SMILES IDX 47 57 48 58 62 60 83 61 50 62 34 63 35 64 43 65 36 66 42 67
REMARK SMILES IDX 44 68 41 69 37 70 38 71 39 72 40 73 66 74 67 75 75 76 68 77
REMARK SMILES IDX 74 78 76 79 73 80 69 81 70 82 71 83 72 84 51 85 52 86 60 87
REMARK SMILES IDX 53 88 59 89 61 90 58 91 54 92 55 93 56 94 57 95
REMARK H PARENT 15 6 7 16 22 29 81 48 49 59
REMARK Flexibility Score: inf
ROOT
ATOM      1  C   UNL A   1      32.229  29.517  26.944  1.00  0.00     0.021 C 
ENDROOT
BRANCH   1   2
ATOM      2  C   UNL A   1      31.536  30.059  25.694  1.00  0.00     0.116 C 
BRANCH   2   3
ATOM      3  N   UNL A   1      32.218  29.627  24.492  1.00  0.00    -0.351 N 
ATOM      4  C   UNL A   1      32.293  28.401  23.875  1.00  0.00     0.273 C 
ATOM      5  O   UNL A   1      32.840  28.369  22.772  1.00  0.00    -0.267 OA
ATOM      6  H   UNL A   1      32.719  30.340  24.034  1.00  0.00     0.163 HD
BRANCH   4   7
ATOM      7  C   UNL A   1      31.708  27.210  24.479  1.00  0.00     0.170 A 
ATOM      8  N   UNL A   1      31.222  25.397  25.573  1.00  0.00    -0.237 N 
ATOM      9  C   UNL A   1      32.281  26.167  25.183  1.00  0.00     0.145 A 
ATOM     10  N   UNL A   1      30.073  25.858  25.059  1.00  0.00    -0.066 NA
ATOM     11  N   UNL A   1      30.356  26.956  24.374  1.00  0.00    -0.125 NA
BRANCH   8  12
ATOM     12  C   UNL A   1      31.335  24.245  26.411  1.00  0.00     0.218 C 
ATOM     13  N   UNL A   1      31.773  22.207  26.190  1.00  0.00    -0.331 N 
ATOM     14  C   UNL A   1      32.619  23.413  26.227  1.00  0.00     0.295 C 
ATOM     15  C   UNL A   1      30.594  23.010  25.835  1.00  0.00     0.295 C 
ATOM     16  H   UNL A   1      31.696  21.581  26.992  1.00  0.00     0.348 HD
BRANCH  13  17
ATOM     17  C   UNL A   1      32.232  21.224  25.206  1.00  0.00     0.265 C 
BRANCH  17  18
ATOM     18  C   UNL A   1      33.519  20.362  25.358  1.00  0.00     0.041 C 
ATOM     19  C   UNL A   1      33.565  19.022  24.618  1.00  0.00     0.013 C 
BRANCH  18  20
ATOM     20  C   UNL A   1      34.772  21.227  25.036  1.00  0.00     0.009 C 
BRANCH  20  21
ATOM     21  C   UNL A   1      36.157  20.573  25.168  1.00  0.00    -0.003 C 
ATOM     22  C   UNL A   1      37.302  21.314  24.497  1.00  0.00     0.004 C 
ENDBRANCH  20  21
ENDBRANCH  18  20
ENDBRANCH  17  18
ENDBRANCH  13  17
ENDBRANCH   8  12
ENDBRANCH   4   7
ENDBRANCH   2   3
ENDBRANCH   1   2
BRANCH   1  23
ATOM     23  C   UNL A   1      33.745  29.755  26.957  1.00  0.00     0.002 C 
BRANCH  23  24
ATOM     24  C   UNL A   1      34.197  31.160  27.393  1.00  0.00     0.002 C 
BRANCH  24  25
ATOM     25  C   UNL A   1      35.364  31.220  28.389  1.00  0.00     0.021 C 
BRANCH  25  26
ATOM     26  C   UNL A   1      36.177  32.501  28.297  1.00  0.00     0.116 C 
BRANCH  26  27
ATOM     27  N   UNL A   1      36.299  33.173  29.588  1.00  0.00    -0.352 N 
ATOM     28  C   UNL A   1      37.011  32.762  30.703  1.00  0.00     0.251 C 
ATOM     29  H   UNL A   1      35.815  34.026  29.678  1.00  0.00     0.163 HD
ATOM     30  O   UNL A   1      36.714  33.175  31.811  1.00  0.00    -0.269 OA
BRANCH  28  31
ATOM     31  C   UNL A   1      38.132  31.820  30.511  1.00  0.00     0.039 A 
ATOM     32  C   UNL A   1      39.432  32.267  30.267  1.00  0.00     0.014 A 
ATOM     33  C   UNL A   1      37.857  30.458  30.602  1.00  0.00     0.014 A 
ATOM     34  C   UNL A   1      40.458  31.324  30.195  1.00  0.00     0.010 A 
ATOM     35  C   UNL A   1      38.881  29.554  30.708  1.00  0.00     0.010 A 
ATOM     36  C   UNL A   1      40.178  29.967  30.441  1.00  0.00    -0.014 A 
BRANCH  36  37
ATOM     37  C   UNL A   1      41.248  28.980  30.572  1.00  0.00     0.031 A 
ATOM     38  C   UNL A   1      41.530  28.626  31.986  1.00  0.00     0.074 A 
ATOM     39  C   UNL A   1      41.787  28.301  29.534  1.00  0.00     0.049 A 
ATOM     40  N   UNL A   1      42.500  29.064  32.714  1.00  0.00    -0.248 NA
ATOM     41  C   UNL A   1      40.511  27.886  32.749  1.00  0.00     0.031 C 
ATOM     42  C   UNL A   1      41.388  28.342  28.121  1.00  0.00     0.029 A 
ATOM     43  N   UNL A   1      42.768  27.353  29.532  1.00  0.00    -0.354 N 
ATOM     44  C   UNL A   1      42.380  28.409  33.933  1.00  0.00     0.074 A 
ATOM     45  C   UNL A   1      41.030  27.918  33.980  1.00  0.00     0.031 C 
ATOM     46  C   UNL A   1      41.957  27.314  27.449  1.00  0.00     0.029 A 
ATOM     47  C   UNL A   1      42.900  26.649  28.332  1.00  0.00     0.049 A 
ATOM     48  H   UNL A   1      43.339  27.177  30.314  1.00  0.00     0.167 HD
ATOM     49  C   UNL A   1      43.492  28.068  34.642  1.00  0.00     0.034 A 
ATOM     50  C   UNL A   1      43.740  25.610  28.065  1.00  0.00     0.034 A 
ATOM     51  C   UNL A   1      44.658  28.721  34.087  1.00  0.00     0.049 A 
ATOM     52  C   UNL A   1      44.852  25.731  29.034  1.00  0.00     0.074 A 
ATOM     53  C   UNL A   1      45.104  30.019  33.960  1.00  0.00     0.029 A 
ATOM     54  N   UNL A   1      45.358  27.971  33.172  1.00  0.00    -0.354 N 
ATOM     55  N   UNL A   1      45.676  26.744  29.050  1.00  0.00    -0.248 NA
ATOM     56  C   UNL A   1      44.791  24.965  30.268  1.00  0.00     0.031 C 
ATOM     57  C   UNL A   1      45.800  30.058  32.714  1.00  0.00     0.029 A 
ATOM     58  C   UNL A   1      45.828  28.773  32.165  1.00  0.00     0.049 A 
ATOM     59  H   UNL A   1      45.501  26.999  33.232  1.00  0.00     0.167 HD
ATOM     60  C   UNL A   1      45.887  27.008  30.393  1.00  0.00     0.074 A 
ATOM     61  C   UNL A   1      45.447  25.797  31.082  1.00  0.00     0.031 C 
ATOM     62  C   UNL A   1      46.119  28.285  30.823  1.00  0.00     0.034 A 
BRANCH  49  63
ATOM     63  C   UNL A   1      43.639  26.824  35.499  1.00  0.00     0.023 A 
ATOM     64  C   UNL A   1      44.005  27.014  36.848  1.00  0.00     0.031 A 
ATOM     65  C   UNL A   1      43.741  25.499  35.019  1.00  0.00     0.131 A 
ATOM     66  C   UNL A   1      44.520  25.954  37.616  1.00  0.00     0.055 A 
ATOM     67  C   UNL A   1      44.197  24.436  35.806  1.00  0.00     0.041 A 
ATOM     68  F   UNL A   1      43.507  25.168  33.745  1.00  0.00    -0.206 F 
ATOM     69  C   UNL A   1      44.617  24.664  37.103  1.00  0.00     0.022 A 
BRANCH  66  70
ATOM     70  S   UNL A   1      45.211  26.322  39.250  1.00  0.00     0.124 S 
ATOM     71  O   UNL A   1      46.170  27.376  38.936  1.00  0.00    -0.237 OA
ATOM     72  O   UNL A   1      44.024  26.729  39.994  1.00  0.00    -0.237 OA
ATOM     73  O   UNL A   1      45.796  25.049  39.664  1.00  0.00    -0.744 OA
ENDBRANCH  66  70
ENDBRANCH  49  63
BRANCH  50  74
ATOM     74  C   UNL A   1      43.447  24.356  27.305  1.00  0.00     0.023 A 
ATOM     75  C   UNL A   1      44.270  23.869  26.259  1.00  0.00     0.031 A 
ATOM     76  C   UNL A   1      42.473  23.464  27.804  1.00  0.00     0.131 A 
ATOM     77  C   UNL A   1      44.106  22.545  25.775  1.00  0.00     0.055 A 
ATOM     78  C   UNL A   1      42.324  22.158  27.328  1.00  0.00     0.041 A 
ATOM     79  F   UNL A   1      41.689  23.803  28.839  1.00  0.00    -0.206 F 
ATOM     80  C   UNL A   1      43.148  21.688  26.319  1.00  0.00     0.022 A 
BRANCH  77  81
ATOM     81  S   UNL A   1      45.201  21.874  24.472  1.00  0.00     0.124 S 
ATOM     82  O   UNL A   1      46.360  21.433  25.237  1.00  0.00    -0.237 OA
ATOM     83  O   UNL A   1      44.376  20.830  23.876  1.00  0.00    -0.237 OA
ATOM     84  O   UNL A   1      45.445  23.028  23.603  1.00  0.00    -0.744 OA
ENDBRANCH  77  81
ENDBRANCH  50  74
BRANCH  62  85
ATOM     85  C   UNL A   1      46.604  29.299  29.804  1.00  0.00     0.023 A 
ATOM     86  C   UNL A   1      45.790  30.080  28.951  1.00  0.00     0.031 A 
ATOM     87  C   UNL A   1      47.992  29.520  29.759  1.00  0.00     0.131 A 
ATOM     88  C   UNL A   1      46.382  31.033  28.093  1.00  0.00     0.055 A 
ATOM     89  C   UNL A   1      48.570  30.479  28.932  1.00  0.00     0.041 A 
ATOM     90  F   UNL A   1      48.818  28.815  30.552  1.00  0.00    -0.206 F 
ATOM     91  C   UNL A   1      47.768  31.236  28.091  1.00  0.00     0.022 A 
BRANCH  88  92
ATOM     92  S   UNL A   1      45.371  32.011  26.932  1.00  0.00     0.124 S 
ATOM     93  O   UNL A   1      45.828  33.379  27.152  1.00  0.00    -0.237 OA
ATOM     94  O   UNL A   1      45.714  31.422  25.640  1.00  0.00    -0.237 OA
ATOM     95  O   UNL A   1      43.998  31.751  27.372  1.00  0.00    -0.744 OA
ENDBRANCH  88  92
ENDBRANCH  62  85
ENDBRANCH  36  37
ENDBRANCH  28  31
ENDBRANCH  26  27
ENDBRANCH  25  26
ENDBRANCH  24  25
ENDBRANCH  23  24
ENDBRANCH   1  23
TORSDOF 21
ENDMDL
