MODEL 1
REMARK VINA RESULT:     -12.8      0.000      0.000
REMARK SMILES Cc1noc(-c2cc(=O)n(CC(=O)NCCCCCCNC(=O)c3ccc(-c4c5nc(c(-c6cc(S(=O)(=O)[O-])ccc6F)c6ccc([nH]6)c(-c6cc(S(=O)(=O)[O-])ccc6F)c6nc(c(-c7cc(S(=O)(=O)[O-])ccc7F)c7ccc4[nH]7)C=C6)C=C5)cc3)c3ccccc23)n1
REMARK SMILES IDX 18 1 17 2 16 3 15 4 14 5 12 6 13 7 11 9 10 10 6 11 7 12
REMARK SMILES IDX 92 13 8 14 87 15 91 16 9 17 88 18 90 19 89 20 5 21 1 22 2 23
REMARK SMILES IDX 3 24 93 25 4 26 19 27 20 28 21 29 22 30 23 32 24 33 25 34
REMARK SMILES IDX 86 35 26 36 85 37 27 38 28 39 29 40 79 41 30 42 84 43 78 44
REMARK SMILES IDX 80 45 31 46 83 47 77 48 76 49 32 51 64 52 44 53 63 54 45 55
REMARK SMILES IDX 48 56 62 57 81 58 46 59 47 60 61 62 82 63 49 64 33 65 34 66
REMARK SMILES IDX 42 67 35 68 41 69 43 70 40 71 36 72 37 73 38 74 39 75 65 76
REMARK SMILES IDX 66 77 74 78 67 79 73 80 75 81 72 82 68 83 69 84 70 85 71 86
REMARK SMILES IDX 50 87 51 88 59 89 52 90 58 91 60 92 57 93 53 94 54 95 55 96
REMARK SMILES IDX 56 97
REMARK H PARENT 14 8 21 31 80 50 48 61
REMARK Flexibility Score: inf
ROOT
ATOM      1  C   UNL A   1      32.318  29.656  25.470  1.00  0.00     0.002 C 
ENDROOT
BRANCH   1   2
ATOM      2  C   UNL A   1      31.211  28.777  24.879  1.00  0.00     0.002 C 
BRANCH   2   3
ATOM      3  C   UNL A   1      31.003  28.887  23.360  1.00  0.00     0.021 C 
BRANCH   3   4
ATOM      4  C   UNL A   1      30.791  27.552  22.647  1.00  0.00     0.116 C 
BRANCH   4   5
ATOM      5  N   UNL A   1      32.001  27.093  21.997  1.00  0.00    -0.355 N 
ATOM      6  C   UNL A   1      32.986  26.278  22.460  1.00  0.00     0.240 C 
ATOM      7  O   UNL A   1      33.876  25.951  21.665  1.00  0.00    -0.273 OA
ATOM      8  H   UNL A   1      32.129  27.421  21.077  1.00  0.00     0.163 HD
BRANCH   6   9
ATOM      9  C   UNL A   1      32.948  25.672  23.870  1.00  0.00     0.225 C 
BRANCH   9  10
ATOM     10  N   UNL A   1      33.024  24.211  23.975  1.00  0.00    -0.299 N 
ATOM     11  C   UNL A   1      33.026  21.368  24.219  1.00  0.00     0.055 A 
ATOM     12  C   UNL A   1      31.992  22.016  23.664  1.00  0.00     0.086 A 
ATOM     13  C   UNL A   1      34.206  22.166  24.630  1.00  0.00     0.011 A 
ATOM     14  C   UNL A   1      31.954  23.479  23.491  1.00  0.00     0.252 A 
ATOM     15  C   UNL A   1      34.191  23.571  24.493  1.00  0.00     0.053 A 
ATOM     16  C   UNL A   1      35.362  21.542  25.132  1.00  0.00     0.011 A 
ATOM     17  O   UNL A   1      30.962  23.971  22.956  1.00  0.00    -0.269 OA
ATOM     18  C   UNL A   1      35.338  24.300  24.855  1.00  0.00     0.027 A 
ATOM     19  C   UNL A   1      36.484  22.282  25.498  1.00  0.00     0.001 A 
ATOM     20  C   UNL A   1      36.472  23.662  25.357  1.00  0.00     0.002 A 
BRANCH  11  21
ATOM     21  C   UNL A   1      32.868  19.949  24.376  1.00  0.00     0.258 A 
ATOM     22  C   UNL A   1      33.414  16.513  23.721  1.00  0.00     0.093 C 
ATOM     23  C   UNL A   1      32.993  17.840  24.208  1.00  0.00     0.169 A 
ATOM     24  N   UNL A   1      32.183  18.002  25.255  1.00  0.00    -0.062 NA
ATOM     25  N   UNL A   1      33.414  19.003  23.625  1.00  0.00    -0.192 NA
ATOM     26  O   UNL A   1      32.103  19.384  25.383  1.00  0.00    -0.334 OA
ENDBRANCH  11  21
ENDBRANCH   9  10
ENDBRANCH   6   9
ENDBRANCH   4   5
ENDBRANCH   3   4
ENDBRANCH   2   3
ENDBRANCH   1   2
BRANCH   1  27
ATOM     27  C   UNL A   1      31.853  30.735  26.447  1.00  0.00     0.021 C 
BRANCH  27  28
ATOM     28  C   UNL A   1      32.973  31.545  27.091  1.00  0.00     0.116 C 
BRANCH  28  29
ATOM     29  N   UNL A   1      32.604  32.935  27.316  1.00  0.00    -0.352 N 
ATOM     30  C   UNL A   1      33.168  33.843  28.184  1.00  0.00     0.251 C 
ATOM     31  H   UNL A   1      31.852  33.271  26.775  1.00  0.00     0.163 HD
ATOM     32  O   UNL A   1      32.650  34.942  28.357  1.00  0.00    -0.269 OA
BRANCH  30  33
ATOM     33  C   UNL A   1      34.381  33.457  28.937  1.00  0.00     0.039 A 
ATOM     34  C   UNL A   1      35.648  33.687  28.394  1.00  0.00     0.014 A 
ATOM     35  C   UNL A   1      34.245  32.792  30.158  1.00  0.00     0.014 A 
ATOM     36  C   UNL A   1      36.763  33.100  28.983  1.00  0.00     0.010 A 
ATOM     37  C   UNL A   1      35.377  32.268  30.788  1.00  0.00     0.010 A 
ATOM     38  C   UNL A   1      36.638  32.370  30.177  1.00  0.00    -0.014 A 
BRANCH  38  39
ATOM     39  C   UNL A   1      37.833  31.707  30.762  1.00  0.00     0.031 A 
ATOM     40  C   UNL A   1      38.289  32.040  32.159  1.00  0.00     0.074 A 
ATOM     41  C   UNL A   1      38.480  30.767  30.049  1.00  0.00     0.049 A 
ATOM     42  N   UNL A   1      39.305  31.560  32.829  1.00  0.00    -0.248 NA
ATOM     43  C   UNL A   1      37.504  33.040  32.901  1.00  0.00     0.031 C 
ATOM     44  C   UNL A   1      38.113  30.351  28.695  1.00  0.00     0.029 A 
ATOM     45  N   UNL A   1      39.562  29.981  30.358  1.00  0.00    -0.354 N 
ATOM     46  C   UNL A   1      39.294  32.208  34.059  1.00  0.00     0.074 A 
ATOM     47  C   UNL A   1      38.186  33.138  34.034  1.00  0.00     0.031 C 
ATOM     48  C   UNL A   1      38.924  29.356  28.308  1.00  0.00     0.029 A 
ATOM     49  C   UNL A   1      39.915  29.111  29.353  1.00  0.00     0.049 A 
ATOM     50  H   UNL A   1      40.040  30.034  31.217  1.00  0.00     0.167 HD
ATOM     51  C   UNL A   1      40.124  32.032  35.115  1.00  0.00     0.034 A 
ATOM     52  C   UNL A   1      40.930  28.225  29.269  1.00  0.00     0.034 A 
ATOM     53  C   UNL A   1      41.210  31.086  35.133  1.00  0.00     0.049 A 
ATOM     54  C   UNL A   1      41.861  28.073  30.443  1.00  0.00     0.074 A 
ATOM     55  C   UNL A   1      42.096  30.822  36.163  1.00  0.00     0.029 A 
ATOM     56  N   UNL A   1      41.557  30.245  34.084  1.00  0.00    -0.354 N 
ATOM     57  N   UNL A   1      41.819  28.676  31.608  1.00  0.00    -0.248 NA
ATOM     58  C   UNL A   1      42.976  27.128  30.298  1.00  0.00     0.031 C 
ATOM     59  C   UNL A   1      43.007  29.862  35.720  1.00  0.00     0.029 A 
ATOM     60  C   UNL A   1      42.655  29.478  34.436  1.00  0.00     0.049 A 
ATOM     61  H   UNL A   1      41.090  30.201  33.218  1.00  0.00     0.167 HD
ATOM     62  C   UNL A   1      42.889  28.171  32.341  1.00  0.00     0.074 A 
ATOM     63  C   UNL A   1      43.545  27.195  31.496  1.00  0.00     0.031 C 
ATOM     64  C   UNL A   1      43.292  28.493  33.596  1.00  0.00     0.034 A 
BRANCH  51  65
ATOM     65  C   UNL A   1      39.903  32.859  36.357  1.00  0.00     0.023 A 
ATOM     66  C   UNL A   1      39.020  32.409  37.356  1.00  0.00     0.031 A 
ATOM     67  C   UNL A   1      40.459  34.144  36.488  1.00  0.00     0.131 A 
ATOM     68  C   UNL A   1      38.693  33.250  38.427  1.00  0.00     0.055 A 
ATOM     69  C   UNL A   1      40.156  34.965  37.576  1.00  0.00     0.041 A 
ATOM     70  F   UNL A   1      41.308  34.617  35.563  1.00  0.00    -0.206 F 
ATOM     71  C   UNL A   1      39.260  34.523  38.545  1.00  0.00     0.022 A 
BRANCH  68  72
ATOM     72  S   UNL A   1      37.476  32.751  39.677  1.00  0.00     0.124 S 
ATOM     73  O   UNL A   1      36.270  32.582  38.866  1.00  0.00    -0.237 OA
ATOM     74  O   UNL A   1      38.057  31.516  40.194  1.00  0.00    -0.237 OA
ATOM     75  O   UNL A   1      37.446  33.874  40.607  1.00  0.00    -0.744 OA
ENDBRANCH  68  72
ENDBRANCH  51  65
BRANCH  52  76
ATOM     76  C   UNL A   1      41.068  27.399  28.034  1.00  0.00     0.023 A 
ATOM     77  C   UNL A   1      40.756  26.027  28.046  1.00  0.00     0.031 A 
ATOM     78  C   UNL A   1      41.633  27.940  26.867  1.00  0.00     0.131 A 
ATOM     79  C   UNL A   1      41.089  25.227  26.945  1.00  0.00     0.055 A 
ATOM     80  C   UNL A   1      41.893  27.153  25.744  1.00  0.00     0.041 A 
ATOM     81  F   UNL A   1      41.957  29.240  26.812  1.00  0.00    -0.206 F 
ATOM     82  C   UNL A   1      41.640  25.785  25.788  1.00  0.00     0.022 A 
BRANCH  79  83
ATOM     83  S   UNL A   1      40.963  23.419  27.040  1.00  0.00     0.124 S 
ATOM     84  O   UNL A   1      39.520  23.211  26.971  1.00  0.00    -0.237 OA
ATOM     85  O   UNL A   1      41.718  23.005  25.861  1.00  0.00    -0.237 OA
ATOM     86  O   UNL A   1      41.588  23.097  28.319  1.00  0.00    -0.744 OA
ENDBRANCH  79  83
ENDBRANCH  52  76
BRANCH  64  87
ATOM     87  C   UNL A   1      44.499  27.794  34.168  1.00  0.00     0.023 A 
ATOM     88  C   UNL A   1      44.342  26.587  34.876  1.00  0.00     0.031 A 
ATOM     89  C   UNL A   1      45.766  28.400  34.156  1.00  0.00     0.131 A 
ATOM     90  C   UNL A   1      45.425  26.048  35.581  1.00  0.00     0.055 A 
ATOM     91  C   UNL A   1      46.853  27.836  34.825  1.00  0.00     0.041 A 
ATOM     92  F   UNL A   1      45.961  29.557  33.503  1.00  0.00    -0.206 F 
ATOM     93  C   UNL A   1      46.681  26.662  35.554  1.00  0.00     0.022 A 
BRANCH  90  94
ATOM     94  S   UNL A   1      45.224  24.579  36.627  1.00  0.00     0.124 S 
ATOM     95  O   UNL A   1      45.107  25.170  37.958  1.00  0.00    -0.237 OA
ATOM     96  O   UNL A   1      43.997  23.989  36.096  1.00  0.00    -0.237 OA
ATOM     97  O   UNL A   1      46.442  23.810  36.393  1.00  0.00    -0.744 OA
ENDBRANCH  90  94
ENDBRANCH  64  87
ENDBRANCH  38  39
ENDBRANCH  30  33
ENDBRANCH  28  29
ENDBRANCH  27  28
ENDBRANCH   1  27
TORSDOF 18
ENDMDL
MODEL 2
REMARK VINA RESULT:     -12.8      5.156     10.816
REMARK SMILES Cc1noc(-c2cc(=O)n(CC(=O)NCCCCCCNC(=O)c3ccc(-c4c5nc(c(-c6cc(S(=O)(=O)[O-])ccc6F)c6ccc([nH]6)c(-c6cc(S(=O)(=O)[O-])ccc6F)c6nc(c(-c7cc(S(=O)(=O)[O-])ccc7F)c7ccc4[nH]7)C=C6)C=C5)cc3)c3ccccc23)n1
REMARK SMILES IDX 18 1 17 2 16 3 15 4 14 5 12 6 13 7 11 9 10 10 6 11 7 12
REMARK SMILES IDX 92 13 8 14 87 15 91 16 9 17 88 18 90 19 89 20 5 21 1 22 2 23
REMARK SMILES IDX 3 24 93 25 4 26 19 27 20 28 21 29 22 30 23 32 24 33 25 34
REMARK SMILES IDX 86 35 26 36 85 37 27 38 28 39 29 40 79 41 30 42 84 43 78 44
REMARK SMILES IDX 80 45 31 46 83 47 77 48 76 49 32 51 64 52 44 53 63 54 45 55
REMARK SMILES IDX 48 56 62 57 81 58 46 59 47 60 61 62 82 63 49 64 33 65 34 66
REMARK SMILES IDX 42 67 35 68 41 69 43 70 40 71 36 72 37 73 38 74 39 75 65 76
REMARK SMILES IDX 66 77 74 78 67 79 73 80 75 81 72 82 68 83 69 84 70 85 71 86
REMARK SMILES IDX 50 87 51 88 59 89 52 90 58 91 60 92 57 93 53 94 54 95 55 96
REMARK SMILES IDX 56 97
REMARK H PARENT 14 8 21 31 80 50 48 61
REMARK Flexibility Score: inf
ROOT
ATOM      1  C   UNL A   1      35.042  21.527  24.931  1.00  0.00     0.002 C 
ENDROOT
BRANCH   1   2
ATOM      2  C   UNL A   1      34.059  20.860  25.899  1.00  0.00     0.002 C 
BRANCH   2   3
ATOM      3  C   UNL A   1      32.720  20.410  25.294  1.00  0.00     0.021 C 
BRANCH   3   4
ATOM      4  C   UNL A   1      31.783  21.552  24.902  1.00  0.00     0.116 C 
BRANCH   4   5
ATOM      5  N   UNL A   1      31.423  22.369  26.042  1.00  0.00    -0.355 N 
ATOM      6  C   UNL A   1      31.662  23.686  26.283  1.00  0.00     0.240 C 
ATOM      7  O   UNL A   1      31.159  24.180  27.299  1.00  0.00    -0.273 OA
ATOM      8  H   UNL A   1      30.930  21.898  26.752  1.00  0.00     0.163 HD
BRANCH   6   9
ATOM      9  C   UNL A   1      32.414  24.574  25.282  1.00  0.00     0.225 C 
BRANCH   9  10
ATOM     10  N   UNL A   1      31.750  25.809  24.849  1.00  0.00    -0.299 N 
ATOM     11  C   UNL A   1      30.455  28.155  23.867  1.00  0.00     0.055 A 
ATOM     12  C   UNL A   1      30.087  26.933  23.453  1.00  0.00     0.086 A 
ATOM     13  C   UNL A   1      31.501  28.246  24.913  1.00  0.00     0.011 A 
ATOM     14  C   UNL A   1      30.707  25.691  23.948  1.00  0.00     0.252 A 
ATOM     15  C   UNL A   1      32.125  27.075  25.395  1.00  0.00     0.053 A 
ATOM     16  C   UNL A   1      31.868  29.489  25.461  1.00  0.00     0.011 A 
ATOM     17  O   UNL A   1      30.284  24.623  23.512  1.00  0.00    -0.269 OA
ATOM     18  C   UNL A   1      33.087  27.188  26.414  1.00  0.00     0.027 A 
ATOM     19  C   UNL A   1      32.833  29.583  26.462  1.00  0.00     0.001 A 
ATOM     20  C   UNL A   1      33.441  28.431  26.940  1.00  0.00     0.002 A 
BRANCH  11  21
ATOM     21  C   UNL A   1      29.797  29.260  23.228  1.00  0.00     0.258 A 
ATOM     22  C   UNL A   1      28.043  30.984  20.683  1.00  0.00     0.093 C 
ATOM     23  C   UNL A   1      28.757  30.534  21.892  1.00  0.00     0.169 A 
ATOM     24  N   UNL A   1      28.904  31.302  22.973  1.00  0.00    -0.062 NA
ATOM     25  N   UNL A   1      29.309  29.288  21.997  1.00  0.00    -0.192 NA
ATOM     26  O   UNL A   1      29.576  30.471  23.863  1.00  0.00    -0.334 OA
ENDBRANCH  11  21
ENDBRANCH   9  10
ENDBRANCH   6   9
ENDBRANCH   4   5
ENDBRANCH   3   4
ENDBRANCH   2   3
ENDBRANCH   1   2
BRANCH   1  27
ATOM     27  C   UNL A   1      36.347  20.770  24.690  1.00  0.00     0.021 C 
BRANCH  27  28
ATOM     28  C   UNL A   1      37.578  21.389  25.343  1.00  0.00     0.116 C 
BRANCH  28  29
ATOM     29  N   UNL A   1      38.608  20.405  25.648  1.00  0.00    -0.352 N 
ATOM     30  C   UNL A   1      39.827  20.599  26.260  1.00  0.00     0.251 C 
ATOM     31  H   UNL A   1      38.405  19.478  25.382  1.00  0.00     0.163 HD
ATOM     32  O   UNL A   1      40.644  19.686  26.319  1.00  0.00    -0.269 OA
BRANCH  30  33
ATOM     33  C   UNL A   1      40.150  21.935  26.804  1.00  0.00     0.039 A 
ATOM     34  C   UNL A   1      39.571  23.079  26.249  1.00  0.00     0.014 A 
ATOM     35  C   UNL A   1      41.097  22.045  27.825  1.00  0.00     0.014 A 
ATOM     36  C   UNL A   1      40.065  24.333  26.592  1.00  0.00     0.010 A 
ATOM     37  C   UNL A   1      41.537  23.311  28.223  1.00  0.00     0.010 A 
ATOM     38  C   UNL A   1      41.066  24.462  27.571  1.00  0.00    -0.014 A 
BRANCH  38  39
ATOM     39  C   UNL A   1      41.617  25.806  27.886  1.00  0.00     0.031 A 
ATOM     40  C   UNL A   1      42.992  26.202  27.414  1.00  0.00     0.074 A 
ATOM     41  C   UNL A   1      40.856  26.689  28.560  1.00  0.00     0.049 A 
ATOM     42  N   UNL A   1      43.630  27.330  27.595  1.00  0.00    -0.248 NA
ATOM     43  C   UNL A   1      43.748  25.206  26.638  1.00  0.00     0.031 C 
ATOM     44  C   UNL A   1      39.503  26.419  29.046  1.00  0.00     0.029 A 
ATOM     45  N   UNL A   1      41.094  27.987  28.937  1.00  0.00    -0.354 N 
ATOM     46  C   UNL A   1      44.865  27.175  26.975  1.00  0.00     0.074 A 
ATOM     47  C   UNL A   1      44.899  25.834  26.436  1.00  0.00     0.031 C 
ATOM     48  C   UNL A   1      39.014  27.529  29.616  1.00  0.00     0.029 A 
ATOM     49  C   UNL A   1      40.039  28.568  29.602  1.00  0.00     0.049 A 
ATOM     50  H   UNL A   1      41.938  28.457  28.749  1.00  0.00     0.167 HD
ATOM     51  C   UNL A   1      45.870  28.076  26.855  1.00  0.00     0.034 A 
ATOM     52  C   UNL A   1      39.913  29.793  30.155  1.00  0.00     0.034 A 
ATOM     53  C   UNL A   1      45.812  29.417  27.379  1.00  0.00     0.049 A 
ATOM     54  C   UNL A   1      41.058  30.764  30.040  1.00  0.00     0.074 A 
ATOM     55  C   UNL A   1      46.773  30.409  27.293  1.00  0.00     0.029 A 
ATOM     56  N   UNL A   1      44.740  29.959  28.075  1.00  0.00    -0.354 N 
ATOM     57  N   UNL A   1      42.209  30.609  29.427  1.00  0.00    -0.248 NA
ATOM     58  C   UNL A   1      40.898  32.072  30.688  1.00  0.00     0.031 C 
ATOM     59  C   UNL A   1      46.305  31.531  27.980  1.00  0.00     0.029 A 
ATOM     60  C   UNL A   1      45.026  31.263  28.442  1.00  0.00     0.049 A 
ATOM     61  H   UNL A   1      43.901  29.485  28.277  1.00  0.00     0.167 HD
ATOM     62  C   UNL A   1      42.900  31.804  29.600  1.00  0.00     0.074 A 
ATOM     63  C   UNL A   1      42.029  32.681  30.354  1.00  0.00     0.031 C 
ATOM     64  C   UNL A   1      44.145  32.138  29.177  1.00  0.00     0.034 A 
BRANCH  51  65
ATOM     65  C   UNL A   1      47.125  27.670  26.123  1.00  0.00     0.023 A 
ATOM     66  C   UNL A   1      47.254  27.932  24.747  1.00  0.00     0.031 A 
ATOM     67  C   UNL A   1      48.126  26.911  26.754  1.00  0.00     0.131 A 
ATOM     68  C   UNL A   1      48.344  27.412  24.038  1.00  0.00     0.055 A 
ATOM     69  C   UNL A   1      49.228  26.423  26.050  1.00  0.00     0.041 A 
ATOM     70  F   UNL A   1      48.049  26.636  28.066  1.00  0.00    -0.206 F 
ATOM     71  C   UNL A   1      49.334  26.663  24.683  1.00  0.00     0.022 A 
BRANCH  68  72
ATOM     72  S   UNL A   1      48.491  27.633  22.243  1.00  0.00     0.124 S 
ATOM     73  O   UNL A   1      48.559  26.249  21.777  1.00  0.00    -0.237 OA
ATOM     74  O   UNL A   1      47.255  28.340  21.920  1.00  0.00    -0.237 OA
ATOM     75  O   UNL A   1      49.719  28.403  22.083  1.00  0.00    -0.744 OA
ENDBRANCH  68  72
ENDBRANCH  51  65
BRANCH  52  76
ATOM     76  C   UNL A   1      38.629  30.155  30.823  1.00  0.00     0.023 A 
ATOM     77  C   UNL A   1      37.613  30.827  30.117  1.00  0.00     0.031 A 
ATOM     78  C   UNL A   1      38.453  29.950  32.201  1.00  0.00     0.131 A 
ATOM     79  C   UNL A   1      36.509  31.343  30.807  1.00  0.00     0.055 A 
ATOM     80  C   UNL A   1      37.314  30.401  32.871  1.00  0.00     0.041 A 
ATOM     81  F   UNL A   1      39.398  29.325  32.918  1.00  0.00    -0.206 F 
ATOM     82  C   UNL A   1      36.345  31.120  32.177  1.00  0.00     0.022 A 
BRANCH  79  83
ATOM     83  S   UNL A   1      35.334  32.452  29.980  1.00  0.00     0.124 S 
ATOM     84  O   UNL A   1      36.152  33.637  29.740  1.00  0.00    -0.237 OA
ATOM     85  O   UNL A   1      34.980  31.679  28.793  1.00  0.00    -0.237 OA
ATOM     86  O   UNL A   1      34.263  32.609  30.958  1.00  0.00    -0.744 OA
ENDBRANCH  79  83
ENDBRANCH  52  76
BRANCH  64  87
ATOM     87  C   UNL A   1      44.672  33.514  29.500  1.00  0.00     0.023 A 
ATOM     88  C   UNL A   1      44.440  34.582  28.612  1.00  0.00     0.031 A 
ATOM     89  C   UNL A   1      45.533  33.727  30.589  1.00  0.00     0.131 A 
ATOM     90  C   UNL A   1      45.100  35.802  28.804  1.00  0.00     0.055 A 
ATOM     91  C   UNL A   1      46.154  34.959  30.801  1.00  0.00     0.041 A 
ATOM     92  F   UNL A   1      45.792  32.736  31.457  1.00  0.00    -0.206 F 
ATOM     93  C   UNL A   1      45.950  35.999  29.897  1.00  0.00     0.022 A 
BRANCH  90  94
ATOM     94  S   UNL A   1      44.946  37.149  27.599  1.00  0.00     0.124 S 
ATOM     95  O   UNL A   1      45.008  38.330  28.456  1.00  0.00    -0.237 OA
ATOM     96  O   UNL A   1      46.113  36.934  26.746  1.00  0.00    -0.237 OA
ATOM     97  O   UNL A   1      43.653  36.910  26.964  1.00  0.00    -0.744 OA
ENDBRANCH  90  94
ENDBRANCH  64  87
ENDBRANCH  38  39
ENDBRANCH  30  33
ENDBRANCH  28  29
ENDBRANCH  27  28
ENDBRANCH   1  27
TORSDOF 18
ENDMDL
MODEL 3
REMARK VINA RESULT:     -12.8      5.075      9.842
REMARK SMILES Cc1noc(-c2cc(=O)n(CC(=O)NCCCCCCNC(=O)c3ccc(-c4c5nc(c(-c6cc(S(=O)(=O)[O-])ccc6F)c6ccc([nH]6)c(-c6cc(S(=O)(=O)[O-])ccc6F)c6nc(c(-c7cc(S(=O)(=O)[O-])ccc7F)c7ccc4[nH]7)C=C6)C=C5)cc3)c3ccccc23)n1
REMARK SMILES IDX 18 1 17 2 16 3 15 4 14 5 12 6 13 7 11 9 10 10 6 11 7 12
REMARK SMILES IDX 92 13 8 14 87 15 91 16 9 17 88 18 90 19 89 20 5 21 1 22 2 23
REMARK SMILES IDX 3 24 93 25 4 26 19 27 20 28 21 29 22 30 23 32 24 33 25 34
REMARK SMILES IDX 86 35 26 36 85 37 27 38 28 39 29 40 79 41 30 42 84 43 78 44
REMARK SMILES IDX 80 45 31 46 83 47 77 48 76 49 32 51 64 52 44 53 63 54 45 55
REMARK SMILES IDX 48 56 62 57 81 58 46 59 47 60 61 62 82 63 49 64 33 65 34 66
REMARK SMILES IDX 42 67 35 68 41 69 43 70 40 71 36 72 37 73 38 74 39 75 65 76
REMARK SMILES IDX 66 77 74 78 67 79 73 80 75 81 72 82 68 83 69 84 70 85 71 86
REMARK SMILES IDX 50 87 51 88 59 89 52 90 58 91 60 92 57 93 53 94 54 95 55 96
REMARK SMILES IDX 56 97
REMARK H PARENT 14 8 21 31 80 50 48 61
REMARK Flexibility Score: inf
ROOT
ATOM      1  C   UNL A   1      35.310  22.847  26.625  1.00  0.00     0.002 C 
ENDROOT
BRANCH   1   2
ATOM      2  C   UNL A   1      34.388  24.018  26.266  1.00  0.00     0.002 C 
BRANCH   2   3
ATOM      3  C   UNL A   1      34.865  24.921  25.118  1.00  0.00     0.021 C 
BRANCH   3   4
ATOM      4  C   UNL A   1      33.969  26.129  24.843  1.00  0.00     0.116 C 
BRANCH   4   5
ATOM      5  N   UNL A   1      34.062  26.565  23.466  1.00  0.00    -0.355 N 
ATOM      6  C   UNL A   1      33.222  26.341  22.420  1.00  0.00     0.240 C 
ATOM      7  O   UNL A   1      33.475  26.913  21.353  1.00  0.00    -0.273 OA
ATOM      8  H   UNL A   1      34.856  27.107  23.254  1.00  0.00     0.163 HD
BRANCH   6   9
ATOM      9  C   UNL A   1      31.934  25.519  22.570  1.00  0.00     0.225 C 
BRANCH   9  10
ATOM     10  N   UNL A   1      32.066  24.156  23.096  1.00  0.00    -0.299 N 
ATOM     11  C   UNL A   1      32.310  21.453  23.978  1.00  0.00     0.055 A 
ATOM     12  C   UNL A   1      32.931  21.880  22.870  1.00  0.00     0.086 A 
ATOM     13  C   UNL A   1      31.557  22.448  24.779  1.00  0.00     0.011 A 
ATOM     14  C   UNL A   1      32.858  23.271  22.386  1.00  0.00     0.252 A 
ATOM     15  C   UNL A   1      31.454  23.783  24.333  1.00  0.00     0.053 A 
ATOM     16  C   UNL A   1      30.961  22.090  26.001  1.00  0.00     0.011 A 
ATOM     17  O   UNL A   1      33.477  23.559  21.365  1.00  0.00    -0.269 OA
ATOM     18  C   UNL A   1      30.767  24.715  25.130  1.00  0.00     0.027 A 
ATOM     19  C   UNL A   1      30.272  23.024  26.773  1.00  0.00     0.001 A 
ATOM     20  C   UNL A   1      30.177  24.337  26.337  1.00  0.00     0.002 A 
BRANCH  11  21
ATOM     21  C   UNL A   1      32.429  20.051  24.265  1.00  0.00     0.258 A 
ATOM     22  C   UNL A   1      33.299  16.667  23.699  1.00  0.00     0.093 C 
ATOM     23  C   UNL A   1      32.831  17.970  24.203  1.00  0.00     0.169 A 
ATOM     24  N   UNL A   1      32.339  18.136  25.432  1.00  0.00    -0.062 NA
ATOM     25  N   UNL A   1      32.880  19.110  23.448  1.00  0.00    -0.192 NA
ATOM     26  O   UNL A   1      32.082  19.501  25.489  1.00  0.00    -0.334 OA
ENDBRANCH  11  21
ENDBRANCH   9  10
ENDBRANCH   6   9
ENDBRANCH   4   5
ENDBRANCH   3   4
ENDBRANCH   2   3
ENDBRANCH   1   2
BRANCH   1  27
ATOM     27  C   UNL A   1      35.759  21.976  25.452  1.00  0.00     0.021 C 
BRANCH  27  28
ATOM     28  C   UNL A   1      37.181  22.234  24.968  1.00  0.00     0.116 C 
BRANCH  28  29
ATOM     29  N   UNL A   1      38.099  21.161  25.321  1.00  0.00    -0.352 N 
ATOM     30  C   UNL A   1      39.266  21.233  26.049  1.00  0.00     0.251 C 
ATOM     31  H   UNL A   1      37.852  20.263  24.997  1.00  0.00     0.163 HD
ATOM     32  O   UNL A   1      40.002  20.256  26.142  1.00  0.00    -0.269 OA
BRANCH  30  33
ATOM     33  C   UNL A   1      39.638  22.518  26.679  1.00  0.00     0.039 A 
ATOM     34  C   UNL A   1      39.034  23.707  26.262  1.00  0.00     0.014 A 
ATOM     35  C   UNL A   1      40.652  22.539  27.640  1.00  0.00     0.014 A 
ATOM     36  C   UNL A   1      39.562  24.925  26.673  1.00  0.00     0.010 A 
ATOM     37  C   UNL A   1      41.131  23.766  28.110  1.00  0.00     0.010 A 
ATOM     38  C   UNL A   1      40.628  24.969  27.589  1.00  0.00    -0.014 A 
BRANCH  38  39
ATOM     39  C   UNL A   1      41.212  26.280  27.976  1.00  0.00     0.031 A 
ATOM     40  C   UNL A   1      42.633  26.624  27.615  1.00  0.00     0.074 A 
ATOM     41  C   UNL A   1      40.442  27.180  28.615  1.00  0.00     0.049 A 
ATOM     42  N   UNL A   1      43.304  27.718  27.869  1.00  0.00    -0.248 NA
ATOM     43  C   UNL A   1      43.401  25.612  26.871  1.00  0.00     0.031 C 
ATOM     44  C   UNL A   1      39.047  26.961  28.997  1.00  0.00     0.029 A 
ATOM     45  N   UNL A   1      40.708  28.458  29.041  1.00  0.00    -0.354 N 
ATOM     46  C   UNL A   1      44.573  27.522  27.335  1.00  0.00     0.074 A 
ATOM     47  C   UNL A   1      44.589  26.192  26.767  1.00  0.00     0.031 C 
ATOM     48  C   UNL A   1      38.566  28.079  29.557  1.00  0.00     0.029 A 
ATOM     49  C   UNL A   1      39.633  29.071  29.643  1.00  0.00     0.049 A 
ATOM     50  H   UNL A   1      41.582  28.894  28.926  1.00  0.00     0.167 HD
ATOM     51  C   UNL A   1      45.622  28.379  27.311  1.00  0.00     0.034 A 
ATOM     52  C   UNL A   1      39.519  30.288  30.215  1.00  0.00     0.034 A 
ATOM     53  C   UNL A   1      45.584  29.709  27.863  1.00  0.00     0.049 A 
ATOM     54  C   UNL A   1      40.711  31.209  30.207  1.00  0.00     0.074 A 
ATOM     55  C   UNL A   1      46.591  30.659  27.871  1.00  0.00     0.029 A 
ATOM     56  N   UNL A   1      44.489  30.283  28.493  1.00  0.00    -0.354 N 
ATOM     57  N   UNL A   1      41.895  31.017  29.675  1.00  0.00    -0.248 NA
ATOM     58  C   UNL A   1      40.560  32.509  30.874  1.00  0.00     0.031 C 
ATOM     59  C   UNL A   1      46.122  31.785  28.549  1.00  0.00     0.029 A 
ATOM     60  C   UNL A   1      44.803  31.566  28.912  1.00  0.00     0.049 A 
ATOM     61  H   UNL A   1      43.617  29.844  28.622  1.00  0.00     0.167 HD
ATOM     62  C   UNL A   1      42.623  32.176  29.927  1.00  0.00     0.074 A 
ATOM     63  C   UNL A   1      41.738  33.074  30.638  1.00  0.00     0.031 C 
ATOM     64  C   UNL A   1      43.909  32.463  29.603  1.00  0.00     0.034 A 
BRANCH  51  65
ATOM     65  C   UNL A   1      46.908  27.933  26.662  1.00  0.00     0.023 A 
ATOM     66  C   UNL A   1      47.071  28.045  25.268  1.00  0.00     0.031 A 
ATOM     67  C   UNL A   1      47.911  27.279  27.399  1.00  0.00     0.131 A 
ATOM     68  C   UNL A   1      48.195  27.484  24.650  1.00  0.00     0.055 A 
ATOM     69  C   UNL A   1      49.047  26.751  26.782  1.00  0.00     0.041 A 
ATOM     70  F   UNL A   1      47.804  27.149  28.730  1.00  0.00    -0.206 F 
ATOM     71  C   UNL A   1      49.185  26.841  25.400  1.00  0.00     0.022 A 
BRANCH  68  72
ATOM     72  S   UNL A   1      48.387  27.510  22.846  1.00  0.00     0.124 S 
ATOM     73  O   UNL A   1      47.224  28.295  22.435  1.00  0.00    -0.237 OA
ATOM     74  O   UNL A   1      49.677  28.173  22.685  1.00  0.00    -0.237 OA
ATOM     75  O   UNL A   1      48.350  26.101  22.468  1.00  0.00    -0.744 OA
ENDBRANCH  68  72
ENDBRANCH  51  65
BRANCH  52  76
ATOM     76  C   UNL A   1      38.207  30.693  30.798  1.00  0.00     0.023 A 
ATOM     77  C   UNL A   1      37.258  31.387  30.024  1.00  0.00     0.031 A 
ATOM     78  C   UNL A   1      37.938  30.506  32.163  1.00  0.00     0.131 A 
ATOM     79  C   UNL A   1      36.128  31.941  30.640  1.00  0.00     0.055 A 
ATOM     80  C   UNL A   1      36.773  30.995  32.757  1.00  0.00     0.041 A 
ATOM     81  F   UNL A   1      38.818  29.859  32.943  1.00  0.00    -0.206 F 
ATOM     82  C   UNL A   1      35.871  31.735  31.998  1.00  0.00     0.022 A 
BRANCH  79  83
ATOM     83  S   UNL A   1      35.040  33.076  29.731  1.00  0.00     0.124 S 
ATOM     84  O   UNL A   1      34.151  33.554  30.786  1.00  0.00    -0.237 OA
ATOM     85  O   UNL A   1      35.994  34.056  29.218  1.00  0.00    -0.237 OA
ATOM     86  O   UNL A   1      34.423  32.225  28.720  1.00  0.00    -0.744 OA
ENDBRANCH  79  83
ENDBRANCH  52  76
BRANCH  64  87
ATOM     87  C   UNL A   1      44.470  33.806  29.998  1.00  0.00     0.023 A 
ATOM     88  C   UNL A   1      44.406  34.886  29.096  1.00  0.00     0.031 A 
ATOM     89  C   UNL A   1      45.205  33.969  31.183  1.00  0.00     0.131 A 
ATOM     90  C   UNL A   1      45.105  36.067  29.375  1.00  0.00     0.055 A 
ATOM     91  C   UNL A   1      45.864  35.164  31.477  1.00  0.00     0.041 A 
ATOM     92  F   UNL A   1      45.302  32.964  32.068  1.00  0.00    -0.206 F 
ATOM     93  C   UNL A   1      45.828  36.214  30.563  1.00  0.00     0.022 A 
BRANCH  90  94
ATOM     94  S   UNL A   1      45.172  37.422  28.170  1.00  0.00     0.124 S 
ATOM     95  O   UNL A   1      46.530  37.293  27.646  1.00  0.00    -0.237 OA
ATOM     96  O   UNL A   1      44.106  37.059  27.239  1.00  0.00    -0.237 OA
ATOM     97  O   UNL A   1      44.927  38.618  28.970  1.00  0.00    -0.744 OA
ENDBRANCH  90  94
ENDBRANCH  64  87
ENDBRANCH  38  39
ENDBRANCH  30  33
ENDBRANCH  28  29
ENDBRANCH  27  28
ENDBRANCH   1  27
TORSDOF 18
ENDMDL
