MODEL 1
REMARK VINA RESULT:     -12.4      0.000      0.000
REMARK SMILES Cc1ccc([C@H](CC2CCCC2)C(=O)NCCCCCCNC(=O)c2ccc(-c3c4nc(c(-c5cc(S(=O)(=O)[O-])ccc5F)c5ccc([nH]5)c(-c5cc(S(=O)(=O)[O-])ccc5F)c5nc(c(-c6cc(S(=O)(=O)[O-])ccc6F)c6ccc3[nH]6)C=C5)C=C4)cc2)cc1
REMARK SMILES IDX 19 1 18 2 17 3 16 4 15 5 13 6 14 7 6 9 5 10 1 11 2 12 3 13
REMARK SMILES IDX 89 14 4 15 88 16 7 17 8 18 9 19 12 20 10 21 11 22 20 23
REMARK SMILES IDX 21 24 22 25 23 26 24 28 25 29 26 30 87 31 27 32 86 33 28 34
REMARK SMILES IDX 29 35 30 36 80 37 31 38 85 39 79 40 81 41 32 42 84 43 78 44
REMARK SMILES IDX 77 45 33 47 65 48 45 49 64 50 46 51 49 52 63 53 82 54 47 55
REMARK SMILES IDX 48 56 62 58 83 59 50 60 34 61 35 62 43 63 36 64 42 65 44 66
REMARK SMILES IDX 41 67 37 68 38 69 39 70 40 71 66 72 67 73 75 74 68 75 74 76
REMARK SMILES IDX 76 77 73 78 69 79 70 80 71 81 72 82 51 83 52 84 60 85 53 86
REMARK SMILES IDX 59 87 61 88 58 89 54 90 55 91 56 92 57 93
REMARK H PARENT 15 8 22 27 81 46 49 57
REMARK Flexibility Score: inf
ROOT
ATOM      1  C   UNL A   1      37.410  21.351  24.801  1.00  0.00     0.002 C 
ENDROOT
BRANCH   1   2
ATOM      2  C   UNL A   1      35.991  21.498  25.374  1.00  0.00     0.002 C 
BRANCH   2   3
ATOM      3  C   UNL A   1      35.182  22.724  24.930  1.00  0.00     0.021 C 
BRANCH   3   4
ATOM      4  C   UNL A   1      33.667  22.537  24.903  1.00  0.00     0.116 C 
BRANCH   4   5
ATOM      5  N   UNL A   1      33.026  22.831  26.171  1.00  0.00    -0.356 N 
ATOM      6  C   UNL A   1      32.131  23.804  26.509  1.00  0.00     0.227 C 
ATOM      7  O   UNL A   1      31.541  23.675  27.589  1.00  0.00    -0.274 OA
ATOM      8  H   UNL A   1      33.277  22.229  26.909  1.00  0.00     0.163 HD
BRANCH   6   9
ATOM      9  C   UNL A   1      31.857  25.039  25.640  1.00  0.00     0.109 C 
BRANCH   9  10
ATOM     10  C   UNL A   1      32.282  26.395  26.218  1.00  0.00    -0.036 A 
ATOM     11  C   UNL A   1      33.488  30.401  27.352  1.00  0.00     0.044 C 
ATOM     12  C   UNL A   1      33.092  29.001  26.996  1.00  0.00    -0.051 A 
ATOM     13  C   UNL A   1      33.958  28.179  26.276  1.00  0.00     0.004 A 
ATOM     14  C   UNL A   1      31.870  28.475  27.421  1.00  0.00     0.004 A 
ATOM     15  C   UNL A   1      33.558  26.897  25.895  1.00  0.00     0.005 A 
ATOM     16  C   UNL A   1      31.484  27.179  27.058  1.00  0.00     0.005 A 
ENDBRANCH   9  10
BRANCH   9  17
ATOM     17  C   UNL A   1      30.418  25.084  25.059  1.00  0.00     0.022 C 
BRANCH  17  18
ATOM     18  C   UNL A   1      30.287  25.774  23.697  1.00  0.00    -0.010 C 
ATOM     19  C   UNL A   1      30.262  27.299  23.743  1.00  0.00     0.003 C 
ATOM     20  C   UNL A   1      31.523  25.507  22.832  1.00  0.00     0.003 C 
ATOM     21  C   UNL A   1      30.648  27.722  22.329  1.00  0.00     0.000 C 
ATOM     22  C   UNL A   1      31.477  26.577  21.750  1.00  0.00     0.000 C 
ENDBRANCH  17  18
ENDBRANCH   9  17
ENDBRANCH   6   9
ENDBRANCH   4   5
ENDBRANCH   3   4
ENDBRANCH   2   3
ENDBRANCH   1   2
BRANCH   1  23
ATOM     23  C   UNL A   1      38.570  21.435  25.795  1.00  0.00     0.021 C 
BRANCH  23  24
ATOM     24  C   UNL A   1      39.027  22.850  26.127  1.00  0.00     0.116 C 
BRANCH  24  25
ATOM     25  N   UNL A   1      40.468  22.989  26.304  1.00  0.00    -0.352 N 
ATOM     26  C   UNL A   1      41.175  24.137  26.623  1.00  0.00     0.251 C 
ATOM     27  H   UNL A   1      41.001  22.170  26.185  1.00  0.00     0.163 HD
ATOM     28  O   UNL A   1      42.394  24.149  26.730  1.00  0.00    -0.269 OA
BRANCH  26  29
ATOM     29  C   UNL A   1      40.394  25.348  26.961  1.00  0.00     0.039 A 
ATOM     30  C   UNL A   1      40.774  26.541  26.338  1.00  0.00     0.014 A 
ATOM     31  C   UNL A   1      39.527  25.355  28.052  1.00  0.00     0.014 A 
ATOM     32  C   UNL A   1      40.474  27.752  26.954  1.00  0.00     0.010 A 
ATOM     33  C   UNL A   1      39.293  26.554  28.705  1.00  0.00     0.010 A 
ATOM     34  C   UNL A   1      39.836  27.741  28.196  1.00  0.00    -0.014 A 
BRANCH  34  35
ATOM     35  C   UNL A   1      39.884  28.893  29.098  1.00  0.00     0.031 A 
ATOM     36  C   UNL A   1      38.858  29.954  29.047  1.00  0.00     0.074 A 
ATOM     37  C   UNL A   1      40.922  29.028  29.952  1.00  0.00     0.049 A 
ATOM     38  N   UNL A   1      39.053  31.177  29.418  1.00  0.00    -0.248 NA
ATOM     39  C   UNL A   1      37.542  29.736  28.466  1.00  0.00     0.031 C 
ATOM     40  C   UNL A   1      41.063  29.996  31.036  1.00  0.00     0.029 A 
ATOM     41  N   UNL A   1      42.191  28.480  29.816  1.00  0.00    -0.354 N 
ATOM     42  C   UNL A   1      37.839  31.826  29.402  1.00  0.00     0.074 A 
ATOM     43  C   UNL A   1      36.972  30.927  28.677  1.00  0.00     0.031 C 
ATOM     44  C   UNL A   1      42.369  30.163  31.299  1.00  0.00     0.029 A 
ATOM     45  C   UNL A   1      43.118  29.404  30.312  1.00  0.00     0.049 A 
ATOM     46  H   UNL A   1      42.401  27.596  29.436  1.00  0.00     0.167 HD
ATOM     47  C   UNL A   1      37.687  32.973  30.127  1.00  0.00     0.034 A 
ATOM     48  C   UNL A   1      44.112  29.902  29.523  1.00  0.00     0.034 A 
ATOM     49  C   UNL A   1      38.987  33.495  30.578  1.00  0.00     0.049 A 
ATOM     50  C   UNL A   1      44.062  31.404  29.349  1.00  0.00     0.074 A 
ATOM     51  C   UNL A   1      39.626  33.533  31.806  1.00  0.00     0.029 A 
ATOM     52  N   UNL A   1      39.940  33.880  29.634  1.00  0.00    -0.354 N 
ATOM     53  N   UNL A   1      43.042  32.151  29.671  1.00  0.00    -0.248 NA
ATOM     54  C   UNL A   1      45.152  32.174  28.757  1.00  0.00     0.031 C 
ATOM     55  C   UNL A   1      40.991  33.865  31.584  1.00  0.00     0.029 A 
ATOM     56  C   UNL A   1      41.176  34.065  30.225  1.00  0.00     0.049 A 
ATOM     57  H   UNL A   1      39.756  34.004  28.675  1.00  0.00     0.167 HD
ATOM     58  C   UNL A   1      43.287  33.449  29.296  1.00  0.00     0.074 A 
ATOM     59  C   UNL A   1      44.640  33.417  28.771  1.00  0.00     0.031 C 
ATOM     60  C   UNL A   1      42.343  34.431  29.426  1.00  0.00     0.034 A 
BRANCH  47  61
ATOM     61  C   UNL A   1      36.357  33.494  30.677  1.00  0.00     0.023 A 
ATOM     62  C   UNL A   1      35.462  34.152  29.798  1.00  0.00     0.031 A 
ATOM     63  C   UNL A   1      35.946  33.493  32.027  1.00  0.00     0.131 A 
ATOM     64  C   UNL A   1      34.306  34.816  30.267  1.00  0.00     0.055 A 
ATOM     65  C   UNL A   1      34.802  34.157  32.495  1.00  0.00     0.041 A 
ATOM     66  F   UNL A   1      36.604  32.844  32.988  1.00  0.00    -0.206 F 
ATOM     67  C   UNL A   1      33.981  34.836  31.618  1.00  0.00     0.022 A 
BRANCH  64  68
ATOM     68  S   UNL A   1      33.240  35.704  29.097  1.00  0.00     0.124 S 
ATOM     69  O   UNL A   1      34.214  36.353  28.223  1.00  0.00    -0.237 OA
ATOM     70  O   UNL A   1      32.457  34.623  28.509  1.00  0.00    -0.237 OA
ATOM     71  O   UNL A   1      32.482  36.616  29.953  1.00  0.00    -0.744 OA
ENDBRANCH  64  68
ENDBRANCH  47  61
BRANCH  48  72
ATOM     72  C   UNL A   1      44.610  28.939  28.500  1.00  0.00     0.023 A 
ATOM     73  C   UNL A   1      45.439  27.887  28.942  1.00  0.00     0.031 A 
ATOM     74  C   UNL A   1      44.034  28.832  27.228  1.00  0.00     0.131 A 
ATOM     75  C   UNL A   1      45.557  26.714  28.185  1.00  0.00     0.055 A 
ATOM     76  C   UNL A   1      44.199  27.679  26.449  1.00  0.00     0.041 A 
ATOM     77  F   UNL A   1      43.209  29.784  26.767  1.00  0.00    -0.206 F 
ATOM     78  C   UNL A   1      44.929  26.598  26.943  1.00  0.00     0.022 A 
BRANCH  75  79
ATOM     79  S   UNL A   1      46.335  25.245  28.918  1.00  0.00     0.124 S 
ATOM     80  O   UNL A   1      45.553  24.160  28.335  1.00  0.00    -0.237 OA
ATOM     81  O   UNL A   1      47.721  25.337  28.465  1.00  0.00    -0.237 OA
ATOM     82  O   UNL A   1      46.153  25.462  30.351  1.00  0.00    -0.744 OA
ENDBRANCH  75  79
ENDBRANCH  48  72
BRANCH  60  83
ATOM     83  C   UNL A   1      42.467  35.841  28.880  1.00  0.00     0.023 A 
ATOM     84  C   UNL A   1      43.149  36.876  29.541  1.00  0.00     0.031 A 
ATOM     85  C   UNL A   1      41.939  36.176  27.609  1.00  0.00     0.131 A 
ATOM     86  C   UNL A   1      43.203  38.178  29.006  1.00  0.00     0.055 A 
ATOM     87  C   UNL A   1      42.062  37.449  27.042  1.00  0.00     0.041 A 
ATOM     88  F   UNL A   1      41.285  35.276  26.860  1.00  0.00    -0.206 F 
ATOM     89  C   UNL A   1      42.680  38.469  27.749  1.00  0.00     0.022 A 
BRANCH  86  90
ATOM     90  S   UNL A   1      43.913  39.501  30.024  1.00  0.00     0.124 S 
ATOM     91  O   UNL A   1      44.137  38.814  31.294  1.00  0.00    -0.237 OA
ATOM     92  O   UNL A   1      45.113  39.861  29.278  1.00  0.00    -0.237 OA
ATOM     93  O   UNL A   1      42.865  40.519  30.048  1.00  0.00    -0.744 OA
ENDBRANCH  86  90
ENDBRANCH  60  83
ENDBRANCH  34  35
ENDBRANCH  26  29
ENDBRANCH  24  25
ENDBRANCH  23  24
ENDBRANCH   1  23
TORSDOF 19
ENDMDL
MODEL 2
REMARK VINA RESULT:     -12.3      1.380      3.093
REMARK SMILES Cc1ccc([C@H](CC2CCCC2)C(=O)NCCCCCCNC(=O)c2ccc(-c3c4nc(c(-c5cc(S(=O)(=O)[O-])ccc5F)c5ccc([nH]5)c(-c5cc(S(=O)(=O)[O-])ccc5F)c5nc(c(-c6cc(S(=O)(=O)[O-])ccc6F)c6ccc3[nH]6)C=C5)C=C4)cc2)cc1
REMARK SMILES IDX 19 1 18 2 17 3 16 4 15 5 13 6 14 7 6 9 5 10 1 11 2 12 3 13
REMARK SMILES IDX 89 14 4 15 88 16 7 17 8 18 9 19 12 20 10 21 11 22 20 23
REMARK SMILES IDX 21 24 22 25 23 26 24 28 25 29 26 30 87 31 27 32 86 33 28 34
REMARK SMILES IDX 29 35 30 36 80 37 31 38 85 39 79 40 81 41 32 42 84 43 78 44
REMARK SMILES IDX 77 45 33 47 65 48 45 49 64 50 46 51 49 52 63 53 82 54 47 55
REMARK SMILES IDX 48 56 62 58 83 59 50 60 34 61 35 62 43 63 36 64 42 65 44 66
REMARK SMILES IDX 41 67 37 68 38 69 39 70 40 71 66 72 67 73 75 74 68 75 74 76
REMARK SMILES IDX 76 77 73 78 69 79 70 80 71 81 72 82 51 83 52 84 60 85 53 86
REMARK SMILES IDX 59 87 61 88 58 89 54 90 55 91 56 92 57 93
REMARK H PARENT 15 8 22 27 81 46 49 57
REMARK Flexibility Score: inf
ROOT
ATOM      1  C   UNL A   1      37.816  22.029  25.260  1.00  0.00     0.002 C 
ENDROOT
BRANCH   1   2
ATOM      2  C   UNL A   1      37.392  23.500  25.403  1.00  0.00     0.002 C 
BRANCH   2   3
ATOM      3  C   UNL A   1      36.078  23.780  26.144  1.00  0.00     0.021 C 
BRANCH   3   4
ATOM      4  C   UNL A   1      35.008  24.506  25.333  1.00  0.00     0.116 C 
BRANCH   4   5
ATOM      5  N   UNL A   1      34.983  24.119  23.934  1.00  0.00    -0.356 N 
ATOM      6  C   UNL A   1      34.061  23.404  23.228  1.00  0.00     0.227 C 
ATOM      7  O   UNL A   1      34.147  23.438  21.994  1.00  0.00    -0.274 OA
ATOM      8  H   UNL A   1      35.757  24.425  23.408  1.00  0.00     0.163 HD
BRANCH   6   9
ATOM      9  C   UNL A   1      32.967  22.551  23.886  1.00  0.00     0.109 C 
BRANCH   9  10
ATOM     10  C   UNL A   1      33.282  21.062  24.085  1.00  0.00    -0.036 A 
ATOM     11  C   UNL A   1      34.229  16.833  24.120  1.00  0.00     0.044 C 
ATOM     12  C   UNL A   1      33.878  18.289  24.145  1.00  0.00    -0.051 A 
ATOM     13  C   UNL A   1      32.685  18.742  23.582  1.00  0.00     0.004 A 
ATOM     14  C   UNL A   1      34.714  19.214  24.774  1.00  0.00     0.004 A 
ATOM     15  C   UNL A   1      32.394  20.107  23.554  1.00  0.00     0.005 A 
ATOM     16  C   UNL A   1      34.404  20.580  24.766  1.00  0.00     0.005 A 
ENDBRANCH   9  10
BRANCH   9  17
ATOM     17  C   UNL A   1      31.557  22.766  23.272  1.00  0.00     0.022 C 
BRANCH  17  18
ATOM     18  C   UNL A   1      30.673  23.777  24.011  1.00  0.00    -0.010 C 
ATOM     19  C   UNL A   1      31.109  24.097  25.437  1.00  0.00     0.003 C 
ATOM     20  C   UNL A   1      30.748  25.154  23.342  1.00  0.00     0.003 C 
ATOM     21  C   UNL A   1      30.440  25.435  25.741  1.00  0.00     0.000 C 
ATOM     22  C   UNL A   1      30.227  26.123  24.393  1.00  0.00     0.000 C 
ENDBRANCH  17  18
ENDBRANCH   9  17
ENDBRANCH   6   9
ENDBRANCH   4   5
ENDBRANCH   3   4
ENDBRANCH   2   3
ENDBRANCH   1   2
BRANCH   1  23
ATOM     23  C   UNL A   1      39.064  21.590  26.029  1.00  0.00     0.021 C 
BRANCH  23  24
ATOM     24  C   UNL A   1      39.687  22.670  26.905  1.00  0.00     0.116 C 
BRANCH  24  25
ATOM     25  N   UNL A   1      41.040  23.052  26.513  1.00  0.00    -0.352 N 
ATOM     26  C   UNL A   1      41.554  24.332  26.386  1.00  0.00     0.251 C 
ATOM     27  H   UNL A   1      41.660  22.314  26.316  1.00  0.00     0.163 HD
ATOM     28  O   UNL A   1      42.705  24.545  26.030  1.00  0.00    -0.269 OA
BRANCH  26  29
ATOM     29  C   UNL A   1      40.698  25.459  26.823  1.00  0.00     0.039 A 
ATOM     30  C   UNL A   1      40.885  26.684  26.176  1.00  0.00     0.014 A 
ATOM     31  C   UNL A   1      39.962  25.377  28.004  1.00  0.00     0.014 A 
ATOM     32  C   UNL A   1      40.535  27.858  26.835  1.00  0.00     0.010 A 
ATOM     33  C   UNL A   1      39.683  26.546  28.693  1.00  0.00     0.010 A 
ATOM     34  C   UNL A   1      40.045  27.782  28.141  1.00  0.00    -0.014 A 
BRANCH  34  35
ATOM     35  C   UNL A   1      40.077  28.933  29.045  1.00  0.00     0.031 A 
ATOM     36  C   UNL A   1      39.036  29.979  28.998  1.00  0.00     0.074 A 
ATOM     37  C   UNL A   1      41.114  29.082  29.898  1.00  0.00     0.049 A 
ATOM     38  N   UNL A   1      39.213  31.204  29.372  1.00  0.00    -0.248 NA
ATOM     39  C   UNL A   1      37.721  29.742  28.420  1.00  0.00     0.031 C 
ATOM     40  C   UNL A   1      41.243  30.049  30.984  1.00  0.00     0.029 A 
ATOM     41  N   UNL A   1      42.391  28.552  29.758  1.00  0.00    -0.354 N 
ATOM     42  C   UNL A   1      37.989  31.834  29.360  1.00  0.00     0.074 A 
ATOM     43  C   UNL A   1      37.135  30.924  28.634  1.00  0.00     0.031 C 
ATOM     44  C   UNL A   1      42.547  30.234  31.244  1.00  0.00     0.029 A 
ATOM     45  C   UNL A   1      43.305  29.489  30.254  1.00  0.00     0.049 A 
ATOM     46  H   UNL A   1      42.614  27.673  29.376  1.00  0.00     0.167 HD
ATOM     47  C   UNL A   1      37.822  32.977  30.088  1.00  0.00     0.034 A 
ATOM     48  C   UNL A   1      44.290  30.003  29.464  1.00  0.00     0.034 A 
ATOM     49  C   UNL A   1      39.114  33.517  30.537  1.00  0.00     0.049 A 
ATOM     50  C   UNL A   1      44.218  31.505  29.294  1.00  0.00     0.074 A 
ATOM     51  C   UNL A   1      39.755  33.562  31.764  1.00  0.00     0.029 A 
ATOM     52  N   UNL A   1      40.059  33.919  29.593  1.00  0.00    -0.354 N 
ATOM     53  N   UNL A   1      43.187  32.236  29.620  1.00  0.00    -0.248 NA
ATOM     54  C   UNL A   1      45.295  32.293  28.702  1.00  0.00     0.031 C 
ATOM     55  C   UNL A   1      41.115  33.915  31.540  1.00  0.00     0.029 A 
ATOM     56  C   UNL A   1      41.294  34.121  30.182  1.00  0.00     0.049 A 
ATOM     57  H   UNL A   1      39.872  34.042  28.634  1.00  0.00     0.167 HD
ATOM     58  C   UNL A   1      43.412  33.538  29.247  1.00  0.00     0.074 A 
ATOM     59  C   UNL A   1      44.765  33.528  28.719  1.00  0.00     0.031 C 
ATOM     60  C   UNL A   1      42.454  34.506  29.381  1.00  0.00     0.034 A 
BRANCH  47  61
ATOM     61  C   UNL A   1      36.485  33.477  30.642  1.00  0.00     0.023 A 
ATOM     62  C   UNL A   1      35.564  34.092  29.758  1.00  0.00     0.031 A 
ATOM     63  C   UNL A   1      36.089  33.497  31.996  1.00  0.00     0.131 A 
ATOM     64  C   UNL A   1      34.396  34.737  30.226  1.00  0.00     0.055 A 
ATOM     65  C   UNL A   1      34.934  34.142  32.462  1.00  0.00     0.041 A 
ATOM     66  F   UNL A   1      36.774  32.886  32.963  1.00  0.00    -0.206 F 
ATOM     67  C   UNL A   1      34.087  34.780  31.580  1.00  0.00     0.022 A 
BRANCH  64  68
ATOM     68  S   UNL A   1      33.296  35.572  29.049  1.00  0.00     0.124 S 
ATOM     69  O   UNL A   1      34.241  36.272  28.184  1.00  0.00    -0.237 OA
ATOM     70  O   UNL A   1      32.575  34.453  28.452  1.00  0.00    -0.237 OA
ATOM     71  O   UNL A   1      32.484  36.441  29.900  1.00  0.00    -0.744 OA
ENDBRANCH  64  68
ENDBRANCH  47  61
BRANCH  48  72
ATOM     72  C   UNL A   1      44.801  29.051  28.438  1.00  0.00     0.023 A 
ATOM     73  C   UNL A   1      45.652  28.014  28.875  1.00  0.00     0.031 A 
ATOM     74  C   UNL A   1      44.220  28.933  27.169  1.00  0.00     0.131 A 
ATOM     75  C   UNL A   1      45.787  26.844  28.117  1.00  0.00     0.055 A 
ATOM     76  C   UNL A   1      44.402  27.784  26.389  1.00  0.00     0.041 A 
ATOM     77  F   UNL A   1      43.375  29.870  26.713  1.00  0.00    -0.206 F 
ATOM     78  C   UNL A   1      45.155  26.717  26.879  1.00  0.00     0.022 A 
BRANCH  75  79
ATOM     79  S   UNL A   1      46.597  25.389  28.845  1.00  0.00     0.124 S 
ATOM     80  O   UNL A   1      46.278  25.535  30.260  1.00  0.00    -0.237 OA
ATOM     81  O   UNL A   1      45.951  24.269  28.164  1.00  0.00    -0.237 OA
ATOM     82  O   UNL A   1      47.999  25.585  28.484  1.00  0.00    -0.744 OA
ENDBRANCH  75  79
ENDBRANCH  48  72
BRANCH  60  83
ATOM     83  C   UNL A   1      42.556  35.919  28.839  1.00  0.00     0.023 A 
ATOM     84  C   UNL A   1      43.197  36.970  29.515  1.00  0.00     0.031 A 
ATOM     85  C   UNL A   1      42.049  36.242  27.556  1.00  0.00     0.131 A 
ATOM     86  C   UNL A   1      43.231  38.274  28.981  1.00  0.00     0.055 A 
ATOM     87  C   UNL A   1      42.153  37.518  26.992  1.00  0.00     0.041 A 
ATOM     88  F   UNL A   1      41.434  35.327  26.792  1.00  0.00    -0.206 F 
ATOM     89  C   UNL A   1      42.730  38.552  27.713  1.00  0.00     0.022 A 
BRANCH  86  90
ATOM     90  S   UNL A   1      43.885  39.612  30.015  1.00  0.00     0.124 S 
ATOM     91  O   UNL A   1      44.579  40.440  29.032  1.00  0.00    -0.237 OA
ATOM     92  O   UNL A   1      42.673  40.189  30.587  1.00  0.00    -0.237 OA
ATOM     93  O   UNL A   1      44.754  38.921  30.966  1.00  0.00    -0.744 OA
ENDBRANCH  86  90
ENDBRANCH  60  83
ENDBRANCH  34  35
ENDBRANCH  26  29
ENDBRANCH  24  25
ENDBRANCH  23  24
ENDBRANCH   1  23
TORSDOF 19
ENDMDL
MODEL 3
REMARK VINA RESULT:     -11.8      1.225      2.343
REMARK SMILES Cc1ccc([C@H](CC2CCCC2)C(=O)NCCCCCCNC(=O)c2ccc(-c3c4nc(c(-c5cc(S(=O)(=O)[O-])ccc5F)c5ccc([nH]5)c(-c5cc(S(=O)(=O)[O-])ccc5F)c5nc(c(-c6cc(S(=O)(=O)[O-])ccc6F)c6ccc3[nH]6)C=C5)C=C4)cc2)cc1
REMARK SMILES IDX 19 1 18 2 17 3 16 4 15 5 13 6 14 7 6 9 5 10 1 11 2 12 3 13
REMARK SMILES IDX 89 14 4 15 88 16 7 17 8 18 9 19 12 20 10 21 11 22 20 23
REMARK SMILES IDX 21 24 22 25 23 26 24 28 25 29 26 30 87 31 27 32 86 33 28 34
REMARK SMILES IDX 29 35 30 36 80 37 31 38 85 39 79 40 81 41 32 42 84 43 78 44
REMARK SMILES IDX 77 45 33 47 65 48 45 49 64 50 46 51 49 52 63 53 82 54 47 55
REMARK SMILES IDX 48 56 62 58 83 59 50 60 34 61 35 62 43 63 36 64 42 65 44 66
REMARK SMILES IDX 41 67 37 68 38 69 39 70 40 71 66 72 67 73 75 74 68 75 74 76
REMARK SMILES IDX 76 77 73 78 69 79 70 80 71 81 72 82 51 83 52 84 60 85 53 86
REMARK SMILES IDX 59 87 61 88 58 89 54 90 55 91 56 92 57 93
REMARK H PARENT 15 8 22 27 81 46 49 57
REMARK Flexibility Score: inf
ROOT
ATOM      1  C   UNL A   1      36.481  22.471  24.682  1.00  0.00     0.002 C 
ENDROOT
BRANCH   1   2
ATOM      2  C   UNL A   1      35.244  21.671  25.124  1.00  0.00     0.002 C 
BRANCH   2   3
ATOM      3  C   UNL A   1      33.935  21.934  24.369  1.00  0.00     0.021 C 
BRANCH   3   4
ATOM      4  C   UNL A   1      33.417  23.369  24.432  1.00  0.00     0.116 C 
BRANCH   4   5
ATOM      5  N   UNL A   1      33.533  24.080  23.172  1.00  0.00    -0.356 N 
ATOM      6  C   UNL A   1      33.431  25.411  22.893  1.00  0.00     0.227 C 
ATOM      7  O   UNL A   1      33.829  25.786  21.783  1.00  0.00    -0.274 OA
ATOM      8  H   UNL A   1      33.716  23.509  22.391  1.00  0.00     0.163 HD
BRANCH   6   9
ATOM      9  C   UNL A   1      32.825  26.436  23.863  1.00  0.00     0.109 C 
BRANCH   9  10
ATOM     10  C   UNL A   1      31.457  27.017  23.483  1.00  0.00    -0.036 A 
ATOM     11  C   UNL A   1      27.531  28.767  22.926  1.00  0.00     0.044 C 
ATOM     12  C   UNL A   1      28.881  28.137  23.083  1.00  0.00    -0.051 A 
ATOM     13  C   UNL A   1      29.027  26.935  23.774  1.00  0.00     0.004 A 
ATOM     14  C   UNL A   1      30.010  28.714  22.499  1.00  0.00     0.004 A 
ATOM     15  C   UNL A   1      30.296  26.386  23.969  1.00  0.00     0.005 A 
ATOM     16  C   UNL A   1      31.278  28.145  22.676  1.00  0.00     0.005 A 
ENDBRANCH   9  10
BRANCH   9  17
ATOM     17  C   UNL A   1      33.822  27.542  24.301  1.00  0.00     0.022 C 
BRANCH  17  18
ATOM     18  C   UNL A   1      33.536  28.171  25.669  1.00  0.00    -0.010 C 
ATOM     19  C   UNL A   1      32.724  29.463  25.630  1.00  0.00     0.003 C 
ATOM     20  C   UNL A   1      32.634  27.260  26.508  1.00  0.00     0.003 C 
ATOM     21  C   UNL A   1      32.149  29.585  27.039  1.00  0.00     0.000 C 
ATOM     22  C   UNL A   1      32.073  28.165  27.595  1.00  0.00     0.000 C 
ENDBRANCH  17  18
ENDBRANCH   9  17
ENDBRANCH   6   9
ENDBRANCH   4   5
ENDBRANCH   3   4
ENDBRANCH   2   3
ENDBRANCH   1   2
BRANCH   1  23
ATOM     23  C   UNL A   1      37.760  22.277  25.499  1.00  0.00     0.021 C 
BRANCH  23  24
ATOM     24  C   UNL A   1      38.319  23.549  26.123  1.00  0.00     0.116 C 
BRANCH  24  25
ATOM     25  N   UNL A   1      39.715  23.449  26.538  1.00  0.00    -0.352 N 
ATOM     26  C   UNL A   1      40.488  24.424  27.147  1.00  0.00     0.251 C 
ATOM     27  H   UNL A   1      40.158  22.588  26.366  1.00  0.00     0.163 HD
ATOM     28  O   UNL A   1      41.662  24.243  27.438  1.00  0.00    -0.269 OA
BRANCH  26  29
ATOM     29  C   UNL A   1      39.811  25.675  27.559  1.00  0.00     0.039 A 
ATOM     30  C   UNL A   1      40.137  26.834  26.848  1.00  0.00     0.014 A 
ATOM     31  C   UNL A   1      39.119  25.745  28.767  1.00  0.00     0.014 A 
ATOM     32  C   UNL A   1      39.977  28.072  27.463  1.00  0.00     0.010 A 
ATOM     33  C   UNL A   1      39.029  26.970  29.409  1.00  0.00     0.010 A 
ATOM     34  C   UNL A   1      39.533  28.119  28.786  1.00  0.00    -0.014 A 
BRANCH  34  35
ATOM     35  C   UNL A   1      39.757  29.292  29.634  1.00  0.00     0.031 A 
ATOM     36  C   UNL A   1      38.776  30.393  29.702  1.00  0.00     0.074 A 
ATOM     37  C   UNL A   1      40.916  29.407  30.319  1.00  0.00     0.049 A 
ATOM     38  N   UNL A   1      39.068  31.616  30.001  1.00  0.00    -0.248 NA
ATOM     39  C   UNL A   1      37.380  30.213  29.332  1.00  0.00     0.031 C 
ATOM     40  C   UNL A   1      41.254  30.396  31.339  1.00  0.00     0.029 A 
ATOM     41  N   UNL A   1      42.129  28.803  30.013  1.00  0.00    -0.354 N 
ATOM     42  C   UNL A   1      37.890  32.313  30.146  1.00  0.00     0.074 A 
ATOM     43  C   UNL A   1      36.892  31.432  29.586  1.00  0.00     0.031 C 
ATOM     44  C   UNL A   1      42.590  30.516  31.399  1.00  0.00     0.029 A 
ATOM     45  C   UNL A   1      43.153  29.701  30.336  1.00  0.00     0.049 A 
ATOM     46  H   UNL A   1      42.248  27.902  29.635  1.00  0.00     0.167 HD
ATOM     47  C   UNL A   1      37.891  33.484  30.848  1.00  0.00     0.034 A 
ATOM     48  C   UNL A   1      44.035  30.137  29.392  1.00  0.00     0.034 A 
ATOM     49  C   UNL A   1      39.262  33.964  31.083  1.00  0.00     0.049 A 
ATOM     50  C   UNL A   1      44.015  31.635  29.180  1.00  0.00     0.074 A 
ATOM     51  C   UNL A   1      40.079  34.007  32.201  1.00  0.00     0.029 A 
ATOM     52  N   UNL A   1      40.076  34.285  29.997  1.00  0.00    -0.354 N 
ATOM     53  N   UNL A   1      43.083  32.432  29.627  1.00  0.00    -0.248 NA
ATOM     54  C   UNL A   1      45.032  32.344  28.408  1.00  0.00     0.031 C 
ATOM     55  C   UNL A   1      41.406  34.277  31.767  1.00  0.00     0.029 A 
ATOM     56  C   UNL A   1      41.393  34.434  30.391  1.00  0.00     0.049 A 
ATOM     57  H   UNL A   1      39.755  34.391  29.072  1.00  0.00     0.167 HD
ATOM     58  C   UNL A   1      43.316  33.708  29.178  1.00  0.00     0.074 A 
ATOM     59  C   UNL A   1      44.573  33.607  28.458  1.00  0.00     0.031 C 
ATOM     60  C   UNL A   1      42.439  34.731  29.416  1.00  0.00     0.034 A 
BRANCH  47  61
ATOM     61  C   UNL A   1      36.678  34.073  31.573  1.00  0.00     0.023 A 
ATOM     62  C   UNL A   1      35.603  34.584  30.806  1.00  0.00     0.031 A 
ATOM     63  C   UNL A   1      36.544  34.274  32.963  1.00  0.00     0.131 A 
ATOM     64  C   UNL A   1      34.539  35.304  31.397  1.00  0.00     0.055 A 
ATOM     65  C   UNL A   1      35.493  34.993  33.550  1.00  0.00     0.041 A 
ATOM     66  F   UNL A   1      37.404  33.782  33.856  1.00  0.00    -0.206 F 
ATOM     67  C   UNL A   1      34.489  35.526  32.767  1.00  0.00     0.022 A 
BRANCH  64  68
ATOM     68  S   UNL A   1      33.230  35.998  30.348  1.00  0.00     0.124 S 
ATOM     69  O   UNL A   1      32.918  37.250  31.031  1.00  0.00    -0.237 OA
ATOM     70  O   UNL A   1      33.895  36.110  29.055  1.00  0.00    -0.237 OA
ATOM     71  O   UNL A   1      32.174  34.987  30.411  1.00  0.00    -0.744 OA
ENDBRANCH  64  68
ENDBRANCH  47  61
BRANCH  48  72
ATOM     72  C   UNL A   1      44.340  29.129  28.338  1.00  0.00     0.023 A 
ATOM     73  C   UNL A   1      45.161  28.039  28.693  1.00  0.00     0.031 A 
ATOM     74  C   UNL A   1      43.593  29.031  27.156  1.00  0.00     0.131 A 
ATOM     75  C   UNL A   1      45.112  26.847  27.959  1.00  0.00     0.055 A 
ATOM     76  C   UNL A   1      43.589  27.857  26.393  1.00  0.00     0.041 A 
ATOM     77  F   UNL A   1      42.767  30.020  26.784  1.00  0.00    -0.206 F 
ATOM     78  C   UNL A   1      44.319  26.745  26.814  1.00  0.00     0.022 A 
BRANCH  75  79
ATOM     79  S   UNL A   1      45.900  25.349  28.619  1.00  0.00     0.124 S 
ATOM     80  O   UNL A   1      45.880  25.599  30.056  1.00  0.00    -0.237 OA
ATOM     81  O   UNL A   1      45.025  24.275  28.153  1.00  0.00    -0.237 OA
ATOM     82  O   UNL A   1      47.217  25.371  27.988  1.00  0.00    -0.744 OA
ENDBRANCH  75  79
ENDBRANCH  48  72
BRANCH  60  83
ATOM     83  C   UNL A   1      42.532  36.120  28.813  1.00  0.00     0.023 A 
ATOM     84  C   UNL A   1      43.197  37.194  29.427  1.00  0.00     0.031 A 
ATOM     85  C   UNL A   1      41.989  36.393  27.533  1.00  0.00     0.131 A 
ATOM     86  C   UNL A   1      43.221  38.475  28.839  1.00  0.00     0.055 A 
ATOM     87  C   UNL A   1      42.083  37.644  26.915  1.00  0.00     0.041 A 
ATOM     88  F   UNL A   1      41.348  35.451  26.825  1.00  0.00    -0.206 F 
ATOM     89  C   UNL A   1      42.684  38.704  27.576  1.00  0.00     0.022 A 
BRANCH  86  90
ATOM     90  S   UNL A   1      43.911  39.851  29.798  1.00  0.00     0.124 S 
ATOM     91  O   UNL A   1      44.341  39.178  31.021  1.00  0.00    -0.237 OA
ATOM     92  O   UNL A   1      44.980  40.334  28.931  1.00  0.00    -0.237 OA
ATOM     93  O   UNL A   1      42.779  40.762  29.958  1.00  0.00    -0.744 OA
ENDBRANCH  86  90
ENDBRANCH  60  83
ENDBRANCH  34  35
ENDBRANCH  26  29
ENDBRANCH  24  25
ENDBRANCH  23  24
ENDBRANCH   1  23
TORSDOF 19
ENDMDL
