MODEL 1
REMARK VINA RESULT:     -11.0      0.000      0.000
REMARK SMILES CC1([C@](C)(Nc2cccc(Cl)c2)C(=O)NCCCCCCNC(=O)c2ccc(-c3c4nc(c(-c5cc(S(=O)(=O)[O-])ccc5F)c5ccc([nH]5)c(-c5cc(S(=O)(=O)[O-])ccc5F)c5nc(c(-c6cc(S(=O)(=O)[O-])ccc6F)c6ccc3[nH]6)C=C5)C=C4)cc2)CC1
REMARK SMILES IDX 19 1 18 2 17 3 16 4 15 5 13 6 14 7 3 9 4 10 2 11 1 12 88 13
REMARK SMILES IDX 89 14 5 15 6 17 7 18 12 19 8 20 10 21 9 22 11 23 20 24 21 25
REMARK SMILES IDX 22 26 23 27 24 29 25 30 26 31 87 32 27 33 86 34 28 35 29 36
REMARK SMILES IDX 30 37 80 38 31 39 85 40 79 41 81 42 32 43 84 44 78 45 77 46
REMARK SMILES IDX 33 48 65 49 45 50 64 51 46 52 49 53 63 54 82 55 47 56 48 57
REMARK SMILES IDX 62 59 83 60 50 61 34 62 35 63 43 64 36 65 42 66 44 67 41 68
REMARK SMILES IDX 37 69 38 70 39 71 40 72 66 73 67 74 75 75 68 76 74 77 76 78
REMARK SMILES IDX 73 79 69 80 70 81 71 82 72 83 51 84 52 85 60 86 53 87 59 88
REMARK SMILES IDX 61 89 58 90 54 91 55 92 56 93 57 94
REMARK H PARENT 15 8 5 16 22 28 81 47 49 58
REMARK Flexibility Score: inf
ROOT
ATOM      1  C   UNL A   1      31.386  30.830  26.449  1.00  0.00     0.002 C 
ENDROOT
BRANCH   1   2
ATOM      2  C   UNL A   1      32.561  30.063  27.055  1.00  0.00     0.002 C 
BRANCH   2   3
ATOM      3  C   UNL A   1      32.335  28.556  27.132  1.00  0.00     0.021 C 
BRANCH   3   4
ATOM      4  C   UNL A   1      33.401  27.726  26.425  1.00  0.00     0.116 C 
BRANCH   4   5
ATOM      5  N   UNL A   1      33.947  28.359  25.241  1.00  0.00    -0.354 N 
ATOM      6  C   UNL A   1      33.791  28.026  23.920  1.00  0.00     0.245 C 
ATOM      7  O   UNL A   1      34.361  28.747  23.092  1.00  0.00    -0.272 OA
ATOM      8  H   UNL A   1      34.514  29.146  25.410  1.00  0.00     0.163 HD
BRANCH   6   9
ATOM      9  C   UNL A   1      32.887  26.814  23.487  1.00  0.00     0.119 C 
ATOM     10  C   UNL A   1      33.261  26.366  22.053  1.00  0.00     0.046 C 
BRANCH   9  11
ATOM     11  C   UNL A   1      31.379  27.304  23.451  1.00  0.00    -0.001 C 
ATOM     12  C   UNL A   1      31.141  28.497  22.530  1.00  0.00     0.014 C 
ATOM     13  C   UNL A   1      30.469  27.220  24.675  1.00  0.00     0.010 C 
ATOM     14  C   UNL A   1      30.237  26.297  23.522  1.00  0.00     0.010 C 
ENDBRANCH   9  11
BRANCH   9  15
ATOM     15  N   UNL A   1      33.070  25.609  24.341  1.00  0.00    -0.371 N 
ATOM     16  H   UNL A   1      32.399  25.491  25.052  1.00  0.00     0.161 HD
BRANCH  15  17
ATOM     17  C   UNL A   1      34.051  24.625  24.279  1.00  0.00     0.036 A 
ATOM     18  C   UNL A   1      34.132  23.620  23.304  1.00  0.00     0.026 A 
ATOM     19  C   UNL A   1      35.116  24.682  25.193  1.00  0.00     0.046 A 
ATOM     20  C   UNL A   1      35.268  22.810  23.154  1.00  0.00     0.004 A 
ATOM     21  C   UNL A   1      36.223  23.830  25.088  1.00  0.00     0.043 A 
ATOM     22  C   UNL A   1      36.323  22.919  24.045  1.00  0.00     0.020 A 
ATOM     23  Cl  UNL A   1      37.488  23.919  26.255  1.00  0.00    -0.084 Cl
ENDBRANCH  15  17
ENDBRANCH   9  15
ENDBRANCH   6   9
ENDBRANCH   4   5
ENDBRANCH   3   4
ENDBRANCH   2   3
ENDBRANCH   1   2
BRANCH   1  24
ATOM     24  C   UNL A   1      31.468  32.351  26.617  1.00  0.00     0.021 C 
BRANCH  24  25
ATOM     25  C   UNL A   1      32.735  32.843  27.306  1.00  0.00     0.116 C 
BRANCH  25  26
ATOM     26  N   UNL A   1      32.586  34.206  27.787  1.00  0.00    -0.352 N 
ATOM     27  C   UNL A   1      33.178  34.792  28.872  1.00  0.00     0.251 C 
ATOM     28  H   UNL A   1      31.982  34.781  27.264  1.00  0.00     0.163 HD
ATOM     29  O   UNL A   1      32.761  35.874  29.294  1.00  0.00    -0.269 OA
BRANCH  27  30
ATOM     30  C   UNL A   1      34.301  34.107  29.541  1.00  0.00     0.039 A 
ATOM     31  C   UNL A   1      35.608  34.420  29.169  1.00  0.00     0.014 A 
ATOM     32  C   UNL A   1      34.056  33.162  30.544  1.00  0.00     0.014 A 
ATOM     33  C   UNL A   1      36.675  33.810  29.830  1.00  0.00     0.010 A 
ATOM     34  C   UNL A   1      35.121  32.611  31.249  1.00  0.00     0.010 A 
ATOM     35  C   UNL A   1      36.441  32.917  30.889  1.00  0.00    -0.014 A 
BRANCH  35  36
ATOM     36  C   UNL A   1      37.574  32.272  31.603  1.00  0.00     0.031 A 
ATOM     37  C   UNL A   1      38.344  31.161  30.940  1.00  0.00     0.074 A 
ATOM     38  C   UNL A   1      37.887  32.665  32.853  1.00  0.00     0.049 A 
ATOM     39  N   UNL A   1      39.346  30.457  31.402  1.00  0.00    -0.248 NA
ATOM     40  C   UNL A   1      37.909  30.771  29.590  1.00  0.00     0.031 C 
ATOM     41  C   UNL A   1      37.185  33.702  33.612  1.00  0.00     0.029 A 
ATOM     42  N   UNL A   1      38.874  32.241  33.706  1.00  0.00    -0.354 N 
ATOM     43  C   UNL A   1      39.656  29.539  30.404  1.00  0.00     0.074 A 
ATOM     44  C   UNL A   1      38.688  29.729  29.345  1.00  0.00     0.031 C 
ATOM     45  C   UNL A   1      37.785  33.857  34.804  1.00  0.00     0.029 A 
ATOM     46  C   UNL A   1      38.885  32.904  34.912  1.00  0.00     0.049 A 
ATOM     47  H   UNL A   1      39.515  31.529  33.477  1.00  0.00     0.167 HD
ATOM     48  C   UNL A   1      40.670  28.640  30.363  1.00  0.00     0.034 A 
ATOM     49  C   UNL A   1      39.689  32.756  35.984  1.00  0.00     0.034 A 
ATOM     50  C   UNL A   1      41.631  28.469  31.426  1.00  0.00     0.049 A 
ATOM     51  C   UNL A   1      40.799  31.736  35.924  1.00  0.00     0.074 A 
ATOM     52  C   UNL A   1      42.725  27.623  31.474  1.00  0.00     0.029 A 
ATOM     53  N   UNL A   1      41.610  29.156  32.635  1.00  0.00    -0.354 N 
ATOM     54  N   UNL A   1      41.112  30.911  34.951  1.00  0.00    -0.248 NA
ATOM     55  C   UNL A   1      41.672  31.640  37.099  1.00  0.00     0.031 C 
ATOM     56  C   UNL A   1      43.321  27.745  32.735  1.00  0.00     0.029 A 
ATOM     57  C   UNL A   1      42.652  28.729  33.445  1.00  0.00     0.049 A 
ATOM     58  H   UNL A   1      40.950  29.845  32.881  1.00  0.00     0.167 HD
ATOM     59  C   UNL A   1      42.241  30.222  35.386  1.00  0.00     0.074 A 
ATOM     60  C   UNL A   1      42.562  30.744  36.700  1.00  0.00     0.031 C 
ATOM     61  C   UNL A   1      42.953  29.250  34.759  1.00  0.00     0.034 A 
BRANCH  48  62
ATOM     62  C   UNL A   1      40.770  27.760  29.138  1.00  0.00     0.023 A 
ATOM     63  C   UNL A   1      41.693  28.024  28.110  1.00  0.00     0.031 A 
ATOM     64  C   UNL A   1      39.909  26.659  28.977  1.00  0.00     0.131 A 
ATOM     65  C   UNL A   1      41.680  27.254  26.938  1.00  0.00     0.055 A 
ATOM     66  C   UNL A   1      39.961  25.842  27.846  1.00  0.00     0.041 A 
ATOM     67  F   UNL A   1      38.991  26.366  29.912  1.00  0.00    -0.206 F 
ATOM     68  C   UNL A   1      40.838  26.148  26.810  1.00  0.00     0.022 A 
BRANCH  65  69
ATOM     69  S   UNL A   1      42.669  27.812  25.523  1.00  0.00     0.124 S 
ATOM     70  O   UNL A   1      42.770  26.585  24.734  1.00  0.00    -0.237 OA
ATOM     71  O   UNL A   1      41.842  28.869  24.956  1.00  0.00    -0.237 OA
ATOM     72  O   UNL A   1      43.921  28.256  26.133  1.00  0.00    -0.744 OA
ENDBRANCH  65  69
ENDBRANCH  48  62
BRANCH  49  73
ATOM     73  C   UNL A   1      39.484  33.589  37.205  1.00  0.00     0.023 A 
ATOM     74  C   UNL A   1      38.745  33.105  38.296  1.00  0.00     0.031 A 
ATOM     75  C   UNL A   1      39.986  34.900  37.279  1.00  0.00     0.131 A 
ATOM     76  C   UNL A   1      38.483  33.943  39.392  1.00  0.00     0.055 A 
ATOM     77  C   UNL A   1      39.770  35.711  38.395  1.00  0.00     0.041 A 
ATOM     78  F   UNL A   1      40.704  35.412  36.266  1.00  0.00    -0.206 F 
ATOM     79  C   UNL A   1      39.003  35.238  39.455  1.00  0.00     0.022 A 
BRANCH  76  80
ATOM     80  S   UNL A   1      37.372  33.347  40.695  1.00  0.00     0.124 S 
ATOM     81  O   UNL A   1      37.065  34.580  41.411  1.00  0.00    -0.237 OA
ATOM     82  O   UNL A   1      36.281  32.765  39.920  1.00  0.00    -0.237 OA
ATOM     83  O   UNL A   1      38.193  32.386  41.429  1.00  0.00    -0.744 OA
ENDBRANCH  76  80
ENDBRANCH  49  73
BRANCH  61  84
ATOM     84  C   UNL A   1      44.176  28.729  35.473  1.00  0.00     0.023 A 
ATOM     85  C   UNL A   1      44.095  27.708  36.437  1.00  0.00     0.031 A 
ATOM     86  C   UNL A   1      45.442  29.280  35.201  1.00  0.00     0.131 A 
ATOM     87  C   UNL A   1      45.244  27.320  37.143  1.00  0.00     0.055 A 
ATOM     88  C   UNL A   1      46.593  28.840  35.856  1.00  0.00     0.041 A 
ATOM     89  F   UNL A   1      45.581  30.257  34.291  1.00  0.00    -0.206 F 
ATOM     90  C   UNL A   1      46.495  27.866  36.846  1.00  0.00     0.022 A 
BRANCH  87  91
ATOM     91  S   UNL A   1      45.062  26.173  38.536  1.00  0.00     0.124 S 
ATOM     92  O   UNL A   1      43.889  26.709  39.219  1.00  0.00    -0.237 OA
ATOM     93  O   UNL A   1      44.878  24.892  37.863  1.00  0.00    -0.237 OA
ATOM     94  O   UNL A   1      46.322  26.315  39.264  1.00  0.00    -0.744 OA
ENDBRANCH  87  91
ENDBRANCH  61  84
ENDBRANCH  35  36
ENDBRANCH  27  30
ENDBRANCH  25  26
ENDBRANCH  24  25
ENDBRANCH   1  24
TORSDOF 19
ENDMDL
MODEL 2
REMARK VINA RESULT:     -10.9      0.673      7.801
REMARK SMILES CC1([C@](C)(Nc2cccc(Cl)c2)C(=O)NCCCCCCNC(=O)c2ccc(-c3c4nc(c(-c5cc(S(=O)(=O)[O-])ccc5F)c5ccc([nH]5)c(-c5cc(S(=O)(=O)[O-])ccc5F)c5nc(c(-c6cc(S(=O)(=O)[O-])ccc6F)c6ccc3[nH]6)C=C5)C=C4)cc2)CC1
REMARK SMILES IDX 19 1 18 2 17 3 16 4 15 5 13 6 14 7 3 9 4 10 2 11 1 12 88 13
REMARK SMILES IDX 89 14 5 15 6 17 7 18 12 19 8 20 10 21 9 22 11 23 20 24 21 25
REMARK SMILES IDX 22 26 23 27 24 29 25 30 26 31 87 32 27 33 86 34 28 35 29 36
REMARK SMILES IDX 30 37 80 38 31 39 85 40 79 41 81 42 32 43 84 44 78 45 77 46
REMARK SMILES IDX 33 48 65 49 45 50 64 51 46 52 49 53 63 54 82 55 47 56 48 57
REMARK SMILES IDX 62 59 83 60 50 61 34 62 35 63 43 64 36 65 42 66 44 67 41 68
REMARK SMILES IDX 37 69 38 70 39 71 40 72 66 73 67 74 75 75 68 76 74 77 76 78
REMARK SMILES IDX 73 79 69 80 70 81 71 82 72 83 51 84 52 85 60 86 53 87 59 88
REMARK SMILES IDX 61 89 58 90 54 91 55 92 56 93 57 94
REMARK H PARENT 15 8 5 16 22 28 81 47 49 58
REMARK Flexibility Score: inf
ROOT
ATOM      1  C   UNL A   1      31.484  30.908  26.404  1.00  0.00     0.002 C 
ENDROOT
BRANCH   1   2
ATOM      2  C   UNL A   1      32.594  30.138  27.120  1.00  0.00     0.002 C 
BRANCH   2   3
ATOM      3  C   UNL A   1      32.426  28.623  27.060  1.00  0.00     0.021 C 
BRANCH   3   4
ATOM      4  C   UNL A   1      33.598  27.887  26.421  1.00  0.00     0.116 C 
BRANCH   4   5
ATOM      5  N   UNL A   1      34.047  28.472  25.173  1.00  0.00    -0.354 N 
ATOM      6  C   UNL A   1      33.755  28.110  23.883  1.00  0.00     0.245 C 
ATOM      7  O   UNL A   1      34.264  28.792  22.984  1.00  0.00    -0.272 OA
ATOM      8  H   UNL A   1      34.651  29.244  25.265  1.00  0.00     0.163 HD
BRANCH   6   9
ATOM      9  C   UNL A   1      32.779  26.918  23.572  1.00  0.00     0.119 C 
ATOM     10  C   UNL A   1      32.981  26.440  22.113  1.00  0.00     0.046 C 
BRANCH   9  11
ATOM     11  C   UNL A   1      31.289  27.448  23.694  1.00  0.00    -0.001 C 
ATOM     12  C   UNL A   1      30.445  26.685  24.710  1.00  0.00     0.014 C 
ATOM     13  C   UNL A   1      30.530  28.018  22.496  1.00  0.00     0.010 C 
ATOM     14  C   UNL A   1      30.986  28.937  23.583  1.00  0.00     0.010 C 
ENDBRANCH   9  11
BRANCH   9  15
ATOM     15  N   UNL A   1      33.024  25.720  24.421  1.00  0.00    -0.371 N 
ATOM     16  H   UNL A   1      32.419  25.618  25.191  1.00  0.00     0.161 HD
BRANCH  15  17
ATOM     17  C   UNL A   1      33.984  24.723  24.283  1.00  0.00     0.036 A 
ATOM     18  C   UNL A   1      34.017  23.764  23.261  1.00  0.00     0.026 A 
ATOM     19  C   UNL A   1      35.078  24.720  25.164  1.00  0.00     0.046 A 
ATOM     20  C   UNL A   1      35.132  22.941  23.038  1.00  0.00     0.004 A 
ATOM     21  C   UNL A   1      36.165  23.854  24.986  1.00  0.00     0.043 A 
ATOM     22  C   UNL A   1      36.216  22.991  23.899  1.00  0.00     0.020 A 
ATOM     23  Cl  UNL A   1      37.466  23.867  26.115  1.00  0.00    -0.084 Cl
ENDBRANCH  15  17
ENDBRANCH   9  15
ENDBRANCH   6   9
ENDBRANCH   4   5
ENDBRANCH   3   4
ENDBRANCH   2   3
ENDBRANCH   1   2
BRANCH   1  24
ATOM     24  C   UNL A   1      31.525  32.424  26.618  1.00  0.00     0.021 C 
BRANCH  24  25
ATOM     25  C   UNL A   1      32.719  32.916  27.429  1.00  0.00     0.116 C 
BRANCH  25  26
ATOM     26  N   UNL A   1      32.529  34.283  27.884  1.00  0.00    -0.352 N 
ATOM     27  C   UNL A   1      33.136  34.921  28.931  1.00  0.00     0.251 C 
ATOM     28  H   UNL A   1      31.879  34.818  27.374  1.00  0.00     0.163 HD
ATOM     29  O   UNL A   1      32.689  35.993  29.344  1.00  0.00    -0.269 OA
BRANCH  27  30
ATOM     30  C   UNL A   1      34.315  34.303  29.568  1.00  0.00     0.039 A 
ATOM     31  C   UNL A   1      34.134  33.473  30.675  1.00  0.00     0.014 A 
ATOM     32  C   UNL A   1      35.598  34.538  29.061  1.00  0.00     0.014 A 
ATOM     33  C   UNL A   1      35.240  32.849  31.253  1.00  0.00     0.010 A 
ATOM     34  C   UNL A   1      36.688  33.857  29.594  1.00  0.00     0.010 A 
ATOM     35  C   UNL A   1      36.522  33.019  30.705  1.00  0.00    -0.014 A 
BRANCH  35  36
ATOM     36  C   UNL A   1      37.702  32.348  31.311  1.00  0.00     0.031 A 
ATOM     37  C   UNL A   1      38.257  32.842  32.620  1.00  0.00     0.074 A 
ATOM     38  C   UNL A   1      38.288  31.318  30.670  1.00  0.00     0.049 A 
ATOM     39  N   UNL A   1      39.289  32.410  33.299  1.00  0.00    -0.248 NA
ATOM     40  C   UNL A   1      37.578  33.996  33.230  1.00  0.00     0.031 C 
ATOM     41  C   UNL A   1      37.864  30.778  29.376  1.00  0.00     0.029 A 
ATOM     42  N   UNL A   1      39.364  30.539  31.016  1.00  0.00    -0.354 N 
ATOM     43  C   UNL A   1      39.387  33.241  34.410  1.00  0.00     0.074 A 
ATOM     44  C   UNL A   1      38.354  34.245  34.274  1.00  0.00     0.031 C 
ATOM     45  C   UNL A   1      38.649  29.737  29.055  1.00  0.00     0.029 A 
ATOM     46  C   UNL A   1      39.657  29.560  30.096  1.00  0.00     0.049 A 
ATOM     47  H   UNL A   1      39.878  30.671  31.846  1.00  0.00     0.167 HD
ATOM     48  C   UNL A   1      40.240  33.157  35.461  1.00  0.00     0.034 A 
ATOM     49  C   UNL A   1      40.632  28.628  30.090  1.00  0.00     0.034 A 
ATOM     50  C   UNL A   1      41.260  32.143  35.583  1.00  0.00     0.049 A 
ATOM     51  C   UNL A   1      41.582  28.566  31.260  1.00  0.00     0.074 A 
ATOM     52  C   UNL A   1      42.149  31.934  36.623  1.00  0.00     0.029 A 
ATOM     53  N   UNL A   1      41.531  31.168  34.630  1.00  0.00    -0.354 N 
ATOM     54  N   UNL A   1      41.628  29.327  32.330  1.00  0.00    -0.248 NA
ATOM     55  C   UNL A   1      42.601  27.511  31.228  1.00  0.00     0.031 C 
ATOM     56  C   UNL A   1      43.002  30.883  36.267  1.00  0.00     0.029 A 
ATOM     57  C   UNL A   1      42.593  30.378  35.044  1.00  0.00     0.049 A 
ATOM     58  H   UNL A   1      41.041  31.056  33.783  1.00  0.00     0.167 HD
ATOM     59  C   UNL A   1      42.660  28.816  33.114  1.00  0.00     0.074 A 
ATOM     60  C   UNL A   1      43.194  27.674  32.400  1.00  0.00     0.031 C 
ATOM     61  C   UNL A   1      43.123  29.248  34.316  1.00  0.00     0.034 A 
BRANCH  48  62
ATOM     62  C   UNL A   1      40.117  34.207  36.542  1.00  0.00     0.023 A 
ATOM     63  C   UNL A   1      39.703  33.881  37.846  1.00  0.00     0.031 A 
ATOM     64  C   UNL A   1      40.386  35.558  36.259  1.00  0.00     0.131 A 
ATOM     65  C   UNL A   1      39.491  34.895  38.791  1.00  0.00     0.055 A 
ATOM     66  C   UNL A   1      40.258  36.553  37.231  1.00  0.00     0.041 A 
ATOM     67  F   UNL A   1      40.764  35.937  35.029  1.00  0.00    -0.206 F 
ATOM     68  C   UNL A   1      39.792  36.228  38.500  1.00  0.00     0.022 A 
BRANCH  65  69
ATOM     69  S   UNL A   1      38.673  34.469  40.353  1.00  0.00     0.124 S 
ATOM     70  O   UNL A   1      38.351  35.791  40.886  1.00  0.00    -0.237 OA
ATOM     71  O   UNL A   1      37.540  33.667  39.907  1.00  0.00    -0.237 OA
ATOM     72  O   UNL A   1      39.703  33.741  41.093  1.00  0.00    -0.744 OA
ENDBRANCH  65  69
ENDBRANCH  48  62
BRANCH  49  73
ATOM     73  C   UNL A   1      40.764  27.677  28.948  1.00  0.00     0.023 A 
ATOM     74  C   UNL A   1      41.703  27.896  27.928  1.00  0.00     0.031 A 
ATOM     75  C   UNL A   1      39.918  26.559  28.837  1.00  0.00     0.131 A 
ATOM     76  C   UNL A   1      41.740  27.040  26.816  1.00  0.00     0.055 A 
ATOM     77  C   UNL A   1      39.997  25.679  27.756  1.00  0.00     0.041 A 
ATOM     78  F   UNL A   1      39.005  26.300  29.787  1.00  0.00    -0.206 F 
ATOM     79  C   UNL A   1      40.904  25.925  26.730  1.00  0.00     0.022 A 
BRANCH  76  80
ATOM     80  S   UNL A   1      42.838  27.459  25.434  1.00  0.00     0.124 S 
ATOM     81  O   UNL A   1      44.056  27.854  26.131  1.00  0.00    -0.237 OA
ATOM     82  O   UNL A   1      42.897  26.197  24.701  1.00  0.00    -0.237 OA
ATOM     83  O   UNL A   1      42.129  28.540  24.753  1.00  0.00    -0.744 OA
ENDBRANCH  76  80
ENDBRANCH  49  73
BRANCH  61  84
ATOM     84  C   UNL A   1      44.232  28.444  34.950  1.00  0.00     0.023 A 
ATOM     85  C   UNL A   1      43.980  27.497  35.959  1.00  0.00     0.031 A 
ATOM     86  C   UNL A   1      45.567  28.648  34.556  1.00  0.00     0.131 A 
ATOM     87  C   UNL A   1      45.051  26.842  36.586  1.00  0.00     0.055 A 
ATOM     88  C   UNL A   1      46.622  27.941  35.134  1.00  0.00     0.041 A 
ATOM     89  F   UNL A   1      45.869  29.540  33.598  1.00  0.00    -0.206 F 
ATOM     90  C   UNL A   1      46.368  27.044  36.168  1.00  0.00     0.022 A 
BRANCH  87  91
ATOM     91  S   UNL A   1      44.707  25.807  38.035  1.00  0.00     0.124 S 
ATOM     92  O   UNL A   1      45.883  26.047  38.865  1.00  0.00    -0.237 OA
ATOM     93  O   UNL A   1      43.454  26.367  38.529  1.00  0.00    -0.237 OA
ATOM     94  O   UNL A   1      44.606  24.459  37.478  1.00  0.00    -0.744 OA
ENDBRANCH  87  91
ENDBRANCH  61  84
ENDBRANCH  35  36
ENDBRANCH  27  30
ENDBRANCH  25  26
ENDBRANCH  24  25
ENDBRANCH   1  24
TORSDOF 19
ENDMDL
MODEL 3
REMARK VINA RESULT:     -10.9      4.139      8.780
REMARK SMILES CC1([C@](C)(Nc2cccc(Cl)c2)C(=O)NCCCCCCNC(=O)c2ccc(-c3c4nc(c(-c5cc(S(=O)(=O)[O-])ccc5F)c5ccc([nH]5)c(-c5cc(S(=O)(=O)[O-])ccc5F)c5nc(c(-c6cc(S(=O)(=O)[O-])ccc6F)c6ccc3[nH]6)C=C5)C=C4)cc2)CC1
REMARK SMILES IDX 19 1 18 2 17 3 16 4 15 5 13 6 14 7 3 9 4 10 2 11 1 12 88 13
REMARK SMILES IDX 89 14 5 15 6 17 7 18 12 19 8 20 10 21 9 22 11 23 20 24 21 25
REMARK SMILES IDX 22 26 23 27 24 29 25 30 26 31 87 32 27 33 86 34 28 35 29 36
REMARK SMILES IDX 30 37 80 38 31 39 85 40 79 41 81 42 32 43 84 44 78 45 77 46
REMARK SMILES IDX 33 48 65 49 45 50 64 51 46 52 49 53 63 54 82 55 47 56 48 57
REMARK SMILES IDX 62 59 83 60 50 61 34 62 35 63 43 64 36 65 42 66 44 67 41 68
REMARK SMILES IDX 37 69 38 70 39 71 40 72 66 73 67 74 75 75 68 76 74 77 76 78
REMARK SMILES IDX 73 79 69 80 70 81 71 82 72 83 51 84 52 85 60 86 53 87 59 88
REMARK SMILES IDX 61 89 58 90 54 91 55 92 56 93 57 94
REMARK H PARENT 15 8 5 16 22 28 81 47 49 58
REMARK Flexibility Score: inf
ROOT
ATOM      1  C   UNL A   1      31.715  28.130  26.788  1.00  0.00     0.002 C 
ENDROOT
BRANCH   1   2
ATOM      2  C   UNL A   1      31.156  27.269  25.655  1.00  0.00     0.002 C 
BRANCH   2   3
ATOM      3  C   UNL A   1      30.438  26.012  26.138  1.00  0.00     0.021 C 
BRANCH   3   4
ATOM      4  C   UNL A   1      31.183  24.714  25.848  1.00  0.00     0.116 C 
BRANCH   4   5
ATOM      5  N   UNL A   1      32.604  24.778  26.131  1.00  0.00    -0.354 N 
ATOM      6  C   UNL A   1      33.671  24.482  25.322  1.00  0.00     0.245 C 
ATOM      7  O   UNL A   1      34.798  24.635  25.809  1.00  0.00    -0.272 OA
ATOM      8  H   UNL A   1      32.837  25.079  27.039  1.00  0.00     0.163 HD
BRANCH   6   9
ATOM      9  C   UNL A   1      33.461  24.020  23.834  1.00  0.00     0.119 C 
ATOM     10  C   UNL A   1      34.798  23.497  23.254  1.00  0.00     0.046 C 
BRANCH   9  11
ATOM     11  C   UNL A   1      33.035  25.283  22.975  1.00  0.00    -0.001 C 
ATOM     12  C   UNL A   1      33.737  26.574  23.387  1.00  0.00     0.014 C 
ATOM     13  C   UNL A   1      31.622  25.445  22.416  1.00  0.00     0.010 C 
ATOM     14  C   UNL A   1      32.751  25.144  21.484  1.00  0.00     0.010 C 
ENDBRANCH   9  11
BRANCH   9  15
ATOM     15  N   UNL A   1      32.499  22.893  23.698  1.00  0.00    -0.371 N 
ATOM     16  H   UNL A   1      31.627  23.128  23.307  1.00  0.00     0.161 HD
BRANCH  15  17
ATOM     17  C   UNL A   1      32.655  21.554  24.042  1.00  0.00     0.036 A 
ATOM     18  C   UNL A   1      32.886  21.070  25.338  1.00  0.00     0.026 A 
ATOM     19  C   UNL A   1      32.467  20.580  23.047  1.00  0.00     0.046 A 
ATOM     20  C   UNL A   1      32.796  19.707  25.657  1.00  0.00     0.004 A 
ATOM     21  C   UNL A   1      32.443  19.213  23.349  1.00  0.00     0.043 A 
ATOM     22  C   UNL A   1      32.565  18.773  24.661  1.00  0.00     0.020 A 
ATOM     23  Cl  UNL A   1      32.242  18.058  22.087  1.00  0.00    -0.084 Cl
ENDBRANCH  15  17
ENDBRANCH   9  15
ENDBRANCH   6   9
ENDBRANCH   4   5
ENDBRANCH   3   4
ENDBRANCH   2   3
ENDBRANCH   1   2
BRANCH   1  24
ATOM     24  C   UNL A   1      33.228  28.003  26.993  1.00  0.00     0.021 C 
BRANCH  24  25
ATOM     25  C   UNL A   1      34.059  29.021  26.220  1.00  0.00     0.116 C 
BRANCH  25  26
ATOM     26  N   UNL A   1      33.796  30.377  26.671  1.00  0.00    -0.352 N 
ATOM     27  C   UNL A   1      34.430  31.080  27.659  1.00  0.00     0.251 C 
ATOM     28  H   UNL A   1      33.069  30.850  26.206  1.00  0.00     0.163 HD
ATOM     29  O   UNL A   1      33.933  32.121  28.093  1.00  0.00    -0.269 OA
BRANCH  27  30
ATOM     30  C   UNL A   1      35.699  30.567  28.210  1.00  0.00     0.039 A 
ATOM     31  C   UNL A   1      35.670  29.748  29.339  1.00  0.00     0.014 A 
ATOM     32  C   UNL A   1      36.917  30.890  27.601  1.00  0.00     0.014 A 
ATOM     33  C   UNL A   1      36.862  29.222  29.837  1.00  0.00     0.010 A 
ATOM     34  C   UNL A   1      38.094  30.305  28.056  1.00  0.00     0.010 A 
ATOM     35  C   UNL A   1      38.082  29.479  29.189  1.00  0.00    -0.014 A 
BRANCH  35  36
ATOM     36  C   UNL A   1      39.353  28.913  29.709  1.00  0.00     0.031 A 
ATOM     37  C   UNL A   1      39.982  29.494  30.946  1.00  0.00     0.074 A 
ATOM     38  C   UNL A   1      39.953  27.901  29.053  1.00  0.00     0.049 A 
ATOM     39  N   UNL A   1      41.098  29.159  31.545  1.00  0.00    -0.248 NA
ATOM     40  C   UNL A   1      39.280  30.622  31.577  1.00  0.00     0.031 C 
ATOM     41  C   UNL A   1      39.458  27.284  27.820  1.00  0.00     0.029 A 
ATOM     42  N   UNL A   1      41.107  27.211  29.327  1.00  0.00    -0.354 N 
ATOM     43  C   UNL A   1      41.232  30.037  32.616  1.00  0.00     0.074 A 
ATOM     44  C   UNL A   1      40.122  30.964  32.539  1.00  0.00     0.031 C 
ATOM     45  C   UNL A   1      40.284  26.286  27.465  1.00  0.00     0.029 A 
ATOM     46  C   UNL A   1      41.388  26.218  28.417  1.00  0.00     0.049 A 
ATOM     47  H   UNL A   1      41.680  27.408  30.104  1.00  0.00     0.167 HD
ATOM     48  C   UNL A   1      42.176  30.052  33.589  1.00  0.00     0.034 A 
ATOM     49  C   UNL A   1      42.422  25.355  28.356  1.00  0.00     0.034 A 
ATOM     50  C   UNL A   1      43.271  29.114  33.654  1.00  0.00     0.049 A 
ATOM     51  C   UNL A   1      43.471  25.402  29.438  1.00  0.00     0.074 A 
ATOM     52  C   UNL A   1      44.260  29.006  34.617  1.00  0.00     0.029 A 
ATOM     53  N   UNL A   1      43.527  28.124  32.712  1.00  0.00    -0.354 N 
ATOM     54  N   UNL A   1      43.555  26.205  30.474  1.00  0.00    -0.248 NA
ATOM     55  C   UNL A   1      44.555  24.417  29.350  1.00  0.00     0.031 C 
ATOM     56  C   UNL A   1      45.150  28.002  34.221  1.00  0.00     0.029 A 
ATOM     57  C   UNL A   1      44.674  27.423  33.056  1.00  0.00     0.049 A 
ATOM     58  H   UNL A   1      42.975  27.946  31.916  1.00  0.00     0.167 HD
ATOM     59  C   UNL A   1      44.684  25.796  31.180  1.00  0.00     0.074 A 
ATOM     60  C   UNL A   1      45.234  24.665  30.460  1.00  0.00     0.031 C 
ATOM     61  C   UNL A   1      45.218  26.304  32.321  1.00  0.00     0.034 A 
BRANCH  48  62
ATOM     62  C   UNL A   1      42.073  31.132  34.641  1.00  0.00     0.023 A 
ATOM     63  C   UNL A   1      42.527  32.442  34.403  1.00  0.00     0.031 A 
ATOM     64  C   UNL A   1      41.545  30.844  35.912  1.00  0.00     0.131 A 
ATOM     65  C   UNL A   1      42.521  33.388  35.439  1.00  0.00     0.055 A 
ATOM     66  C   UNL A   1      41.459  31.815  36.912  1.00  0.00     0.041 A 
ATOM     67  F   UNL A   1      41.115  29.608  36.210  1.00  0.00    -0.206 F 
ATOM     68  C   UNL A   1      41.965  33.091  36.685  1.00  0.00     0.022 A 
BRANCH  65  69
ATOM     69  S   UNL A   1      43.388  34.960  35.183  1.00  0.00     0.124 S 
ATOM     70  O   UNL A   1      42.647  35.852  36.072  1.00  0.00    -0.237 OA
ATOM     71  O   UNL A   1      44.750  34.640  35.590  1.00  0.00    -0.237 OA
ATOM     72  O   UNL A   1      43.207  35.224  33.756  1.00  0.00    -0.744 OA
ENDBRANCH  65  69
ENDBRANCH  48  62
BRANCH  49  73
ATOM     73  C   UNL A   1      42.521  24.371  27.239  1.00  0.00     0.023 A 
ATOM     74  C   UNL A   1      41.916  23.107  27.330  1.00  0.00     0.031 A 
ATOM     75  C   UNL A   1      43.263  24.663  26.081  1.00  0.00     0.131 A 
ATOM     76  C   UNL A   1      42.106  22.164  26.308  1.00  0.00     0.055 A 
ATOM     77  C   UNL A   1      43.403  23.742  25.042  1.00  0.00     0.041 A 
ATOM     78  F   UNL A   1      43.859  25.858  25.939  1.00  0.00    -0.206 F 
ATOM     79  C   UNL A   1      42.834  22.478  25.158  1.00  0.00     0.022 A 
BRANCH  76  80
ATOM     80  S   UNL A   1      41.465  20.484  26.545  1.00  0.00     0.124 S 
ATOM     81  O   UNL A   1      41.965  19.804  25.356  1.00  0.00    -0.237 OA
ATOM     82  O   UNL A   1      42.083  20.101  27.812  1.00  0.00    -0.237 OA
ATOM     83  O   UNL A   1      40.017  20.676  26.594  1.00  0.00    -0.744 OA
ENDBRANCH  76  80
ENDBRANCH  49  73
BRANCH  61  84
ATOM     84  C   UNL A   1      46.431  25.602  32.881  1.00  0.00     0.023 A 
ATOM     85  C   UNL A   1      47.731  25.890  32.429  1.00  0.00     0.031 A 
ATOM     86  C   UNL A   1      46.281  24.610  33.867  1.00  0.00     0.131 A 
ATOM     87  C   UNL A   1      48.820  25.148  32.909  1.00  0.00     0.055 A 
ATOM     88  C   UNL A   1      47.377  23.922  34.393  1.00  0.00     0.041 A 
ATOM     89  F   UNL A   1      45.065  24.290  34.337  1.00  0.00    -0.206 F 
ATOM     90  C   UNL A   1      48.653  24.179  33.902  1.00  0.00     0.022 A 
BRANCH  87  91
ATOM     91  S   UNL A   1      50.443  25.385  32.136  1.00  0.00     0.124 S 
ATOM     92  O   UNL A   1      51.288  25.682  33.289  1.00  0.00    -0.237 OA
ATOM     93  O   UNL A   1      50.674  24.096  31.493  1.00  0.00    -0.237 OA
ATOM     94  O   UNL A   1      50.227  26.505  31.221  1.00  0.00    -0.744 OA
ENDBRANCH  87  91
ENDBRANCH  61  84
ENDBRANCH  35  36
ENDBRANCH  27  30
ENDBRANCH  25  26
ENDBRANCH  24  25
ENDBRANCH   1  24
TORSDOF 19
ENDMDL
