MODEL 1
REMARK VINA RESULT:     -12.2      0.000      0.000
REMARK SMILES Cc1c(/C=C/C(=O)NCCCCCCNC(=O)c2ccc(-c3c4nc(c(-c5cc(S(=O)(=O)[O-])ccc5F)c5ccc([nH]5)c(-c5cc(S(=O)(=O)[O-])ccc5F)c5nc(c(-c6cc(S(=O)(=O)[O-])ccc6F)c6ccc3[nH]6)C=C5)C=C4)cc2)cccc1C(=O)N1C[C@@H](C)[C@@H](C)C1
REMARK SMILES IDX 11 1 10 2 9 3 8 4 6 5 7 6 5 8 4 9 3 10 1 11 2 12 84 13 81 14
REMARK SMILES IDX 83 15 82 16 85 17 86 18 87 19 88 20 93 21 89 22 91 23 90 24
REMARK SMILES IDX 92 25 12 26 13 27 14 28 15 29 16 30 17 32 18 33 19 34 80 35
REMARK SMILES IDX 20 36 79 37 21 38 22 39 23 40 73 41 24 42 78 43 72 44 74 45
REMARK SMILES IDX 25 46 77 47 71 48 70 49 26 51 58 52 38 53 57 54 39 55 42 56
REMARK SMILES IDX 56 57 75 58 40 59 41 60 55 62 76 63 43 64 27 65 28 66 36 67
REMARK SMILES IDX 29 68 35 69 37 70 34 71 30 72 31 73 32 74 33 75 59 76 60 77
REMARK SMILES IDX 68 78 61 79 67 80 69 81 66 82 62 83 63 84 64 85 65 86 44 87
REMARK SMILES IDX 45 88 53 89 46 90 52 91 54 92 51 93 47 94 48 95 49 96 50 97
REMARK H PARENT 8 7 15 31 74 50 42 61
REMARK Flexibility Score: inf
ROOT
ATOM      1  C   UNL A   1      36.826  22.783  24.859  1.00  0.00     0.002 C 
ENDROOT
BRANCH   1   2
ATOM      2  C   UNL A   1      36.024  21.539  25.267  1.00  0.00     0.021 C 
BRANCH   2   3
ATOM      3  C   UNL A   1      34.509  21.677  25.126  1.00  0.00     0.116 C 
BRANCH   3   4
ATOM      4  N   UNL A   1      33.846  21.803  26.414  1.00  0.00    -0.353 N 
ATOM      5  C   UNL A   1      33.246  22.894  26.970  1.00  0.00     0.243 C 
ATOM      6  O   UNL A   1      32.554  22.800  27.979  1.00  0.00    -0.270 OA
ATOM      7  H   UNL A   1      33.826  20.985  26.962  1.00  0.00     0.163 HD
BRANCH   5   8
ATOM      8  C   UNL A   1      33.365  24.197  26.283  1.00  0.00     0.072 C 
ATOM      9  C   UNL A   1      32.277  24.895  25.924  1.00  0.00     0.014 C 
BRANCH   9  10
ATOM     10  C   UNL A   1      32.347  26.219  25.283  1.00  0.00    -0.022 A 
ATOM     11  C   UNL A   1      30.179  25.775  24.048  1.00  0.00     0.046 C 
ATOM     12  C   UNL A   1      31.349  26.670  24.373  1.00  0.00    -0.031 A 
ATOM     13  C   UNL A   1      31.491  27.959  23.798  1.00  0.00     0.043 A 
ATOM     14  C   UNL A   1      33.476  27.018  25.539  1.00  0.00     0.008 A 
ATOM     15  C   UNL A   1      32.625  28.739  24.096  1.00  0.00     0.014 A 
ATOM     16  C   UNL A   1      33.613  28.271  24.955  1.00  0.00     0.001 A 
BRANCH  13  17
ATOM     17  C   UNL A   1      30.664  28.468  22.663  1.00  0.00     0.254 C 
ATOM     18  O   UNL A   1      30.651  27.796  21.631  1.00  0.00    -0.269 OA
BRANCH  17  19
ATOM     19  N   UNL A   1      29.892  29.605  22.789  1.00  0.00    -0.338 N 
ATOM     20  C   UNL A   1      29.403  30.266  21.595  1.00  0.00     0.123 C 
ATOM     21  C   UNL A   1      29.714  30.429  23.974  1.00  0.00     0.123 C 
ATOM     22  C   UNL A   1      29.099  31.698  22.016  1.00  0.00     0.010 C 
ATOM     23  C   UNL A   1      28.797  31.583  23.527  1.00  0.00     0.010 C 
ATOM     24  C   UNL A   1      28.017  32.322  21.144  1.00  0.00     0.010 C 
ATOM     25  C   UNL A   1      27.336  31.310  23.874  1.00  0.00     0.010 C 
ENDBRANCH  17  19
ENDBRANCH  13  17
ENDBRANCH   9  10
ENDBRANCH   5   8
ENDBRANCH   3   4
ENDBRANCH   2   3
ENDBRANCH   1   2
BRANCH   1  26
ATOM     26  C   UNL A   1      37.568  23.518  25.988  1.00  0.00     0.002 C 
BRANCH  26  27
ATOM     27  C   UNL A   1      39.091  23.381  25.995  1.00  0.00     0.021 C 
BRANCH  27  28
ATOM     28  C   UNL A   1      39.611  22.311  26.955  1.00  0.00     0.116 C 
BRANCH  28  29
ATOM     29  N   UNL A   1      40.440  21.306  26.297  1.00  0.00    -0.352 N 
ATOM     30  C   UNL A   1      41.819  21.277  26.123  1.00  0.00     0.251 C 
ATOM     31  H   UNL A   1      39.953  20.537  25.924  1.00  0.00     0.163 HD
ATOM     32  O   UNL A   1      42.375  20.414  25.490  1.00  0.00    -0.269 OA
BRANCH  30  33
ATOM     33  C   UNL A   1      42.621  22.271  26.880  1.00  0.00     0.039 A 
ATOM     34  C   UNL A   1      42.544  22.201  28.276  1.00  0.00     0.014 A 
ATOM     35  C   UNL A   1      43.175  23.379  26.247  1.00  0.00     0.014 A 
ATOM     36  C   UNL A   1      42.793  23.345  29.026  1.00  0.00     0.010 A 
ATOM     37  C   UNL A   1      43.340  24.538  26.980  1.00  0.00     0.010 A 
ATOM     38  C   UNL A   1      43.071  24.536  28.356  1.00  0.00    -0.014 A 
BRANCH  38  39
ATOM     39  C   UNL A   1      42.917  25.842  28.989  1.00  0.00     0.031 A 
ATOM     40  C   UNL A   1      41.708  26.655  28.769  1.00  0.00     0.074 A 
ATOM     41  C   UNL A   1      43.882  26.290  29.821  1.00  0.00     0.049 A 
ATOM     42  N   UNL A   1      41.649  27.935  28.921  1.00  0.00    -0.248 NA
ATOM     43  C   UNL A   1      40.462  26.077  28.286  1.00  0.00     0.031 C 
ATOM     44  C   UNL A   1      43.812  27.423  30.737  1.00  0.00     0.029 A 
ATOM     45  N   UNL A   1      45.229  25.940  29.803  1.00  0.00    -0.354 N 
ATOM     46  C   UNL A   1      40.324  28.304  28.865  1.00  0.00     0.074 A 
ATOM     47  C   UNL A   1      39.644  27.129  28.371  1.00  0.00     0.031 C 
ATOM     48  C   UNL A   1      45.059  27.843  31.001  1.00  0.00     0.029 A 
ATOM     49  C   UNL A   1      45.961  27.085  30.154  1.00  0.00     0.049 A 
ATOM     50  H   UNL A   1      45.599  25.054  29.585  1.00  0.00     0.167 HD
ATOM     51  C   UNL A   1      39.947  29.507  29.389  1.00  0.00     0.034 A 
ATOM     52  C   UNL A   1      46.870  27.627  29.290  1.00  0.00     0.034 A 
ATOM     53  C   UNL A   1      41.113  30.309  29.780  1.00  0.00     0.049 A 
ATOM     54  C   UNL A   1      46.539  29.046  28.879  1.00  0.00     0.074 A 
ATOM     55  C   UNL A   1      41.700  30.596  31.003  1.00  0.00     0.029 A 
ATOM     56  N   UNL A   1      42.017  30.730  28.808  1.00  0.00    -0.354 N 
ATOM     57  N   UNL A   1      45.373  29.607  29.049  1.00  0.00    -0.248 NA
ATOM     58  C   UNL A   1      47.496  29.939  28.234  1.00  0.00     0.031 C 
ATOM     59  C   UNL A   1      42.995  31.126  30.756  1.00  0.00     0.029 A 
ATOM     60  C   UNL A   1      43.183  31.196  29.387  1.00  0.00     0.049 A 
ATOM     61  H   UNL A   1      41.848  30.700  27.838  1.00  0.00     0.167 HD
ATOM     62  C   UNL A   1      45.395  30.885  28.547  1.00  0.00     0.074 A 
ATOM     63  C   UNL A   1      46.758  31.051  28.073  1.00  0.00     0.031 C 
ATOM     64  C   UNL A   1      44.284  31.686  28.562  1.00  0.00     0.034 A 
BRANCH  51  65
ATOM     65  C   UNL A   1      38.532  29.825  29.850  1.00  0.00     0.023 A 
ATOM     66  C   UNL A   1      37.845  30.916  29.271  1.00  0.00     0.031 A 
ATOM     67  C   UNL A   1      37.833  29.173  30.885  1.00  0.00     0.131 A 
ATOM     68  C   UNL A   1      36.617  31.379  29.786  1.00  0.00     0.055 A 
ATOM     69  C   UNL A   1      36.640  29.663  31.437  1.00  0.00     0.041 A 
ATOM     70  F   UNL A   1      38.228  27.993  31.374  1.00  0.00    -0.206 F 
ATOM     71  C   UNL A   1      36.033  30.784  30.898  1.00  0.00     0.022 A 
BRANCH  68  72
ATOM     72  S   UNL A   1      35.789  32.780  28.983  1.00  0.00     0.124 S 
ATOM     73  O   UNL A   1      36.770  33.848  29.134  1.00  0.00    -0.237 OA
ATOM     74  O   UNL A   1      35.578  32.278  27.630  1.00  0.00    -0.237 OA
ATOM     75  O   UNL A   1      34.569  32.947  29.772  1.00  0.00    -0.744 OA
ENDBRANCH  68  72
ENDBRANCH  51  65
BRANCH  52  76
ATOM     76  C   UNL A   1      47.560  26.605  28.451  1.00  0.00     0.023 A 
ATOM     77  C   UNL A   1      47.142  26.494  27.107  1.00  0.00     0.031 A 
ATOM     78  C   UNL A   1      48.808  26.071  28.796  1.00  0.00     0.131 A 
ATOM     79  C   UNL A   1      48.028  26.029  26.125  1.00  0.00     0.055 A 
ATOM     80  C   UNL A   1      49.663  25.536  27.822  1.00  0.00     0.041 A 
ATOM     81  F   UNL A   1      49.274  26.174  30.049  1.00  0.00    -0.206 F 
ATOM     82  C   UNL A   1      49.294  25.557  26.474  1.00  0.00     0.022 A 
BRANCH  79  83
ATOM     83  S   UNL A   1      47.630  26.298  24.369  1.00  0.00     0.124 S 
ATOM     84  O   UNL A   1      47.441  24.937  23.885  1.00  0.00    -0.237 OA
ATOM     85  O   UNL A   1      46.426  27.125  24.423  1.00  0.00    -0.237 OA
ATOM     86  O   UNL A   1      48.810  26.995  23.862  1.00  0.00    -0.744 OA
ENDBRANCH  79  83
ENDBRANCH  52  76
BRANCH  64  87
ATOM     87  C   UNL A   1      44.144  33.036  27.881  1.00  0.00     0.023 A 
ATOM     88  C   UNL A   1      44.032  34.252  28.573  1.00  0.00     0.031 A 
ATOM     89  C   UNL A   1      44.195  33.146  26.468  1.00  0.00     0.131 A 
ATOM     90  C   UNL A   1      43.891  35.474  27.888  1.00  0.00     0.055 A 
ATOM     91  C   UNL A   1      44.135  34.369  25.791  1.00  0.00     0.041 A 
ATOM     92  F   UNL A   1      44.315  32.070  25.677  1.00  0.00    -0.206 F 
ATOM     93  C   UNL A   1      43.966  35.546  26.501  1.00  0.00     0.022 A 
BRANCH  90  94
ATOM     94  S   UNL A   1      43.548  36.969  28.856  1.00  0.00     0.124 S 
ATOM     95  O   UNL A   1      42.315  37.449  28.238  1.00  0.00    -0.237 OA
ATOM     96  O   UNL A   1      43.414  36.443  30.210  1.00  0.00    -0.237 OA
ATOM     97  O   UNL A   1      44.723  37.808  28.628  1.00  0.00    -0.744 OA
ENDBRANCH  90  94
ENDBRANCH  64  87
ENDBRANCH  38  39
ENDBRANCH  30  33
ENDBRANCH  28  29
ENDBRANCH  27  28
ENDBRANCH  26  27
ENDBRANCH   1  26
TORSDOF 19
ENDMDL
MODEL 2
REMARK VINA RESULT:     -12.0      1.712      2.398
REMARK SMILES Cc1c(/C=C/C(=O)NCCCCCCNC(=O)c2ccc(-c3c4nc(c(-c5cc(S(=O)(=O)[O-])ccc5F)c5ccc([nH]5)c(-c5cc(S(=O)(=O)[O-])ccc5F)c5nc(c(-c6cc(S(=O)(=O)[O-])ccc6F)c6ccc3[nH]6)C=C5)C=C4)cc2)cccc1C(=O)N1C[C@@H](C)[C@@H](C)C1
REMARK SMILES IDX 11 1 10 2 9 3 8 4 6 5 7 6 5 8 4 9 3 10 1 11 2 12 84 13 81 14
REMARK SMILES IDX 83 15 82 16 85 17 86 18 87 19 88 20 93 21 89 22 91 23 90 24
REMARK SMILES IDX 92 25 12 26 13 27 14 28 15 29 16 30 17 32 18 33 19 34 80 35
REMARK SMILES IDX 20 36 79 37 21 38 22 39 23 40 73 41 24 42 78 43 72 44 74 45
REMARK SMILES IDX 25 46 77 47 71 48 70 49 26 51 58 52 38 53 57 54 39 55 42 56
REMARK SMILES IDX 56 57 75 58 40 59 41 60 55 62 76 63 43 64 27 65 28 66 36 67
REMARK SMILES IDX 29 68 35 69 37 70 34 71 30 72 31 73 32 74 33 75 59 76 60 77
REMARK SMILES IDX 68 78 61 79 67 80 69 81 66 82 62 83 63 84 64 85 65 86 44 87
REMARK SMILES IDX 45 88 53 89 46 90 52 91 54 92 51 93 47 94 48 95 49 96 50 97
REMARK H PARENT 8 7 15 31 74 50 42 61
REMARK Flexibility Score: inf
ROOT
ATOM      1  C   UNL A   1      36.066  23.083  25.943  1.00  0.00     0.002 C 
ENDROOT
BRANCH   1   2
ATOM      2  C   UNL A   1      35.989  21.559  25.770  1.00  0.00     0.021 C 
BRANCH   2   3
ATOM      3  C   UNL A   1      35.034  21.083  24.677  1.00  0.00     0.116 C 
BRANCH   3   4
ATOM      4  N   UNL A   1      34.294  19.895  25.070  1.00  0.00    -0.353 N 
ATOM      5  C   UNL A   1      32.955  19.744  25.281  1.00  0.00     0.243 C 
ATOM      6  O   UNL A   1      32.449  18.634  25.417  1.00  0.00    -0.270 OA
ATOM      7  H   UNL A   1      34.837  19.084  25.202  1.00  0.00     0.163 HD
BRANCH   5   8
ATOM      8  C   UNL A   1      32.093  20.943  25.254  1.00  0.00     0.072 C 
ATOM      9  C   UNL A   1      32.446  22.066  25.899  1.00  0.00     0.014 C 
BRANCH   9  10
ATOM     10  C   UNL A   1      31.643  23.301  25.859  1.00  0.00    -0.022 A 
ATOM     11  C   UNL A   1      33.430  24.459  24.484  1.00  0.00     0.046 C 
ATOM     12  C   UNL A   1      32.094  24.471  25.185  1.00  0.00    -0.031 A 
ATOM     13  C   UNL A   1      31.262  25.620  25.194  1.00  0.00     0.043 A 
ATOM     14  C   UNL A   1      30.432  23.324  26.573  1.00  0.00     0.008 A 
ATOM     15  C   UNL A   1      30.044  25.597  25.901  1.00  0.00     0.014 A 
ATOM     16  C   UNL A   1      29.634  24.462  26.590  1.00  0.00     0.001 A 
BRANCH  13  17
ATOM     17  C   UNL A   1      31.695  26.975  24.741  1.00  0.00     0.254 C 
ATOM     18  O   UNL A   1      31.499  27.263  23.559  1.00  0.00    -0.269 OA
BRANCH  17  19
ATOM     19  N   UNL A   1      32.227  27.892  25.624  1.00  0.00    -0.338 N 
ATOM     20  C   UNL A   1      33.661  27.919  25.841  1.00  0.00     0.123 C 
ATOM     21  C   UNL A   1      31.516  28.685  26.615  1.00  0.00     0.123 C 
ATOM     22  C   UNL A   1      33.857  28.591  27.193  1.00  0.00     0.010 C 
ATOM     23  C   UNL A   1      32.609  29.488  27.345  1.00  0.00     0.010 C 
ATOM     24  C   UNL A   1      35.213  29.277  27.288  1.00  0.00     0.010 C 
ATOM     25  C   UNL A   1      32.753  30.896  26.772  1.00  0.00     0.010 C 
ENDBRANCH  17  19
ENDBRANCH  13  17
ENDBRANCH   9  10
ENDBRANCH   5   8
ENDBRANCH   3   4
ENDBRANCH   2   3
ENDBRANCH   1   2
BRANCH   1  26
ATOM     26  C   UNL A   1      37.439  23.658  26.331  1.00  0.00     0.002 C 
BRANCH  26  27
ATOM     27  C   UNL A   1      38.658  22.944  25.745  1.00  0.00     0.021 C 
BRANCH  27  28
ATOM     28  C   UNL A   1      39.557  22.292  26.794  1.00  0.00     0.116 C 
BRANCH  28  29
ATOM     29  N   UNL A   1      40.350  21.187  26.264  1.00  0.00    -0.352 N 
ATOM     30  C   UNL A   1      41.729  21.075  26.134  1.00  0.00     0.251 C 
ATOM     31  H   UNL A   1      39.834  20.409  25.953  1.00  0.00     0.163 HD
ATOM     32  O   UNL A   1      42.256  20.127  25.605  1.00  0.00    -0.269 OA
BRANCH  30  33
ATOM     33  C   UNL A   1      42.562  22.100  26.814  1.00  0.00     0.039 A 
ATOM     34  C   UNL A   1      42.623  22.026  28.210  1.00  0.00     0.014 A 
ATOM     35  C   UNL A   1      43.009  23.228  26.134  1.00  0.00     0.014 A 
ATOM     36  C   UNL A   1      42.898  23.179  28.937  1.00  0.00     0.010 A 
ATOM     37  C   UNL A   1      43.199  24.392  26.852  1.00  0.00     0.010 A 
ATOM     38  C   UNL A   1      43.065  24.380  28.247  1.00  0.00    -0.014 A 
BRANCH  38  39
ATOM     39  C   UNL A   1      42.922  25.679  28.896  1.00  0.00     0.031 A 
ATOM     40  C   UNL A   1      41.715  26.501  28.696  1.00  0.00     0.074 A 
ATOM     41  C   UNL A   1      43.896  26.113  29.726  1.00  0.00     0.049 A 
ATOM     42  N   UNL A   1      41.663  27.779  28.865  1.00  0.00    -0.248 NA
ATOM     43  C   UNL A   1      40.463  25.934  28.218  1.00  0.00     0.031 C 
ATOM     44  C   UNL A   1      43.839  27.236  30.656  1.00  0.00     0.029 A 
ATOM     45  N   UNL A   1      45.241  25.757  29.692  1.00  0.00    -0.354 N 
ATOM     46  C   UNL A   1      40.340  28.155  28.824  1.00  0.00     0.074 A 
ATOM     47  C   UNL A   1      39.650  26.989  28.321  1.00  0.00     0.031 C 
ATOM     48  C   UNL A   1      45.091  27.647  30.914  1.00  0.00     0.029 A 
ATOM     49  C   UNL A   1      45.982  26.895  30.050  1.00  0.00     0.049 A 
ATOM     50  H   UNL A   1      45.605  24.872  29.461  1.00  0.00     0.167 HD
ATOM     51  C   UNL A   1      39.973  29.354  29.365  1.00  0.00     0.034 A 
ATOM     52  C   UNL A   1      46.886  27.443  29.185  1.00  0.00     0.034 A 
ATOM     53  C   UNL A   1      41.146  30.146  29.756  1.00  0.00     0.049 A 
ATOM     54  C   UNL A   1      46.558  28.867  28.793  1.00  0.00     0.074 A 
ATOM     55  C   UNL A   1      41.745  30.416  30.976  1.00  0.00     0.029 A 
ATOM     56  N   UNL A   1      42.044  30.574  28.780  1.00  0.00    -0.354 N 
ATOM     57  N   UNL A   1      45.397  29.432  28.980  1.00  0.00    -0.248 NA
ATOM     58  C   UNL A   1      47.514  29.763  28.150  1.00  0.00     0.031 C 
ATOM     59  C   UNL A   1      43.040  30.942  30.725  1.00  0.00     0.029 A 
ATOM     60  C   UNL A   1      43.217  31.027  29.355  1.00  0.00     0.049 A 
ATOM     61  H   UNL A   1      41.867  30.556  27.811  1.00  0.00     0.167 HD
ATOM     62  C   UNL A   1      45.420  30.716  28.493  1.00  0.00     0.074 A 
ATOM     63  C   UNL A   1      46.780  30.881  28.009  1.00  0.00     0.031 C 
ATOM     64  C   UNL A   1      44.313  31.521  28.527  1.00  0.00     0.034 A 
BRANCH  51  65
ATOM     65  C   UNL A   1      38.563  29.673  29.842  1.00  0.00     0.023 A 
ATOM     66  C   UNL A   1      37.916  30.832  29.358  1.00  0.00     0.031 A 
ATOM     67  C   UNL A   1      37.834  28.952  30.808  1.00  0.00     0.131 A 
ATOM     68  C   UNL A   1      36.698  31.284  29.903  1.00  0.00     0.055 A 
ATOM     69  C   UNL A   1      36.651  29.428  31.393  1.00  0.00     0.041 A 
ATOM     70  F   UNL A   1      38.189  27.721  31.193  1.00  0.00    -0.206 F 
ATOM     71  C   UNL A   1      36.084  30.611  30.952  1.00  0.00     0.022 A 
BRANCH  68  72
ATOM     72  S   UNL A   1      35.920  32.777  29.223  1.00  0.00     0.124 S 
ATOM     73  O   UNL A   1      34.573  32.704  29.776  1.00  0.00    -0.237 OA
ATOM     74  O   UNL A   1      36.780  33.835  29.743  1.00  0.00    -0.237 OA
ATOM     75  O   UNL A   1      36.005  32.573  27.777  1.00  0.00    -0.744 OA
ENDBRANCH  68  72
ENDBRANCH  51  65
BRANCH  52  76
ATOM     76  C   UNL A   1      47.564  26.427  28.329  1.00  0.00     0.023 A 
ATOM     77  C   UNL A   1      47.275  26.461  26.946  1.00  0.00     0.031 A 
ATOM     78  C   UNL A   1      48.720  25.751  28.740  1.00  0.00     0.131 A 
ATOM     79  C   UNL A   1      48.209  25.990  26.014  1.00  0.00     0.055 A 
ATOM     80  C   UNL A   1      49.617  25.214  27.806  1.00  0.00     0.041 A 
ATOM     81  F   UNL A   1      49.065  25.712  30.035  1.00  0.00    -0.206 F 
ATOM     82  C   UNL A   1      49.388  25.374  26.437  1.00  0.00     0.022 A 
BRANCH  79  83
ATOM     83  S   UNL A   1      48.014  26.432  24.259  1.00  0.00     0.124 S 
ATOM     84  O   UNL A   1      46.766  27.184  24.270  1.00  0.00    -0.237 OA
ATOM     85  O   UNL A   1      49.220  27.207  23.974  1.00  0.00    -0.237 OA
ATOM     86  O   UNL A   1      47.968  25.133  23.590  1.00  0.00    -0.744 OA
ENDBRANCH  79  83
ENDBRANCH  52  76
BRANCH  64  87
ATOM     87  C   UNL A   1      44.174  32.881  27.863  1.00  0.00     0.023 A 
ATOM     88  C   UNL A   1      44.008  34.082  28.570  1.00  0.00     0.031 A 
ATOM     89  C   UNL A   1      44.282  33.016  26.455  1.00  0.00     0.131 A 
ATOM     90  C   UNL A   1      43.871  35.313  27.899  1.00  0.00     0.055 A 
ATOM     91  C   UNL A   1      44.225  34.249  25.796  1.00  0.00     0.041 A 
ATOM     92  F   UNL A   1      44.456  31.956  25.652  1.00  0.00    -0.206 F 
ATOM     93  C   UNL A   1      44.002  35.409  26.518  1.00  0.00     0.022 A 
BRANCH  90  94
ATOM     94  S   UNL A   1      43.458  36.783  28.876  1.00  0.00     0.124 S 
ATOM     95  O   UNL A   1      42.072  37.026  28.480  1.00  0.00    -0.237 OA
ATOM     96  O   UNL A   1      43.652  36.316  30.245  1.00  0.00    -0.237 OA
ATOM     97  O   UNL A   1      44.418  37.785  28.419  1.00  0.00    -0.744 OA
ENDBRANCH  90  94
ENDBRANCH  64  87
ENDBRANCH  38  39
ENDBRANCH  30  33
ENDBRANCH  28  29
ENDBRANCH  27  28
ENDBRANCH  26  27
ENDBRANCH   1  26
TORSDOF 19
ENDMDL
MODEL 3
REMARK VINA RESULT:     -11.6      1.687      2.264
REMARK SMILES Cc1c(/C=C/C(=O)NCCCCCCNC(=O)c2ccc(-c3c4nc(c(-c5cc(S(=O)(=O)[O-])ccc5F)c5ccc([nH]5)c(-c5cc(S(=O)(=O)[O-])ccc5F)c5nc(c(-c6cc(S(=O)(=O)[O-])ccc6F)c6ccc3[nH]6)C=C5)C=C4)cc2)cccc1C(=O)N1C[C@@H](C)[C@@H](C)C1
REMARK SMILES IDX 11 1 10 2 9 3 8 4 6 5 7 6 5 8 4 9 3 10 1 11 2 12 84 13 81 14
REMARK SMILES IDX 83 15 82 16 85 17 86 18 87 19 88 20 93 21 89 22 91 23 90 24
REMARK SMILES IDX 92 25 12 26 13 27 14 28 15 29 16 30 17 32 18 33 19 34 80 35
REMARK SMILES IDX 20 36 79 37 21 38 22 39 23 40 73 41 24 42 78 43 72 44 74 45
REMARK SMILES IDX 25 46 77 47 71 48 70 49 26 51 58 52 38 53 57 54 39 55 42 56
REMARK SMILES IDX 56 57 75 58 40 59 41 60 55 62 76 63 43 64 27 65 28 66 36 67
REMARK SMILES IDX 29 68 35 69 37 70 34 71 30 72 31 73 32 74 33 75 59 76 60 77
REMARK SMILES IDX 68 78 61 79 67 80 69 81 66 82 62 83 63 84 64 85 65 86 44 87
REMARK SMILES IDX 45 88 53 89 46 90 52 91 54 92 51 93 47 94 48 95 49 96 50 97
REMARK H PARENT 8 7 15 31 74 50 42 61
REMARK Flexibility Score: inf
ROOT
ATOM      1  C   UNL A   1      39.292  23.465  26.794  1.00  0.00     0.002 C 
ENDROOT
BRANCH   1   2
ATOM      2  C   UNL A   1      38.141  23.088  25.850  1.00  0.00     0.021 C 
BRANCH   2   3
ATOM      3  C   UNL A   1      36.773  23.632  26.254  1.00  0.00     0.116 C 
BRANCH   3   4
ATOM      4  N   UNL A   1      35.739  22.610  26.215  1.00  0.00    -0.353 N 
ATOM      5  C   UNL A   1      34.386  22.755  26.130  1.00  0.00     0.243 C 
ATOM      6  O   UNL A   1      33.652  21.798  25.907  1.00  0.00    -0.270 OA
ATOM      7  H   UNL A   1      36.063  21.681  26.255  1.00  0.00     0.163 HD
BRANCH   5   8
ATOM      8  C   UNL A   1      33.812  24.113  26.220  1.00  0.00     0.072 C 
ATOM      9  C   UNL A   1      33.857  24.957  25.178  1.00  0.00     0.014 C 
BRANCH   9  10
ATOM     10  C   UNL A   1      33.254  26.302  25.204  1.00  0.00    -0.022 A 
ATOM     11  C   UNL A   1      32.486  26.043  22.803  1.00  0.00     0.046 C 
ATOM     12  C   UNL A   1      32.587  26.851  24.073  1.00  0.00    -0.031 A 
ATOM     13  C   UNL A   1      32.034  28.152  24.181  1.00  0.00     0.043 A 
ATOM     14  C   UNL A   1      33.414  27.073  26.369  1.00  0.00     0.008 A 
ATOM     15  C   UNL A   1      32.194  28.886  25.372  1.00  0.00     0.014 A 
ATOM     16  C   UNL A   1      32.883  28.354  26.456  1.00  0.00     0.001 A 
BRANCH  13  17
ATOM     17  C   UNL A   1      31.520  28.945  23.025  1.00  0.00     0.254 C 
ATOM     18  O   UNL A   1      32.324  29.228  22.135  1.00  0.00    -0.269 OA
BRANCH  17  19
ATOM     19  N   UNL A   1      30.187  29.286  22.922  1.00  0.00    -0.338 N 
ATOM     20  C   UNL A   1      29.181  28.381  23.446  1.00  0.00     0.123 C 
ATOM     21  C   UNL A   1      29.598  30.326  22.092  1.00  0.00     0.123 C 
ATOM     22  C   UNL A   1      27.892  28.738  22.718  1.00  0.00     0.010 C 
ATOM     23  C   UNL A   1      28.081  30.223  22.337  1.00  0.00     0.010 C 
ATOM     24  C   UNL A   1      26.664  28.392  23.549  1.00  0.00     0.010 C 
ATOM     25  C   UNL A   1      27.609  31.224  23.388  1.00  0.00     0.010 C 
ENDBRANCH  17  19
ENDBRANCH  13  17
ENDBRANCH   9  10
ENDBRANCH   5   8
ENDBRANCH   3   4
ENDBRANCH   2   3
ENDBRANCH   1   2
BRANCH   1  26
ATOM     26  C   UNL A   1      40.232  22.323  27.215  1.00  0.00     0.002 C 
BRANCH  26  27
ATOM     27  C   UNL A   1      41.091  21.713  26.107  1.00  0.00     0.021 C 
BRANCH  27  28
ATOM     28  C   UNL A   1      42.396  21.095  26.605  1.00  0.00     0.116 C 
BRANCH  28  29
ATOM     29  N   UNL A   1      43.145  20.413  25.553  1.00  0.00    -0.352 N 
ATOM     30  C   UNL A   1      44.117  20.916  24.697  1.00  0.00     0.251 C 
ATOM     31  H   UNL A   1      42.931  19.460  25.434  1.00  0.00     0.163 HD
ATOM     32  O   UNL A   1      44.608  20.255  23.814  1.00  0.00    -0.269 OA
BRANCH  30  33
ATOM     33  C   UNL A   1      44.657  22.266  24.997  1.00  0.00     0.039 A 
ATOM     34  C   UNL A   1      45.567  22.351  26.057  1.00  0.00     0.014 A 
ATOM     35  C   UNL A   1      44.076  23.408  24.457  1.00  0.00     0.014 A 
ATOM     36  C   UNL A   1      45.702  23.555  26.738  1.00  0.00     0.010 A 
ATOM     37  C   UNL A   1      44.143  24.583  25.182  1.00  0.00     0.010 A 
ATOM     38  C   UNL A   1      44.894  24.629  26.365  1.00  0.00    -0.014 A 
BRANCH  38  39
ATOM     39  C   UNL A   1      44.637  25.758  27.252  1.00  0.00     0.031 A 
ATOM     40  C   UNL A   1      43.317  26.412  27.287  1.00  0.00     0.074 A 
ATOM     41  C   UNL A   1      45.614  26.180  28.083  1.00  0.00     0.049 A 
ATOM     42  N   UNL A   1      43.109  27.620  27.693  1.00  0.00    -0.248 NA
ATOM     43  C   UNL A   1      42.114  25.758  26.793  1.00  0.00     0.031 C 
ATOM     44  C   UNL A   1      45.491  27.102  29.207  1.00  0.00     0.029 A 
ATOM     45  N   UNL A   1      46.987  26.041  27.897  1.00  0.00    -0.354 N 
ATOM     46  C   UNL A   1      41.748  27.795  27.809  1.00  0.00     0.074 A 
ATOM     47  C   UNL A   1      41.180  26.646  27.144  1.00  0.00     0.031 C 
ATOM     48  C   UNL A   1      46.694  27.644  29.456  1.00  0.00     0.029 A 
ATOM     49  C   UNL A   1      47.597  27.196  28.411  1.00  0.00     0.049 A 
ATOM     50  H   UNL A   1      47.444  25.274  27.481  1.00  0.00     0.167 HD
ATOM     51  C   UNL A   1      41.274  28.813  28.586  1.00  0.00     0.034 A 
ATOM     52  C   UNL A   1      48.336  28.015  27.607  1.00  0.00     0.034 A 
ATOM     53  C   UNL A   1      42.360  29.690  29.041  1.00  0.00     0.049 A 
ATOM     54  C   UNL A   1      47.785  29.421  27.509  1.00  0.00     0.074 A 
ATOM     55  C   UNL A   1      43.025  29.828  30.249  1.00  0.00     0.029 A 
ATOM     56  N   UNL A   1      43.100  30.411  28.106  1.00  0.00    -0.354 N 
ATOM     57  N   UNL A   1      46.580  29.765  27.872  1.00  0.00    -0.248 NA
ATOM     58  C   UNL A   1      48.549  30.548  26.984  1.00  0.00     0.031 C 
ATOM     59  C   UNL A   1      44.209  30.578  30.017  1.00  0.00     0.029 A 
ATOM     60  C   UNL A   1      44.248  30.927  28.678  1.00  0.00     0.049 A 
ATOM     61  H   UNL A   1      42.839  30.537  27.164  1.00  0.00     0.167 HD
ATOM     62  C   UNL A   1      46.386  31.103  27.632  1.00  0.00     0.074 A 
ATOM     63  C   UNL A   1      47.661  31.552  27.100  1.00  0.00     0.031 C 
ATOM     64  C   UNL A   1      45.188  31.716  27.887  1.00  0.00     0.034 A 
BRANCH  51  65
ATOM     65  C   UNL A   1      39.883  28.829  29.204  1.00  0.00     0.023 A 
ATOM     66  C   UNL A   1      39.108  30.009  29.130  1.00  0.00     0.031 A 
ATOM     67  C   UNL A   1      39.291  27.782  29.937  1.00  0.00     0.131 A 
ATOM     68  C   UNL A   1      37.902  30.151  29.845  1.00  0.00     0.055 A 
ATOM     69  C   UNL A   1      38.121  27.938  30.695  1.00  0.00     0.041 A 
ATOM     70  F   UNL A   1      39.773  26.535  29.908  1.00  0.00    -0.206 F 
ATOM     71  C   UNL A   1      37.427  29.135  30.665  1.00  0.00     0.022 A 
BRANCH  68  72
ATOM     72  S   UNL A   1      36.956  31.692  29.693  1.00  0.00     0.124 S 
ATOM     73  O   UNL A   1      37.797  32.487  28.806  1.00  0.00    -0.237 OA
ATOM     74  O   UNL A   1      35.690  31.223  29.138  1.00  0.00    -0.237 OA
ATOM     75  O   UNL A   1      36.879  32.178  31.070  1.00  0.00    -0.744 OA
ENDBRANCH  68  72
ENDBRANCH  51  65
BRANCH  52  76
ATOM     76  C   UNL A   1      49.065  27.278  26.534  1.00  0.00     0.023 A 
ATOM     77  C   UNL A   1      48.493  27.298  25.243  1.00  0.00     0.031 A 
ATOM     78  C   UNL A   1      50.418  26.936  26.646  1.00  0.00     0.131 A 
ATOM     79  C   UNL A   1      49.301  27.160  24.107  1.00  0.00     0.055 A 
ATOM     80  C   UNL A   1      51.209  26.723  25.508  1.00  0.00     0.041 A 
ATOM     81  F   UNL A   1      51.026  26.931  27.841  1.00  0.00    -0.206 F 
ATOM     82  C   UNL A   1      50.663  26.881  24.232  1.00  0.00     0.022 A 
BRANCH  79  83
ATOM     83  S   UNL A   1      48.630  27.616  22.477  1.00  0.00     0.124 S 
ATOM     84  O   UNL A   1      47.303  28.109  22.820  1.00  0.00    -0.237 OA
ATOM     85  O   UNL A   1      49.576  28.622  21.997  1.00  0.00    -0.237 OA
ATOM     86  O   UNL A   1      48.669  26.358  21.734  1.00  0.00    -0.744 OA
ENDBRANCH  79  83
ENDBRANCH  52  76
BRANCH  64  87
ATOM     87  C   UNL A   1      44.807  33.134  27.498  1.00  0.00     0.023 A 
ATOM     88  C   UNL A   1      45.124  34.266  28.265  1.00  0.00     0.031 A 
ATOM     89  C   UNL A   1      44.155  33.400  26.267  1.00  0.00     0.131 A 
ATOM     90  C   UNL A   1      44.733  35.557  27.860  1.00  0.00     0.055 A 
ATOM     91  C   UNL A   1      43.838  34.691  25.829  1.00  0.00     0.041 A 
ATOM     92  F   UNL A   1      43.803  32.417  25.425  1.00  0.00    -0.206 F 
ATOM     93  C   UNL A   1      44.112  35.781  26.635  1.00  0.00     0.022 A 
BRANCH  90  94
ATOM     94  S   UNL A   1      45.004  36.937  29.006  1.00  0.00     0.124 S 
ATOM     95  O   UNL A   1      44.849  36.283  30.303  1.00  0.00    -0.237 OA
ATOM     96  O   UNL A   1      46.358  37.363  28.669  1.00  0.00    -0.237 OA
ATOM     97  O   UNL A   1      43.948  37.887  28.660  1.00  0.00    -0.744 OA
ENDBRANCH  90  94
ENDBRANCH  64  87
ENDBRANCH  38  39
ENDBRANCH  30  33
ENDBRANCH  28  29
ENDBRANCH  27  28
ENDBRANCH  26  27
ENDBRANCH   1  26
TORSDOF 19
ENDMDL
