MODEL 1
REMARK VINA RESULT:     -11.5      0.000      0.000
REMARK SMILES O=C(C[C@H]1CC[C@@H](C(=O)NCCCCCCNC(=O)c2ccc(-c3c4nc(c(-c5cc(S(=O)(=O)[O-])ccc5F)c5ccc([nH]5)c(-c5cc(S(=O)(=O)[O-])ccc5F)c5nc(c(-c6cc(S(=O)(=O)[O-])ccc6F)c6ccc3[nH]6)C=C5)C=C4)cc2)C1)c1ccc(Cl)cc1
REMARK SMILES IDX 13 1 12 2 11 3 10 4 8 5 9 6 7 8 4 9 5 10 83 11 6 12 3 13
REMARK SMILES IDX 2 14 1 15 84 16 85 17 90 18 86 19 89 20 87 21 88 22 14 23
REMARK SMILES IDX 15 24 16 25 17 26 18 27 19 29 20 30 21 31 82 32 22 33 81 34
REMARK SMILES IDX 23 35 24 36 25 37 75 38 26 39 80 40 74 41 76 42 27 43 79 44
REMARK SMILES IDX 73 45 72 46 28 48 60 49 40 50 59 51 41 52 44 53 58 54 77 55
REMARK SMILES IDX 42 56 43 57 57 59 78 60 45 61 29 62 30 63 38 64 31 65 37 66
REMARK SMILES IDX 39 67 36 68 32 69 33 70 34 71 35 72 61 73 62 74 70 75 63 76
REMARK SMILES IDX 69 77 71 78 68 79 64 80 65 81 66 82 67 83 46 84 47 85 55 86
REMARK SMILES IDX 48 87 54 88 56 89 53 90 49 91 50 92 51 93 52 94
REMARK H PARENT 10 7 17 28 76 47 44 58
REMARK Flexibility Score: inf
ROOT
ATOM      1  C   UNL A   1      33.927  29.944  27.566  1.00  0.00     0.002 C 
ENDROOT
BRANCH   1   2
ATOM      2  C   UNL A   1      34.636  28.827  26.780  1.00  0.00     0.021 C 
BRANCH   2   3
ATOM      3  C   UNL A   1      33.739  27.968  25.881  1.00  0.00     0.116 C 
BRANCH   3   4
ATOM      4  N   UNL A   1      33.737  28.464  24.522  1.00  0.00    -0.356 N 
ATOM      5  C   UNL A   1      33.621  27.841  23.331  1.00  0.00     0.223 C 
ATOM      6  O   UNL A   1      33.449  28.587  22.365  1.00  0.00    -0.275 OA
ATOM      7  H   UNL A   1      33.840  29.441  24.454  1.00  0.00     0.163 HD
BRANCH   5   8
ATOM      8  C   UNL A   1      33.653  26.320  23.202  1.00  0.00     0.079 C 
ATOM      9  C   UNL A   1      31.471  25.526  23.983  1.00  0.00    -0.003 C 
ATOM     10  C   UNL A   1      31.587  25.150  22.511  1.00  0.00     0.005 C 
ATOM     11  C   UNL A   1      32.951  25.652  24.394  1.00  0.00     0.017 C 
ATOM     12  C   UNL A   1      32.909  25.744  21.993  1.00  0.00     0.014 C 
BRANCH   9  13
ATOM     13  C   UNL A   1      30.593  26.732  24.397  1.00  0.00     0.084 C 
BRANCH  13  14
ATOM     14  C   UNL A   1      29.229  27.022  23.770  1.00  0.00     0.163 C 
ATOM     15  O   UNL A   1      28.257  26.292  23.974  1.00  0.00    -0.294 OA
BRANCH  14  16
ATOM     16  C   UNL A   1      28.984  28.267  22.999  1.00  0.00     0.018 A 
ATOM     17  C   UNL A   1      27.739  28.891  23.063  1.00  0.00     0.013 A 
ATOM     18  C   UNL A   1      30.044  28.927  22.366  1.00  0.00     0.013 A 
ATOM     19  C   UNL A   1      27.503  30.096  22.399  1.00  0.00     0.021 A 
ATOM     20  C   UNL A   1      29.823  30.163  21.738  1.00  0.00     0.021 A 
ATOM     21  C   UNL A   1      28.548  30.728  21.736  1.00  0.00     0.041 A 
ATOM     22  Cl  UNL A   1      28.264  32.233  20.955  1.00  0.00    -0.084 Cl
ENDBRANCH  14  16
ENDBRANCH  13  14
ENDBRANCH   9  13
ENDBRANCH   5   8
ENDBRANCH   3   4
ENDBRANCH   2   3
ENDBRANCH   1   2
BRANCH   1  23
ATOM     23  C   UNL A   1      32.453  30.178  27.220  1.00  0.00     0.002 C 
BRANCH  23  24
ATOM     24  C   UNL A   1      32.051  31.641  27.038  1.00  0.00     0.021 C 
BRANCH  24  25
ATOM     25  C   UNL A   1      33.185  32.650  27.188  1.00  0.00     0.116 C 
BRANCH  25  26
ATOM     26  N   UNL A   1      32.725  33.958  27.620  1.00  0.00    -0.352 N 
ATOM     27  C   UNL A   1      33.151  34.712  28.696  1.00  0.00     0.251 C 
ATOM     28  H   UNL A   1      32.014  34.363  27.073  1.00  0.00     0.163 HD
ATOM     29  O   UNL A   1      32.555  35.726  29.008  1.00  0.00    -0.269 OA
BRANCH  27  30
ATOM     30  C   UNL A   1      34.318  34.247  29.487  1.00  0.00     0.039 A 
ATOM     31  C   UNL A   1      34.094  33.471  30.627  1.00  0.00     0.014 A 
ATOM     32  C   UNL A   1      35.623  34.556  29.094  1.00  0.00     0.014 A 
ATOM     33  C   UNL A   1      35.182  32.945  31.330  1.00  0.00     0.010 A 
ATOM     34  C   UNL A   1      36.703  33.974  29.755  1.00  0.00     0.010 A 
ATOM     35  C   UNL A   1      36.495  33.158  30.878  1.00  0.00    -0.014 A 
BRANCH  35  36
ATOM     36  C   UNL A   1      37.659  32.533  31.563  1.00  0.00     0.031 A 
ATOM     37  C   UNL A   1      38.391  31.389  30.915  1.00  0.00     0.074 A 
ATOM     38  C   UNL A   1      38.016  32.953  32.794  1.00  0.00     0.049 A 
ATOM     39  N   UNL A   1      39.375  30.664  31.384  1.00  0.00    -0.248 NA
ATOM     40  C   UNL A   1      37.938  30.991  29.574  1.00  0.00     0.031 C 
ATOM     41  C   UNL A   1      37.360  34.028  33.543  1.00  0.00     0.029 A 
ATOM     42  N   UNL A   1      39.011  32.523  33.638  1.00  0.00    -0.354 N 
ATOM     43  C   UNL A   1      39.650  29.716  30.403  1.00  0.00     0.074 A 
ATOM     44  C   UNL A   1      38.689  29.926  29.340  1.00  0.00     0.031 C 
ATOM     45  C   UNL A   1      37.983  34.186  34.723  1.00  0.00     0.029 A 
ATOM     46  C   UNL A   1      39.050  33.198  34.838  1.00  0.00     0.049 A 
ATOM     47  H   UNL A   1      39.637  31.800  33.407  1.00  0.00     0.167 HD
ATOM     48  C   UNL A   1      40.626  28.775  30.381  1.00  0.00     0.034 A 
ATOM     49  C   UNL A   1      39.846  33.030  35.913  1.00  0.00     0.034 A 
ATOM     50  C   UNL A   1      41.587  28.589  31.442  1.00  0.00     0.049 A 
ATOM     51  C   UNL A   1      40.911  31.962  35.874  1.00  0.00     0.074 A 
ATOM     52  C   UNL A   1      42.650  27.704  31.496  1.00  0.00     0.029 A 
ATOM     53  N   UNL A   1      41.599  29.294  32.639  1.00  0.00    -0.354 N 
ATOM     54  N   UNL A   1      41.190  31.108  34.916  1.00  0.00    -0.248 NA
ATOM     55  C   UNL A   1      41.775  31.842  37.055  1.00  0.00     0.031 C 
ATOM     56  C   UNL A   1      43.262  27.827  32.748  1.00  0.00     0.029 A 
ATOM     57  C   UNL A   1      42.631  28.843  33.447  1.00  0.00     0.049 A 
ATOM     58  H   UNL A   1      40.968  30.011  32.878  1.00  0.00     0.167 HD
ATOM     59  C   UNL A   1      42.284  30.376  35.367  1.00  0.00     0.074 A 
ATOM     60  C   UNL A   1      42.622  30.897  36.675  1.00  0.00     0.031 C 
ATOM     61  C   UNL A   1      42.954  29.368  34.753  1.00  0.00     0.034 A 
BRANCH  48  62
ATOM     62  C   UNL A   1      40.687  27.860  29.181  1.00  0.00     0.023 A 
ATOM     63  C   UNL A   1      41.618  28.060  28.147  1.00  0.00     0.031 A 
ATOM     64  C   UNL A   1      39.793  26.782  29.063  1.00  0.00     0.131 A 
ATOM     65  C   UNL A   1      41.588  27.239  27.009  1.00  0.00     0.055 A 
ATOM     66  C   UNL A   1      39.822  25.918  27.965  1.00  0.00     0.041 A 
ATOM     67  F   UNL A   1      38.869  26.553  30.009  1.00  0.00    -0.206 F 
ATOM     68  C   UNL A   1      40.715  26.152  26.923  1.00  0.00     0.022 A 
BRANCH  65  69
ATOM     69  S   UNL A   1      42.616  27.693  25.587  1.00  0.00     0.124 S 
ATOM     70  O   UNL A   1      42.539  26.485  24.768  1.00  0.00    -0.237 OA
ATOM     71  O   UNL A   1      41.928  28.867  25.061  1.00  0.00    -0.237 OA
ATOM     72  O   UNL A   1      43.927  27.951  26.180  1.00  0.00    -0.744 OA
ENDBRANCH  65  69
ENDBRANCH  48  62
BRANCH  49  73
ATOM     73  C   UNL A   1      39.670  33.879  37.127  1.00  0.00     0.023 A 
ATOM     74  C   UNL A   1      39.011  33.387  38.266  1.00  0.00     0.031 A 
ATOM     75  C   UNL A   1      40.108  35.215  37.147  1.00  0.00     0.131 A 
ATOM     76  C   UNL A   1      38.761  34.238  39.354  1.00  0.00     0.055 A 
ATOM     77  C   UNL A   1      39.908  36.042  38.254  1.00  0.00     0.041 A 
ATOM     78  F   UNL A   1      40.747  35.737  36.088  1.00  0.00    -0.206 F 
ATOM     79  C   UNL A   1      39.217  35.558  39.361  1.00  0.00     0.022 A 
BRANCH  76  80
ATOM     80  S   UNL A   1      37.743  33.622  40.722  1.00  0.00     0.124 S 
ATOM     81  O   UNL A   1      37.423  34.855  41.432  1.00  0.00    -0.237 OA
ATOM     82  O   UNL A   1      36.640  32.984  40.013  1.00  0.00    -0.237 OA
ATOM     83  O   UNL A   1      38.640  32.709  41.428  1.00  0.00    -0.744 OA
ENDBRANCH  76  80
ENDBRANCH  49  73
BRANCH  61  84
ATOM     84  C   UNL A   1      44.154  28.801  35.473  1.00  0.00     0.023 A 
ATOM     85  C   UNL A   1      44.040  27.729  36.376  1.00  0.00     0.031 A 
ATOM     86  C   UNL A   1      45.431  29.349  35.253  1.00  0.00     0.131 A 
ATOM     87  C   UNL A   1      45.174  27.276  37.067  1.00  0.00     0.055 A 
ATOM     88  C   UNL A   1      46.564  28.853  35.898  1.00  0.00     0.041 A 
ATOM     89  F   UNL A   1      45.596  30.374  34.402  1.00  0.00    -0.206 F 
ATOM     90  C   UNL A   1      46.437  27.819  36.821  1.00  0.00     0.022 A 
BRANCH  87  91
ATOM     91  S   UNL A   1      44.962  26.018  38.357  1.00  0.00     0.124 S 
ATOM     92  O   UNL A   1      46.245  26.075  39.050  1.00  0.00    -0.237 OA
ATOM     93  O   UNL A   1      43.813  26.523  39.102  1.00  0.00    -0.237 OA
ATOM     94  O   UNL A   1      44.718  24.789  37.603  1.00  0.00    -0.744 OA
ENDBRANCH  87  91
ENDBRANCH  61  84
ENDBRANCH  35  36
ENDBRANCH  27  30
ENDBRANCH  25  26
ENDBRANCH  24  25
ENDBRANCH  23  24
ENDBRANCH   1  23
TORSDOF 19
ENDMDL
MODEL 2
REMARK VINA RESULT:     -11.4      4.508      9.480
REMARK SMILES O=C(C[C@H]1CC[C@@H](C(=O)NCCCCCCNC(=O)c2ccc(-c3c4nc(c(-c5cc(S(=O)(=O)[O-])ccc5F)c5ccc([nH]5)c(-c5cc(S(=O)(=O)[O-])ccc5F)c5nc(c(-c6cc(S(=O)(=O)[O-])ccc6F)c6ccc3[nH]6)C=C5)C=C4)cc2)C1)c1ccc(Cl)cc1
REMARK SMILES IDX 13 1 12 2 11 3 10 4 8 5 9 6 7 8 4 9 5 10 83 11 6 12 3 13
REMARK SMILES IDX 2 14 1 15 84 16 85 17 90 18 86 19 89 20 87 21 88 22 14 23
REMARK SMILES IDX 15 24 16 25 17 26 18 27 19 29 20 30 21 31 82 32 22 33 81 34
REMARK SMILES IDX 23 35 24 36 25 37 75 38 26 39 80 40 74 41 76 42 27 43 79 44
REMARK SMILES IDX 73 45 72 46 28 48 60 49 40 50 59 51 41 52 44 53 58 54 77 55
REMARK SMILES IDX 42 56 43 57 57 59 78 60 45 61 29 62 30 63 38 64 31 65 37 66
REMARK SMILES IDX 39 67 36 68 32 69 33 70 34 71 35 72 61 73 62 74 70 75 63 76
REMARK SMILES IDX 69 77 71 78 68 79 64 80 65 81 66 82 67 83 46 84 47 85 55 86
REMARK SMILES IDX 48 87 54 88 56 89 53 90 49 91 50 92 51 93 52 94
REMARK H PARENT 10 7 17 28 76 47 44 58
REMARK Flexibility Score: inf
ROOT
ATOM      1  C   UNL A   1      31.970  27.072  25.771  1.00  0.00     0.002 C 
ENDROOT
BRANCH   1   2
ATOM      2  C   UNL A   1      31.435  25.650  26.015  1.00  0.00     0.021 C 
BRANCH   2   3
ATOM      3  C   UNL A   1      32.175  24.522  25.286  1.00  0.00     0.116 C 
BRANCH   3   4
ATOM      4  N   UNL A   1      32.902  23.689  26.218  1.00  0.00    -0.356 N 
ATOM      5  C   UNL A   1      34.222  23.510  26.437  1.00  0.00     0.223 C 
ATOM      6  O   UNL A   1      34.503  22.877  27.455  1.00  0.00    -0.275 OA
ATOM      7  H   UNL A   1      32.324  23.148  26.804  1.00  0.00     0.163 HD
BRANCH   5   8
ATOM      8  C   UNL A   1      35.285  24.095  25.511  1.00  0.00     0.079 C 
ATOM      9  C   UNL A   1      36.423  22.182  24.487  1.00  0.00    -0.003 C 
ATOM     10  C   UNL A   1      35.739  22.953  23.364  1.00  0.00     0.005 C 
ATOM     11  C   UNL A   1      36.579  23.270  25.567  1.00  0.00     0.017 C 
ATOM     12  C   UNL A   1      34.935  24.091  24.019  1.00  0.00     0.014 C 
BRANCH   9  13
ATOM     13  C   UNL A   1      35.794  20.863  25.002  1.00  0.00     0.084 C 
BRANCH  13  14
ATOM     14  C   UNL A   1      34.372  20.427  24.649  1.00  0.00     0.163 C 
ATOM     15  O   UNL A   1      33.561  21.212  24.154  1.00  0.00    -0.294 OA
BRANCH  14  16
ATOM     16  C   UNL A   1      33.950  19.009  24.765  1.00  0.00     0.018 A 
ATOM     17  C   UNL A   1      34.762  17.997  24.251  1.00  0.00     0.013 A 
ATOM     18  C   UNL A   1      32.848  18.660  25.555  1.00  0.00     0.013 A 
ATOM     19  C   UNL A   1      34.419  16.653  24.404  1.00  0.00     0.021 A 
ATOM     20  C   UNL A   1      32.527  17.307  25.751  1.00  0.00     0.021 A 
ATOM     21  C   UNL A   1      33.300  16.312  25.153  1.00  0.00     0.041 A 
ATOM     22  Cl  UNL A   1      32.905  14.654  25.375  1.00  0.00    -0.084 Cl
ENDBRANCH  14  16
ENDBRANCH  13  14
ENDBRANCH   9  13
ENDBRANCH   5   8
ENDBRANCH   3   4
ENDBRANCH   2   3
ENDBRANCH   1   2
BRANCH   1  23
ATOM     23  C   UNL A   1      32.878  27.645  26.864  1.00  0.00     0.002 C 
BRANCH  23  24
ATOM     24  C   UNL A   1      32.602  29.101  27.242  1.00  0.00     0.021 C 
BRANCH  24  25
ATOM     25  C   UNL A   1      33.651  30.104  26.771  1.00  0.00     0.116 C 
BRANCH  25  26
ATOM     26  N   UNL A   1      33.564  31.379  27.461  1.00  0.00    -0.352 N 
ATOM     27  C   UNL A   1      34.416  31.907  28.410  1.00  0.00     0.251 C 
ATOM     28  H   UNL A   1      32.794  31.943  27.220  1.00  0.00     0.163 HD
ATOM     29  O   UNL A   1      34.118  32.928  29.002  1.00  0.00    -0.269 OA
BRANCH  27  30
ATOM     30  C   UNL A   1      35.679  31.193  28.725  1.00  0.00     0.039 A 
ATOM     31  C   UNL A   1      36.893  31.785  28.372  1.00  0.00     0.014 A 
ATOM     32  C   UNL A   1      35.663  29.961  29.385  1.00  0.00     0.014 A 
ATOM     33  C   UNL A   1      38.095  31.174  28.745  1.00  0.00     0.010 A 
ATOM     34  C   UNL A   1      36.860  29.390  29.816  1.00  0.00     0.010 A 
ATOM     35  C   UNL A   1      38.089  29.992  29.505  1.00  0.00    -0.014 A 
BRANCH  35  36
ATOM     36  C   UNL A   1      39.356  29.376  29.985  1.00  0.00     0.031 A 
ATOM     37  C   UNL A   1      40.092  29.977  31.152  1.00  0.00     0.074 A 
ATOM     38  C   UNL A   1      39.875  28.317  29.331  1.00  0.00     0.049 A 
ATOM     39  N   UNL A   1      41.246  29.635  31.668  1.00  0.00    -0.248 NA
ATOM     40  C   UNL A   1      39.460  31.132  31.808  1.00  0.00     0.031 C 
ATOM     41  C   UNL A   1      39.275  27.668  28.164  1.00  0.00     0.029 A 
ATOM     42  N   UNL A   1      41.028  27.602  29.549  1.00  0.00    -0.354 N 
ATOM     43  C   UNL A   1      41.484  30.539  32.699  1.00  0.00     0.074 A 
ATOM     44  C   UNL A   1      40.381  31.477  32.694  1.00  0.00     0.031 C 
ATOM     45  C   UNL A   1      40.053  26.641  27.781  1.00  0.00     0.029 A 
ATOM     46  C   UNL A   1      41.228  26.584  28.644  1.00  0.00     0.049 A 
ATOM     47  H   UNL A   1      41.653  27.801  30.283  1.00  0.00     0.167 HD
ATOM     48  C   UNL A   1      42.514  30.570  33.580  1.00  0.00     0.034 A 
ATOM     49  C   UNL A   1      42.249  25.713  28.516  1.00  0.00     0.034 A 
ATOM     50  C   UNL A   1      43.599  29.618  33.583  1.00  0.00     0.049 A 
ATOM     51  C   UNL A   1      43.395  25.781  29.494  1.00  0.00     0.074 A 
ATOM     52  C   UNL A   1      44.662  29.524  34.464  1.00  0.00     0.029 A 
ATOM     53  N   UNL A   1      43.765  28.597  32.654  1.00  0.00    -0.354 N 
ATOM     54  N   UNL A   1      43.578  26.611  30.496  1.00  0.00    -0.248 NA
ATOM     55  C   UNL A   1      44.465  24.788  29.334  1.00  0.00     0.031 C 
ATOM     56  C   UNL A   1      45.504  28.494  34.032  1.00  0.00     0.029 A 
ATOM     57  C   UNL A   1      44.927  27.891  32.926  1.00  0.00     0.049 A 
ATOM     58  H   UNL A   1      43.147  28.403  31.913  1.00  0.00     0.167 HD
ATOM     59  C   UNL A   1      44.766  26.215  31.103  1.00  0.00     0.074 A 
ATOM     60  C   UNL A   1      45.248  25.066  30.366  1.00  0.00     0.031 C 
ATOM     61  C   UNL A   1      45.399  26.749  32.179  1.00  0.00     0.034 A 
BRANCH  48  62
ATOM     62  C   UNL A   1      42.528  31.684  34.600  1.00  0.00     0.023 A 
ATOM     63  C   UNL A   1      41.705  31.652  35.739  1.00  0.00     0.031 A 
ATOM     64  C   UNL A   1      43.364  32.800  34.424  1.00  0.00     0.131 A 
ATOM     65  C   UNL A   1      41.684  32.744  36.620  1.00  0.00     0.055 A 
ATOM     66  C   UNL A   1      43.399  33.847  35.347  1.00  0.00     0.041 A 
ATOM     67  F   UNL A   1      44.157  32.897  33.345  1.00  0.00    -0.206 F 
ATOM     68  C   UNL A   1      42.545  33.830  36.447  1.00  0.00     0.022 A 
BRANCH  65  69
ATOM     69  S   UNL A   1      40.421  32.784  37.920  1.00  0.00     0.124 S 
ATOM     70  O   UNL A   1      40.102  34.208  37.978  1.00  0.00    -0.237 OA
ATOM     71  O   UNL A   1      39.381  31.917  37.377  1.00  0.00    -0.237 OA
ATOM     72  O   UNL A   1      41.120  32.261  39.093  1.00  0.00    -0.744 OA
ENDBRANCH  65  69
ENDBRANCH  48  62
BRANCH  49  73
ATOM     73  C   UNL A   1      42.252  24.704  27.415  1.00  0.00     0.023 A 
ATOM     74  C   UNL A   1      41.520  23.511  27.525  1.00  0.00     0.031 A 
ATOM     75  C   UNL A   1      43.031  24.894  26.261  1.00  0.00     0.131 A 
ATOM     76  C   UNL A   1      41.624  22.530  26.526  1.00  0.00     0.055 A 
ATOM     77  C   UNL A   1      43.087  23.941  25.242  1.00  0.00     0.041 A 
ATOM     78  F   UNL A   1      43.748  26.018  26.101  1.00  0.00    -0.206 F 
ATOM     79  C   UNL A   1      42.392  22.743  25.379  1.00  0.00     0.022 A 
BRANCH  76  80
ATOM     80  S   UNL A   1      40.817  20.928  26.794  1.00  0.00     0.124 S 
ATOM     81  O   UNL A   1      40.777  20.857  28.250  1.00  0.00    -0.237 OA
ATOM     82  O   UNL A   1      39.535  21.121  26.124  1.00  0.00    -0.237 OA
ATOM     83  O   UNL A   1      41.721  19.980  26.147  1.00  0.00    -0.744 OA
ENDBRANCH  76  80
ENDBRANCH  49  73
BRANCH  61  84
ATOM     84  C   UNL A   1      46.655  26.058  32.650  1.00  0.00     0.023 A 
ATOM     85  C   UNL A   1      46.621  25.027  33.606  1.00  0.00     0.031 A 
ATOM     86  C   UNL A   1      47.907  26.443  32.137  1.00  0.00     0.131 A 
ATOM     87  C   UNL A   1      47.820  24.454  34.058  1.00  0.00     0.055 A 
ATOM     88  C   UNL A   1      49.090  25.829  32.547  1.00  0.00     0.041 A 
ATOM     89  F   UNL A   1      47.998  27.423  31.224  1.00  0.00    -0.206 F 
ATOM     90  C   UNL A   1      49.052  24.837  33.522  1.00  0.00     0.022 A 
BRANCH  87  91
ATOM     91  S   UNL A   1      47.754  23.259  35.421  1.00  0.00     0.124 S 
ATOM     92  O   UNL A   1      46.549  23.674  36.132  1.00  0.00    -0.237 OA
ATOM     93  O   UNL A   1      47.669  21.984  34.715  1.00  0.00    -0.237 OA
ATOM     94  O   UNL A   1      49.008  23.486  36.138  1.00  0.00    -0.744 OA
ENDBRANCH  87  91
ENDBRANCH  61  84
ENDBRANCH  35  36
ENDBRANCH  27  30
ENDBRANCH  25  26
ENDBRANCH  24  25
ENDBRANCH  23  24
ENDBRANCH   1  23
TORSDOF 19
ENDMDL
MODEL 3
REMARK VINA RESULT:     -11.4      5.814      9.095
REMARK SMILES O=C(C[C@H]1CC[C@@H](C(=O)NCCCCCCNC(=O)c2ccc(-c3c4nc(c(-c5cc(S(=O)(=O)[O-])ccc5F)c5ccc([nH]5)c(-c5cc(S(=O)(=O)[O-])ccc5F)c5nc(c(-c6cc(S(=O)(=O)[O-])ccc6F)c6ccc3[nH]6)C=C5)C=C4)cc2)C1)c1ccc(Cl)cc1
REMARK SMILES IDX 13 1 12 2 11 3 10 4 8 5 9 6 7 8 4 9 5 10 83 11 6 12 3 13
REMARK SMILES IDX 2 14 1 15 84 16 85 17 90 18 86 19 89 20 87 21 88 22 14 23
REMARK SMILES IDX 15 24 16 25 17 26 18 27 19 29 20 30 21 31 82 32 22 33 81 34
REMARK SMILES IDX 23 35 24 36 25 37 75 38 26 39 80 40 74 41 76 42 27 43 79 44
REMARK SMILES IDX 73 45 72 46 28 48 60 49 40 50 59 51 41 52 44 53 58 54 77 55
REMARK SMILES IDX 42 56 43 57 57 59 78 60 45 61 29 62 30 63 38 64 31 65 37 66
REMARK SMILES IDX 39 67 36 68 32 69 33 70 34 71 35 72 61 73 62 74 70 75 63 76
REMARK SMILES IDX 69 77 71 78 68 79 64 80 65 81 66 82 67 83 46 84 47 85 55 86
REMARK SMILES IDX 48 87 54 88 56 89 53 90 49 91 50 92 51 93 52 94
REMARK H PARENT 10 7 17 28 76 47 44 58
REMARK Flexibility Score: inf
ROOT
ATOM      1  C   UNL A   1      35.376  23.464  26.021  1.00  0.00     0.002 C 
ENDROOT
BRANCH   1   2
ATOM      2  C   UNL A   1      34.154  24.391  25.897  1.00  0.00     0.021 C 
BRANCH   2   3
ATOM      3  C   UNL A   1      33.010  24.125  26.882  1.00  0.00     0.116 C 
BRANCH   3   4
ATOM      4  N   UNL A   1      31.807  24.823  26.484  1.00  0.00    -0.356 N 
ATOM      5  C   UNL A   1      31.535  26.133  26.309  1.00  0.00     0.223 C 
ATOM      6  O   UNL A   1      30.459  26.376  25.761  1.00  0.00    -0.275 OA
ATOM      7  H   UNL A   1      31.041  24.229  26.309  1.00  0.00     0.163 HD
BRANCH   5   8
ATOM      8  C   UNL A   1      32.516  27.228  26.719  1.00  0.00     0.079 C 
ATOM      9  C   UNL A   1      33.125  28.403  24.657  1.00  0.00    -0.003 C 
ATOM     10  C   UNL A   1      32.409  29.407  25.553  1.00  0.00     0.005 C 
ATOM     11  C   UNL A   1      33.641  27.376  25.683  1.00  0.00     0.017 C 
ATOM     12  C   UNL A   1      31.931  28.642  26.800  1.00  0.00     0.014 C 
BRANCH   9  13
ATOM     13  C   UNL A   1      32.372  27.777  23.457  1.00  0.00     0.084 C 
BRANCH  13  14
ATOM     14  C   UNL A   1      33.011  26.758  22.514  1.00  0.00     0.163 C 
ATOM     15  O   UNL A   1      33.767  27.105  21.605  1.00  0.00    -0.294 OA
BRANCH  14  16
ATOM     16  C   UNL A   1      32.854  25.298  22.736  1.00  0.00     0.018 A 
ATOM     17  C   UNL A   1      31.587  24.762  22.966  1.00  0.00     0.013 A 
ATOM     18  C   UNL A   1      33.930  24.430  22.523  1.00  0.00     0.013 A 
ATOM     19  C   UNL A   1      31.404  23.386  23.114  1.00  0.00     0.021 A 
ATOM     20  C   UNL A   1      33.741  23.042  22.623  1.00  0.00     0.021 A 
ATOM     21  C   UNL A   1      32.484  22.530  22.943  1.00  0.00     0.041 A 
ATOM     22  Cl  UNL A   1      32.247  20.833  23.083  1.00  0.00    -0.084 Cl
ENDBRANCH  14  16
ENDBRANCH  13  14
ENDBRANCH   9  13
ENDBRANCH   5   8
ENDBRANCH   3   4
ENDBRANCH   2   3
ENDBRANCH   1   2
BRANCH   1  23
ATOM     23  C   UNL A   1      35.073  21.976  26.228  1.00  0.00     0.002 C 
BRANCH  23  24
ATOM     24  C   UNL A   1      35.673  21.038  25.181  1.00  0.00     0.021 C 
BRANCH  24  25
ATOM     25  C   UNL A   1      37.122  21.329  24.802  1.00  0.00     0.116 C 
BRANCH  25  26
ATOM     26  N   UNL A   1      38.026  20.249  25.154  1.00  0.00    -0.352 N 
ATOM     27  C   UNL A   1      39.265  20.323  25.761  1.00  0.00     0.251 C 
ATOM     28  H   UNL A   1      37.716  19.342  24.930  1.00  0.00     0.163 HD
ATOM     29  O   UNL A   1      39.963  19.330  25.851  1.00  0.00    -0.269 OA
BRANCH  27  30
ATOM     30  C   UNL A   1      39.745  21.633  26.266  1.00  0.00     0.039 A 
ATOM     31  C   UNL A   1      40.992  21.698  26.891  1.00  0.00     0.014 A 
ATOM     32  C   UNL A   1      38.981  22.792  26.103  1.00  0.00     0.014 A 
ATOM     33  C   UNL A   1      41.504  22.937  27.288  1.00  0.00     0.010 A 
ATOM     34  C   UNL A   1      39.522  24.032  26.436  1.00  0.00     0.010 A 
ATOM     35  C   UNL A   1      40.791  24.120  27.028  1.00  0.00    -0.014 A 
BRANCH  35  36
ATOM     36  C   UNL A   1      41.359  25.454  27.363  1.00  0.00     0.031 A 
ATOM     37  C   UNL A   1      42.773  25.793  26.973  1.00  0.00     0.074 A 
ATOM     38  C   UNL A   1      40.625  26.334  28.075  1.00  0.00     0.049 A 
ATOM     39  N   UNL A   1      43.471  26.867  27.242  1.00  0.00    -0.248 NA
ATOM     40  C   UNL A   1      43.505  24.778  26.202  1.00  0.00     0.031 C 
ATOM     41  C   UNL A   1      39.257  26.108  28.544  1.00  0.00     0.029 A 
ATOM     42  N   UNL A   1      40.927  27.593  28.535  1.00  0.00    -0.354 N 
ATOM     43  C   UNL A   1      44.728  26.651  26.685  1.00  0.00     0.074 A 
ATOM     44  C   UNL A   1      44.710  25.321  26.115  1.00  0.00     0.031 C 
ATOM     45  C   UNL A   1      38.832  27.197  29.206  1.00  0.00     0.029 A 
ATOM     46  C   UNL A   1      39.909  28.181  29.250  1.00  0.00     0.049 A 
ATOM     47  H   UNL A   1      41.792  28.033  28.368  1.00  0.00     0.167 HD
ATOM     48  C   UNL A   1      45.790  27.494  26.635  1.00  0.00     0.034 A 
ATOM     49  C   UNL A   1      39.853  29.372  29.881  1.00  0.00     0.034 A 
ATOM     50  C   UNL A   1      45.788  28.824  27.193  1.00  0.00     0.049 A 
ATOM     51  C   UNL A   1      41.055  30.282  29.829  1.00  0.00     0.074 A 
ATOM     52  C   UNL A   1      46.789  29.779  27.149  1.00  0.00     0.029 A 
ATOM     53  N   UNL A   1      44.736  29.387  27.906  1.00  0.00    -0.354 N 
ATOM     54  N   UNL A   1      42.218  30.083  29.254  1.00  0.00    -0.248 NA
ATOM     55  C   UNL A   1      40.932  31.582  30.501  1.00  0.00     0.031 C 
ATOM     56  C   UNL A   1      46.371  30.891  27.888  1.00  0.00     0.029 A 
ATOM     57  C   UNL A   1      45.078  30.663  28.330  1.00  0.00     0.049 A 
ATOM     58  H   UNL A   1      43.875  28.946  28.083  1.00  0.00     0.167 HD
ATOM     59  C   UNL A   1      42.951  31.247  29.466  1.00  0.00     0.074 A 
ATOM     60  C   UNL A   1      42.094  32.148  30.209  1.00  0.00     0.031 C 
ATOM     61  C   UNL A   1      44.215  31.549  29.076  1.00  0.00     0.034 A 
BRANCH  48  62
ATOM     62  C   UNL A   1      47.050  26.990  25.971  1.00  0.00     0.023 A 
ATOM     63  C   UNL A   1      48.048  26.316  26.697  1.00  0.00     0.031 A 
ATOM     64  C   UNL A   1      47.263  27.197  24.597  1.00  0.00     0.131 A 
ATOM     65  C   UNL A   1      49.241  25.936  26.063  1.00  0.00     0.055 A 
ATOM     66  C   UNL A   1      48.417  26.744  23.954  1.00  0.00     0.041 A 
ATOM     67  F   UNL A   1      46.355  27.851  23.856  1.00  0.00    -0.206 F 
ATOM     68  C   UNL A   1      49.421  26.122  24.691  1.00  0.00     0.022 A 
BRANCH  65  69
ATOM     69  S   UNL A   1      50.605  25.319  27.084  1.00  0.00     0.124 S 
ATOM     70  O   UNL A   1      51.567  24.898  26.069  1.00  0.00    -0.237 OA
ATOM     71  O   UNL A   1      50.973  26.494  27.865  1.00  0.00    -0.237 OA
ATOM     72  O   UNL A   1      49.998  24.228  27.845  1.00  0.00    -0.744 OA
ENDBRANCH  65  69
ENDBRANCH  48  62
BRANCH  49  73
ATOM     73  C   UNL A   1      38.627  29.777  30.628  1.00  0.00     0.023 A 
ATOM     74  C   UNL A   1      37.642  30.576  30.025  1.00  0.00     0.031 A 
ATOM     75  C   UNL A   1      38.448  29.419  31.976  1.00  0.00     0.131 A 
ATOM     76  C   UNL A   1      36.551  31.035  30.780  1.00  0.00     0.055 A 
ATOM     77  C   UNL A   1      37.332  29.830  32.708  1.00  0.00     0.041 A 
ATOM     78  F   UNL A   1      39.356  28.653  32.602  1.00  0.00    -0.206 F 
ATOM     79  C   UNL A   1      36.383  30.656  32.114  1.00  0.00     0.022 A 
BRANCH  76  80
ATOM     80  S   UNL A   1      35.404  32.217  30.021  1.00  0.00     0.124 S 
ATOM     81  O   UNL A   1      34.449  32.438  31.100  1.00  0.00    -0.237 OA
ATOM     82  O   UNL A   1      36.288  33.334  29.706  1.00  0.00    -0.237 OA
ATOM     83  O   UNL A   1      34.884  31.490  28.865  1.00  0.00    -0.744 OA
ENDBRANCH  76  80
ENDBRANCH  49  73
BRANCH  61  84
ATOM     84  C   UNL A   1      44.724  32.931  29.403  1.00  0.00     0.023 A 
ATOM     85  C   UNL A   1      44.617  33.997  28.492  1.00  0.00     0.031 A 
ATOM     86  C   UNL A   1      45.331  33.183  30.647  1.00  0.00     0.131 A 
ATOM     87  C   UNL A   1      45.159  35.250  28.817  1.00  0.00     0.055 A 
ATOM     88  C   UNL A   1      45.814  34.446  30.987  1.00  0.00     0.041 A 
ATOM     89  F   UNL A   1      45.461  32.201  31.554  1.00  0.00    -0.206 F 
ATOM     90  C   UNL A   1      45.741  35.486  30.065  1.00  0.00     0.022 A 
BRANCH  87  91
ATOM     91  S   UNL A   1      45.168  36.550  27.551  1.00  0.00     0.124 S 
ATOM     92  O   UNL A   1      45.376  35.781  26.328  1.00  0.00    -0.237 OA
ATOM     93  O   UNL A   1      43.847  37.150  27.709  1.00  0.00    -0.237 OA
ATOM     94  O   UNL A   1      46.287  37.405  27.945  1.00  0.00    -0.744 OA
ENDBRANCH  87  91
ENDBRANCH  61  84
ENDBRANCH  35  36
ENDBRANCH  27  30
ENDBRANCH  25  26
ENDBRANCH  24  25
ENDBRANCH  23  24
ENDBRANCH   1  23
TORSDOF 19
ENDMDL
