MODEL 1
REMARK VINA RESULT:     -11.8      0.000      0.000
REMARK SMILES Cc1c(N[C@@H]2CC[C@@H]([NH3+])C2)cccc1C(=O)NCCCCCCNC(=O)c1ccc(-c2c3nc(c(-c4cc(S(=O)(=O)[O-])ccc4F)c4ccc([nH]4)c(-c4cc(S(=O)(=O)[O-])ccc4F)c4nc(c(-c5cc(S(=O)(=O)[O-])ccc5F)c5ccc2[nH]5)C=C4)C=C3)cc1
REMARK SMILES IDX 20 1 19 2 18 3 17 4 15 5 16 6 14 8 1 9 2 10 3 11 11 12 13 13
REMARK SMILES IDX 12 14 4 15 5 17 6 18 10 19 7 20 8 21 9 22 21 26 22 27 23 28
REMARK SMILES IDX 24 29 25 30 26 32 27 33 28 34 89 35 29 36 88 37 30 38 31 39
REMARK SMILES IDX 32 40 82 41 33 42 87 43 81 44 83 45 34 46 86 47 80 48 79 49
REMARK SMILES IDX 35 51 67 52 47 53 66 54 48 55 51 56 65 57 84 58 49 59 50 60
REMARK SMILES IDX 64 62 85 63 52 64 36 65 37 66 45 67 38 68 44 69 46 70 43 71
REMARK SMILES IDX 39 72 40 73 41 74 42 75 68 76 69 77 77 78 70 79 76 80 78 81
REMARK SMILES IDX 75 82 71 83 72 84 73 85 74 86 53 87 54 88 62 89 55 90 61 91
REMARK SMILES IDX 63 92 60 93 56 94 57 95 58 96 59 97
REMARK H PARENT 17 7 4 16 9 23 9 24 9 25 24 31 83 50 51 61
REMARK Flexibility Score: inf
ROOT
ATOM      1  C   UNL A   1      32.504  28.085  25.597  1.00  0.00     0.002 C 
ENDROOT
BRANCH   1   2
ATOM      2  C   UNL A   1      31.619  27.391  26.639  1.00  0.00     0.021 C 
BRANCH   2   3
ATOM      3  C   UNL A   1      30.625  26.368  26.070  1.00  0.00     0.116 C 
BRANCH   3   4
ATOM      4  N   UNL A   1      30.750  25.102  26.772  1.00  0.00    -0.352 N 
ATOM      5  C   UNL A   1      31.342  23.904  26.469  1.00  0.00     0.251 C 
ATOM      6  O   UNL A   1      31.278  23.013  27.320  1.00  0.00    -0.269 OA
ATOM      7  H   UNL A   1      30.315  25.106  27.656  1.00  0.00     0.163 HD
BRANCH   5   8
ATOM      8  C   UNL A   1      32.149  23.639  25.236  1.00  0.00     0.044 A 
ATOM      9  C   UNL A   1      34.194  25.034  25.850  1.00  0.00     0.047 C 
ATOM     10  C   UNL A   1      33.477  24.040  24.972  1.00  0.00    -0.015 A 
ATOM     11  C   UNL A   1      34.130  23.628  23.773  1.00  0.00     0.038 A 
ATOM     12  C   UNL A   1      33.341  23.086  22.756  1.00  0.00     0.026 A 
ATOM     13  C   UNL A   1      31.421  23.023  24.203  1.00  0.00     0.014 A 
ATOM     14  C   UNL A   1      31.996  22.790  22.960  1.00  0.00     0.003 A 
BRANCH  11  15
ATOM     15  N   UNL A   1      35.490  23.837  23.640  1.00  0.00    -0.382 N 
ATOM     16  H   UNL A   1      35.730  24.633  23.112  1.00  0.00     0.160 HD
BRANCH  15  17
ATOM     17  C   UNL A   1      36.628  23.087  24.141  1.00  0.00     0.085 C 
ATOM     18  C   UNL A   1      36.334  21.606  24.386  1.00  0.00     0.031 C 
ATOM     19  C   UNL A   1      37.286  23.638  25.404  1.00  0.00     0.089 C 
ATOM     20  C   UNL A   1      36.912  21.299  25.766  1.00  0.00     0.067 C 
ATOM     21  C   UNL A   1      37.926  22.408  26.052  1.00  0.00     0.182 C 
BRANCH  21  22
ATOM     22  N   UNL A   1      39.232  22.096  25.470  1.00  0.00    -0.355 N 
ATOM     23  H   UNL A   1      39.115  21.424  24.713  1.00  0.00     0.344 HD
ATOM     24  H   UNL A   1      39.837  21.698  26.188  1.00  0.00     0.344 HD
ATOM     25  H   UNL A   1      39.655  22.950  25.105  1.00  0.00     0.344 HD
ENDBRANCH  21  22
ENDBRANCH  15  17
ENDBRANCH  11  15
ENDBRANCH   5   8
ENDBRANCH   3   4
ENDBRANCH   2   3
ENDBRANCH   1   2
BRANCH   1  26
ATOM     26  C   UNL A   1      32.707  29.597  25.780  1.00  0.00     0.002 C 
BRANCH  26  27
ATOM     27  C   UNL A   1      34.027  30.015  26.429  1.00  0.00     0.021 C 
BRANCH  27  28
ATOM     28  C   UNL A   1      34.055  29.856  27.948  1.00  0.00     0.116 C 
BRANCH  28  29
ATOM     29  N   UNL A   1      34.702  30.961  28.645  1.00  0.00    -0.352 N 
ATOM     30  C   UNL A   1      35.964  31.018  29.198  1.00  0.00     0.251 C 
ATOM     31  H   UNL A   1      34.163  31.780  28.733  1.00  0.00     0.163 HD
ATOM     32  O   UNL A   1      36.340  32.011  29.821  1.00  0.00    -0.269 OA
BRANCH  30  33
ATOM     33  C   UNL A   1      36.919  29.916  28.937  1.00  0.00     0.039 A 
ATOM     34  C   UNL A   1      37.194  29.033  29.989  1.00  0.00     0.014 A 
ATOM     35  C   UNL A   1      37.670  29.864  27.764  1.00  0.00     0.014 A 
ATOM     36  C   UNL A   1      38.350  28.256  29.951  1.00  0.00     0.010 A 
ATOM     37  C   UNL A   1      38.857  29.154  27.758  1.00  0.00     0.010 A 
ATOM     38  C   UNL A   1      39.228  28.398  28.875  1.00  0.00    -0.014 A 
BRANCH  38  39
ATOM     39  C   UNL A   1      40.601  27.902  28.899  1.00  0.00     0.031 A 
ATOM     40  C   UNL A   1      40.931  26.541  28.431  1.00  0.00     0.074 A 
ATOM     41  C   UNL A   1      41.593  28.703  29.345  1.00  0.00     0.049 A 
ATOM     42  N   UNL A   1      41.972  25.876  28.808  1.00  0.00    -0.248 NA
ATOM     43  C   UNL A   1      40.075  25.799  27.515  1.00  0.00     0.031 C 
ATOM     44  C   UNL A   1      43.032  28.475  29.254  1.00  0.00     0.029 A 
ATOM     45  N   UNL A   1      41.464  29.767  30.234  1.00  0.00    -0.354 N 
ATOM     46  C   UNL A   1      42.062  24.750  28.026  1.00  0.00     0.074 A 
ATOM     47  C   UNL A   1      40.833  24.726  27.264  1.00  0.00     0.031 C 
ATOM     48  C   UNL A   1      43.637  29.158  30.238  1.00  0.00     0.029 A 
ATOM     49  C   UNL A   1      42.598  29.741  31.068  1.00  0.00     0.049 A 
ATOM     50  H   UNL A   1      40.723  30.415  30.271  1.00  0.00     0.167 HD
ATOM     51  C   UNL A   1      43.209  24.013  28.026  1.00  0.00     0.034 A 
ATOM     52  C   UNL A   1      42.462  29.575  32.417  1.00  0.00     0.034 A 
ATOM     53  C   UNL A   1      44.198  24.524  28.971  1.00  0.00     0.049 A 
ATOM     54  C   UNL A   1      43.129  28.326  32.959  1.00  0.00     0.074 A 
ATOM     55  C   UNL A   1      45.321  25.327  28.860  1.00  0.00     0.029 A 
ATOM     56  N   UNL A   1      43.937  24.416  30.324  1.00  0.00    -0.354 N 
ATOM     57  N   UNL A   1      43.732  27.430  32.226  1.00  0.00    -0.248 NA
ATOM     58  C   UNL A   1      43.079  27.944  34.372  1.00  0.00     0.031 C 
ATOM     59  C   UNL A   1      45.705  25.732  30.173  1.00  0.00     0.029 A 
ATOM     60  C   UNL A   1      44.829  25.157  31.076  1.00  0.00     0.049 A 
ATOM     61  H   UNL A   1      43.207  23.876  30.706  1.00  0.00     0.167 HD
ATOM     62  C   UNL A   1      44.078  26.361  33.011  1.00  0.00     0.074 A 
ATOM     63  C   UNL A   1      43.653  26.730  34.349  1.00  0.00     0.031 C 
ATOM     64  C   UNL A   1      44.643  25.223  32.514  1.00  0.00     0.034 A 
BRANCH  51  65
ATOM     65  C   UNL A   1      43.520  22.957  26.996  1.00  0.00     0.023 A 
ATOM     66  C   UNL A   1      42.853  21.717  27.059  1.00  0.00     0.031 A 
ATOM     67  C   UNL A   1      44.464  23.091  25.960  1.00  0.00     0.131 A 
ATOM     68  C   UNL A   1      43.198  20.657  26.201  1.00  0.00     0.055 A 
ATOM     69  C   UNL A   1      44.857  22.018  25.151  1.00  0.00     0.041 A 
ATOM     70  F   UNL A   1      45.008  24.279  25.658  1.00  0.00    -0.206 F 
ATOM     71  C   UNL A   1      44.232  20.786  25.278  1.00  0.00     0.022 A 
BRANCH  68  72
ATOM     72  S   UNL A   1      42.264  19.107  26.298  1.00  0.00     0.124 S 
ATOM     73  O   UNL A   1      40.937  19.514  25.848  1.00  0.00    -0.237 OA
ATOM     74  O   UNL A   1      43.014  18.239  25.396  1.00  0.00    -0.237 OA
ATOM     75  O   UNL A   1      42.351  18.748  27.714  1.00  0.00    -0.744 OA
ENDBRANCH  68  72
ENDBRANCH  51  65
BRANCH  52  76
ATOM     76  C   UNL A   1      41.212  30.197  32.950  1.00  0.00     0.023 A 
ATOM     77  C   UNL A   1      41.177  31.608  33.016  1.00  0.00     0.031 A 
ATOM     78  C   UNL A   1      39.993  29.510  33.006  1.00  0.00     0.131 A 
ATOM     79  C   UNL A   1      39.955  32.288  32.937  1.00  0.00     0.055 A 
ATOM     80  C   UNL A   1      38.773  30.196  33.026  1.00  0.00     0.041 A 
ATOM     81  F   UNL A   1      39.952  28.172  32.913  1.00  0.00    -0.206 F 
ATOM     82  C   UNL A   1      38.748  31.589  32.940  1.00  0.00     0.022 A 
BRANCH  79  83
ATOM     83  S   UNL A   1      39.978  34.056  32.508  1.00  0.00     0.124 S 
ATOM     84  O   UNL A   1      41.273  34.480  33.026  1.00  0.00    -0.237 OA
ATOM     85  O   UNL A   1      39.848  34.035  31.052  1.00  0.00    -0.237 OA
ATOM     86  O   UNL A   1      38.811  34.593  33.205  1.00  0.00    -0.744 OA
ENDBRANCH  79  83
ENDBRANCH  52  76
BRANCH  64  87
ATOM     87  C   UNL A   1      45.034  24.067  33.391  1.00  0.00     0.023 A 
ATOM     88  C   UNL A   1      46.343  23.927  33.879  1.00  0.00     0.031 A 
ATOM     89  C   UNL A   1      44.126  23.036  33.715  1.00  0.00     0.131 A 
ATOM     90  C   UNL A   1      46.686  22.849  34.712  1.00  0.00     0.055 A 
ATOM     91  C   UNL A   1      44.494  21.920  34.469  1.00  0.00     0.041 A 
ATOM     92  F   UNL A   1      42.836  23.097  33.350  1.00  0.00    -0.206 F 
ATOM     93  C   UNL A   1      45.777  21.828  34.986  1.00  0.00     0.022 A 
BRANCH  90  94
ATOM     94  S   UNL A   1      48.311  22.859  35.509  1.00  0.00     0.124 S 
ATOM     95  O   UNL A   1      48.229  21.720  36.417  1.00  0.00    -0.237 OA
ATOM     96  O   UNL A   1      49.202  22.694  34.363  1.00  0.00    -0.237 OA
ATOM     97  O   UNL A   1      48.371  24.168  36.156  1.00  0.00    -0.744 OA
ENDBRANCH  90  94
ENDBRANCH  64  87
ENDBRANCH  38  39
ENDBRANCH  30  33
ENDBRANCH  28  29
ENDBRANCH  27  28
ENDBRANCH  26  27
ENDBRANCH   1  26
TORSDOF 19
ENDMDL
MODEL 2
REMARK VINA RESULT:     -11.6      1.568      2.146
REMARK SMILES Cc1c(N[C@@H]2CC[C@@H]([NH3+])C2)cccc1C(=O)NCCCCCCNC(=O)c1ccc(-c2c3nc(c(-c4cc(S(=O)(=O)[O-])ccc4F)c4ccc([nH]4)c(-c4cc(S(=O)(=O)[O-])ccc4F)c4nc(c(-c5cc(S(=O)(=O)[O-])ccc5F)c5ccc2[nH]5)C=C4)C=C3)cc1
REMARK SMILES IDX 20 1 19 2 18 3 17 4 15 5 16 6 14 8 1 9 2 10 3 11 11 12 13 13
REMARK SMILES IDX 12 14 4 15 5 17 6 18 10 19 7 20 8 21 9 22 21 26 22 27 23 28
REMARK SMILES IDX 24 29 25 30 26 32 27 33 28 34 89 35 29 36 88 37 30 38 31 39
REMARK SMILES IDX 32 40 82 41 33 42 87 43 81 44 83 45 34 46 86 47 80 48 79 49
REMARK SMILES IDX 35 51 67 52 47 53 66 54 48 55 51 56 65 57 84 58 49 59 50 60
REMARK SMILES IDX 64 62 85 63 52 64 36 65 37 66 45 67 38 68 44 69 46 70 43 71
REMARK SMILES IDX 39 72 40 73 41 74 42 75 68 76 69 77 77 78 70 79 76 80 78 81
REMARK SMILES IDX 75 82 71 83 72 84 73 85 74 86 53 87 54 88 62 89 55 90 61 91
REMARK SMILES IDX 63 92 60 93 56 94 57 95 58 96 59 97
REMARK H PARENT 17 7 4 16 9 23 9 24 9 25 24 31 83 50 51 61
REMARK Flexibility Score: inf
ROOT
ATOM      1  C   UNL A   1      33.292  29.351  24.854  1.00  0.00     0.002 C 
ENDROOT
BRANCH   1   2
ATOM      2  C   UNL A   1      32.928  28.284  23.814  1.00  0.00     0.021 C 
BRANCH   2   3
ATOM      3  C   UNL A   1      33.980  28.060  22.718  1.00  0.00     0.116 C 
BRANCH   3   4
ATOM      4  N   UNL A   1      33.427  27.244  21.651  1.00  0.00    -0.352 N 
ATOM      5  C   UNL A   1      32.739  26.059  21.622  1.00  0.00     0.251 C 
ATOM      6  O   UNL A   1      32.389  25.638  20.516  1.00  0.00    -0.269 OA
ATOM      7  H   UNL A   1      33.580  27.624  20.755  1.00  0.00     0.163 HD
BRANCH   5   8
ATOM      8  C   UNL A   1      32.290  25.304  22.833  1.00  0.00     0.044 A 
ATOM      9  C   UNL A   1      34.354  23.832  23.112  1.00  0.00     0.047 C 
ATOM     10  C   UNL A   1      33.033  24.374  23.595  1.00  0.00    -0.015 A 
ATOM     11  C   UNL A   1      32.477  23.804  24.778  1.00  0.00     0.038 A 
ATOM     12  C   UNL A   1      31.105  23.954  24.990  1.00  0.00     0.026 A 
ATOM     13  C   UNL A   1      30.929  25.479  23.139  1.00  0.00     0.014 A 
ATOM     14  C   UNL A   1      30.330  24.777  24.178  1.00  0.00     0.003 A 
BRANCH  11  15
ATOM     15  N   UNL A   1      33.296  23.079  25.625  1.00  0.00    -0.382 N 
ATOM     16  H   UNL A   1      33.946  23.623  26.126  1.00  0.00     0.160 HD
BRANCH  15  17
ATOM     17  C   UNL A   1      33.365  21.657  25.904  1.00  0.00     0.085 C 
ATOM     18  C   UNL A   1      34.721  21.027  25.579  1.00  0.00     0.031 C 
ATOM     19  C   UNL A   1      32.291  20.794  25.246  1.00  0.00     0.089 C 
ATOM     20  C   UNL A   1      34.403  19.750  24.805  1.00  0.00     0.067 C 
ATOM     21  C   UNL A   1      32.946  19.415  25.132  1.00  0.00     0.182 C 
BRANCH  21  22
ATOM     22  N   UNL A   1      32.842  18.650  26.375  1.00  0.00    -0.355 N 
ATOM     23  H   UNL A   1      32.553  17.696  26.164  1.00  0.00     0.344 HD
ATOM     24  H   UNL A   1      32.153  19.087  26.986  1.00  0.00     0.344 HD
ATOM     25  H   UNL A   1      33.750  18.636  26.841  1.00  0.00     0.344 HD
ENDBRANCH  21  22
ENDBRANCH  15  17
ENDBRANCH  11  15
ENDBRANCH   5   8
ENDBRANCH   3   4
ENDBRANCH   2   3
ENDBRANCH   1   2
BRANCH   1  26
ATOM     26  C   UNL A   1      32.170  29.769  25.817  1.00  0.00     0.002 C 
BRANCH  26  27
ATOM     27  C   UNL A   1      32.625  30.410  27.129  1.00  0.00     0.021 C 
BRANCH  27  28
ATOM     28  C   UNL A   1      34.102  30.191  27.452  1.00  0.00     0.116 C 
BRANCH  28  29
ATOM     29  N   UNL A   1      34.644  31.150  28.408  1.00  0.00    -0.352 N 
ATOM     30  C   UNL A   1      35.794  31.064  29.164  1.00  0.00     0.251 C 
ATOM     31  H   UNL A   1      34.116  31.972  28.531  1.00  0.00     0.163 HD
ATOM     32  O   UNL A   1      36.079  31.935  29.986  1.00  0.00    -0.269 OA
BRANCH  30  33
ATOM     33  C   UNL A   1      36.755  29.968  28.899  1.00  0.00     0.039 A 
ATOM     34  C   UNL A   1      37.047  29.092  29.952  1.00  0.00     0.014 A 
ATOM     35  C   UNL A   1      37.495  29.917  27.719  1.00  0.00     0.014 A 
ATOM     36  C   UNL A   1      38.208  28.324  29.906  1.00  0.00     0.010 A 
ATOM     37  C   UNL A   1      38.688  29.216  27.704  1.00  0.00     0.010 A 
ATOM     38  C   UNL A   1      39.075  28.469  28.821  1.00  0.00    -0.014 A 
BRANCH  38  39
ATOM     39  C   UNL A   1      40.452  27.983  28.834  1.00  0.00     0.031 A 
ATOM     40  C   UNL A   1      40.788  26.622  28.370  1.00  0.00     0.074 A 
ATOM     41  C   UNL A   1      41.443  28.794  29.265  1.00  0.00     0.049 A 
ATOM     42  N   UNL A   1      41.838  25.967  28.741  1.00  0.00    -0.248 NA
ATOM     43  C   UNL A   1      39.928  25.867  27.467  1.00  0.00     0.031 C 
ATOM     44  C   UNL A   1      42.882  28.577  29.161  1.00  0.00     0.029 A 
ATOM     45  N   UNL A   1      41.314  29.863  30.149  1.00  0.00    -0.354 N 
ATOM     46  C   UNL A   1      41.929  24.837  27.965  1.00  0.00     0.074 A 
ATOM     47  C   UNL A   1      40.692  24.799  27.215  1.00  0.00     0.031 C 
ATOM     48  C   UNL A   1      43.492  29.271  30.134  1.00  0.00     0.029 A 
ATOM     49  C   UNL A   1      42.457  29.850  30.972  1.00  0.00     0.049 A 
ATOM     50  H   UNL A   1      40.569  30.505  30.190  1.00  0.00     0.167 HD
ATOM     51  C   UNL A   1      43.081  24.109  27.957  1.00  0.00     0.034 A 
ATOM     52  C   UNL A   1      42.336  29.691  32.323  1.00  0.00     0.034 A 
ATOM     53  C   UNL A   1      44.076  24.633  28.889  1.00  0.00     0.049 A 
ATOM     54  C   UNL A   1      43.018  28.450  32.866  1.00  0.00     0.074 A 
ATOM     55  C   UNL A   1      45.191  25.445  28.762  1.00  0.00     0.029 A 
ATOM     56  N   UNL A   1      43.830  24.531  30.246  1.00  0.00    -0.354 N 
ATOM     57  N   UNL A   1      43.621  27.555  32.131  1.00  0.00    -0.248 NA
ATOM     58  C   UNL A   1      42.985  28.077  34.281  1.00  0.00     0.031 C 
ATOM     59  C   UNL A   1      45.585  25.860  30.069  1.00  0.00     0.029 A 
ATOM     60  C   UNL A   1      44.723  25.283  30.983  1.00  0.00     0.049 A 
ATOM     61  H   UNL A   1      43.108  23.988  30.637  1.00  0.00     0.167 HD
ATOM     62  C   UNL A   1      43.982  26.494  32.919  1.00  0.00     0.074 A 
ATOM     63  C   UNL A   1      43.568  26.867  34.259  1.00  0.00     0.031 C 
ATOM     64  C   UNL A   1      44.551  25.356  32.423  1.00  0.00     0.034 A 
BRANCH  51  65
ATOM     65  C   UNL A   1      43.390  23.049  26.931  1.00  0.00     0.023 A 
ATOM     66  C   UNL A   1      42.767  21.790  27.033  1.00  0.00     0.031 A 
ATOM     67  C   UNL A   1      44.291  23.200  25.859  1.00  0.00     0.131 A 
ATOM     68  C   UNL A   1      43.117  20.729  26.177  1.00  0.00     0.055 A 
ATOM     69  C   UNL A   1      44.690  22.128  25.050  1.00  0.00     0.041 A 
ATOM     70  F   UNL A   1      44.785  24.400  25.523  1.00  0.00    -0.206 F 
ATOM     71  C   UNL A   1      44.112  20.879  25.216  1.00  0.00     0.022 A 
BRANCH  68  72
ATOM     72  S   UNL A   1      42.238  19.151  26.328  1.00  0.00     0.124 S 
ATOM     73  O   UNL A   1      40.944  19.455  25.726  1.00  0.00    -0.237 OA
ATOM     74  O   UNL A   1      43.103  18.246  25.578  1.00  0.00    -0.237 OA
ATOM     75  O   UNL A   1      42.207  18.918  27.772  1.00  0.00    -0.744 OA
ENDBRANCH  68  72
ENDBRANCH  51  65
BRANCH  52  76
ATOM     76  C   UNL A   1      41.087  30.307  32.865  1.00  0.00     0.023 A 
ATOM     77  C   UNL A   1      41.043  31.718  32.926  1.00  0.00     0.031 A 
ATOM     78  C   UNL A   1      39.873  29.611  32.935  1.00  0.00     0.131 A 
ATOM     79  C   UNL A   1      39.815  32.389  32.856  1.00  0.00     0.055 A 
ATOM     80  C   UNL A   1      38.648  30.289  32.963  1.00  0.00     0.041 A 
ATOM     81  F   UNL A   1      39.839  28.273  32.846  1.00  0.00    -0.206 F 
ATOM     82  C   UNL A   1      38.613  31.682  32.873  1.00  0.00     0.022 A 
BRANCH  79  83
ATOM     83  S   UNL A   1      39.822  34.155  32.420  1.00  0.00     0.124 S 
ATOM     84  O   UNL A   1      38.824  34.700  33.332  1.00  0.00    -0.237 OA
ATOM     85  O   UNL A   1      41.206  34.545  32.682  1.00  0.00    -0.237 OA
ATOM     86  O   UNL A   1      39.456  34.160  31.006  1.00  0.00    -0.744 OA
ENDBRANCH  79  83
ENDBRANCH  52  76
BRANCH  64  87
ATOM     87  C   UNL A   1      44.960  24.209  33.303  1.00  0.00     0.023 A 
ATOM     88  C   UNL A   1      46.261  24.110  33.822  1.00  0.00     0.031 A 
ATOM     89  C   UNL A   1      44.080  23.145  33.599  1.00  0.00     0.131 A 
ATOM     90  C   UNL A   1      46.620  23.039  34.656  1.00  0.00     0.055 A 
ATOM     91  C   UNL A   1      44.467  22.038  34.356  1.00  0.00     0.041 A 
ATOM     92  F   UNL A   1      42.798  23.165  33.203  1.00  0.00    -0.206 F 
ATOM     93  C   UNL A   1      45.740  21.986  34.903  1.00  0.00     0.022 A 
BRANCH  90  94
ATOM     94  S   UNL A   1      48.224  23.099  35.493  1.00  0.00     0.124 S 
ATOM     95  O   UNL A   1      48.118  24.309  36.301  1.00  0.00    -0.237 OA
ATOM     96  O   UNL A   1      48.217  21.839  36.234  1.00  0.00    -0.237 OA
ATOM     97  O   UNL A   1      49.185  23.165  34.395  1.00  0.00    -0.744 OA
ENDBRANCH  90  94
ENDBRANCH  64  87
ENDBRANCH  38  39
ENDBRANCH  30  33
ENDBRANCH  28  29
ENDBRANCH  27  28
ENDBRANCH  26  27
ENDBRANCH   1  26
TORSDOF 19
ENDMDL
MODEL 3
REMARK VINA RESULT:     -11.6      4.051     10.429
REMARK SMILES Cc1c(N[C@@H]2CC[C@@H]([NH3+])C2)cccc1C(=O)NCCCCCCNC(=O)c1ccc(-c2c3nc(c(-c4cc(S(=O)(=O)[O-])ccc4F)c4ccc([nH]4)c(-c4cc(S(=O)(=O)[O-])ccc4F)c4nc(c(-c5cc(S(=O)(=O)[O-])ccc5F)c5ccc2[nH]5)C=C4)C=C3)cc1
REMARK SMILES IDX 20 1 19 2 18 3 17 4 15 5 16 6 14 8 1 9 2 10 3 11 11 12 13 13
REMARK SMILES IDX 12 14 4 15 5 17 6 18 10 19 7 20 8 21 9 22 21 26 22 27 23 28
REMARK SMILES IDX 24 29 25 30 26 32 27 33 28 34 89 35 29 36 88 37 30 38 31 39
REMARK SMILES IDX 32 40 82 41 33 42 87 43 81 44 83 45 34 46 86 47 80 48 79 49
REMARK SMILES IDX 35 51 67 52 47 53 66 54 48 55 51 56 65 57 84 58 49 59 50 60
REMARK SMILES IDX 64 62 85 63 52 64 36 65 37 66 45 67 38 68 44 69 46 70 43 71
REMARK SMILES IDX 39 72 40 73 41 74 42 75 68 76 69 77 77 78 70 79 76 80 78 81
REMARK SMILES IDX 75 82 71 83 72 84 73 85 74 86 53 87 54 88 62 89 55 90 61 91
REMARK SMILES IDX 63 92 60 93 56 94 57 95 58 96 59 97
REMARK H PARENT 17 7 4 16 9 23 9 24 9 25 24 31 83 50 51 61
REMARK Flexibility Score: inf
ROOT
ATOM      1  C   UNL A   1      35.344  23.479  26.067  1.00  0.00     0.002 C 
ENDROOT
BRANCH   1   2
ATOM      2  C   UNL A   1      34.644  22.599  27.110  1.00  0.00     0.021 C 
BRANCH   2   3
ATOM      3  C   UNL A   1      34.038  21.299  26.562  1.00  0.00     0.116 C 
BRANCH   3   4
ATOM      4  N   UNL A   1      32.597  21.433  26.429  1.00  0.00    -0.352 N 
ATOM      5  C   UNL A   1      31.786  22.217  25.651  1.00  0.00     0.251 C 
ATOM      6  O   UNL A   1      30.568  22.064  25.776  1.00  0.00    -0.269 OA
ATOM      7  H   UNL A   1      32.097  20.832  27.027  1.00  0.00     0.163 HD
BRANCH   5   8
ATOM      8  C   UNL A   1      32.269  23.158  24.592  1.00  0.00     0.044 A 
ATOM      9  C   UNL A   1      31.633  25.341  25.748  1.00  0.00     0.047 C 
ATOM     10  C   UNL A   1      32.316  24.569  24.648  1.00  0.00    -0.015 A 
ATOM     11  C   UNL A   1      32.888  25.314  23.575  1.00  0.00     0.038 A 
ATOM     12  C   UNL A   1      33.117  24.647  22.369  1.00  0.00     0.026 A 
ATOM     13  C   UNL A   1      32.586  22.528  23.376  1.00  0.00     0.014 A 
ATOM     14  C   UNL A   1      32.962  23.268  22.261  1.00  0.00     0.003 A 
BRANCH  11  15
ATOM     15  N   UNL A   1      33.131  26.664  23.746  1.00  0.00    -0.382 N 
ATOM     16  H   UNL A   1      33.898  26.869  24.330  1.00  0.00     0.160 HD
BRANCH  15  17
ATOM     17  C   UNL A   1      32.453  27.834  23.218  1.00  0.00     0.085 C 
ATOM     18  C   UNL A   1      32.253  28.951  24.244  1.00  0.00     0.031 C 
ATOM     19  C   UNL A   1      31.104  27.579  22.551  1.00  0.00     0.089 C 
ATOM     20  C   UNL A   1      30.798  29.389  24.092  1.00  0.00     0.067 C 
ATOM     21  C   UNL A   1      30.359  28.907  22.707  1.00  0.00     0.182 C 
BRANCH  21  22
ATOM     22  N   UNL A   1      30.726  29.871  21.669  1.00  0.00    -0.355 N 
ATOM     23  H   UNL A   1      30.161  29.704  20.836  1.00  0.00     0.344 HD
ATOM     24  H   UNL A   1      31.713  29.763  21.438  1.00  0.00     0.344 HD
ATOM     25  H   UNL A   1      30.558  30.818  22.010  1.00  0.00     0.344 HD
ENDBRANCH  21  22
ENDBRANCH  15  17
ENDBRANCH  11  15
ENDBRANCH   5   8
ENDBRANCH   3   4
ENDBRANCH   2   3
ENDBRANCH   1   2
BRANCH   1  26
ATOM     26  C   UNL A   1      36.369  22.774  25.164  1.00  0.00     0.002 C 
BRANCH  26  27
ATOM     27  C   UNL A   1      37.804  23.293  25.257  1.00  0.00     0.021 C 
BRANCH  27  28
ATOM     28  C   UNL A   1      38.564  22.814  26.492  1.00  0.00     0.116 C 
BRANCH  28  29
ATOM     29  N   UNL A   1      40.012  22.927  26.373  1.00  0.00    -0.352 N 
ATOM     30  C   UNL A   1      40.811  24.041  26.526  1.00  0.00     0.251 C 
ATOM     31  H   UNL A   1      40.486  22.093  26.153  1.00  0.00     0.163 HD
ATOM     32  O   UNL A   1      42.023  23.986  26.321  1.00  0.00    -0.269 OA
BRANCH  30  33
ATOM     33  C   UNL A   1      40.217  25.291  27.056  1.00  0.00     0.039 A 
ATOM     34  C   UNL A   1      40.517  26.486  26.390  1.00  0.00     0.014 A 
ATOM     35  C   UNL A   1      39.550  25.319  28.279  1.00  0.00     0.014 A 
ATOM     36  C   UNL A   1      40.345  27.702  27.047  1.00  0.00     0.010 A 
ATOM     37  C   UNL A   1      39.451  26.517  28.964  1.00  0.00     0.010 A 
ATOM     38  C   UNL A   1      39.906  27.701  28.372  1.00  0.00    -0.014 A 
BRANCH  38  39
ATOM     39  C   UNL A   1      40.016  28.865  29.247  1.00  0.00     0.031 A 
ATOM     40  C   UNL A   1      38.963  29.898  29.283  1.00  0.00     0.074 A 
ATOM     41  C   UNL A   1      41.095  28.996  30.050  1.00  0.00     0.049 A 
ATOM     42  N   UNL A   1      39.156  31.120  29.654  1.00  0.00    -0.248 NA
ATOM     43  C   UNL A   1      37.594  29.637  28.856  1.00  0.00     0.031 C 
ATOM     44  C   UNL A   1      41.290  29.959  31.130  1.00  0.00     0.029 A 
ATOM     45  N   UNL A   1      42.356  28.445  29.842  1.00  0.00    -0.354 N 
ATOM     46  C   UNL A   1      37.931  31.733  29.753  1.00  0.00     0.074 A 
ATOM     47  C   UNL A   1      36.992  30.778  29.205  1.00  0.00     0.031 C 
ATOM     48  C   UNL A   1      42.607  30.144  31.306  1.00  0.00     0.029 A 
ATOM     49  C   UNL A   1      43.295  29.407  30.262  1.00  0.00     0.049 A 
ATOM     50  H   UNL A   1      42.554  27.553  29.474  1.00  0.00     0.167 HD
ATOM     51  C   UNL A   1      37.821  32.936  30.384  1.00  0.00     0.034 A 
ATOM     52  C   UNL A   1      44.199  29.923  29.378  1.00  0.00     0.034 A 
ATOM     53  C   UNL A   1      39.116  33.456  30.817  1.00  0.00     0.049 A 
ATOM     54  C   UNL A   1      44.080  31.421  29.171  1.00  0.00     0.074 A 
ATOM     55  C   UNL A   1      39.803  33.466  32.020  1.00  0.00     0.029 A 
ATOM     56  N   UNL A   1      40.022  33.859  29.855  1.00  0.00    -0.354 N 
ATOM     57  N   UNL A   1      43.166  32.174  29.720  1.00  0.00    -0.248 NA
ATOM     58  C   UNL A   1      44.933  32.168  28.245  1.00  0.00     0.031 C 
ATOM     59  C   UNL A   1      41.152  33.846  31.753  1.00  0.00     0.029 A 
ATOM     60  C   UNL A   1      41.273  34.085  30.396  1.00  0.00     0.049 A 
ATOM     61  H   UNL A   1      39.803  33.973  28.902  1.00  0.00     0.167 HD
ATOM     62  C   UNL A   1      43.249  33.438  29.197  1.00  0.00     0.074 A 
ATOM     63  C   UNL A   1      44.374  33.388  28.281  1.00  0.00     0.031 C 
ATOM     64  C   UNL A   1      42.366  34.432  29.506  1.00  0.00     0.034 A 
BRANCH  51  65
ATOM     65  C   UNL A   1      36.506  33.537  30.810  1.00  0.00     0.023 A 
ATOM     66  C   UNL A   1      35.650  34.082  29.833  1.00  0.00     0.031 A 
ATOM     67  C   UNL A   1      36.053  33.628  32.140  1.00  0.00     0.131 A 
ATOM     68  C   UNL A   1      34.474  34.766  30.191  1.00  0.00     0.055 A 
ATOM     69  C   UNL A   1      34.918  34.365  32.503  1.00  0.00     0.041 A 
ATOM     70  F   UNL A   1      36.661  32.966  33.135  1.00  0.00    -0.206 F 
ATOM     71  C   UNL A   1      34.128  34.953  31.526  1.00  0.00     0.022 A 
BRANCH  68  72
ATOM     72  S   UNL A   1      33.390  35.397  28.882  1.00  0.00     0.124 S 
ATOM     73  O   UNL A   1      32.500  36.290  29.618  1.00  0.00    -0.237 OA
ATOM     74  O   UNL A   1      34.340  36.034  27.977  1.00  0.00    -0.237 OA
ATOM     75  O   UNL A   1      32.754  34.188  28.358  1.00  0.00    -0.744 OA
ENDBRANCH  68  72
ENDBRANCH  51  65
BRANCH  52  76
ATOM     76  C   UNL A   1      44.624  28.932  28.343  1.00  0.00     0.023 A 
ATOM     77  C   UNL A   1      45.495  27.901  28.763  1.00  0.00     0.031 A 
ATOM     78  C   UNL A   1      43.924  28.747  27.144  1.00  0.00     0.131 A 
ATOM     79  C   UNL A   1      45.496  26.666  28.103  1.00  0.00     0.055 A 
ATOM     80  C   UNL A   1      44.004  27.543  26.434  1.00  0.00     0.041 A 
ATOM     81  F   UNL A   1      43.054  29.669  26.706  1.00  0.00    -0.206 F 
ATOM     82  C   UNL A   1      44.753  26.478  26.939  1.00  0.00     0.022 A 
BRANCH  79  83
ATOM     83  S   UNL A   1      46.218  25.232  28.959  1.00  0.00     0.124 S 
ATOM     84  O   UNL A   1      45.578  24.114  28.277  1.00  0.00    -0.237 OA
ATOM     85  O   UNL A   1      47.649  25.396  28.712  1.00  0.00    -0.237 OA
ATOM     86  O   UNL A   1      45.823  25.431  30.352  1.00  0.00    -0.744 OA
ENDBRANCH  79  83
ENDBRANCH  52  76
BRANCH  64  87
ATOM     87  C   UNL A   1      42.482  35.819  28.939  1.00  0.00     0.023 A 
ATOM     88  C   UNL A   1      43.101  36.855  29.657  1.00  0.00     0.031 A 
ATOM     89  C   UNL A   1      41.922  36.164  27.690  1.00  0.00     0.131 A 
ATOM     90  C   UNL A   1      43.215  38.141  29.104  1.00  0.00     0.055 A 
ATOM     91  C   UNL A   1      41.959  37.464  27.183  1.00  0.00     0.041 A 
ATOM     92  F   UNL A   1      41.359  35.241  26.896  1.00  0.00    -0.206 F 
ATOM     93  C   UNL A   1      42.622  38.461  27.884  1.00  0.00     0.022 A 
BRANCH  90  94
ATOM     94  S   UNL A   1      44.239  39.361  29.965  1.00  0.00     0.124 S 
ATOM     95  O   UNL A   1      43.874  39.155  31.363  1.00  0.00    -0.237 OA
ATOM     96  O   UNL A   1      45.585  38.932  29.591  1.00  0.00    -0.237 OA
ATOM     97  O   UNL A   1      43.815  40.635  29.392  1.00  0.00    -0.744 OA
ENDBRANCH  90  94
ENDBRANCH  64  87
ENDBRANCH  38  39
ENDBRANCH  30  33
ENDBRANCH  28  29
ENDBRANCH  27  28
ENDBRANCH  26  27
ENDBRANCH   1  26
TORSDOF 19
ENDMDL
