MODEL 1
REMARK VINA RESULT:     -12.2      0.000      0.000
REMARK SMILES O=C(Cc1ccccc1)Nc1cccc(C(=O)Nc2ccccc2C(=O)NCCCCCCNC(=O)c2ccc(-c3c4nc(c(-c5cc(S(=O)(=O)[O-])ccc5F)c5ccc([nH]5)c(-c5cc(S(=O)(=O)[O-])ccc5F)c5nc(c(-c6cc(S(=O)(=O)[O-])ccc6F)c6ccc3[nH]6)C=C5)C=C4)cc2)c1
REMARK SMILES IDX 29 1 28 2 27 3 25 4 26 5 24 7 19 8 20 9 21 10 23 11 22 12
REMARK SMILES IDX 18 13 16 14 17 15 15 17 11 18 12 19 100 20 13 21 14 22 10 23
REMARK SMILES IDX 1 24 2 25 3 27 4 28 5 29 9 30 6 31 8 32 7 33 30 34 31 35
REMARK SMILES IDX 32 36 33 37 34 38 35 39 36 41 37 42 38 43 99 44 39 45 98 46
REMARK SMILES IDX 40 47 41 48 42 49 92 50 43 51 97 52 91 53 93 54 44 55 96 56
REMARK SMILES IDX 90 57 89 58 45 60 77 61 57 62 76 63 58 64 61 65 75 66 94 67
REMARK SMILES IDX 59 68 60 69 74 71 95 72 62 73 46 74 47 75 55 76 48 77 54 78
REMARK SMILES IDX 56 79 53 80 49 81 50 82 51 83 52 84 78 85 79 86 87 87 80 88
REMARK SMILES IDX 86 89 88 90 85 91 81 92 82 93 83 94 84 95 63 96 64 97 72 98
REMARK SMILES IDX 65 99 71 100 73 101 70 102 66 103 67 104 68 105 69 106
REMARK H PARENT 27 6 18 16 10 26 34 40 93 59 61 70
REMARK Flexibility Score: inf
ROOT
ATOM      1  C   UNL A   1      33.634  26.515  25.849  1.00  0.00     0.021 C 
ENDROOT
BRANCH   1   2
ATOM      2  C   UNL A   1      33.927  25.046  25.584  1.00  0.00     0.116 C 
BRANCH   2   3
ATOM      3  N   UNL A   1      33.649  24.166  26.692  1.00  0.00    -0.352 N 
ATOM      4  C   UNL A   1      34.218  22.956  27.002  1.00  0.00     0.253 C 
ATOM      5  O   UNL A   1      33.811  22.377  28.013  1.00  0.00    -0.269 OA
ATOM      6  H   UNL A   1      32.951  24.476  27.314  1.00  0.00     0.163 HD
BRANCH   4   7
ATOM      7  C   UNL A   1      35.208  22.264  26.115  1.00  0.00     0.063 A 
ATOM      8  C   UNL A   1      35.230  20.917  25.685  1.00  0.00     0.054 A 
ATOM      9  C   UNL A   1      36.376  20.457  25.002  1.00  0.00     0.027 A 
ATOM     10  C   UNL A   1      37.402  21.323  24.617  1.00  0.00     0.002 A 
ATOM     11  C   UNL A   1      36.255  23.125  25.701  1.00  0.00     0.016 A 
ATOM     12  C   UNL A   1      37.329  22.668  24.940  1.00  0.00     0.001 A 
BRANCH   8  13
ATOM     13  N   UNL A   1      34.204  19.935  25.762  1.00  0.00    -0.321 N 
ATOM     14  C   UNL A   1      32.943  19.852  25.190  1.00  0.00     0.255 C 
ATOM     15  O   UNL A   1      32.166  18.969  25.541  1.00  0.00    -0.269 OA
ATOM     16  H   UNL A   1      34.433  19.165  26.331  1.00  0.00     0.170 HD
BRANCH  14  17
ATOM     17  C   UNL A   1      32.531  20.795  24.135  1.00  0.00     0.042 A 
ATOM     18  C   UNL A   1      31.294  22.786  23.633  1.00  0.00     0.041 A 
ATOM     19  C   UNL A   1      31.222  22.386  22.294  1.00  0.00     0.026 A 
ATOM     20  C   UNL A   1      32.055  22.041  24.516  1.00  0.00     0.040 A 
ATOM     21  C   UNL A   1      31.884  21.230  21.864  1.00  0.00     0.003 A 
ATOM     22  C   UNL A   1      32.529  20.418  22.795  1.00  0.00     0.014 A 
BRANCH  18  23
ATOM     23  N   UNL A   1      30.486  23.844  24.081  1.00  0.00    -0.326 N 
ATOM     24  O   UNL A   1      31.170  25.604  22.687  1.00  0.00    -0.274 OA
ATOM     25  C   UNL A   1      30.526  25.161  23.635  1.00  0.00     0.228 C 
ATOM     26  H   UNL A   1      29.825  23.634  24.780  1.00  0.00     0.169 HD
BRANCH  25  27
ATOM     27  C   UNL A   1      29.627  26.081  24.427  1.00  0.00     0.135 C 
BRANCH  27  28
ATOM     28  C   UNL A   1      29.455  27.449  23.814  1.00  0.00    -0.039 A 
ATOM     29  C   UNL A   1      28.280  27.837  23.149  1.00  0.00     0.004 A 
ATOM     30  C   UNL A   1      30.515  28.360  23.896  1.00  0.00     0.004 A 
ATOM     31  C   UNL A   1      28.143  29.125  22.640  1.00  0.00     0.000 A 
ATOM     32  C   UNL A   1      30.384  29.643  23.366  1.00  0.00     0.000 A 
ATOM     33  C   UNL A   1      29.194  30.028  22.752  1.00  0.00     0.000 A 
ENDBRANCH  27  28
ENDBRANCH  25  27
ENDBRANCH  18  23
ENDBRANCH  14  17
ENDBRANCH   8  13
ENDBRANCH   4   7
ENDBRANCH   2   3
ENDBRANCH   1   2
BRANCH   1  34
ATOM     34  C   UNL A   1      32.260  26.823  26.457  1.00  0.00     0.002 C 
BRANCH  34  35
ATOM     35  C   UNL A   1      32.203  27.864  27.580  1.00  0.00     0.002 C 
BRANCH  35  36
ATOM     36  C   UNL A   1      31.778  29.283  27.199  1.00  0.00     0.021 C 
BRANCH  36  37
ATOM     37  C   UNL A   1      32.776  30.077  26.368  1.00  0.00     0.116 C 
BRANCH  37  38
ATOM     38  N   UNL A   1      32.762  31.496  26.673  1.00  0.00    -0.352 N 
ATOM     39  C   UNL A   1      33.616  32.231  27.460  1.00  0.00     0.251 C 
ATOM     40  H   UNL A   1      32.033  32.009  26.254  1.00  0.00     0.163 HD
ATOM     41  O   UNL A   1      33.352  33.401  27.707  1.00  0.00    -0.269 OA
BRANCH  39  42
ATOM     42  C   UNL A   1      34.829  31.600  28.030  1.00  0.00     0.039 A 
ATOM     43  C   UNL A   1      36.020  32.330  28.042  1.00  0.00     0.014 A 
ATOM     44  C   UNL A   1      34.801  30.301  28.543  1.00  0.00     0.014 A 
ATOM     45  C   UNL A   1      37.166  31.780  28.622  1.00  0.00     0.010 A 
ATOM     46  C   UNL A   1      35.921  29.785  29.193  1.00  0.00     0.010 A 
ATOM     47  C   UNL A   1      37.117  30.517  29.235  1.00  0.00    -0.014 A 
BRANCH  47  48
ATOM     48  C   UNL A   1      38.310  29.949  29.917  1.00  0.00     0.031 A 
ATOM     49  C   UNL A   1      38.680  30.414  31.301  1.00  0.00     0.074 A 
ATOM     50  C   UNL A   1      39.086  29.057  29.271  1.00  0.00     0.049 A 
ATOM     51  N   UNL A   1      39.713  30.087  32.036  1.00  0.00    -0.248 NA
ATOM     52  C   UNL A   1      37.784  31.396  31.929  1.00  0.00     0.031 C 
ATOM     53  C   UNL A   1      38.848  28.558  27.915  1.00  0.00     0.029 A 
ATOM     54  N   UNL A   1      40.232  28.411  29.663  1.00  0.00    -0.354 N 
ATOM     55  C   UNL A   1      39.597  30.829  33.206  1.00  0.00     0.074 A 
ATOM     56  C   UNL A   1      38.430  31.672  33.052  1.00  0.00     0.031 C 
ATOM     57  C   UNL A   1      39.798  27.663  27.602  1.00  0.00     0.029 A 
ATOM     58  C   UNL A   1      40.744  27.562  28.708  1.00  0.00     0.049 A 
ATOM     59  H   UNL A   1      40.650  28.543  30.545  1.00  0.00     0.167 HD
ATOM     60  C   UNL A   1      40.378  30.795  34.314  1.00  0.00     0.034 A 
ATOM     61  C   UNL A   1      41.857  26.801  28.716  1.00  0.00     0.034 A 
ATOM     62  C   UNL A   1      41.535  29.943  34.450  1.00  0.00     0.049 A 
ATOM     63  C   UNL A   1      42.733  26.811  29.944  1.00  0.00     0.074 A 
ATOM     64  C   UNL A   1      42.367  29.789  35.545  1.00  0.00     0.029 A 
ATOM     65  N   UNL A   1      42.032  29.108  33.456  1.00  0.00    -0.354 N 
ATOM     66  N   UNL A   1      42.583  27.482  31.063  1.00  0.00    -0.248 NA
ATOM     67  C   UNL A   1      43.925  25.954  29.913  1.00  0.00     0.031 C 
ATOM     68  C   UNL A   1      43.410  28.928  35.187  1.00  0.00     0.029 A 
ATOM     69  C   UNL A   1      43.180  28.468  33.901  1.00  0.00     0.049 A 
ATOM     70  H   UNL A   1      41.628  28.987  32.566  1.00  0.00     0.167 HD
ATOM     71  C   UNL A   1      43.642  27.099  31.882  1.00  0.00     0.074 A 
ATOM     72  C   UNL A   1      44.413  26.128  31.133  1.00  0.00     0.031 C 
ATOM     73  C   UNL A   1      43.946  27.508  33.140  1.00  0.00     0.034 A 
BRANCH  60  74
ATOM     74  C   UNL A   1      40.022  31.728  35.449  1.00  0.00     0.023 A 
ATOM     75  C   UNL A   1      39.133  31.347  36.470  1.00  0.00     0.031 A 
ATOM     76  C   UNL A   1      40.563  33.025  35.501  1.00  0.00     0.131 A 
ATOM     77  C   UNL A   1      38.753  32.274  37.452  1.00  0.00     0.055 A 
ATOM     78  C   UNL A   1      40.248  33.915  36.531  1.00  0.00     0.041 A 
ATOM     79  F   UNL A   1      41.399  33.457  34.544  1.00  0.00    -0.206 F 
ATOM     80  C   UNL A   1      39.325  33.546  37.506  1.00  0.00     0.022 A 
BRANCH  77  81
ATOM     81  S   UNL A   1      37.385  31.847  38.563  1.00  0.00     0.124 S 
ATOM     82  O   UNL A   1      38.024  31.953  39.873  1.00  0.00    -0.237 OA
ATOM     83  O   UNL A   1      36.394  32.870  38.252  1.00  0.00    -0.237 OA
ATOM     84  O   UNL A   1      37.028  30.487  38.161  1.00  0.00    -0.744 OA
ENDBRANCH  77  81
ENDBRANCH  60  74
BRANCH  61  85
ATOM     85  C   UNL A   1      42.220  25.975  27.528  1.00  0.00     0.023 A 
ATOM     86  C   UNL A   1      41.882  24.614  27.461  1.00  0.00     0.031 A 
ATOM     87  C   UNL A   1      42.956  26.522  26.461  1.00  0.00     0.131 A 
ATOM     88  C   UNL A   1      42.323  23.834  26.380  1.00  0.00     0.055 A 
ATOM     89  C   UNL A   1      43.338  25.756  25.357  1.00  0.00     0.041 A 
ATOM     90  F   UNL A   1      43.309  27.817  26.473  1.00  0.00    -0.206 F 
ATOM     91  C   UNL A   1      43.034  24.400  25.320  1.00  0.00     0.022 A 
BRANCH  88  92
ATOM     92  S   UNL A   1      42.040  22.043  26.430  1.00  0.00     0.124 S 
ATOM     93  O   UNL A   1      42.935  21.573  25.379  1.00  0.00    -0.237 OA
ATOM     94  O   UNL A   1      42.427  21.712  27.797  1.00  0.00    -0.237 OA
ATOM     95  O   UNL A   1      40.614  21.916  26.139  1.00  0.00    -0.744 OA
ENDBRANCH  88  92
ENDBRANCH  61  85
BRANCH  73  96
ATOM     96  C   UNL A   1      45.141  26.863  33.804  1.00  0.00     0.023 A 
ATOM     97  C   UNL A   1      45.024  25.690  34.570  1.00  0.00     0.031 A 
ATOM     98  C   UNL A   1      46.417  27.441  33.671  1.00  0.00     0.131 A 
ATOM     99  C   UNL A   1      46.150  25.167  35.224  1.00  0.00     0.055 A 
ATOM    100  C   UNL A   1      47.546  26.876  34.267  1.00  0.00     0.041 A 
ATOM    101  F   UNL A   1      46.590  28.563  32.956  1.00  0.00    -0.206 F 
ATOM    102  C   UNL A   1      47.413  25.740  35.060  1.00  0.00     0.022 A 
BRANCH  99 103
ATOM    103  S   UNL A   1      45.923  23.785  36.376  1.00  0.00     0.124 S 
ATOM    104  O   UNL A   1      45.111  24.394  37.424  1.00  0.00    -0.237 OA
ATOM    105  O   UNL A   1      45.252  22.791  35.544  1.00  0.00    -0.237 OA
ATOM    106  O   UNL A   1      47.288  23.441  36.771  1.00  0.00    -0.744 OA
ENDBRANCH  99 103
ENDBRANCH  73  96
ENDBRANCH  47  48
ENDBRANCH  39  42
ENDBRANCH  37  38
ENDBRANCH  36  37
ENDBRANCH  35  36
ENDBRANCH  34  35
ENDBRANCH   1  34
TORSDOF 21
ENDMDL
MODEL 2
REMARK VINA RESULT:     -12.1      2.201      7.606
REMARK SMILES O=C(Cc1ccccc1)Nc1cccc(C(=O)Nc2ccccc2C(=O)NCCCCCCNC(=O)c2ccc(-c3c4nc(c(-c5cc(S(=O)(=O)[O-])ccc5F)c5ccc([nH]5)c(-c5cc(S(=O)(=O)[O-])ccc5F)c5nc(c(-c6cc(S(=O)(=O)[O-])ccc6F)c6ccc3[nH]6)C=C5)C=C4)cc2)c1
REMARK SMILES IDX 29 1 28 2 27 3 25 4 26 5 24 7 19 8 20 9 21 10 23 11 22 12
REMARK SMILES IDX 18 13 16 14 17 15 15 17 11 18 12 19 100 20 13 21 14 22 10 23
REMARK SMILES IDX 1 24 2 25 3 27 4 28 5 29 9 30 6 31 8 32 7 33 30 34 31 35
REMARK SMILES IDX 32 36 33 37 34 38 35 39 36 41 37 42 38 43 99 44 39 45 98 46
REMARK SMILES IDX 40 47 41 48 42 49 92 50 43 51 97 52 91 53 93 54 44 55 96 56
REMARK SMILES IDX 90 57 89 58 45 60 77 61 57 62 76 63 58 64 61 65 75 66 94 67
REMARK SMILES IDX 59 68 60 69 74 71 95 72 62 73 46 74 47 75 55 76 48 77 54 78
REMARK SMILES IDX 56 79 53 80 49 81 50 82 51 83 52 84 78 85 79 86 87 87 80 88
REMARK SMILES IDX 86 89 88 90 85 91 81 92 82 93 83 94 84 95 63 96 64 97 72 98
REMARK SMILES IDX 65 99 71 100 73 101 70 102 66 103 67 104 68 105 69 106
REMARK H PARENT 27 6 18 16 10 26 34 40 93 59 61 70
REMARK Flexibility Score: inf
ROOT
ATOM      1  C   UNL A   1      33.433  27.931  26.148  1.00  0.00     0.021 C 
ENDROOT
BRANCH   1   2
ATOM      2  C   UNL A   1      33.779  26.552  25.608  1.00  0.00     0.116 C 
BRANCH   2   3
ATOM      3  N   UNL A   1      33.085  25.462  26.248  1.00  0.00    -0.352 N 
ATOM      4  C   UNL A   1      33.405  24.128  26.277  1.00  0.00     0.253 C 
ATOM      5  O   UNL A   1      32.649  23.373  26.895  1.00  0.00    -0.269 OA
ATOM      6  H   UNL A   1      32.265  25.709  26.733  1.00  0.00     0.163 HD
BRANCH   4   7
ATOM      7  C   UNL A   1      34.545  23.541  25.500  1.00  0.00     0.063 A 
ATOM      8  C   UNL A   1      34.539  22.460  24.589  1.00  0.00     0.054 A 
ATOM      9  C   UNL A   1      35.782  21.974  24.128  1.00  0.00     0.027 A 
ATOM     10  C   UNL A   1      36.983  22.620  24.427  1.00  0.00     0.002 A 
ATOM     11  C   UNL A   1      35.775  24.188  25.778  1.00  0.00     0.016 A 
ATOM     12  C   UNL A   1      36.979  23.749  25.230  1.00  0.00     0.001 A 
BRANCH   8  13
ATOM     13  N   UNL A   1      33.433  21.811  23.975  1.00  0.00    -0.321 N 
ATOM     14  C   UNL A   1      32.429  22.268  23.134  1.00  0.00     0.255 C 
ATOM     15  O   UNL A   1      31.477  21.541  22.862  1.00  0.00    -0.269 OA
ATOM     16  H   UNL A   1      33.367  20.851  24.186  1.00  0.00     0.170 HD
BRANCH  14  17
ATOM     17  C   UNL A   1      32.504  23.612  22.534  1.00  0.00     0.042 A 
ATOM     18  C   UNL A   1      31.480  25.775  22.387  1.00  0.00     0.041 A 
ATOM     19  C   UNL A   1      32.133  25.985  21.168  1.00  0.00     0.026 A 
ATOM     20  C   UNL A   1      31.770  24.635  23.116  1.00  0.00     0.040 A 
ATOM     21  C   UNL A   1      33.041  25.039  20.679  1.00  0.00     0.003 A 
ATOM     22  C   UNL A   1      33.215  23.834  21.357  1.00  0.00     0.014 A 
BRANCH  18  23
ATOM     23  N   UNL A   1      30.449  26.645  22.777  1.00  0.00    -0.326 N 
ATOM     24  O   UNL A   1      31.520  28.732  22.711  1.00  0.00    -0.274 OA
ATOM     25  C   UNL A   1      30.555  28.018  22.971  1.00  0.00     0.228 C 
ATOM     26  H   UNL A   1      29.562  26.244  22.926  1.00  0.00     0.169 HD
BRANCH  25  27
ATOM     27  C   UNL A   1      29.295  28.635  23.532  1.00  0.00     0.135 C 
BRANCH  27  28
ATOM     28  C   UNL A   1      28.950  29.977  22.935  1.00  0.00    -0.039 A 
ATOM     29  C   UNL A   1      28.486  30.121  21.616  1.00  0.00     0.004 A 
ATOM     30  C   UNL A   1      29.117  31.125  23.719  1.00  0.00     0.004 A 
ATOM     31  C   UNL A   1      28.133  31.371  21.119  1.00  0.00     0.000 A 
ATOM     32  C   UNL A   1      28.783  32.379  23.211  1.00  0.00     0.000 A 
ATOM     33  C   UNL A   1      28.278  32.500  21.918  1.00  0.00     0.000 A 
ENDBRANCH  27  28
ENDBRANCH  25  27
ENDBRANCH  18  23
ENDBRANCH  14  17
ENDBRANCH   8  13
ENDBRANCH   4   7
ENDBRANCH   2   3
ENDBRANCH   1   2
BRANCH   1  34
ATOM     34  C   UNL A   1      31.977  28.132  26.585  1.00  0.00     0.002 C 
BRANCH  34  35
ATOM     35  C   UNL A   1      31.636  29.431  27.322  1.00  0.00     0.002 C 
BRANCH  35  36
ATOM     36  C   UNL A   1      31.885  30.745  26.579  1.00  0.00     0.021 C 
BRANCH  36  37
ATOM     37  C   UNL A   1      33.098  31.547  27.031  1.00  0.00     0.116 C 
BRANCH  37  38
ATOM     38  N   UNL A   1      32.781  32.931  27.328  1.00  0.00    -0.352 N 
ATOM     39  C   UNL A   1      33.332  33.775  28.262  1.00  0.00     0.251 C 
ATOM     40  H   UNL A   1      32.064  33.325  26.779  1.00  0.00     0.163 HD
ATOM     41  O   UNL A   1      32.827  34.874  28.455  1.00  0.00    -0.269 OA
BRANCH  39  42
ATOM     42  C   UNL A   1      34.510  33.343  29.049  1.00  0.00     0.039 A 
ATOM     43  C   UNL A   1      34.305  32.543  30.175  1.00  0.00     0.014 A 
ATOM     44  C   UNL A   1      35.806  33.724  28.690  1.00  0.00     0.014 A 
ATOM     45  C   UNL A   1      35.401  32.076  30.905  1.00  0.00     0.010 A 
ATOM     46  C   UNL A   1      36.901  33.193  29.369  1.00  0.00     0.010 A 
ATOM     47  C   UNL A   1      36.711  32.368  30.487  1.00  0.00    -0.014 A 
BRANCH  47  48
ATOM     48  C   UNL A   1      37.887  31.820  31.212  1.00  0.00     0.031 A 
ATOM     49  C   UNL A   1      38.729  30.744  30.581  1.00  0.00     0.074 A 
ATOM     50  C   UNL A   1      38.164  32.255  32.458  1.00  0.00     0.049 A 
ATOM     51  N   UNL A   1      39.754  30.096  31.075  1.00  0.00    -0.248 NA
ATOM     52  C   UNL A   1      38.351  30.320  29.224  1.00  0.00     0.031 C 
ATOM     53  C   UNL A   1      37.400  33.269  33.187  1.00  0.00     0.029 A 
ATOM     54  N   UNL A   1      39.161  31.901  33.333  1.00  0.00    -0.354 N 
ATOM     55  C   UNL A   1      40.136  29.185  30.097  1.00  0.00     0.074 A 
ATOM     56  C   UNL A   1      39.190  29.318  29.010  1.00  0.00     0.031 C 
ATOM     57  C   UNL A   1      37.973  33.477  34.382  1.00  0.00     0.029 A 
ATOM     58  C   UNL A   1      39.110  32.576  34.532  1.00  0.00     0.049 A 
ATOM     59  H   UNL A   1      39.847  31.227  33.124  1.00  0.00     0.167 HD
ATOM     60  C   UNL A   1      41.190  28.332  30.097  1.00  0.00     0.034 A 
ATOM     61  C   UNL A   1      39.884  32.471  35.631  1.00  0.00     0.034 A 
ATOM     62  C   UNL A   1      42.125  28.217  31.189  1.00  0.00     0.049 A 
ATOM     63  C   UNL A   1      41.026  31.485  35.623  1.00  0.00     0.074 A 
ATOM     64  C   UNL A   1      43.258  27.425  31.275  1.00  0.00     0.029 A 
ATOM     65  N   UNL A   1      42.034  28.906  32.393  1.00  0.00    -0.354 N 
ATOM     66  N   UNL A   1      41.404  30.665  34.670  1.00  0.00    -0.248 NA
ATOM     67  C   UNL A   1      41.850  31.418  36.837  1.00  0.00     0.031 C 
ATOM     68  C   UNL A   1      43.801  27.572  32.555  1.00  0.00     0.029 A 
ATOM     69  C   UNL A   1      43.067  28.527  33.239  1.00  0.00     0.049 A 
ATOM     70  H   UNL A   1      41.339  29.567  32.613  1.00  0.00     0.167 HD
ATOM     71  C   UNL A   1      42.533  30.011  35.157  1.00  0.00     0.074 A 
ATOM     72  C   UNL A   1      42.780  30.544  36.481  1.00  0.00     0.031 C 
ATOM     73  C   UNL A   1      43.297  29.059  34.562  1.00  0.00     0.034 A 
BRANCH  60  74
ATOM     74  C   UNL A   1      41.364  27.437  28.891  1.00  0.00     0.023 A 
ATOM     75  C   UNL A   1      42.360  27.677  27.927  1.00  0.00     0.031 A 
ATOM     76  C   UNL A   1      40.509  26.338  28.690  1.00  0.00     0.131 A 
ATOM     77  C   UNL A   1      42.427  26.882  26.774  1.00  0.00     0.055 A 
ATOM     78  C   UNL A   1      40.638  25.496  27.582  1.00  0.00     0.041 A 
ATOM     79  F   UNL A   1      39.524  26.068  29.561  1.00  0.00    -0.206 F 
ATOM     80  C   UNL A   1      41.591  25.776  26.608  1.00  0.00     0.022 A 
BRANCH  77  81
ATOM     81  S   UNL A   1      43.517  27.406  25.423  1.00  0.00     0.124 S 
ATOM     82  O   UNL A   1      44.205  28.547  26.024  1.00  0.00    -0.237 OA
ATOM     83  O   UNL A   1      44.331  26.218  25.194  1.00  0.00    -0.237 OA
ATOM     84  O   UNL A   1      42.589  27.746  24.345  1.00  0.00    -0.744 OA
ENDBRANCH  77  81
ENDBRANCH  60  74
BRANCH  61  85
ATOM     85  C   UNL A   1      39.606  33.306  36.837  1.00  0.00     0.023 A 
ATOM     86  C   UNL A   1      38.907  32.781  37.936  1.00  0.00     0.031 A 
ATOM     87  C   UNL A   1      39.992  34.657  36.888  1.00  0.00     0.131 A 
ATOM     88  C   UNL A   1      38.569  33.614  39.014  1.00  0.00     0.055 A 
ATOM     89  C   UNL A   1      39.709  35.465  37.992  1.00  0.00     0.041 A 
ATOM     90  F   UNL A   1      40.661  35.212  35.866  1.00  0.00    -0.206 F 
ATOM     91  C   UNL A   1      38.980  34.948  39.057  1.00  0.00     0.022 A 
BRANCH  88  92
ATOM     92  S   UNL A   1      37.494  32.953  40.317  1.00  0.00     0.124 S 
ATOM     93  O   UNL A   1      36.255  32.713  39.586  1.00  0.00    -0.237 OA
ATOM     94  O   UNL A   1      38.227  31.766  40.744  1.00  0.00    -0.237 OA
ATOM     95  O   UNL A   1      37.441  34.037  41.296  1.00  0.00    -0.744 OA
ENDBRANCH  88  92
ENDBRANCH  61  85
BRANCH  73  96
ATOM     96  C   UNL A   1      44.508  28.573  35.325  1.00  0.00     0.023 A 
ATOM     97  C   UNL A   1      44.419  27.560  36.295  1.00  0.00     0.031 A 
ATOM     98  C   UNL A   1      45.771  29.143  35.079  1.00  0.00     0.131 A 
ATOM     99  C   UNL A   1      45.558  27.190  37.027  1.00  0.00     0.055 A 
ATOM    100  C   UNL A   1      46.913  28.722  35.761  1.00  0.00     0.041 A 
ATOM    101  F   UNL A   1      45.916  30.118  34.168  1.00  0.00    -0.206 F 
ATOM    102  C   UNL A   1      46.808  27.750  36.751  1.00  0.00     0.022 A 
BRANCH  99 103
ATOM    103  S   UNL A   1      45.366  26.040  38.416  1.00  0.00     0.124 S 
ATOM    104  O   UNL A   1      44.943  24.817  37.740  1.00  0.00    -0.237 OA
ATOM    105  O   UNL A   1      46.706  26.020  38.993  1.00  0.00    -0.237 OA
ATOM    106  O   UNL A   1      44.344  26.673  39.247  1.00  0.00    -0.744 OA
ENDBRANCH  99 103
ENDBRANCH  73  96
ENDBRANCH  47  48
ENDBRANCH  39  42
ENDBRANCH  37  38
ENDBRANCH  36  37
ENDBRANCH  35  36
ENDBRANCH  34  35
ENDBRANCH   1  34
TORSDOF 21
ENDMDL
MODEL 3
REMARK VINA RESULT:     -11.9      4.721      9.226
REMARK SMILES O=C(Cc1ccccc1)Nc1cccc(C(=O)Nc2ccccc2C(=O)NCCCCCCNC(=O)c2ccc(-c3c4nc(c(-c5cc(S(=O)(=O)[O-])ccc5F)c5ccc([nH]5)c(-c5cc(S(=O)(=O)[O-])ccc5F)c5nc(c(-c6cc(S(=O)(=O)[O-])ccc6F)c6ccc3[nH]6)C=C5)C=C4)cc2)c1
REMARK SMILES IDX 29 1 28 2 27 3 25 4 26 5 24 7 19 8 20 9 21 10 23 11 22 12
REMARK SMILES IDX 18 13 16 14 17 15 15 17 11 18 12 19 100 20 13 21 14 22 10 23
REMARK SMILES IDX 1 24 2 25 3 27 4 28 5 29 9 30 6 31 8 32 7 33 30 34 31 35
REMARK SMILES IDX 32 36 33 37 34 38 35 39 36 41 37 42 38 43 99 44 39 45 98 46
REMARK SMILES IDX 40 47 41 48 42 49 92 50 43 51 97 52 91 53 93 54 44 55 96 56
REMARK SMILES IDX 90 57 89 58 45 60 77 61 57 62 76 63 58 64 61 65 75 66 94 67
REMARK SMILES IDX 59 68 60 69 74 71 95 72 62 73 46 74 47 75 55 76 48 77 54 78
REMARK SMILES IDX 56 79 53 80 49 81 50 82 51 83 52 84 78 85 79 86 87 87 80 88
REMARK SMILES IDX 86 89 88 90 85 91 81 92 82 93 83 94 84 95 63 96 64 97 72 98
REMARK SMILES IDX 65 99 71 100 73 101 70 102 66 103 67 104 68 105 69 106
REMARK H PARENT 27 6 18 16 10 26 34 40 93 59 61 70
REMARK Flexibility Score: inf
ROOT
ATOM      1  C   UNL A   1      35.214  21.960  26.770  1.00  0.00     0.021 C 
ENDROOT
BRANCH   1   2
ATOM      2  C   UNL A   1      33.789  21.661  27.210  1.00  0.00     0.116 C 
BRANCH   2   3
ATOM      3  N   UNL A   1      33.184  20.524  26.560  1.00  0.00    -0.352 N 
ATOM      4  C   UNL A   1      32.619  20.438  25.313  1.00  0.00     0.253 C 
ATOM      5  O   UNL A   1      32.156  19.346  24.971  1.00  0.00    -0.269 OA
ATOM      6  H   UNL A   1      33.173  19.693  27.087  1.00  0.00     0.163 HD
BRANCH   4   7
ATOM      7  C   UNL A   1      32.432  21.622  24.413  1.00  0.00     0.063 A 
ATOM      8  C   UNL A   1      31.437  22.626  24.455  1.00  0.00     0.054 A 
ATOM      9  C   UNL A   1      31.365  23.535  23.378  1.00  0.00     0.027 A 
ATOM     10  C   UNL A   1      32.329  23.559  22.367  1.00  0.00     0.002 A 
ATOM     11  C   UNL A   1      33.406  21.676  23.384  1.00  0.00     0.016 A 
ATOM     12  C   UNL A   1      33.371  22.646  22.385  1.00  0.00     0.001 A 
BRANCH   8  13
ATOM     13  N   UNL A   1      30.512  22.928  25.493  1.00  0.00    -0.321 N 
ATOM     14  C   UNL A   1      30.430  23.977  26.396  1.00  0.00     0.255 C 
ATOM     15  O   UNL A   1      29.619  23.933  27.318  1.00  0.00    -0.269 OA
ATOM     16  H   UNL A   1      29.791  22.265  25.588  1.00  0.00     0.170 HD
BRANCH  14  17
ATOM     17  C   UNL A   1      31.285  25.168  26.247  1.00  0.00     0.042 A 
ATOM     18  C   UNL A   1      31.588  27.257  25.110  1.00  0.00     0.041 A 
ATOM     19  C   UNL A   1      32.951  27.211  25.419  1.00  0.00     0.026 A 
ATOM     20  C   UNL A   1      30.747  26.291  25.634  1.00  0.00     0.040 A 
ATOM     21  C   UNL A   1      33.461  26.182  26.221  1.00  0.00     0.003 A 
ATOM     22  C   UNL A   1      32.625  25.142  26.622  1.00  0.00     0.014 A 
BRANCH  18  23
ATOM     23  N   UNL A   1      31.125  28.192  24.169  1.00  0.00    -0.326 N 
ATOM     24  O   UNL A   1      31.190  26.951  22.177  1.00  0.00    -0.274 OA
ATOM     25  C   UNL A   1      31.024  28.000  22.795  1.00  0.00     0.228 C 
ATOM     26  H   UNL A   1      30.842  29.069  24.515  1.00  0.00     0.169 HD
BRANCH  25  27
ATOM     27  C   UNL A   1      30.628  29.254  22.051  1.00  0.00     0.135 C 
BRANCH  27  28
ATOM     28  C   UNL A   1      29.402  29.936  22.607  1.00  0.00    -0.039 A 
ATOM     29  C   UNL A   1      28.179  29.266  22.781  1.00  0.00     0.004 A 
ATOM     30  C   UNL A   1      29.482  31.292  22.944  1.00  0.00     0.004 A 
ATOM     31  C   UNL A   1      27.085  29.918  23.341  1.00  0.00     0.000 A 
ATOM     32  C   UNL A   1      28.377  31.949  23.486  1.00  0.00     0.000 A 
ATOM     33  C   UNL A   1      27.186  31.258  23.697  1.00  0.00     0.000 A 
ENDBRANCH  27  28
ENDBRANCH  25  27
ENDBRANCH  18  23
ENDBRANCH  14  17
ENDBRANCH   8  13
ENDBRANCH   4   7
ENDBRANCH   2   3
ENDBRANCH   1   2
BRANCH   1  34
ATOM     34  C   UNL A   1      35.374  23.092  25.748  1.00  0.00     0.002 C 
BRANCH  34  35
ATOM     35  C   UNL A   1      36.798  23.573  25.447  1.00  0.00     0.002 C 
BRANCH  35  36
ATOM     36  C   UNL A   1      37.892  22.508  25.352  1.00  0.00     0.021 C 
BRANCH  36  37
ATOM     37  C   UNL A   1      38.976  22.570  26.420  1.00  0.00     0.116 C 
BRANCH  37  38
ATOM     38  N   UNL A   1      40.191  21.879  26.032  1.00  0.00    -0.352 N 
ATOM     39  C   UNL A   1      41.486  22.337  25.994  1.00  0.00     0.251 C 
ATOM     40  H   UNL A   1      40.071  20.941  25.755  1.00  0.00     0.163 HD
ATOM     41  O   UNL A   1      42.360  21.636  25.499  1.00  0.00    -0.269 OA
BRANCH  39  42
ATOM     42  C   UNL A   1      41.813  23.682  26.519  1.00  0.00     0.039 A 
ATOM     43  C   UNL A   1      41.833  24.761  25.632  1.00  0.00     0.014 A 
ATOM     44  C   UNL A   1      42.103  23.886  27.871  1.00  0.00     0.014 A 
ATOM     45  C   UNL A   1      42.085  26.049  26.109  1.00  0.00     0.010 A 
ATOM     46  C   UNL A   1      42.274  25.180  28.359  1.00  0.00     0.010 A 
ATOM     47  C   UNL A   1      42.271  26.275  27.483  1.00  0.00    -0.014 A 
BRANCH  47  48
ATOM     48  C   UNL A   1      42.470  27.650  28.014  1.00  0.00     0.031 A 
ATOM     49  C   UNL A   1      43.856  28.230  28.106  1.00  0.00     0.074 A 
ATOM     50  C   UNL A   1      41.410  28.352  28.461  1.00  0.00     0.049 A 
ATOM     51  N   UNL A   1      44.242  29.381  28.596  1.00  0.00    -0.248 NA
ATOM     52  C   UNL A   1      44.957  27.393  27.605  1.00  0.00     0.031 C 
ATOM     53  C   UNL A   1      40.023  27.881  28.456  1.00  0.00     0.029 A 
ATOM     54  N   UNL A   1      41.329  29.608  29.008  1.00  0.00    -0.354 N 
ATOM     55  C   UNL A   1      45.627  29.402  28.473  1.00  0.00     0.074 A 
ATOM     56  C   UNL A   1      46.017  28.121  27.923  1.00  0.00     0.031 C 
ATOM     57  C   UNL A   1      39.229  28.846  28.945  1.00  0.00     0.029 A 
ATOM     58  C   UNL A   1      40.049  29.982  29.350  1.00  0.00     0.049 A 
ATOM     59  H   UNL A   1      42.114  30.187  29.145  1.00  0.00     0.167 HD
ATOM     60  C   UNL A   1      46.490  30.404  28.768  1.00  0.00     0.034 A 
ATOM     61  C   UNL A   1      39.590  31.107  29.936  1.00  0.00     0.034 A 
ATOM     62  C   UNL A   1      46.081  31.677  29.311  1.00  0.00     0.049 A 
ATOM     63  C   UNL A   1      40.575  32.192  30.294  1.00  0.00     0.074 A 
ATOM     64  C   UNL A   1      46.864  32.783  29.600  1.00  0.00     0.029 A 
ATOM     65  N   UNL A   1      44.779  32.015  29.657  1.00  0.00    -0.354 N 
ATOM     66  N   UNL A   1      41.877  32.216  30.125  1.00  0.00    -0.248 NA
ATOM     67  C   UNL A   1      40.027  33.404  30.915  1.00  0.00     0.031 C 
ATOM     68  C   UNL A   1      46.051  33.753  30.195  1.00  0.00     0.029 A 
ATOM     69  C   UNL A   1      44.743  33.295  30.192  1.00  0.00     0.049 A 
ATOM     70  H   UNL A   1      43.994  31.431  29.540  1.00  0.00     0.167 HD
ATOM     71  C   UNL A   1      42.297  33.461  30.585  1.00  0.00     0.074 A 
ATOM     72  C   UNL A   1      41.108  34.162  31.024  1.00  0.00     0.031 C 
ATOM     73  C   UNL A   1      43.551  33.980  30.637  1.00  0.00     0.034 A 
BRANCH  60  74
ATOM     74  C   UNL A   1      47.963  30.149  28.540  1.00  0.00     0.023 A 
ATOM     75  C   UNL A   1      48.720  29.345  29.413  1.00  0.00     0.031 A 
ATOM     76  C   UNL A   1      48.626  30.732  27.445  1.00  0.00     0.131 A 
ATOM     77  C   UNL A   1      50.103  29.212  29.222  1.00  0.00     0.055 A 
ATOM     78  C   UNL A   1      49.987  30.523  27.211  1.00  0.00     0.041 A 
ATOM     79  F   UNL A   1      47.966  31.527  26.589  1.00  0.00    -0.206 F 
ATOM     80  C   UNL A   1      50.737  29.772  28.111  1.00  0.00     0.022 A 
BRANCH  77  81
ATOM     81  S   UNL A   1      51.086  28.427  30.528  1.00  0.00     0.124 S 
ATOM     82  O   UNL A   1      51.829  29.566  31.063  1.00  0.00    -0.237 OA
ATOM     83  O   UNL A   1      50.060  27.867  31.401  1.00  0.00    -0.237 OA
ATOM     84  O   UNL A   1      51.896  27.447  29.807  1.00  0.00    -0.744 OA
ENDBRANCH  77  81
ENDBRANCH  60  74
BRANCH  61  85
ATOM     85  C   UNL A   1      38.137  31.268  30.234  1.00  0.00     0.023 A 
ATOM     86  C   UNL A   1      37.282  31.931  29.339  1.00  0.00     0.031 A 
ATOM     87  C   UNL A   1      37.589  30.804  31.444  1.00  0.00     0.131 A 
ATOM     88  C   UNL A   1      35.943  32.160  29.688  1.00  0.00     0.055 A 
ATOM     89  C   UNL A   1      36.240  30.979  31.759  1.00  0.00     0.041 A 
ATOM     90  F   UNL A   1      38.360  30.165  32.338  1.00  0.00    -0.206 F 
ATOM     91  C   UNL A   1      35.411  31.673  30.884  1.00  0.00     0.022 A 
BRANCH  88  92
ATOM     92  S   UNL A   1      34.926  33.195  28.598  1.00  0.00     0.124 S 
ATOM     93  O   UNL A   1      35.838  33.438  27.487  1.00  0.00    -0.237 OA
ATOM     94  O   UNL A   1      33.792  32.320  28.319  1.00  0.00    -0.237 OA
ATOM     95  O   UNL A   1      34.622  34.362  29.424  1.00  0.00    -0.744 OA
ENDBRANCH  88  92
ENDBRANCH  61  85
BRANCH  73  96
ATOM     96  C   UNL A   1      43.690  35.398  31.141  1.00  0.00     0.023 A 
ATOM     97  C   UNL A   1      43.655  36.503  30.273  1.00  0.00     0.031 A 
ATOM     98  C   UNL A   1      43.867  35.642  32.515  1.00  0.00     0.131 A 
ATOM     99  C   UNL A   1      43.857  37.796  30.779  1.00  0.00     0.055 A 
ATOM    100  C   UNL A   1      43.997  36.936  33.021  1.00  0.00     0.041 A 
ATOM    101  F   UNL A   1      43.913  34.626  33.391  1.00  0.00    -0.206 F 
ATOM    102  C   UNL A   1      44.007  38.021  32.150  1.00  0.00     0.022 A 
BRANCH  99 103
ATOM    103  S   UNL A   1      44.025  39.172  29.610  1.00  0.00     0.124 S 
ATOM    104  O   UNL A   1      42.674  39.275  29.067  1.00  0.00    -0.237 OA
ATOM    105  O   UNL A   1      44.450  40.268  30.476  1.00  0.00    -0.237 OA
ATOM    106  O   UNL A   1      45.037  38.701  28.667  1.00  0.00    -0.744 OA
ENDBRANCH  99 103
ENDBRANCH  73  96
ENDBRANCH  47  48
ENDBRANCH  39  42
ENDBRANCH  37  38
ENDBRANCH  36  37
ENDBRANCH  35  36
ENDBRANCH  34  35
ENDBRANCH   1  34
TORSDOF 21
ENDMDL
