MODEL 1
REMARK VINA RESULT:     -13.2      0.000      0.000
REMARK SMILES O=C(NCCCCCCNC(=O)[C@H]1Cc2[nH]cnc2CN1C(=O)c1ccncc1Cl)c1ccc(-c2c3nc(c(-c4cc(S(=O)(=O)[O-])ccc4F)c4ccc([nH]4)c(-c4cc(S(=O)(=O)[O-])ccc4F)c4nc(c(-c5cc(S(=O)(=O)[O-])ccc5F)c5ccc2[nH]5)C=C4)C=C3)cc1
REMARK SMILES IDX 6 1 5 2 4 3 3 4 1 5 2 6 31 8 32 9 93 10 33 11 92 12 34 13
REMARK SMILES IDX 35 14 36 15 86 16 37 17 91 18 85 19 87 20 38 21 90 22 84 23
REMARK SMILES IDX 83 24 39 26 71 27 51 28 70 29 52 30 55 31 69 32 88 33 53 34
REMARK SMILES IDX 54 35 68 37 89 38 56 39 40 40 41 41 49 42 42 43 48 44 50 45
REMARK SMILES IDX 47 46 43 47 44 48 45 49 46 50 72 51 73 52 81 53 74 54 80 55
REMARK SMILES IDX 82 56 79 57 75 58 76 59 77 60 78 61 57 62 58 63 66 64 59 65
REMARK SMILES IDX 65 66 67 67 64 68 60 69 61 70 62 71 63 72 7 73 8 74 9 75
REMARK SMILES IDX 10 76 11 77 12 79 13 80 14 81 21 82 15 83 20 84 16 85 19 86
REMARK SMILES IDX 17 87 18 89 22 90 23 91 24 92 25 93 29 94 26 95 28 96 30 97
REMARK SMILES IDX 27 98
REMARK H PARENT 3 7 87 25 55 36 10 78 16 88
REMARK Flexibility Score: inf
ROOT
ATOM      1  C   UNL A   1      31.873  28.578  26.108  1.00  0.00     0.002 C 
ENDROOT
BRANCH   1   2
ATOM      2  C   UNL A   1      32.279  29.628  27.145  1.00  0.00     0.021 C 
BRANCH   2   3
ATOM      3  C   UNL A   1      33.773  29.955  27.235  1.00  0.00     0.116 C 
BRANCH   3   4
ATOM      4  N   UNL A   1      34.122  31.254  27.790  1.00  0.00    -0.352 N 
ATOM      5  O   UNL A   1      35.312  33.011  28.482  1.00  0.00    -0.269 OA
ATOM      6  C   UNL A   1      35.301  31.802  28.229  1.00  0.00     0.251 C 
ATOM      7  H   UNL A   1      33.355  31.866  27.866  1.00  0.00     0.163 HD
BRANCH   6   8
ATOM      8  C   UNL A   1      36.524  31.005  28.494  1.00  0.00     0.039 A 
ATOM      9  C   UNL A   1      36.658  29.657  28.164  1.00  0.00     0.014 A 
ATOM     10  C   UNL A   1      37.592  31.663  29.127  1.00  0.00     0.014 A 
ATOM     11  C   UNL A   1      37.769  28.944  28.591  1.00  0.00     0.010 A 
ATOM     12  C   UNL A   1      38.740  30.965  29.499  1.00  0.00     0.010 A 
ATOM     13  C   UNL A   1      38.812  29.593  29.262  1.00  0.00    -0.014 A 
BRANCH  13  14
ATOM     14  C   UNL A   1      40.049  28.830  29.446  1.00  0.00     0.031 A 
ATOM     15  C   UNL A   1      40.454  28.682  30.873  1.00  0.00     0.074 A 
ATOM     16  C   UNL A   1      40.722  28.164  28.489  1.00  0.00     0.049 A 
ATOM     17  N   UNL A   1      41.540  29.085  31.448  1.00  0.00    -0.248 NA
ATOM     18  C   UNL A   1      39.453  28.135  31.803  1.00  0.00     0.031 C 
ATOM     19  C   UNL A   1      40.319  27.950  27.100  1.00  0.00     0.029 A 
ATOM     20  N   UNL A   1      41.870  27.430  28.602  1.00  0.00    -0.354 N 
ATOM     21  C   UNL A   1      41.455  28.650  32.769  1.00  0.00     0.074 A 
ATOM     22  C   UNL A   1      40.091  28.241  32.967  1.00  0.00     0.031 C 
ATOM     23  C   UNL A   1      41.079  26.966  26.569  1.00  0.00     0.029 A 
ATOM     24  C   UNL A   1      42.088  26.563  27.538  1.00  0.00     0.049 A 
ATOM     25  H   UNL A   1      42.486  27.509  29.366  1.00  0.00     0.167 HD
ATOM     26  C   UNL A   1      42.566  28.454  33.531  1.00  0.00     0.034 A 
ATOM     27  C   UNL A   1      42.973  25.532  27.482  1.00  0.00     0.034 A 
ATOM     28  C   UNL A   1      43.698  29.186  33.009  1.00  0.00     0.049 A 
ATOM     29  C   UNL A   1      44.028  25.787  28.492  1.00  0.00     0.074 A 
ATOM     30  C   UNL A   1      43.935  30.516  32.710  1.00  0.00     0.029 A 
ATOM     31  N   UNL A   1      44.715  28.492  32.392  1.00  0.00    -0.354 N 
ATOM     32  N   UNL A   1      44.889  26.763  28.412  1.00  0.00    -0.248 NA
ATOM     33  C   UNL A   1      43.877  25.207  29.820  1.00  0.00     0.031 C 
ATOM     34  C   UNL A   1      44.747  30.493  31.537  1.00  0.00     0.029 A 
ATOM     35  C   UNL A   1      45.004  29.158  31.228  1.00  0.00     0.049 A 
ATOM     36  H   UNL A   1      45.150  27.673  32.723  1.00  0.00     0.167 HD
ATOM     37  C   UNL A   1      45.061  27.200  29.715  1.00  0.00     0.074 A 
ATOM     38  C   UNL A   1      44.509  26.135  30.545  1.00  0.00     0.031 C 
ATOM     39  C   UNL A   1      45.377  28.500  29.990  1.00  0.00     0.034 A 
BRANCH  26  40
ATOM     40  C   UNL A   1      42.721  27.316  34.523  1.00  0.00     0.023 A 
ATOM     41  C   UNL A   1      43.567  26.254  34.149  1.00  0.00     0.031 A 
ATOM     42  C   UNL A   1      41.880  27.060  35.631  1.00  0.00     0.131 A 
ATOM     43  C   UNL A   1      43.447  24.987  34.745  1.00  0.00     0.055 A 
ATOM     44  C   UNL A   1      41.824  25.819  36.275  1.00  0.00     0.041 A 
ATOM     45  F   UNL A   1      41.002  27.951  36.104  1.00  0.00    -0.206 F 
ATOM     46  C   UNL A   1      42.577  24.761  35.806  1.00  0.00     0.022 A 
BRANCH  43  47
ATOM     47  S   UNL A   1      44.287  23.593  33.952  1.00  0.00     0.124 S 
ATOM     48  O   UNL A   1      44.708  22.815  35.112  1.00  0.00    -0.237 OA
ATOM     49  O   UNL A   1      43.216  23.020  33.144  1.00  0.00    -0.237 OA
ATOM     50  O   UNL A   1      45.366  24.232  33.201  1.00  0.00    -0.744 OA
ENDBRANCH  43  47
ENDBRANCH  26  40
BRANCH  27  51
ATOM     51  C   UNL A   1      42.791  24.226  26.794  1.00  0.00     0.023 A 
ATOM     52  C   UNL A   1      43.789  23.644  25.984  1.00  0.00     0.031 A 
ATOM     53  C   UNL A   1      41.683  23.407  27.116  1.00  0.00     0.131 A 
ATOM     54  C   UNL A   1      43.647  22.313  25.525  1.00  0.00     0.055 A 
ATOM     55  C   UNL A   1      41.541  22.101  26.647  1.00  0.00     0.041 A 
ATOM     56  F   UNL A   1      40.737  23.819  27.975  1.00  0.00    -0.206 F 
ATOM     57  C   UNL A   1      42.529  21.545  25.853  1.00  0.00     0.022 A 
BRANCH  54  58
ATOM     58  S   UNL A   1      44.985  21.517  24.578  1.00  0.00     0.124 S 
ATOM     59  O   UNL A   1      46.063  21.454  25.556  1.00  0.00    -0.237 OA
ATOM     60  O   UNL A   1      44.383  20.246  24.190  1.00  0.00    -0.237 OA
ATOM     61  O   UNL A   1      45.214  22.445  23.468  1.00  0.00    -0.744 OA
ENDBRANCH  54  58
ENDBRANCH  27  51
BRANCH  39  62
ATOM     62  C   UNL A   1      45.906  29.379  28.878  1.00  0.00     0.023 A 
ATOM     63  C   UNL A   1      45.183  30.425  28.263  1.00  0.00     0.031 A 
ATOM     64  C   UNL A   1      47.253  29.212  28.505  1.00  0.00     0.131 A 
ATOM     65  C   UNL A   1      45.807  31.245  27.303  1.00  0.00     0.055 A 
ATOM     66  C   UNL A   1      47.873  30.037  27.568  1.00  0.00     0.041 A 
ATOM     67  F   UNL A   1      48.005  28.255  29.075  1.00  0.00    -0.206 F 
ATOM     68  C   UNL A   1      47.149  31.053  26.957  1.00  0.00     0.022 A 
BRANCH  65  69
ATOM     69  S   UNL A   1      44.878  32.573  26.473  1.00  0.00     0.124 S 
ATOM     70  O   UNL A   1      43.886  31.857  25.681  1.00  0.00    -0.237 OA
ATOM     71  O   UNL A   1      44.361  33.346  27.600  1.00  0.00    -0.237 OA
ATOM     72  O   UNL A   1      45.902  33.262  25.687  1.00  0.00    -0.744 OA
ENDBRANCH  65  69
ENDBRANCH  39  62
ENDBRANCH  13  14
ENDBRANCH   6   8
ENDBRANCH   3   4
ENDBRANCH   2   3
ENDBRANCH   1   2
BRANCH   1  73
ATOM     73  C   UNL A   1      31.947  29.008  24.642  1.00  0.00     0.002 C 
BRANCH  73  74
ATOM     74  C   UNL A   1      30.669  28.823  23.820  1.00  0.00     0.021 C 
BRANCH  74  75
ATOM     75  C   UNL A   1      30.672  27.794  22.676  1.00  0.00     0.116 C 
BRANCH  75  76
ATOM     76  N   UNL A   1      31.938  27.396  22.065  1.00  0.00    -0.354 N 
ATOM     77  C   UNL A   1      32.642  26.215  22.144  1.00  0.00     0.243 C 
ATOM     78  H   UNL A   1      32.358  28.087  21.505  1.00  0.00     0.163 HD
ATOM     79  O   UNL A   1      33.299  25.842  21.168  1.00  0.00    -0.273 OA
BRANCH  77  80
ATOM     80  C   UNL A   1      32.495  25.317  23.358  1.00  0.00     0.181 C 
ATOM     81  C   UNL A   1      31.468  24.138  23.383  1.00  0.00     0.091 C 
ATOM     82  N   UNL A   1      33.677  24.896  24.133  1.00  0.00    -0.320 N 
ATOM     83  C   UNL A   1      31.279  23.821  24.853  1.00  0.00     0.042 A 
ATOM     84  C   UNL A   1      33.389  25.044  25.599  1.00  0.00     0.178 C 
ATOM     85  N   UNL A   1      30.269  23.166  25.494  1.00  0.00    -0.348 N 
ATOM     86  C   UNL A   1      32.136  24.246  25.859  1.00  0.00     0.081 A 
ATOM     87  C   UNL A   1      30.501  23.305  26.842  1.00  0.00     0.197 A 
ATOM     88  H   UNL A   1      29.520  22.686  25.073  1.00  0.00     0.167 HD
ATOM     89  N   UNL A   1      31.623  23.946  27.090  1.00  0.00    -0.240 NA
BRANCH  82  90
ATOM     90  C   UNL A   1      34.717  24.002  23.813  1.00  0.00     0.256 C 
ATOM     91  O   UNL A   1      34.906  23.859  22.589  1.00  0.00    -0.269 OA
BRANCH  90  92
ATOM     92  C   UNL A   1      35.634  23.091  24.640  1.00  0.00     0.061 A 
ATOM     93  C   UNL A   1      36.741  23.838  25.139  1.00  0.00     0.035 A 
ATOM     94  C   UNL A   1      35.726  21.722  24.919  1.00  0.00     0.072 A 
ATOM     95  C   UNL A   1      37.854  23.247  25.720  1.00  0.00     0.112 A 
ATOM     96  C   UNL A   1      36.918  21.208  25.473  1.00  0.00     0.132 A 
ATOM     97  Cl  UNL A   1      34.554  20.496  24.813  1.00  0.00    -0.082 Cl
ATOM     98  N   UNL A   1      37.980  21.930  25.872  1.00  0.00    -0.263 NA
ENDBRANCH  90  92
ENDBRANCH  82  90
ENDBRANCH  77  80
ENDBRANCH  75  76
ENDBRANCH  74  75
ENDBRANCH  73  74
ENDBRANCH   1  73
TORSDOF 18
ENDMDL
MODEL 2
REMARK VINA RESULT:     -13.2      1.268      1.506
REMARK SMILES O=C(NCCCCCCNC(=O)[C@H]1Cc2[nH]cnc2CN1C(=O)c1ccncc1Cl)c1ccc(-c2c3nc(c(-c4cc(S(=O)(=O)[O-])ccc4F)c4ccc([nH]4)c(-c4cc(S(=O)(=O)[O-])ccc4F)c4nc(c(-c5cc(S(=O)(=O)[O-])ccc5F)c5ccc2[nH]5)C=C4)C=C3)cc1
REMARK SMILES IDX 6 1 5 2 4 3 3 4 1 5 2 6 31 8 32 9 93 10 33 11 92 12 34 13
REMARK SMILES IDX 35 14 36 15 86 16 37 17 91 18 85 19 87 20 38 21 90 22 84 23
REMARK SMILES IDX 83 24 39 26 71 27 51 28 70 29 52 30 55 31 69 32 88 33 53 34
REMARK SMILES IDX 54 35 68 37 89 38 56 39 40 40 41 41 49 42 42 43 48 44 50 45
REMARK SMILES IDX 47 46 43 47 44 48 45 49 46 50 72 51 73 52 81 53 74 54 80 55
REMARK SMILES IDX 82 56 79 57 75 58 76 59 77 60 78 61 57 62 58 63 66 64 59 65
REMARK SMILES IDX 65 66 67 67 64 68 60 69 61 70 62 71 63 72 7 73 8 74 9 75
REMARK SMILES IDX 10 76 11 77 12 79 13 80 14 81 21 82 15 83 20 84 16 85 19 86
REMARK SMILES IDX 17 87 18 89 22 90 23 91 24 92 25 93 29 94 26 95 28 96 30 97
REMARK SMILES IDX 27 98
REMARK H PARENT 3 7 87 25 55 36 10 78 16 88
REMARK Flexibility Score: inf
ROOT
ATOM      1  C   UNL A   1      31.753  28.651  26.314  1.00  0.00     0.002 C 
ENDROOT
BRANCH   1   2
ATOM      2  C   UNL A   1      32.964  28.873  27.223  1.00  0.00     0.021 C 
BRANCH   2   3
ATOM      3  C   UNL A   1      34.033  29.843  26.709  1.00  0.00     0.116 C 
BRANCH   3   4
ATOM      4  N   UNL A   1      34.260  31.041  27.504  1.00  0.00    -0.352 N 
ATOM      5  O   UNL A   1      35.287  32.686  28.610  1.00  0.00    -0.269 OA
ATOM      6  C   UNL A   1      35.355  31.535  28.168  1.00  0.00     0.251 C 
ATOM      7  H   UNL A   1      33.465  31.615  27.581  1.00  0.00     0.163 HD
BRANCH   6   8
ATOM      8  C   UNL A   1      36.569  30.730  28.451  1.00  0.00     0.039 A 
ATOM      9  C   UNL A   1      36.625  29.342  28.336  1.00  0.00     0.014 A 
ATOM     10  C   UNL A   1      37.715  31.428  28.871  1.00  0.00     0.014 A 
ATOM     11  C   UNL A   1      37.747  28.652  28.775  1.00  0.00     0.010 A 
ATOM     12  C   UNL A   1      38.868  30.742  29.250  1.00  0.00     0.010 A 
ATOM     13  C   UNL A   1      38.870  29.348  29.236  1.00  0.00    -0.014 A 
BRANCH  13  14
ATOM     14  C   UNL A   1      40.092  28.565  29.433  1.00  0.00     0.031 A 
ATOM     15  C   UNL A   1      40.497  28.438  30.862  1.00  0.00     0.074 A 
ATOM     16  C   UNL A   1      40.749  27.867  28.488  1.00  0.00     0.049 A 
ATOM     17  N   UNL A   1      41.592  28.830  31.427  1.00  0.00    -0.248 NA
ATOM     18  C   UNL A   1      39.487  27.929  31.804  1.00  0.00     0.031 C 
ATOM     19  C   UNL A   1      40.340  27.633  27.105  1.00  0.00     0.029 A 
ATOM     20  N   UNL A   1      41.884  27.113  28.614  1.00  0.00    -0.354 N 
ATOM     21  C   UNL A   1      41.501  28.422  32.756  1.00  0.00     0.074 A 
ATOM     22  C   UNL A   1      40.130  28.045  32.965  1.00  0.00     0.031 C 
ATOM     23  C   UNL A   1      41.079  26.624  26.592  1.00  0.00     0.029 A 
ATOM     24  C   UNL A   1      42.082  26.220  27.567  1.00  0.00     0.049 A 
ATOM     25  H   UNL A   1      42.502  27.194  29.375  1.00  0.00     0.167 HD
ATOM     26  C   UNL A   1      42.609  28.220  33.521  1.00  0.00     0.034 A 
ATOM     27  C   UNL A   1      42.946  25.172  27.530  1.00  0.00     0.034 A 
ATOM     28  C   UNL A   1      43.755  28.918  32.982  1.00  0.00     0.049 A 
ATOM     29  C   UNL A   1      44.008  25.425  28.533  1.00  0.00     0.074 A 
ATOM     30  C   UNL A   1      44.017  30.238  32.657  1.00  0.00     0.029 A 
ATOM     31  N   UNL A   1      44.756  28.192  32.378  1.00  0.00    -0.354 N 
ATOM     32  N   UNL A   1      44.888  26.382  28.432  1.00  0.00    -0.248 NA
ATOM     33  C   UNL A   1      43.849  24.874  29.872  1.00  0.00     0.031 C 
ATOM     34  C   UNL A   1      44.826  30.175  31.484  1.00  0.00     0.029 A 
ATOM     35  C   UNL A   1      45.056  28.829  31.200  1.00  0.00     0.049 A 
ATOM     36  H   UNL A   1      45.175  27.372  32.724  1.00  0.00     0.167 HD
ATOM     37  C   UNL A   1      45.071  26.841  29.726  1.00  0.00     0.074 A 
ATOM     38  C   UNL A   1      44.499  25.804  30.578  1.00  0.00     0.031 C 
ATOM     39  C   UNL A   1      45.414  28.140  29.975  1.00  0.00     0.034 A 
BRANCH  26  40
ATOM     40  C   UNL A   1      42.744  27.098  34.535  1.00  0.00     0.023 A 
ATOM     41  C   UNL A   1      43.555  26.005  34.174  1.00  0.00     0.031 A 
ATOM     42  C   UNL A   1      41.909  26.889  35.657  1.00  0.00     0.131 A 
ATOM     43  C   UNL A   1      43.406  24.755  34.798  1.00  0.00     0.055 A 
ATOM     44  C   UNL A   1      41.825  25.665  36.328  1.00  0.00     0.041 A 
ATOM     45  F   UNL A   1      41.062  27.814  36.121  1.00  0.00    -0.206 F 
ATOM     46  C   UNL A   1      42.543  24.575  35.873  1.00  0.00     0.022 A 
BRANCH  43  47
ATOM     47  S   UNL A   1      44.198  23.322  34.026  1.00  0.00     0.124 S 
ATOM     48  O   UNL A   1      44.139  22.345  35.107  1.00  0.00    -0.237 OA
ATOM     49  O   UNL A   1      43.321  23.076  32.885  1.00  0.00    -0.237 OA
ATOM     50  O   UNL A   1      45.534  23.811  33.694  1.00  0.00    -0.744 OA
ENDBRANCH  43  47
ENDBRANCH  26  40
BRANCH  27  51
ATOM     51  C   UNL A   1      42.736  23.856  26.868  1.00  0.00     0.023 A 
ATOM     52  C   UNL A   1      43.749  23.200  26.137  1.00  0.00     0.031 A 
ATOM     53  C   UNL A   1      41.570  23.105  27.144  1.00  0.00     0.131 A 
ATOM     54  C   UNL A   1      43.565  21.864  25.707  1.00  0.00     0.055 A 
ATOM     55  C   UNL A   1      41.387  21.794  26.703  1.00  0.00     0.041 A 
ATOM     56  F   UNL A   1      40.597  23.591  27.931  1.00  0.00    -0.206 F 
ATOM     57  C   UNL A   1      42.390  21.164  25.987  1.00  0.00     0.022 A 
BRANCH  54  58
ATOM     58  S   UNL A   1      44.913  20.972  24.866  1.00  0.00     0.124 S 
ATOM     59  O   UNL A   1      44.712  19.602  25.324  1.00  0.00    -0.237 OA
ATOM     60  O   UNL A   1      44.634  21.234  23.458  1.00  0.00    -0.237 OA
ATOM     61  O   UNL A   1      46.122  21.621  25.378  1.00  0.00    -0.744 OA
ENDBRANCH  54  58
ENDBRANCH  27  51
BRANCH  39  62
ATOM     62  C   UNL A   1      45.958  28.986  28.844  1.00  0.00     0.023 A 
ATOM     63  C   UNL A   1      47.327  29.117  28.521  1.00  0.00     0.031 A 
ATOM     64  C   UNL A   1      45.026  29.599  27.987  1.00  0.00     0.131 A 
ATOM     65  C   UNL A   1      47.716  29.853  27.387  1.00  0.00     0.055 A 
ATOM     66  C   UNL A   1      45.414  30.311  26.853  1.00  0.00     0.041 A 
ATOM     67  F   UNL A   1      43.707  29.486  28.220  1.00  0.00    -0.206 F 
ATOM     68  C   UNL A   1      46.763  30.448  26.553  1.00  0.00     0.022 A 
BRANCH  65  69
ATOM     69  S   UNL A   1      49.478  30.063  26.978  1.00  0.00     0.124 S 
ATOM     70  O   UNL A   1      50.159  29.808  28.242  1.00  0.00    -0.237 OA
ATOM     71  O   UNL A   1      49.679  29.065  25.930  1.00  0.00    -0.237 OA
ATOM     72  O   UNL A   1      49.556  31.449  26.514  1.00  0.00    -0.744 OA
ENDBRANCH  65  69
ENDBRANCH  39  62
ENDBRANCH  13  14
ENDBRANCH   6   8
ENDBRANCH   3   4
ENDBRANCH   2   3
ENDBRANCH   1   2
BRANCH   1  73
ATOM     73  C   UNL A   1      31.853  29.221  24.899  1.00  0.00     0.002 C 
BRANCH  73  74
ATOM     74  C   UNL A   1      30.625  29.026  24.005  1.00  0.00     0.021 C 
BRANCH  74  75
ATOM     75  C   UNL A   1      30.697  27.988  22.871  1.00  0.00     0.116 C 
BRANCH  75  76
ATOM     76  N   UNL A   1      31.992  27.643  22.289  1.00  0.00    -0.354 N 
ATOM     77  C   UNL A   1      32.713  26.470  22.331  1.00  0.00     0.243 C 
ATOM     78  H   UNL A   1      32.421  28.370  21.782  1.00  0.00     0.163 HD
ATOM     79  O   UNL A   1      33.412  26.160  21.363  1.00  0.00    -0.273 OA
BRANCH  77  80
ATOM     80  C   UNL A   1      32.536  25.506  23.490  1.00  0.00     0.181 C 
ATOM     81  C   UNL A   1      31.473  24.360  23.445  1.00  0.00     0.091 C 
ATOM     82  N   UNL A   1      33.704  25.003  24.238  1.00  0.00    -0.320 N 
ATOM     83  C   UNL A   1      31.272  23.961  24.893  1.00  0.00     0.042 A 
ATOM     84  C   UNL A   1      33.417  25.072  25.710  1.00  0.00     0.178 C 
ATOM     85  N   UNL A   1      30.242  23.301  25.494  1.00  0.00    -0.348 N 
ATOM     86  C   UNL A   1      32.140  24.299  25.922  1.00  0.00     0.081 A 
ATOM     87  C   UNL A   1      30.476  23.351  26.847  1.00  0.00     0.197 A 
ATOM     88  H   UNL A   1      29.479  22.870  25.045  1.00  0.00     0.167 HD
ATOM     89  N   UNL A   1      31.616  23.942  27.133  1.00  0.00    -0.240 NA
BRANCH  82  90
ATOM     90  C   UNL A   1      34.716  24.099  23.865  1.00  0.00     0.256 C 
ATOM     91  O   UNL A   1      34.929  24.052  22.638  1.00  0.00    -0.269 OA
BRANCH  90  92
ATOM     92  C   UNL A   1      35.578  23.086  24.631  1.00  0.00     0.061 A 
ATOM     93  C   UNL A   1      36.759  23.720  25.117  1.00  0.00     0.035 A 
ATOM     94  C   UNL A   1      35.563  21.705  24.862  1.00  0.00     0.072 A 
ATOM     95  C   UNL A   1      37.835  23.018  25.641  1.00  0.00     0.112 A 
ATOM     96  C   UNL A   1      36.723  21.075  25.358  1.00  0.00     0.132 A 
ATOM     97  Cl  UNL A   1      34.289  20.586  24.755  1.00  0.00    -0.082 Cl
ATOM     98  N   UNL A   1      37.854  21.691  25.745  1.00  0.00    -0.263 NA
ENDBRANCH  90  92
ENDBRANCH  82  90
ENDBRANCH  77  80
ENDBRANCH  75  76
ENDBRANCH  74  75
ENDBRANCH  73  74
ENDBRANCH   1  73
TORSDOF 18
ENDMDL
MODEL 3
REMARK VINA RESULT:     -13.1      2.251      6.726
REMARK SMILES O=C(NCCCCCCNC(=O)[C@H]1Cc2[nH]cnc2CN1C(=O)c1ccncc1Cl)c1ccc(-c2c3nc(c(-c4cc(S(=O)(=O)[O-])ccc4F)c4ccc([nH]4)c(-c4cc(S(=O)(=O)[O-])ccc4F)c4nc(c(-c5cc(S(=O)(=O)[O-])ccc5F)c5ccc2[nH]5)C=C4)C=C3)cc1
REMARK SMILES IDX 6 1 5 2 4 3 3 4 1 5 2 6 31 8 32 9 93 10 33 11 92 12 34 13
REMARK SMILES IDX 35 14 36 15 86 16 37 17 91 18 85 19 87 20 38 21 90 22 84 23
REMARK SMILES IDX 83 24 39 26 71 27 51 28 70 29 52 30 55 31 69 32 88 33 53 34
REMARK SMILES IDX 54 35 68 37 89 38 56 39 40 40 41 41 49 42 42 43 48 44 50 45
REMARK SMILES IDX 47 46 43 47 44 48 45 49 46 50 72 51 73 52 81 53 74 54 80 55
REMARK SMILES IDX 82 56 79 57 75 58 76 59 77 60 78 61 57 62 58 63 66 64 59 65
REMARK SMILES IDX 65 66 67 67 64 68 60 69 61 70 62 71 63 72 7 73 8 74 9 75
REMARK SMILES IDX 10 76 11 77 12 79 13 80 14 81 21 82 15 83 20 84 16 85 19 86
REMARK SMILES IDX 17 87 18 89 22 90 23 91 24 92 25 93 29 94 26 95 28 96 30 97
REMARK SMILES IDX 27 98
REMARK H PARENT 3 7 87 25 55 36 10 78 16 88
REMARK Flexibility Score: inf
ROOT
ATOM      1  C   UNL A   1      33.401  28.481  25.106  1.00  0.00     0.002 C 
ENDROOT
BRANCH   1   2
ATOM      2  C   UNL A   1      33.578  28.579  26.623  1.00  0.00     0.021 C 
BRANCH   2   3
ATOM      3  C   UNL A   1      34.967  28.988  27.123  1.00  0.00     0.116 C 
BRANCH   3   4
ATOM      4  N   UNL A   1      35.034  29.573  28.453  1.00  0.00    -0.352 N 
ATOM      5  O   UNL A   1      35.814  30.564  30.295  1.00  0.00    -0.269 OA
ATOM      6  C   UNL A   1      36.075  29.906  29.283  1.00  0.00     0.251 C 
ATOM      7  H   UNL A   1      34.149  29.769  28.839  1.00  0.00     0.163 HD
BRANCH   6   8
ATOM      8  C   UNL A   1      37.470  29.447  29.067  1.00  0.00     0.039 A 
ATOM      9  C   UNL A   1      38.250  29.822  27.975  1.00  0.00     0.014 A 
ATOM     10  C   UNL A   1      38.011  28.575  30.027  1.00  0.00     0.014 A 
ATOM     11  C   UNL A   1      39.483  29.222  27.763  1.00  0.00     0.010 A 
ATOM     12  C   UNL A   1      39.278  28.020  29.852  1.00  0.00     0.010 A 
ATOM     13  C   UNL A   1      40.001  28.318  28.697  1.00  0.00    -0.014 A 
BRANCH  13  14
ATOM     14  C   UNL A   1      41.404  27.932  28.530  1.00  0.00     0.031 A 
ATOM     15  C   UNL A   1      41.587  26.619  27.848  1.00  0.00     0.074 A 
ATOM     16  C   UNL A   1      42.476  28.702  28.796  1.00  0.00     0.049 A 
ATOM     17  N   UNL A   1      42.161  25.552  28.298  1.00  0.00    -0.248 NA
ATOM     18  C   UNL A   1      40.920  26.438  26.548  1.00  0.00     0.031 C 
ATOM     19  C   UNL A   1      42.488  30.111  29.187  1.00  0.00     0.029 A 
ATOM     20  N   UNL A   1      43.803  28.402  28.652  1.00  0.00    -0.354 N 
ATOM     21  C   UNL A   1      42.119  24.630  27.254  1.00  0.00     0.074 A 
ATOM     22  C   UNL A   1      41.197  25.162  26.288  1.00  0.00     0.031 C 
ATOM     23  C   UNL A   1      43.739  30.599  29.028  1.00  0.00     0.029 A 
ATOM     24  C   UNL A   1      44.631  29.518  28.635  1.00  0.00     0.049 A 
ATOM     25  H   UNL A   1      44.140  27.481  28.568  1.00  0.00     0.167 HD
ATOM     26  C   UNL A   1      43.013  23.607  27.165  1.00  0.00     0.034 A 
ATOM     27  C   UNL A   1      45.932  29.573  28.247  1.00  0.00     0.034 A 
ATOM     28  C   UNL A   1      43.620  23.326  28.447  1.00  0.00     0.049 A 
ATOM     29  C   UNL A   1      46.493  28.204  28.348  1.00  0.00     0.074 A 
ATOM     30  C   UNL A   1      43.128  23.007  29.701  1.00  0.00     0.029 A 
ATOM     31  N   UNL A   1      44.934  23.679  28.655  1.00  0.00    -0.354 N 
ATOM     32  N   UNL A   1      46.671  27.574  29.476  1.00  0.00    -0.248 NA
ATOM     33  C   UNL A   1      46.476  27.355  27.165  1.00  0.00     0.031 C 
ATOM     34  C   UNL A   1      43.993  23.673  30.618  1.00  0.00     0.029 A 
ATOM     35  C   UNL A   1      44.991  24.305  29.876  1.00  0.00     0.049 A 
ATOM     36  H   UNL A   1      45.688  23.516  28.045  1.00  0.00     0.167 HD
ATOM     37  C   UNL A   1      46.361  26.253  29.203  1.00  0.00     0.074 A 
ATOM     38  C   UNL A   1      46.363  26.157  27.747  1.00  0.00     0.031 C 
ATOM     39  C   UNL A   1      45.858  25.429  30.170  1.00  0.00     0.034 A 
BRANCH  26  40
ATOM     40  C   UNL A   1      43.609  23.115  25.859  1.00  0.00     0.023 A 
ATOM     41  C   UNL A   1      43.594  21.725  25.633  1.00  0.00     0.031 A 
ATOM     42  C   UNL A   1      44.446  23.860  24.996  1.00  0.00     0.131 A 
ATOM     43  C   UNL A   1      44.480  21.129  24.719  1.00  0.00     0.055 A 
ATOM     44  C   UNL A   1      45.267  23.268  24.030  1.00  0.00     0.041 A 
ATOM     45  F   UNL A   1      44.594  25.186  25.086  1.00  0.00    -0.206 F 
ATOM     46  C   UNL A   1      45.321  21.892  23.917  1.00  0.00     0.022 A 
BRANCH  43  47
ATOM     47  S   UNL A   1      44.666  19.330  24.769  1.00  0.00     0.124 S 
ATOM     48  O   UNL A   1      43.510  18.944  25.571  1.00  0.00    -0.237 OA
ATOM     49  O   UNL A   1      44.613  18.985  23.352  1.00  0.00    -0.237 OA
ATOM     50  O   UNL A   1      45.965  19.142  25.411  1.00  0.00    -0.744 OA
ENDBRANCH  43  47
ENDBRANCH  26  40
BRANCH  27  51
ATOM     51  C   UNL A   1      46.615  30.692  27.543  1.00  0.00     0.023 A 
ATOM     52  C   UNL A   1      45.912  31.764  26.953  1.00  0.00     0.031 A 
ATOM     53  C   UNL A   1      48.018  30.834  27.639  1.00  0.00     0.131 A 
ATOM     54  C   UNL A   1      46.612  32.900  26.482  1.00  0.00     0.055 A 
ATOM     55  C   UNL A   1      48.705  31.949  27.157  1.00  0.00     0.041 A 
ATOM     56  F   UNL A   1      48.769  29.929  28.287  1.00  0.00    -0.206 F 
ATOM     57  C   UNL A   1      48.002  32.992  26.581  1.00  0.00     0.022 A 
BRANCH  54  58
ATOM     58  S   UNL A   1      45.704  34.337  25.827  1.00  0.00     0.124 S 
ATOM     59  O   UNL A   1      46.781  35.268  25.512  1.00  0.00    -0.237 OA
ATOM     60  O   UNL A   1      44.986  33.767  24.693  1.00  0.00    -0.237 OA
ATOM     61  O   UNL A   1      44.851  34.740  26.947  1.00  0.00    -0.744 OA
ENDBRANCH  54  58
ENDBRANCH  27  51
BRANCH  39  62
ATOM     62  C   UNL A   1      45.985  25.837  31.622  1.00  0.00     0.023 A 
ATOM     63  C   UNL A   1      44.909  26.241  32.443  1.00  0.00     0.031 A 
ATOM     64  C   UNL A   1      47.248  25.699  32.225  1.00  0.00     0.131 A 
ATOM     65  C   UNL A   1      45.125  26.506  33.809  1.00  0.00     0.055 A 
ATOM     66  C   UNL A   1      47.455  25.944  33.582  1.00  0.00     0.041 A 
ATOM     67  F   UNL A   1      48.307  25.289  31.507  1.00  0.00    -0.206 F 
ATOM     68  C   UNL A   1      46.394  26.358  34.378  1.00  0.00     0.022 A 
BRANCH  65  69
ATOM     69  S   UNL A   1      43.757  27.065  34.873  1.00  0.00     0.124 S 
ATOM     70  O   UNL A   1      42.757  27.544  33.926  1.00  0.00    -0.237 OA
ATOM     71  O   UNL A   1      43.414  25.850  35.608  1.00  0.00    -0.237 OA
ATOM     72  O   UNL A   1      44.371  28.112  35.691  1.00  0.00    -0.744 OA
ENDBRANCH  65  69
ENDBRANCH  39  62
ENDBRANCH  13  14
ENDBRANCH   6   8
ENDBRANCH   3   4
ENDBRANCH   2   3
ENDBRANCH   1   2
BRANCH   1  73
ATOM     73  C   UNL A   1      32.180  29.188  24.518  1.00  0.00     0.002 C 
BRANCH  73  74
ATOM     74  C   UNL A   1      30.997  28.291  24.143  1.00  0.00     0.021 C 
BRANCH  74  75
ATOM     75  C   UNL A   1      30.862  27.824  22.683  1.00  0.00     0.116 C 
BRANCH  75  76
ATOM     76  N   UNL A   1      32.027  27.281  21.987  1.00  0.00    -0.354 N 
ATOM     77  C   UNL A   1      32.594  26.026  22.027  1.00  0.00     0.243 C 
ATOM     78  H   UNL A   1      32.482  27.918  21.390  1.00  0.00     0.163 HD
ATOM     79  O   UNL A   1      33.131  25.577  21.011  1.00  0.00    -0.273 OA
BRANCH  77  80
ATOM     80  C   UNL A   1      32.433  25.154  23.259  1.00  0.00     0.181 C 
ATOM     81  C   UNL A   1      31.265  24.121  23.382  1.00  0.00     0.091 C 
ATOM     82  N   UNL A   1      33.611  24.579  23.936  1.00  0.00    -0.320 N 
ATOM     83  C   UNL A   1      31.161  23.830  24.865  1.00  0.00     0.042 A 
ATOM     84  C   UNL A   1      33.469  24.763  25.419  1.00  0.00     0.178 C 
ATOM     85  N   UNL A   1      30.132  23.314  25.595  1.00  0.00    -0.348 N 
ATOM     86  C   UNL A   1      32.148  24.137  25.791  1.00  0.00     0.081 A 
ATOM     87  C   UNL A   1      30.493  23.419  26.917  1.00  0.00     0.197 A 
ATOM     88  H   UNL A   1      29.293  22.937  25.243  1.00  0.00     0.167 HD
ATOM     89  N   UNL A   1      31.707  23.906  27.064  1.00  0.00    -0.240 NA
BRANCH  82  90
ATOM     90  C   UNL A   1      34.493  23.557  23.538  1.00  0.00     0.256 C 
ATOM     91  O   UNL A   1      34.751  23.553  22.319  1.00  0.00    -0.269 OA
BRANCH  90  92
ATOM     92  C   UNL A   1      35.159  22.380  24.264  1.00  0.00     0.061 A 
ATOM     93  C   UNL A   1      36.576  22.535  24.245  1.00  0.00     0.035 A 
ATOM     94  C   UNL A   1      34.749  21.161  24.817  1.00  0.00     0.072 A 
ATOM     95  C   UNL A   1      37.454  21.526  24.612  1.00  0.00     0.112 A 
ATOM     96  C   UNL A   1      35.716  20.178  25.118  1.00  0.00     0.132 A 
ATOM     97  Cl  UNL A   1      33.213  20.647  25.331  1.00  0.00    -0.082 Cl
ATOM     98  N   UNL A   1      37.049  20.326  25.024  1.00  0.00    -0.263 NA
ENDBRANCH  90  92
ENDBRANCH  82  90
ENDBRANCH  77  80
ENDBRANCH  75  76
ENDBRANCH  74  75
ENDBRANCH  73  74
ENDBRANCH   1  73
TORSDOF 18
ENDMDL
