MODEL 1
REMARK VINA RESULT:     -12.5      0.000      0.000
REMARK SMILES O=C(NCCCCCCNC(=O)c1cn(C2CC2)c2cc(N3CC[NH2+]CC3)ccc2c1=O)c1ccc(-c2c3nc(c(-c4cc(S(=O)(=O)[O-])ccc4F)c4ccc([nH]4)c(-c4cc(S(=O)(=O)[O-])ccc4F)c4nc(c(-c5cc(S(=O)(=O)[O-])ccc5F)c5ccc2[nH]5)C=C4)C=C3)cc1
REMARK SMILES IDX 5 1 4 2 3 3 1 4 2 5 33 7 34 8 95 9 35 10 94 11 36 12 37 13
REMARK SMILES IDX 38 14 88 15 39 16 93 17 87 18 89 19 40 20 92 21 86 22 85 23
REMARK SMILES IDX 41 25 73 26 53 27 72 28 54 29 57 30 71 31 90 32 55 33 56 34
REMARK SMILES IDX 70 36 91 37 58 38 42 39 43 40 51 41 44 42 50 43 52 44 49 45
REMARK SMILES IDX 45 46 46 47 47 48 48 49 74 50 75 51 83 52 76 53 82 54 84 55
REMARK SMILES IDX 81 56 77 57 78 58 79 59 80 60 59 61 60 62 68 63 61 64 67 65
REMARK SMILES IDX 69 66 66 67 62 68 63 69 64 70 65 71 6 72 7 73 8 74 9 75
REMARK SMILES IDX 10 76 11 77 12 79 13 80 14 81 31 82 15 83 30 84 32 85 19 86
REMARK SMILES IDX 29 87 20 88 28 89 21 90 16 91 17 92 18 93 22 94 23 95 27 96
REMARK SMILES IDX 24 97 26 98 25 99
REMARK H PARENT 3 6 89 24 57 35 10 78 25 100 25 101
REMARK Flexibility Score: inf
ROOT
ATOM      1  C   UNL A   1      38.087  19.797  24.957  1.00  0.00     0.021 C 
ENDROOT
BRANCH   1   2
ATOM      2  C   UNL A   1      39.274  20.281  25.779  1.00  0.00     0.116 C 
BRANCH   2   3
ATOM      3  N   UNL A   1      40.300  19.262  25.913  1.00  0.00    -0.352 N 
ATOM      4  O   UNL A   1      42.379  18.418  26.006  1.00  0.00    -0.269 OA
ATOM      5  C   UNL A   1      41.648  19.402  26.119  1.00  0.00     0.251 C 
ATOM      6  H   UNL A   1      39.980  18.333  25.848  1.00  0.00     0.163 HD
BRANCH   5   7
ATOM      7  C   UNL A   1      42.226  20.718  26.470  1.00  0.00     0.039 A 
ATOM      8  C   UNL A   1      42.326  21.071  27.818  1.00  0.00     0.014 A 
ATOM      9  C   UNL A   1      42.612  21.630  25.482  1.00  0.00     0.014 A 
ATOM     10  C   UNL A   1      42.812  22.332  28.171  1.00  0.00     0.010 A 
ATOM     11  C   UNL A   1      43.189  22.846  25.839  1.00  0.00     0.010 A 
ATOM     12  C   UNL A   1      43.249  23.231  27.184  1.00  0.00    -0.014 A 
BRANCH  12  13
ATOM     13  C   UNL A   1      43.671  24.612  27.540  1.00  0.00     0.031 A 
ATOM     14  C   UNL A   1      45.121  25.005  27.408  1.00  0.00     0.074 A 
ATOM     15  C   UNL A   1      42.764  25.508  27.977  1.00  0.00     0.049 A 
ATOM     16  N   UNL A   1      45.688  26.157  27.653  1.00  0.00    -0.248 NA
ATOM     17  C   UNL A   1      46.065  23.962  26.966  1.00  0.00     0.031 C 
ATOM     18  C   UNL A   1      41.340  25.235  28.172  1.00  0.00     0.029 A 
ATOM     19  N   UNL A   1      42.899  26.831  28.322  1.00  0.00    -0.354 N 
ATOM     20  C   UNL A   1      47.046  25.972  27.410  1.00  0.00     0.074 A 
ATOM     21  C   UNL A   1      47.230  24.583  27.067  1.00  0.00     0.031 C 
ATOM     22  C   UNL A   1      40.724  26.366  28.550  1.00  0.00     0.029 A 
ATOM     23  C   UNL A   1      41.712  27.438  28.668  1.00  0.00     0.049 A 
ATOM     24  H   UNL A   1      43.764  27.302  28.323  1.00  0.00     0.167 HD
ATOM     25  C   UNL A   1      48.042  26.888  27.431  1.00  0.00     0.034 A 
ATOM     26  C   UNL A   1      41.448  28.714  29.022  1.00  0.00     0.034 A 
ATOM     27  C   UNL A   1      47.834  28.281  27.722  1.00  0.00     0.049 A 
ATOM     28  C   UNL A   1      42.579  29.715  29.032  1.00  0.00     0.074 A 
ATOM     29  C   UNL A   1      48.770  29.300  27.714  1.00  0.00     0.029 A 
ATOM     30  N   UNL A   1      46.618  28.857  28.058  1.00  0.00    -0.354 N 
ATOM     31  N   UNL A   1      43.842  29.540  28.721  1.00  0.00    -0.248 NA
ATOM     32  C   UNL A   1      42.248  31.094  29.421  1.00  0.00     0.031 C 
ATOM     33  C   UNL A   1      48.138  30.474  28.116  1.00  0.00     0.029 A 
ATOM     34  C   UNL A   1      46.787  30.213  28.280  1.00  0.00     0.049 A 
ATOM     35  H   UNL A   1      45.764  28.374  28.127  1.00  0.00     0.167 HD
ATOM     36  C   UNL A   1      44.442  30.794  28.826  1.00  0.00     0.074 A 
ATOM     37  C   UNL A   1      43.399  31.719  29.215  1.00  0.00     0.031 C 
ATOM     38  C   UNL A   1      45.737  31.142  28.621  1.00  0.00     0.034 A 
BRANCH  25  39
ATOM     39  C   UNL A   1      49.447  26.450  27.098  1.00  0.00     0.023 A 
ATOM     40  C   UNL A   1      50.449  26.517  28.083  1.00  0.00     0.031 A 
ATOM     41  C   UNL A   1      49.828  26.132  25.781  1.00  0.00     0.131 A 
ATOM     42  C   UNL A   1      51.789  26.329  27.727  1.00  0.00     0.055 A 
ATOM     43  C   UNL A   1      51.159  25.890  25.443  1.00  0.00     0.041 A 
ATOM     44  F   UNL A   1      48.910  26.055  24.805  1.00  0.00    -0.206 F 
ATOM     45  C   UNL A   1      52.150  26.007  26.414  1.00  0.00     0.022 A 
BRANCH  42  46
ATOM     46  S   UNL A   1      53.119  26.583  28.931  1.00  0.00     0.124 S 
ATOM     47  O   UNL A   1      52.576  25.933  30.123  1.00  0.00    -0.237 OA
ATOM     48  O   UNL A   1      54.239  25.890  28.299  1.00  0.00    -0.237 OA
ATOM     49  O   UNL A   1      53.241  28.033  29.020  1.00  0.00    -0.744 OA
ENDBRANCH  42  46
ENDBRANCH  25  39
BRANCH  26  50
ATOM     50  C   UNL A   1      40.039  29.126  29.299  1.00  0.00     0.023 A 
ATOM     51  C   UNL A   1      39.571  29.300  30.614  1.00  0.00     0.031 A 
ATOM     52  C   UNL A   1      39.115  29.275  28.249  1.00  0.00     0.131 A 
ATOM     53  C   UNL A   1      38.212  29.556  30.845  1.00  0.00     0.055 A 
ATOM     54  C   UNL A   1      37.778  29.607  28.479  1.00  0.00     0.041 A 
ATOM     55  F   UNL A   1      39.505  29.102  26.975  1.00  0.00    -0.206 F 
ATOM     56  C   UNL A   1      37.318  29.734  29.785  1.00  0.00     0.022 A 
BRANCH  53  57
ATOM     57  S   UNL A   1      37.537  29.543  32.529  1.00  0.00     0.124 S 
ATOM     58  O   UNL A   1      37.489  28.116  32.828  1.00  0.00    -0.237 OA
ATOM     59  O   UNL A   1      38.544  30.308  33.260  1.00  0.00    -0.237 OA
ATOM     60  O   UNL A   1      36.242  30.202  32.386  1.00  0.00    -0.744 OA
ENDBRANCH  53  57
ENDBRANCH  26  50
BRANCH  38  61
ATOM     61  C   UNL A   1      46.138  32.594  28.755  1.00  0.00     0.023 A 
ATOM     62  C   UNL A   1      46.304  33.377  27.593  1.00  0.00     0.031 A 
ATOM     63  C   UNL A   1      46.515  33.151  29.987  1.00  0.00     0.131 A 
ATOM     64  C   UNL A   1      46.875  34.651  27.685  1.00  0.00     0.055 A 
ATOM     65  C   UNL A   1      47.028  34.446  30.081  1.00  0.00     0.041 A 
ATOM     66  F   UNL A   1      46.400  32.441  31.121  1.00  0.00    -0.206 F 
ATOM     67  C   UNL A   1      47.225  35.195  28.924  1.00  0.00     0.022 A 
BRANCH  64  68
ATOM     68  S   UNL A   1      47.290  35.600  26.195  1.00  0.00     0.124 S 
ATOM     69  O   UNL A   1      48.713  35.863  26.393  1.00  0.00    -0.237 OA
ATOM     70  O   UNL A   1      46.974  34.652  25.129  1.00  0.00    -0.237 OA
ATOM     71  O   UNL A   1      46.424  36.772  26.269  1.00  0.00    -0.744 OA
ENDBRANCH  64  68
ENDBRANCH  38  61
ENDBRANCH  12  13
ENDBRANCH   5   7
ENDBRANCH   2   3
ENDBRANCH   1   2
BRANCH   1  72
ATOM     72  C   UNL A   1      36.863  20.713  24.991  1.00  0.00     0.002 C 
BRANCH  72  73
ATOM     73  C   UNL A   1      37.139  22.186  24.674  1.00  0.00     0.002 C 
BRANCH  73  74
ATOM     74  C   UNL A   1      36.312  22.776  23.530  1.00  0.00     0.021 C 
BRANCH  74  75
ATOM     75  C   UNL A   1      35.207  23.732  23.962  1.00  0.00     0.116 C 
BRANCH  75  76
ATOM     76  N   UNL A   1      34.652  23.393  25.266  1.00  0.00    -0.352 N 
ATOM     77  C   UNL A   1      33.708  24.057  26.002  1.00  0.00     0.256 C 
ATOM     78  H   UNL A   1      35.006  22.570  25.676  1.00  0.00     0.163 HD
ATOM     79  O   UNL A   1      33.360  23.627  27.100  1.00  0.00    -0.269 OA
BRANCH  77  80
ATOM     80  C   UNL A   1      33.101  25.262  25.412  1.00  0.00     0.104 A 
ATOM     81  C   UNL A   1      33.717  26.439  25.598  1.00  0.00     0.104 A 
ATOM     82  C   UNL A   1      31.818  25.246  24.684  1.00  0.00     0.202 A 
ATOM     83  N   UNL A   1      33.221  27.679  25.249  1.00  0.00    -0.343 N 
ATOM     84  C   UNL A   1      31.303  26.554  24.205  1.00  0.00     0.047 A 
ATOM     85  O   UNL A   1      31.180  24.216  24.498  1.00  0.00    -0.288 OA
ATOM     86  C   UNL A   1      32.017  27.736  24.480  1.00  0.00     0.054 A 
ATOM     87  C   UNL A   1      30.085  26.591  23.515  1.00  0.00     0.016 A 
ATOM     88  C   UNL A   1      31.488  28.942  23.994  1.00  0.00     0.053 A 
ATOM     89  C   UNL A   1      29.559  27.813  23.101  1.00  0.00     0.027 A 
ATOM     90  C   UNL A   1      30.253  29.005  23.330  1.00  0.00     0.039 A 
BRANCH  83  91
ATOM     91  C   UNL A   1      33.798  28.904  25.863  1.00  0.00     0.087 C 
ATOM     92  C   UNL A   1      33.152  29.747  26.936  1.00  0.00     0.027 C 
ATOM     93  C   UNL A   1      34.338  28.890  27.268  1.00  0.00     0.027 C 
ENDBRANCH  83  91
BRANCH  90  94
ATOM     94  N   UNL A   1      29.755  30.224  22.928  1.00  0.00    -0.360 N 
ATOM     95  C   UNL A   1      29.549  30.487  21.502  1.00  0.00     0.178 C 
ATOM     96  C   UNL A   1      29.130  31.148  23.875  1.00  0.00     0.178 C 
ATOM     97  C   UNL A   1      28.048  30.737  21.225  1.00  0.00     0.282 C 
ATOM     98  C   UNL A   1      27.653  31.405  23.503  1.00  0.00     0.282 C 
ATOM     99  N   UNL A   1      27.453  31.786  22.085  1.00  0.00    -0.343 N 
ATOM    100  H   UNL A   1      26.455  31.866  21.888  1.00  0.00     0.346 HD
ATOM    101  H   UNL A   1      27.900  32.684  21.899  1.00  0.00     0.346 HD
ENDBRANCH  90  94
ENDBRANCH  77  80
ENDBRANCH  75  76
ENDBRANCH  74  75
ENDBRANCH  73  74
ENDBRANCH  72  73
ENDBRANCH   1  72
TORSDOF 18
ENDMDL
MODEL 2
REMARK VINA RESULT:     -12.4      2.828      5.361
REMARK SMILES O=C(NCCCCCCNC(=O)c1cn(C2CC2)c2cc(N3CC[NH2+]CC3)ccc2c1=O)c1ccc(-c2c3nc(c(-c4cc(S(=O)(=O)[O-])ccc4F)c4ccc([nH]4)c(-c4cc(S(=O)(=O)[O-])ccc4F)c4nc(c(-c5cc(S(=O)(=O)[O-])ccc5F)c5ccc2[nH]5)C=C4)C=C3)cc1
REMARK SMILES IDX 5 1 4 2 3 3 1 4 2 5 33 7 34 8 95 9 35 10 94 11 36 12 37 13
REMARK SMILES IDX 38 14 88 15 39 16 93 17 87 18 89 19 40 20 92 21 86 22 85 23
REMARK SMILES IDX 41 25 73 26 53 27 72 28 54 29 57 30 71 31 90 32 55 33 56 34
REMARK SMILES IDX 70 36 91 37 58 38 42 39 43 40 51 41 44 42 50 43 52 44 49 45
REMARK SMILES IDX 45 46 46 47 47 48 48 49 74 50 75 51 83 52 76 53 82 54 84 55
REMARK SMILES IDX 81 56 77 57 78 58 79 59 80 60 59 61 60 62 68 63 61 64 67 65
REMARK SMILES IDX 69 66 66 67 62 68 63 69 64 70 65 71 6 72 7 73 8 74 9 75
REMARK SMILES IDX 10 76 11 77 12 79 13 80 14 81 31 82 15 83 30 84 32 85 19 86
REMARK SMILES IDX 29 87 20 88 28 89 21 90 16 91 17 92 18 93 22 94 23 95 27 96
REMARK SMILES IDX 24 97 26 98 25 99
REMARK H PARENT 3 6 89 24 57 35 10 78 25 100 25 101
REMARK Flexibility Score: inf
ROOT
ATOM      1  C   UNL A   1      35.530  22.299  24.112  1.00  0.00     0.021 C 
ENDROOT
BRANCH   1   2
ATOM      2  C   UNL A   1      37.053  22.267  24.120  1.00  0.00     0.116 C 
BRANCH   2   3
ATOM      3  N   UNL A   1      37.573  21.093  24.799  1.00  0.00    -0.352 N 
ATOM      4  O   UNL A   1      39.020  19.874  26.009  1.00  0.00    -0.269 OA
ATOM      5  C   UNL A   1      38.604  20.990  25.697  1.00  0.00     0.251 C 
ATOM      6  H   UNL A   1      37.117  20.248  24.585  1.00  0.00     0.163 HD
BRANCH   5   7
ATOM      7  C   UNL A   1      39.217  22.201  26.286  1.00  0.00     0.039 A 
ATOM      8  C   UNL A   1      38.638  23.444  26.022  1.00  0.00     0.014 A 
ATOM      9  C   UNL A   1      40.390  22.127  27.044  1.00  0.00     0.014 A 
ATOM     10  C   UNL A   1      39.233  24.607  26.518  1.00  0.00     0.010 A 
ATOM     11  C   UNL A   1      40.925  23.276  27.620  1.00  0.00     0.010 A 
ATOM     12  C   UNL A   1      40.383  24.533  27.322  1.00  0.00    -0.014 A 
BRANCH  12  13
ATOM     13  C   UNL A   1      41.084  25.765  27.770  1.00  0.00     0.031 A 
ATOM     14  C   UNL A   1      42.507  26.012  27.334  1.00  0.00     0.074 A 
ATOM     15  C   UNL A   1      40.454  26.658  28.559  1.00  0.00     0.049 A 
ATOM     16  N   UNL A   1      43.287  27.026  27.603  1.00  0.00    -0.248 NA
ATOM     17  C   UNL A   1      43.149  24.974  26.508  1.00  0.00     0.031 C 
ATOM     18  C   UNL A   1      39.089  26.512  29.067  1.00  0.00     0.029 A 
ATOM     19  N   UNL A   1      40.868  27.868  29.061  1.00  0.00    -0.354 N 
ATOM     20  C   UNL A   1      44.505  26.741  26.995  1.00  0.00     0.074 A 
ATOM     21  C   UNL A   1      44.388  25.430  26.403  1.00  0.00     0.031 C 
ATOM     22  C   UNL A   1      38.761  27.613  29.763  1.00  0.00     0.029 A 
ATOM     23  C   UNL A   1      39.902  28.525  29.789  1.00  0.00     0.049 A 
ATOM     24  H   UNL A   1      41.772  28.230  28.914  1.00  0.00     0.167 HD
ATOM     25  C   UNL A   1      45.608  27.519  26.903  1.00  0.00     0.034 A 
ATOM     26  C   UNL A   1      39.928  29.732  30.394  1.00  0.00     0.034 A 
ATOM     27  C   UNL A   1      45.692  28.847  27.452  1.00  0.00     0.049 A 
ATOM     28  C   UNL A   1      41.172  30.582  30.271  1.00  0.00     0.074 A 
ATOM     29  C   UNL A   1      46.747  29.738  27.364  1.00  0.00     0.029 A 
ATOM     30  N   UNL A   1      44.692  29.480  28.174  1.00  0.00    -0.354 N 
ATOM     31  N   UNL A   1      42.285  30.329  29.624  1.00  0.00    -0.248 NA
ATOM     32  C   UNL A   1      41.158  31.889  30.943  1.00  0.00     0.031 C 
ATOM     33  C   UNL A   1      46.415  30.878  28.094  1.00  0.00     0.029 A 
ATOM     34  C   UNL A   1      45.115  30.742  28.555  1.00  0.00     0.049 A 
ATOM     35  H   UNL A   1      43.813  29.091  28.383  1.00  0.00     0.167 HD
ATOM     36  C   UNL A   1      43.079  31.465  29.767  1.00  0.00     0.074 A 
ATOM     37  C   UNL A   1      42.312  32.410  30.550  1.00  0.00     0.031 C 
ATOM     38  C   UNL A   1      44.330  31.700  29.295  1.00  0.00     0.034 A 
BRANCH  25  39
ATOM     39  C   UNL A   1      46.812  26.999  26.157  1.00  0.00     0.023 A 
ATOM     40  C   UNL A   1      47.833  26.333  26.860  1.00  0.00     0.031 A 
ATOM     41  C   UNL A   1      47.029  27.306  24.802  1.00  0.00     0.131 A 
ATOM     42  C   UNL A   1      49.045  26.048  26.224  1.00  0.00     0.055 A 
ATOM     43  C   UNL A   1      48.219  26.968  24.156  1.00  0.00     0.041 A 
ATOM     44  F   UNL A   1      46.087  27.940  24.086  1.00  0.00    -0.206 F 
ATOM     45  C   UNL A   1      49.242  26.354  24.873  1.00  0.00     0.022 A 
BRANCH  42  46
ATOM     46  S   UNL A   1      50.443  25.353  27.145  1.00  0.00     0.124 S 
ATOM     47  O   UNL A   1      51.371  25.006  26.070  1.00  0.00    -0.237 OA
ATOM     48  O   UNL A   1      50.848  26.481  27.980  1.00  0.00    -0.237 OA
ATOM     49  O   UNL A   1      49.866  24.216  27.854  1.00  0.00    -0.744 OA
ENDBRANCH  42  46
ENDBRANCH  25  39
BRANCH  26  50
ATOM     50  C   UNL A   1      38.703  30.238  31.084  1.00  0.00     0.023 A 
ATOM     51  C   UNL A   1      37.667  30.867  30.372  1.00  0.00     0.031 A 
ATOM     52  C   UNL A   1      38.589  30.168  32.485  1.00  0.00     0.131 A 
ATOM     53  C   UNL A   1      36.595  31.448  31.063  1.00  0.00     0.055 A 
ATOM     54  C   UNL A   1      37.481  30.679  33.164  1.00  0.00     0.041 A 
ATOM     55  F   UNL A   1      39.558  29.593  33.215  1.00  0.00    -0.206 F 
ATOM     56  C   UNL A   1      36.484  31.338  32.453  1.00  0.00     0.022 A 
BRANCH  53  57
ATOM     57  S   UNL A   1      35.375  32.474  30.196  1.00  0.00     0.124 S 
ATOM     58  O   UNL A   1      34.354  32.667  31.220  1.00  0.00    -0.237 OA
ATOM     59  O   UNL A   1      36.165  33.656  29.861  1.00  0.00    -0.237 OA
ATOM     60  O   UNL A   1      34.980  31.651  29.057  1.00  0.00    -0.744 OA
ENDBRANCH  53  57
ENDBRANCH  26  50
BRANCH  38  61
ATOM     61  C   UNL A   1      44.971  33.046  29.546  1.00  0.00     0.023 A 
ATOM     62  C   UNL A   1      44.879  34.053  28.563  1.00  0.00     0.031 A 
ATOM     63  C   UNL A   1      45.799  33.280  30.656  1.00  0.00     0.131 A 
ATOM     64  C   UNL A   1      45.639  35.221  28.685  1.00  0.00     0.055 A 
ATOM     65  C   UNL A   1      46.507  34.473  30.804  1.00  0.00     0.041 A 
ATOM     66  F   UNL A   1      45.940  32.346  31.611  1.00  0.00    -0.206 F 
ATOM     67  C   UNL A   1      46.442  35.443  29.808  1.00  0.00     0.022 A 
BRANCH  64  68
ATOM     68  S   UNL A   1      45.702  36.441  27.343  1.00  0.00     0.124 S 
ATOM     69  O   UNL A   1      44.307  36.490  26.914  1.00  0.00    -0.237 OA
ATOM     70  O   UNL A   1      46.184  37.634  28.035  1.00  0.00    -0.237 OA
ATOM     71  O   UNL A   1      46.630  35.859  26.379  1.00  0.00    -0.744 OA
ENDBRANCH  64  68
ENDBRANCH  38  61
ENDBRANCH  12  13
ENDBRANCH   5   7
ENDBRANCH   2   3
ENDBRANCH   1   2
BRANCH   1  72
ATOM     72  C   UNL A   1      34.916  23.700  24.107  1.00  0.00     0.002 C 
BRANCH  72  73
ATOM     73  C   UNL A   1      35.268  24.574  25.315  1.00  0.00     0.002 C 
BRANCH  73  74
ATOM     74  C   UNL A   1      34.343  25.769  25.551  1.00  0.00     0.021 C 
BRANCH  74  75
ATOM     75  C   UNL A   1      33.493  26.170  24.351  1.00  0.00     0.116 C 
BRANCH  75  76
ATOM     76  N   UNL A   1      32.112  26.458  24.714  1.00  0.00    -0.352 N 
ATOM     77  C   UNL A   1      31.082  25.587  24.948  1.00  0.00     0.256 C 
ATOM     78  H   UNL A   1      31.888  27.412  24.806  1.00  0.00     0.163 HD
ATOM     79  O   UNL A   1      29.964  26.009  25.239  1.00  0.00    -0.269 OA
BRANCH  77  80
ATOM     80  C   UNL A   1      31.374  24.145  24.883  1.00  0.00     0.104 A 
ATOM     81  C   UNL A   1      31.710  23.515  26.019  1.00  0.00     0.104 A 
ATOM     82  C   UNL A   1      31.378  23.377  23.624  1.00  0.00     0.202 A 
ATOM     83  N   UNL A   1      32.157  22.213  26.122  1.00  0.00    -0.343 N 
ATOM     84  C   UNL A   1      31.757  21.944  23.713  1.00  0.00     0.047 A 
ATOM     85  O   UNL A   1      31.110  23.888  22.542  1.00  0.00    -0.288 OA
ATOM     86  C   UNL A   1      32.121  21.388  24.955  1.00  0.00     0.054 A 
ATOM     87  C   UNL A   1      31.782  21.176  22.543  1.00  0.00     0.016 A 
ATOM     88  C   UNL A   1      32.460  20.026  24.982  1.00  0.00     0.053 A 
ATOM     89  C   UNL A   1      32.183  19.842  22.598  1.00  0.00     0.027 A 
ATOM     90  C   UNL A   1      32.524  19.247  23.815  1.00  0.00     0.039 A 
BRANCH  83  91
ATOM     91  C   UNL A   1      32.870  21.773  27.351  1.00  0.00     0.087 C 
ATOM     92  C   UNL A   1      34.368  21.700  27.529  1.00  0.00     0.027 C 
ATOM     93  C   UNL A   1      33.578  22.763  28.236  1.00  0.00     0.027 C 
ENDBRANCH  83  91
BRANCH  90  94
ATOM     94  N   UNL A   1      32.921  17.930  23.895  1.00  0.00    -0.360 N 
ATOM     95  C   UNL A   1      34.268  17.554  23.464  1.00  0.00     0.178 C 
ATOM     96  C   UNL A   1      32.171  16.948  24.680  1.00  0.00     0.178 C 
ATOM     97  C   UNL A   1      35.063  16.981  24.661  1.00  0.00     0.282 C 
ATOM     98  C   UNL A   1      33.043  16.369  25.816  1.00  0.00     0.282 C 
ATOM     99  N   UNL A   1      34.366  15.879  25.362  1.00  0.00    -0.343 N 
ATOM    100  H   UNL A   1      34.917  15.582  26.167  1.00  0.00     0.346 HD
ATOM    101  H   UNL A   1      34.246  15.085  24.732  1.00  0.00     0.346 HD
ENDBRANCH  90  94
ENDBRANCH  77  80
ENDBRANCH  75  76
ENDBRANCH  74  75
ENDBRANCH  73  74
ENDBRANCH  72  73
ENDBRANCH   1  72
TORSDOF 18
ENDMDL
MODEL 3
REMARK VINA RESULT:     -12.1      0.708      7.263
REMARK SMILES O=C(NCCCCCCNC(=O)c1cn(C2CC2)c2cc(N3CC[NH2+]CC3)ccc2c1=O)c1ccc(-c2c3nc(c(-c4cc(S(=O)(=O)[O-])ccc4F)c4ccc([nH]4)c(-c4cc(S(=O)(=O)[O-])ccc4F)c4nc(c(-c5cc(S(=O)(=O)[O-])ccc5F)c5ccc2[nH]5)C=C4)C=C3)cc1
REMARK SMILES IDX 5 1 4 2 3 3 1 4 2 5 33 7 34 8 95 9 35 10 94 11 36 12 37 13
REMARK SMILES IDX 38 14 88 15 39 16 93 17 87 18 89 19 40 20 92 21 86 22 85 23
REMARK SMILES IDX 41 25 73 26 53 27 72 28 54 29 57 30 71 31 90 32 55 33 56 34
REMARK SMILES IDX 70 36 91 37 58 38 42 39 43 40 51 41 44 42 50 43 52 44 49 45
REMARK SMILES IDX 45 46 46 47 47 48 48 49 74 50 75 51 83 52 76 53 82 54 84 55
REMARK SMILES IDX 81 56 77 57 78 58 79 59 80 60 59 61 60 62 68 63 61 64 67 65
REMARK SMILES IDX 69 66 66 67 62 68 63 69 64 70 65 71 6 72 7 73 8 74 9 75
REMARK SMILES IDX 10 76 11 77 12 79 13 80 14 81 31 82 15 83 30 84 32 85 19 86
REMARK SMILES IDX 29 87 20 88 28 89 21 90 16 91 17 92 18 93 22 94 23 95 27 96
REMARK SMILES IDX 24 97 26 98 25 99
REMARK H PARENT 3 6 89 24 57 35 10 78 25 100 25 101
REMARK Flexibility Score: inf
ROOT
ATOM      1  C   UNL A   1      38.121  19.955  24.981  1.00  0.00     0.021 C 
ENDROOT
BRANCH   1   2
ATOM      2  C   UNL A   1      39.282  20.524  25.786  1.00  0.00     0.116 C 
BRANCH   2   3
ATOM      3  N   UNL A   1      40.273  19.514  26.111  1.00  0.00    -0.352 N 
ATOM      4  O   UNL A   1      42.322  18.642  26.400  1.00  0.00    -0.269 OA
ATOM      5  C   UNL A   1      41.618  19.650  26.335  1.00  0.00     0.251 C 
ATOM      6  H   UNL A   1      39.926  18.595  26.181  1.00  0.00     0.163 HD
BRANCH   5   7
ATOM      7  C   UNL A   1      42.225  20.990  26.495  1.00  0.00     0.039 A 
ATOM      8  C   UNL A   1      42.612  21.406  27.770  1.00  0.00     0.014 A 
ATOM      9  C   UNL A   1      42.358  21.862  25.409  1.00  0.00     0.014 A 
ATOM     10  C   UNL A   1      43.133  22.689  27.955  1.00  0.00     0.010 A 
ATOM     11  C   UNL A   1      42.968  23.102  25.578  1.00  0.00     0.010 A 
ATOM     12  C   UNL A   1      43.316  23.549  26.859  1.00  0.00    -0.014 A 
BRANCH  12  13
ATOM     13  C   UNL A   1      43.770  24.951  27.055  1.00  0.00     0.031 A 
ATOM     14  C   UNL A   1      42.810  25.975  27.608  1.00  0.00     0.074 A 
ATOM     15  C   UNL A   1      45.032  25.307  26.741  1.00  0.00     0.049 A 
ATOM     16  N   UNL A   1      43.013  27.241  27.864  1.00  0.00    -0.248 NA
ATOM     17  C   UNL A   1      41.434  25.527  27.888  1.00  0.00     0.031 C 
ATOM     18  C   UNL A   1      46.039  24.411  26.173  1.00  0.00     0.029 A 
ATOM     19  N   UNL A   1      45.687  26.508  26.867  1.00  0.00    -0.354 N 
ATOM     20  C   UNL A   1      41.795  27.737  28.319  1.00  0.00     0.074 A 
ATOM     21  C   UNL A   1      40.840  26.659  28.236  1.00  0.00     0.031 C 
ATOM     22  C   UNL A   1      47.198  25.078  26.049  1.00  0.00     0.029 A 
ATOM     23  C   UNL A   1      47.010  26.459  26.487  1.00  0.00     0.049 A 
ATOM     24  H   UNL A   1      45.251  27.326  27.198  1.00  0.00     0.167 HD
ATOM     25  C   UNL A   1      41.509  28.969  28.798  1.00  0.00     0.034 A 
ATOM     26  C   UNL A   1      47.964  27.414  26.506  1.00  0.00     0.034 A 
ATOM     27  C   UNL A   1      42.485  30.019  28.925  1.00  0.00     0.049 A 
ATOM     28  C   UNL A   1      47.618  28.780  27.052  1.00  0.00     0.074 A 
ATOM     29  C   UNL A   1      42.307  31.286  29.451  1.00  0.00     0.029 A 
ATOM     30  N   UNL A   1      43.813  29.929  28.538  1.00  0.00    -0.354 N 
ATOM     31  N   UNL A   1      46.482  29.207  27.552  1.00  0.00    -0.248 NA
ATOM     32  C   UNL A   1      48.686  29.789  27.056  1.00  0.00     0.031 C 
ATOM     33  C   UNL A   1      43.504  31.985  29.316  1.00  0.00     0.029 A 
ATOM     34  C   UNL A   1      44.459  31.126  28.795  1.00  0.00     0.049 A 
ATOM     35  H   UNL A   1      44.234  29.133  28.141  1.00  0.00     0.167 HD
ATOM     36  C   UNL A   1      46.715  30.513  27.977  1.00  0.00     0.074 A 
ATOM     37  C   UNL A   1      48.104  30.800  27.688  1.00  0.00     0.031 C 
ATOM     38  C   UNL A   1      45.856  31.393  28.550  1.00  0.00     0.034 A 
BRANCH  25  39
ATOM     39  C   UNL A   1      40.106  29.266  29.266  1.00  0.00     0.023 A 
ATOM     40  C   UNL A   1      39.783  29.134  30.629  1.00  0.00     0.031 A 
ATOM     41  C   UNL A   1      39.061  29.512  28.356  1.00  0.00     0.131 A 
ATOM     42  C   UNL A   1      38.446  29.187  31.037  1.00  0.00     0.055 A 
ATOM     43  C   UNL A   1      37.735  29.621  28.776  1.00  0.00     0.041 A 
ATOM     44  F   UNL A   1      39.316  29.647  27.045  1.00  0.00    -0.206 F 
ATOM     45  C   UNL A   1      37.420  29.439  30.120  1.00  0.00     0.022 A 
BRANCH  42  46
ATOM     46  S   UNL A   1      37.979  28.844  32.755  1.00  0.00     0.124 S 
ATOM     47  O   UNL A   1      38.046  27.384  32.799  1.00  0.00    -0.237 OA
ATOM     48  O   UNL A   1      39.025  29.540  33.499  1.00  0.00    -0.237 OA
ATOM     49  O   UNL A   1      36.638  29.404  32.873  1.00  0.00    -0.744 OA
ENDBRANCH  42  46
ENDBRANCH  25  39
BRANCH  26  50
ATOM     50  C   UNL A   1      49.356  27.075  26.081  1.00  0.00     0.023 A 
ATOM     51  C   UNL A   1      50.380  26.865  27.021  1.00  0.00     0.031 A 
ATOM     52  C   UNL A   1      49.698  27.032  24.717  1.00  0.00     0.131 A 
ATOM     53  C   UNL A   1      51.700  26.680  26.588  1.00  0.00     0.055 A 
ATOM     54  C   UNL A   1      51.001  26.770  24.288  1.00  0.00     0.041 A 
ATOM     55  F   UNL A   1      48.763  27.243  23.777  1.00  0.00    -0.206 F 
ATOM     56  C   UNL A   1      52.013  26.608  25.227  1.00  0.00     0.022 A 
BRANCH  53  57
ATOM     57  S   UNL A   1      53.073  26.652  27.775  1.00  0.00     0.124 S 
ATOM     58  O   UNL A   1      52.433  26.112  28.970  1.00  0.00    -0.237 OA
ATOM     59  O   UNL A   1      54.023  25.763  27.110  1.00  0.00    -0.237 OA
ATOM     60  O   UNL A   1      53.487  28.049  27.856  1.00  0.00    -0.744 OA
ENDBRANCH  53  57
ENDBRANCH  26  50
BRANCH  38  61
ATOM     61  C   UNL A   1      46.366  32.753  28.970  1.00  0.00     0.023 A 
ATOM     62  C   UNL A   1      46.396  33.802  28.028  1.00  0.00     0.031 A 
ATOM     63  C   UNL A   1      46.968  32.969  30.220  1.00  0.00     0.131 A 
ATOM     64  C   UNL A   1      47.056  34.998  28.334  1.00  0.00     0.055 A 
ATOM     65  C   UNL A   1      47.571  34.185  30.543  1.00  0.00     0.041 A 
ATOM     66  F   UNL A   1      46.988  31.996  31.145  1.00  0.00    -0.206 F 
ATOM     67  C   UNL A   1      47.632  35.200  29.592  1.00  0.00     0.022 A 
BRANCH  64  68
ATOM     68  S   UNL A   1      47.291  36.286  27.078  1.00  0.00     0.124 S 
ATOM     69  O   UNL A   1      47.820  37.391  27.874  1.00  0.00    -0.237 OA
ATOM     70  O   UNL A   1      48.248  35.659  26.170  1.00  0.00    -0.237 OA
ATOM     71  O   UNL A   1      45.954  36.496  26.532  1.00  0.00    -0.744 OA
ENDBRANCH  64  68
ENDBRANCH  38  61
ENDBRANCH  12  13
ENDBRANCH   5   7
ENDBRANCH   2   3
ENDBRANCH   1   2
BRANCH   1  72
ATOM     72  C   UNL A   1      36.868  20.831  24.949  1.00  0.00     0.002 C 
BRANCH  72  73
ATOM     73  C   UNL A   1      36.959  22.071  24.054  1.00  0.00     0.002 C 
BRANCH  73  74
ATOM     74  C   UNL A   1      35.641  22.816  23.831  1.00  0.00     0.021 C 
BRANCH  74  75
ATOM     75  C   UNL A   1      35.337  23.904  24.854  1.00  0.00     0.116 C 
BRANCH  75  76
ATOM     76  N   UNL A   1      34.494  23.429  25.942  1.00  0.00    -0.352 N 
ATOM     77  C   UNL A   1      33.331  23.963  26.429  1.00  0.00     0.256 C 
ATOM     78  H   UNL A   1      34.802  22.608  26.390  1.00  0.00     0.163 HD
ATOM     79  O   UNL A   1      32.747  23.428  27.371  1.00  0.00    -0.269 OA
BRANCH  77  80
ATOM     80  C   UNL A   1      32.791  25.158  25.759  1.00  0.00     0.104 A 
ATOM     81  C   UNL A   1      33.481  26.304  25.852  1.00  0.00     0.104 A 
ATOM     82  C   UNL A   1      31.499  25.170  25.047  1.00  0.00     0.202 A 
ATOM     83  N   UNL A   1      33.057  27.544  25.418  1.00  0.00    -0.343 N 
ATOM     84  C   UNL A   1      31.058  26.469  24.479  1.00  0.00     0.047 A 
ATOM     85  O   UNL A   1      30.796  24.171  24.945  1.00  0.00    -0.288 OA
ATOM     86  C   UNL A   1      31.848  27.621  24.660  1.00  0.00     0.054 A 
ATOM     87  C   UNL A   1      29.834  26.532  23.802  1.00  0.00     0.016 A 
ATOM     88  C   UNL A   1      31.388  28.819  24.092  1.00  0.00     0.053 A 
ATOM     89  C   UNL A   1      29.379  27.752  23.304  1.00  0.00     0.027 A 
ATOM     90  C   UNL A   1      30.149  28.911  23.438  1.00  0.00     0.039 A 
BRANCH  83  91
ATOM     91  C   UNL A   1      33.718  28.772  25.935  1.00  0.00     0.087 C 
ATOM     92  C   UNL A   1      33.293  29.565  27.147  1.00  0.00     0.027 C 
ATOM     93  C   UNL A   1      34.546  28.740  27.192  1.00  0.00     0.027 C 
ENDBRANCH  83  91
BRANCH  90  94
ATOM     94  N   UNL A   1      29.721  30.127  22.952  1.00  0.00    -0.360 N 
ATOM     95  C   UNL A   1      29.520  30.301  21.513  1.00  0.00     0.178 C 
ATOM     96  C   UNL A   1      29.159  31.151  23.835  1.00  0.00     0.178 C 
ATOM     97  C   UNL A   1      28.035  30.621  21.223  1.00  0.00     0.282 C 
ATOM     98  C   UNL A   1      27.697  31.469  23.450  1.00  0.00     0.282 C 
ATOM     99  N   UNL A   1      27.509  31.761  22.009  1.00  0.00    -0.343 N 
ATOM    100  H   UNL A   1      26.517  31.886  21.810  1.00  0.00     0.346 HD
ATOM    101  H   UNL A   1      28.008  32.615  21.759  1.00  0.00     0.346 HD
ENDBRANCH  90  94
ENDBRANCH  77  80
ENDBRANCH  75  76
ENDBRANCH  74  75
ENDBRANCH  73  74
ENDBRANCH  72  73
ENDBRANCH   1  72
TORSDOF 18
ENDMDL
