MODEL 1
REMARK VINA RESULT:     -11.3      0.000      0.000
REMARK SMILES O=C(CCc1cccnc1)Nc1ccsc1C(=O)NCCCCCCNC(=O)c1ccc(-c2c3nc(c(-c4cc(S(=O)(=O)[O-])ccc4F)c4ccc([nH]4)c(-c4cc(S(=O)(=O)[O-])ccc4F)c4nc(c(-c5cc(S(=O)(=O)[O-])ccc5F)c5ccc2[nH]5)C=C4)C=C3)cc1
REMARK SMILES IDX 22 1 21 2 20 3 19 4 17 5 18 6 16 8 12 9 13 10 14 11 15 12
REMARK SMILES IDX 11 13 1 14 2 15 3 17 4 18 5 19 6 20 10 21 7 22 9 23 8 24
REMARK SMILES IDX 23 25 24 26 25 27 26 28 27 29 28 31 29 32 30 33 91 34 31 35
REMARK SMILES IDX 90 36 32 37 33 38 34 39 84 40 35 41 89 42 83 43 85 44 36 45
REMARK SMILES IDX 88 46 82 47 81 48 37 50 69 51 49 52 68 53 50 54 53 55 67 56
REMARK SMILES IDX 86 57 51 58 52 59 66 61 87 62 54 63 38 64 39 65 47 66 40 67
REMARK SMILES IDX 46 68 48 69 45 70 41 71 42 72 43 73 44 74 70 75 71 76 79 77
REMARK SMILES IDX 72 78 78 79 80 80 77 81 73 82 74 83 75 84 76 85 55 86 56 87
REMARK SMILES IDX 64 88 57 89 63 90 65 91 62 92 58 93 59 94 60 95 61 96
REMARK H PARENT 19 7 11 16 26 30 85 49 53 60
REMARK Flexibility Score: inf
ROOT
ATOM      1  C   UNL A   1      32.625  29.374  25.793  1.00  0.00     0.002 C 
ENDROOT
BRANCH   1   2
ATOM      2  C   UNL A   1      32.599  28.019  25.042  1.00  0.00     0.021 C 
BRANCH   2   3
ATOM      3  C   UNL A   1      33.539  26.811  25.201  1.00  0.00     0.116 C 
BRANCH   3   4
ATOM      4  N   UNL A   1      34.051  26.123  24.037  1.00  0.00    -0.351 N 
ATOM      5  C   UNL A   1      33.717  24.865  23.530  1.00  0.00     0.263 C 
ATOM      6  O   UNL A   1      34.339  24.535  22.515  1.00  0.00    -0.268 OA
ATOM      7  H   UNL A   1      34.736  26.614  23.527  1.00  0.00     0.163 HD
BRANCH   5   8
ATOM      8  C   UNL A   1      32.732  23.981  24.171  1.00  0.00     0.115 A 
ATOM      9  C   UNL A   1      31.367  24.080  24.409  1.00  0.00     0.065 A 
ATOM     10  C   UNL A   1      30.856  22.991  25.182  1.00  0.00     0.038 A 
ATOM     11  C   UNL A   1      31.795  22.008  25.381  1.00  0.00     0.068 A 
ATOM     12  S   UNL A   1      33.314  22.449  24.741  1.00  0.00    -0.137 S 
BRANCH   9  13
ATOM     13  N   UNL A   1      30.576  25.079  23.872  1.00  0.00    -0.325 N 
ATOM     14  O   UNL A   1      29.817  26.028  25.827  1.00  0.00    -0.275 OA
ATOM     15  C   UNL A   1      29.812  25.961  24.600  1.00  0.00     0.224 C 
ATOM     16  H   UNL A   1      30.559  25.165  22.891  1.00  0.00     0.169 HD
BRANCH  15  17
ATOM     17  C   UNL A   1      28.915  26.888  23.784  1.00  0.00     0.105 C 
BRANCH  17  18
ATOM     18  C   UNL A   1      29.594  27.835  22.791  1.00  0.00     0.047 C 
BRANCH  18  19
ATOM     19  C   UNL A   1      29.018  29.230  22.677  1.00  0.00    -0.029 A 
ATOM     20  C   UNL A   1      27.901  29.631  23.422  1.00  0.00     0.007 A 
ATOM     21  C   UNL A   1      29.585  30.197  21.863  1.00  0.00     0.114 A 
ATOM     22  C   UNL A   1      27.427  30.935  23.377  1.00  0.00     0.020 A 
ATOM     23  N   UNL A   1      29.153  31.479  21.799  1.00  0.00    -0.264 NA
ATOM     24  C   UNL A   1      28.087  31.819  22.556  1.00  0.00     0.111 A 
ENDBRANCH  18  19
ENDBRANCH  17  18
ENDBRANCH  15  17
ENDBRANCH   9  13
ENDBRANCH   5   8
ENDBRANCH   3   4
ENDBRANCH   2   3
ENDBRANCH   1   2
BRANCH   1  25
ATOM     25  C   UNL A   1      31.459  30.199  26.366  1.00  0.00     0.002 C 
BRANCH  25  26
ATOM     26  C   UNL A   1      31.515  31.721  26.540  1.00  0.00     0.021 C 
BRANCH  26  27
ATOM     27  C   UNL A   1      32.798  32.370  27.049  1.00  0.00     0.116 C 
BRANCH  27  28
ATOM     28  N   UNL A   1      32.601  33.757  27.427  1.00  0.00    -0.352 N 
ATOM     29  C   UNL A   1      33.130  34.468  28.484  1.00  0.00     0.251 C 
ATOM     30  H   UNL A   1      31.998  34.268  26.840  1.00  0.00     0.163 HD
ATOM     31  O   UNL A   1      32.627  35.550  28.776  1.00  0.00    -0.269 OA
BRANCH  29  32
ATOM     32  C   UNL A   1      34.286  33.956  29.268  1.00  0.00     0.039 A 
ATOM     33  C   UNL A   1      35.582  34.363  28.920  1.00  0.00     0.014 A 
ATOM     34  C   UNL A   1      34.118  33.011  30.283  1.00  0.00     0.014 A 
ATOM     35  C   UNL A   1      36.693  33.851  29.605  1.00  0.00     0.010 A 
ATOM     36  C   UNL A   1      35.221  32.551  31.008  1.00  0.00     0.010 A 
ATOM     37  C   UNL A   1      36.523  32.949  30.667  1.00  0.00    -0.014 A 
BRANCH  37  38
ATOM     38  C   UNL A   1      37.686  32.362  31.391  1.00  0.00     0.031 A 
ATOM     39  C   UNL A   1      38.462  31.227  30.769  1.00  0.00     0.074 A 
ATOM     40  C   UNL A   1      38.010  32.798  32.626  1.00  0.00     0.049 A 
ATOM     41  N   UNL A   1      39.428  30.501  31.272  1.00  0.00    -0.248 NA
ATOM     42  C   UNL A   1      38.066  30.836  29.408  1.00  0.00     0.031 C 
ATOM     43  C   UNL A   1      37.323  33.870  33.348  1.00  0.00     0.029 A 
ATOM     44  N   UNL A   1      38.990  32.389  33.495  1.00  0.00    -0.354 N 
ATOM     45  C   UNL A   1      39.738  29.553  30.301  1.00  0.00     0.074 A 
ATOM     46  C   UNL A   1      38.808  29.758  29.210  1.00  0.00     0.031 C 
ATOM     47  C   UNL A   1      37.919  34.049  34.539  1.00  0.00     0.029 A 
ATOM     48  C   UNL A   1      38.999  33.078  34.686  1.00  0.00     0.049 A 
ATOM     49  H   UNL A   1      39.629  31.669  33.286  1.00  0.00     0.167 HD
ATOM     50  C   UNL A   1      40.722  28.617  30.303  1.00  0.00     0.034 A 
ATOM     51  C   UNL A   1      39.782  32.938  35.776  1.00  0.00     0.034 A 
ATOM     52  C   UNL A   1      41.656  28.444  31.391  1.00  0.00     0.049 A 
ATOM     53  C   UNL A   1      40.858  31.881  35.768  1.00  0.00     0.074 A 
ATOM     54  C   UNL A   1      42.721  27.565  31.484  1.00  0.00     0.029 A 
ATOM     55  N   UNL A   1      41.636  29.167  32.577  1.00  0.00    -0.354 N 
ATOM     56  N   UNL A   1      41.160  31.016  34.826  1.00  0.00    -0.248 NA
ATOM     57  C   UNL A   1      41.706  31.788  36.964  1.00  0.00     0.031 C 
ATOM     58  C   UNL A   1      43.305  27.713  32.747  1.00  0.00     0.029 A 
ATOM     59  C   UNL A   1      42.652  28.738  33.416  1.00  0.00     0.049 A 
ATOM     60  H   UNL A   1      40.993  29.882  32.790  1.00  0.00     0.167 HD
ATOM     61  C   UNL A   1      42.254  30.299  35.305  1.00  0.00     0.074 A 
ATOM     62  C   UNL A   1      42.566  30.844  36.611  1.00  0.00     0.031 C 
ATOM     63  C   UNL A   1      42.943  29.288  34.719  1.00  0.00     0.034 A 
BRANCH  50  64
ATOM     64  C   UNL A   1      40.813  27.700  29.102  1.00  0.00     0.023 A 
ATOM     65  C   UNL A   1      41.769  27.904  28.091  1.00  0.00     0.031 A 
ATOM     66  C   UNL A   1      39.906  26.639  28.939  1.00  0.00     0.131 A 
ATOM     67  C   UNL A   1      41.732  27.128  26.922  1.00  0.00     0.055 A 
ATOM     68  C   UNL A   1      39.935  25.809  27.815  1.00  0.00     0.041 A 
ATOM     69  F   UNL A   1      38.958  26.400  29.860  1.00  0.00    -0.206 F 
ATOM     70  C   UNL A   1      40.839  26.065  26.788  1.00  0.00     0.022 A 
BRANCH  67  71
ATOM     71  S   UNL A   1      42.753  27.644  25.514  1.00  0.00     0.124 S 
ATOM     72  O   UNL A   1      42.701  26.457  24.663  1.00  0.00    -0.237 OA
ATOM     73  O   UNL A   1      42.045  28.817  25.021  1.00  0.00    -0.237 OA
ATOM     74  O   UNL A   1      44.060  27.909  26.119  1.00  0.00    -0.744 OA
ENDBRANCH  67  71
ENDBRANCH  50  64
BRANCH  51  75
ATOM     75  C   UNL A   1      39.589  33.817  36.966  1.00  0.00     0.023 A 
ATOM     76  C   UNL A   1      39.000  33.320  38.141  1.00  0.00     0.031 A 
ATOM     77  C   UNL A   1      39.956  35.174  36.939  1.00  0.00     0.131 A 
ATOM     78  C   UNL A   1      38.754  34.181  39.222  1.00  0.00     0.055 A 
ATOM     79  C   UNL A   1      39.756  36.016  38.036  1.00  0.00     0.041 A 
ATOM     80  F   UNL A   1      40.527  35.702  35.844  1.00  0.00    -0.206 F 
ATOM     81  C   UNL A   1      39.141  35.522  39.182  1.00  0.00     0.022 A 
BRANCH  78  82
ATOM     82  S   UNL A   1      37.846  33.539  40.655  1.00  0.00     0.124 S 
ATOM     83  O   UNL A   1      37.754  34.722  41.503  1.00  0.00    -0.237 OA
ATOM     84  O   UNL A   1      36.599  33.088  40.044  1.00  0.00    -0.237 OA
ATOM     85  O   UNL A   1      38.712  32.474  41.157  1.00  0.00    -0.744 OA
ENDBRANCH  78  82
ENDBRANCH  51  75
BRANCH  63  86
ATOM     86  C   UNL A   1      44.130  28.740  35.473  1.00  0.00     0.023 A 
ATOM     87  C   UNL A   1      44.009  27.655  36.357  1.00  0.00     0.031 A 
ATOM     88  C   UNL A   1      45.400  29.321  35.307  1.00  0.00     0.131 A 
ATOM     89  C   UNL A   1      45.127  27.217  37.083  1.00  0.00     0.055 A 
ATOM     90  C   UNL A   1      46.520  28.844  35.988  1.00  0.00     0.041 A 
ATOM     91  F   UNL A   1      45.572  30.361  34.476  1.00  0.00    -0.206 F 
ATOM     92  C   UNL A   1      46.385  27.793  36.891  1.00  0.00     0.022 A 
BRANCH  89  93
ATOM     93  S   UNL A   1      44.896  25.939  38.349  1.00  0.00     0.124 S 
ATOM     94  O   UNL A   1      46.270  25.532  38.623  1.00  0.00    -0.237 OA
ATOM     95  O   UNL A   1      44.223  26.674  39.415  1.00  0.00    -0.237 OA
ATOM     96  O   UNL A   1      44.074  24.934  37.676  1.00  0.00    -0.744 OA
ENDBRANCH  89  93
ENDBRANCH  63  86
ENDBRANCH  37  38
ENDBRANCH  29  32
ENDBRANCH  27  28
ENDBRANCH  26  27
ENDBRANCH  25  26
ENDBRANCH   1  25
TORSDOF 20
ENDMDL
MODEL 2
REMARK VINA RESULT:     -11.0      1.871      4.234
REMARK SMILES O=C(CCc1cccnc1)Nc1ccsc1C(=O)NCCCCCCNC(=O)c1ccc(-c2c3nc(c(-c4cc(S(=O)(=O)[O-])ccc4F)c4ccc([nH]4)c(-c4cc(S(=O)(=O)[O-])ccc4F)c4nc(c(-c5cc(S(=O)(=O)[O-])ccc5F)c5ccc2[nH]5)C=C4)C=C3)cc1
REMARK SMILES IDX 22 1 21 2 20 3 19 4 17 5 18 6 16 8 12 9 13 10 14 11 15 12
REMARK SMILES IDX 11 13 1 14 2 15 3 17 4 18 5 19 6 20 10 21 7 22 9 23 8 24
REMARK SMILES IDX 23 25 24 26 25 27 26 28 27 29 28 31 29 32 30 33 91 34 31 35
REMARK SMILES IDX 90 36 32 37 33 38 34 39 84 40 35 41 89 42 83 43 85 44 36 45
REMARK SMILES IDX 88 46 82 47 81 48 37 50 69 51 49 52 68 53 50 54 53 55 67 56
REMARK SMILES IDX 86 57 51 58 52 59 66 61 87 62 54 63 38 64 39 65 47 66 40 67
REMARK SMILES IDX 46 68 48 69 45 70 41 71 42 72 43 73 44 74 70 75 71 76 79 77
REMARK SMILES IDX 72 78 78 79 80 80 77 81 73 82 74 83 75 84 76 85 55 86 56 87
REMARK SMILES IDX 64 88 57 89 63 90 65 91 62 92 58 93 59 94 60 95 61 96
REMARK H PARENT 19 7 11 16 26 30 85 49 53 60
REMARK Flexibility Score: inf
ROOT
ATOM      1  C   UNL A   1      32.679  29.822  26.328  1.00  0.00     0.002 C 
ENDROOT
BRANCH   1   2
ATOM      2  C   UNL A   1      32.855  28.410  25.717  1.00  0.00     0.021 C 
BRANCH   2   3
ATOM      3  C   UNL A   1      32.925  27.050  26.435  1.00  0.00     0.116 C 
BRANCH   3   4
ATOM      4  N   UNL A   1      31.760  26.196  26.499  1.00  0.00    -0.351 N 
ATOM      5  C   UNL A   1      31.179  25.409  25.503  1.00  0.00     0.263 C 
ATOM      6  O   UNL A   1      30.169  24.790  25.854  1.00  0.00    -0.268 OA
ATOM      7  H   UNL A   1      31.310  26.165  27.375  1.00  0.00     0.163 HD
BRANCH   5   8
ATOM      8  C   UNL A   1      31.700  25.347  24.128  1.00  0.00     0.115 A 
ATOM      9  C   UNL A   1      32.646  24.550  23.497  1.00  0.00     0.065 A 
ATOM     10  C   UNL A   1      32.899  24.947  22.147  1.00  0.00     0.038 A 
ATOM     11  C   UNL A   1      32.033  25.927  21.723  1.00  0.00     0.068 A 
ATOM     12  S   UNL A   1      31.004  26.445  22.981  1.00  0.00    -0.137 S 
BRANCH   9  13
ATOM     13  N   UNL A   1      33.210  23.434  24.088  1.00  0.00    -0.325 N 
ATOM     14  O   UNL A   1      32.190  21.803  22.823  1.00  0.00    -0.275 OA
ATOM     15  C   UNL A   1      32.919  22.130  23.757  1.00  0.00     0.224 C 
ATOM     16  H   UNL A   1      33.872  23.584  24.801  1.00  0.00     0.169 HD
BRANCH  15  17
ATOM     17  C   UNL A   1      33.564  21.065  24.639  1.00  0.00     0.105 C 
BRANCH  17  18
ATOM     18  C   UNL A   1      32.645  20.016  25.269  1.00  0.00     0.047 C 
BRANCH  18  19
ATOM     19  C   UNL A   1      32.925  18.570  24.923  1.00  0.00    -0.029 A 
ATOM     20  C   UNL A   1      33.490  18.199  23.697  1.00  0.00     0.007 A 
ATOM     21  C   UNL A   1      32.673  17.538  25.813  1.00  0.00     0.114 A 
ATOM     22  C   UNL A   1      33.821  16.881  23.416  1.00  0.00     0.020 A 
ATOM     23  N   UNL A   1      32.987  16.243  25.576  1.00  0.00    -0.264 NA
ATOM     24  C   UNL A   1      33.554  15.943  24.387  1.00  0.00     0.111 A 
ENDBRANCH  18  19
ENDBRANCH  17  18
ENDBRANCH  15  17
ENDBRANCH   9  13
ENDBRANCH   5   8
ENDBRANCH   3   4
ENDBRANCH   2   3
ENDBRANCH   1   2
BRANCH   1  25
ATOM     25  C   UNL A   1      31.467  30.769  26.274  1.00  0.00     0.002 C 
BRANCH  25  26
ATOM     26  C   UNL A   1      31.562  32.270  26.575  1.00  0.00     0.021 C 
BRANCH  26  27
ATOM     27  C   UNL A   1      32.753  32.801  27.366  1.00  0.00     0.116 C 
BRANCH  27  28
ATOM     28  N   UNL A   1      32.579  34.187  27.758  1.00  0.00    -0.352 N 
ATOM     29  C   UNL A   1      33.135  34.884  28.810  1.00  0.00     0.251 C 
ATOM     30  H   UNL A   1      31.971  34.709  27.186  1.00  0.00     0.163 HD
ATOM     31  O   UNL A   1      32.650  35.970  29.119  1.00  0.00    -0.269 OA
BRANCH  29  32
ATOM     32  C   UNL A   1      34.299  34.353  29.570  1.00  0.00     0.039 A 
ATOM     33  C   UNL A   1      35.596  34.614  29.104  1.00  0.00     0.014 A 
ATOM     34  C   UNL A   1      34.128  33.526  30.683  1.00  0.00     0.014 A 
ATOM     35  C   UNL A   1      36.708  34.077  29.767  1.00  0.00     0.010 A 
ATOM     36  C   UNL A   1      35.239  33.046  31.381  1.00  0.00     0.010 A 
ATOM     37  C   UNL A   1      36.541  33.298  30.923  1.00  0.00    -0.014 A 
BRANCH  37  38
ATOM     38  C   UNL A   1      37.703  32.686  31.630  1.00  0.00     0.031 A 
ATOM     39  C   UNL A   1      38.433  31.523  31.004  1.00  0.00     0.074 A 
ATOM     40  C   UNL A   1      38.064  33.125  32.853  1.00  0.00     0.049 A 
ATOM     41  N   UNL A   1      39.389  30.776  31.496  1.00  0.00    -0.248 NA
ATOM     42  C   UNL A   1      37.999  31.129  29.656  1.00  0.00     0.031 C 
ATOM     43  C   UNL A   1      37.422  34.224  33.577  1.00  0.00     0.029 A 
ATOM     44  N   UNL A   1      39.050  32.698  33.707  1.00  0.00    -0.354 N 
ATOM     45  C   UNL A   1      39.653  29.809  30.528  1.00  0.00     0.074 A 
ATOM     46  C   UNL A   1      38.706  30.029  29.454  1.00  0.00     0.031 C 
ATOM     47  C   UNL A   1      38.047  34.398  34.754  1.00  0.00     0.029 A 
ATOM     48  C   UNL A   1      39.102  33.399  34.889  1.00  0.00     0.049 A 
ATOM     49  H   UNL A   1      39.664  31.958  33.492  1.00  0.00     0.167 HD
ATOM     50  C   UNL A   1      40.610  28.846  30.521  1.00  0.00     0.034 A 
ATOM     51  C   UNL A   1      39.903  33.248  35.964  1.00  0.00     0.034 A 
ATOM     52  C   UNL A   1      41.561  28.658  31.591  1.00  0.00     0.049 A 
ATOM     53  C   UNL A   1      40.949  32.161  35.946  1.00  0.00     0.074 A 
ATOM     54  C   UNL A   1      42.603  27.750  31.673  1.00  0.00     0.029 A 
ATOM     55  N   UNL A   1      41.585  29.394  32.770  1.00  0.00    -0.354 N 
ATOM     56  N   UNL A   1      41.208  31.278  35.008  1.00  0.00    -0.248 NA
ATOM     57  C   UNL A   1      41.818  32.057  37.126  1.00  0.00     0.031 C 
ATOM     58  C   UNL A   1      43.216  27.896  32.922  1.00  0.00     0.029 A 
ATOM     59  C   UNL A   1      42.606  28.945  33.593  1.00  0.00     0.049 A 
ATOM     60  H   UNL A   1      40.967  30.129  32.989  1.00  0.00     0.167 HD
ATOM     61  C   UNL A   1      42.291  30.536  35.473  1.00  0.00     0.074 A 
ATOM     62  C   UNL A   1      42.644  31.086  36.766  1.00  0.00     0.031 C 
ATOM     63  C   UNL A   1      42.939  29.500  34.884  1.00  0.00     0.034 A 
BRANCH  50  64
ATOM     64  C   UNL A   1      40.651  27.915  29.329  1.00  0.00     0.023 A 
ATOM     65  C   UNL A   1      41.602  28.071  28.305  1.00  0.00     0.031 A 
ATOM     66  C   UNL A   1      39.700  26.889  29.187  1.00  0.00     0.131 A 
ATOM     67  C   UNL A   1      41.521  27.285  27.145  1.00  0.00     0.055 A 
ATOM     68  C   UNL A   1      39.684  26.048  28.071  1.00  0.00     0.041 A 
ATOM     69  F   UNL A   1      38.754  26.697  30.120  1.00  0.00    -0.206 F 
ATOM     70  C   UNL A   1      40.585  26.257  27.032  1.00  0.00     0.022 A 
BRANCH  67  71
ATOM     71  S   UNL A   1      42.546  27.746  25.720  1.00  0.00     0.124 S 
ATOM     72  O   UNL A   1      42.157  26.736  24.739  1.00  0.00    -0.237 OA
ATOM     73  O   UNL A   1      42.111  29.108  25.444  1.00  0.00    -0.237 OA
ATOM     74  O   UNL A   1      43.913  27.615  26.227  1.00  0.00    -0.744 OA
ENDBRANCH  67  71
ENDBRANCH  50  64
BRANCH  51  75
ATOM     75  C   UNL A   1      39.760  34.144  37.149  1.00  0.00     0.023 A 
ATOM     76  C   UNL A   1      39.129  33.694  38.321  1.00  0.00     0.031 A 
ATOM     77  C   UNL A   1      40.216  35.474  37.118  1.00  0.00     0.131 A 
ATOM     78  C   UNL A   1      38.932  34.575  39.395  1.00  0.00     0.055 A 
ATOM     79  C   UNL A   1      40.064  36.333  38.210  1.00  0.00     0.041 A 
ATOM     80  F   UNL A   1      40.830  35.957  36.026  1.00  0.00    -0.206 F 
ATOM     81  C   UNL A   1      39.407  35.887  39.353  1.00  0.00     0.022 A 
BRANCH  78  82
ATOM     82  S   UNL A   1      37.971  34.003  40.824  1.00  0.00     0.124 S 
ATOM     83  O   UNL A   1      37.524  35.263  41.405  1.00  0.00    -0.237 OA
ATOM     84  O   UNL A   1      36.941  33.188  40.187  1.00  0.00    -0.237 OA
ATOM     85  O   UNL A   1      38.950  33.260  41.616  1.00  0.00    -0.744 OA
ENDBRANCH  78  82
ENDBRANCH  51  75
BRANCH  63  86
ATOM     86  C   UNL A   1      44.125  28.927  35.619  1.00  0.00     0.023 A 
ATOM     87  C   UNL A   1      43.991  27.862  36.526  1.00  0.00     0.031 A 
ATOM     88  C   UNL A   1      45.410  29.463  35.414  1.00  0.00     0.131 A 
ATOM     89  C   UNL A   1      45.111  27.400  37.233  1.00  0.00     0.055 A 
ATOM     90  C   UNL A   1      46.530  28.961  36.076  1.00  0.00     0.041 A 
ATOM     91  F   UNL A   1      45.595  30.483  34.560  1.00  0.00    -0.206 F 
ATOM     92  C   UNL A   1      46.383  27.932  37.001  1.00  0.00     0.022 A 
BRANCH  89  93
ATOM     93  S   UNL A   1      44.870  26.153  38.527  1.00  0.00     0.124 S 
ATOM     94  O   UNL A   1      43.509  26.435  38.971  1.00  0.00    -0.237 OA
ATOM     95  O   UNL A   1      45.057  24.904  37.796  1.00  0.00    -0.237 OA
ATOM     96  O   UNL A   1      45.917  26.462  39.501  1.00  0.00    -0.744 OA
ENDBRANCH  89  93
ENDBRANCH  63  86
ENDBRANCH  37  38
ENDBRANCH  29  32
ENDBRANCH  27  28
ENDBRANCH  26  27
ENDBRANCH  25  26
ENDBRANCH   1  25
TORSDOF 20
ENDMDL
MODEL 3
REMARK VINA RESULT:     -11.0      1.958      3.911
REMARK SMILES O=C(CCc1cccnc1)Nc1ccsc1C(=O)NCCCCCCNC(=O)c1ccc(-c2c3nc(c(-c4cc(S(=O)(=O)[O-])ccc4F)c4ccc([nH]4)c(-c4cc(S(=O)(=O)[O-])ccc4F)c4nc(c(-c5cc(S(=O)(=O)[O-])ccc5F)c5ccc2[nH]5)C=C4)C=C3)cc1
REMARK SMILES IDX 22 1 21 2 20 3 19 4 17 5 18 6 16 8 12 9 13 10 14 11 15 12
REMARK SMILES IDX 11 13 1 14 2 15 3 17 4 18 5 19 6 20 10 21 7 22 9 23 8 24
REMARK SMILES IDX 23 25 24 26 25 27 26 28 27 29 28 31 29 32 30 33 91 34 31 35
REMARK SMILES IDX 90 36 32 37 33 38 34 39 84 40 35 41 89 42 83 43 85 44 36 45
REMARK SMILES IDX 88 46 82 47 81 48 37 50 69 51 49 52 68 53 50 54 53 55 67 56
REMARK SMILES IDX 86 57 51 58 52 59 66 61 87 62 54 63 38 64 39 65 47 66 40 67
REMARK SMILES IDX 46 68 48 69 45 70 41 71 42 72 43 73 44 74 70 75 71 76 79 77
REMARK SMILES IDX 72 78 78 79 80 80 77 81 73 82 74 83 75 84 76 85 55 86 56 87
REMARK SMILES IDX 64 88 57 89 63 90 65 91 62 92 58 93 59 94 60 95 61 96
REMARK H PARENT 19 7 11 16 26 30 85 49 53 60
REMARK Flexibility Score: inf
ROOT
ATOM      1  C   UNL A   1      32.820  29.690  25.700  1.00  0.00     0.002 C 
ENDROOT
BRANCH   1   2
ATOM      2  C   UNL A   1      33.212  28.495  26.604  1.00  0.00     0.021 C 
BRANCH   2   3
ATOM      3  C   UNL A   1      33.031  26.989  26.343  1.00  0.00     0.116 C 
BRANCH   3   4
ATOM      4  N   UNL A   1      31.756  26.352  26.588  1.00  0.00    -0.351 N 
ATOM      5  C   UNL A   1      30.678  26.159  25.722  1.00  0.00     0.263 C 
ATOM      6  O   UNL A   1      29.706  25.587  26.225  1.00  0.00    -0.268 OA
ATOM      7  H   UNL A   1      31.630  26.003  27.501  1.00  0.00     0.163 HD
BRANCH   5   8
ATOM      8  C   UNL A   1      30.677  26.633  24.330  1.00  0.00     0.115 A 
ATOM      9  C   UNL A   1      31.168  26.111  23.139  1.00  0.00     0.065 A 
ATOM     10  C   UNL A   1      31.023  27.009  22.036  1.00  0.00     0.038 A 
ATOM     11  C   UNL A   1      30.286  28.121  22.363  1.00  0.00     0.068 A 
ATOM     12  S   UNL A   1      29.874  28.139  24.019  1.00  0.00    -0.137 S 
BRANCH   9  13
ATOM     13  N   UNL A   1      31.657  24.823  23.023  1.00  0.00    -0.325 N 
ATOM     14  O   UNL A   1      33.693  25.296  22.058  1.00  0.00    -0.275 OA
ATOM     15  C   UNL A   1      32.860  24.482  22.450  1.00  0.00     0.224 C 
ATOM     16  H   UNL A   1      31.100  24.093  23.378  1.00  0.00     0.169 HD
BRANCH  15  17
ATOM     17  C   UNL A   1      33.125  22.985  22.311  1.00  0.00     0.105 C 
BRANCH  17  18
ATOM     18  C   UNL A   1      33.344  22.183  23.597  1.00  0.00     0.047 C 
BRANCH  18  19
ATOM     19  C   UNL A   1      34.769  22.070  24.094  1.00  0.00    -0.029 A 
ATOM     20  C   UNL A   1      35.717  23.074  23.856  1.00  0.00     0.007 A 
ATOM     21  C   UNL A   1      35.204  20.989  24.843  1.00  0.00     0.114 A 
ATOM     22  C   UNL A   1      36.998  23.005  24.384  1.00  0.00     0.020 A 
ATOM     23  N   UNL A   1      36.443  20.890  25.379  1.00  0.00    -0.264 NA
ATOM     24  C   UNL A   1      37.311  21.898  25.140  1.00  0.00     0.111 A 
ENDBRANCH  18  19
ENDBRANCH  17  18
ENDBRANCH  15  17
ENDBRANCH   9  13
ENDBRANCH   5   8
ENDBRANCH   3   4
ENDBRANCH   2   3
ENDBRANCH   1   2
BRANCH   1  25
ATOM     25  C   UNL A   1      31.651  30.681  25.838  1.00  0.00     0.002 C 
BRANCH  25  26
ATOM     26  C   UNL A   1      31.642  31.831  26.852  1.00  0.00     0.021 C 
BRANCH  26  27
ATOM     27  C   UNL A   1      32.930  32.602  27.121  1.00  0.00     0.116 C 
BRANCH  27  28
ATOM     28  N   UNL A   1      32.677  33.941  27.620  1.00  0.00    -0.352 N 
ATOM     29  C   UNL A   1      33.160  34.570  28.748  1.00  0.00     0.251 C 
ATOM     30  H   UNL A   1      32.067  34.483  27.069  1.00  0.00     0.163 HD
ATOM     31  O   UNL A   1      32.613  35.603  29.126  1.00  0.00    -0.269 OA
BRANCH  29  32
ATOM     32  C   UNL A   1      34.318  34.028  29.507  1.00  0.00     0.039 A 
ATOM     33  C   UNL A   1      35.618  34.355  29.096  1.00  0.00     0.014 A 
ATOM     34  C   UNL A   1      34.143  33.131  30.563  1.00  0.00     0.014 A 
ATOM     35  C   UNL A   1      36.728  33.812  29.757  1.00  0.00     0.010 A 
ATOM     36  C   UNL A   1      35.249  32.641  31.263  1.00  0.00     0.010 A 
ATOM     37  C   UNL A   1      36.555  32.959  30.859  1.00  0.00    -0.014 A 
BRANCH  37  38
ATOM     38  C   UNL A   1      37.715  32.340  31.561  1.00  0.00     0.031 A 
ATOM     39  C   UNL A   1      38.477  31.216  30.903  1.00  0.00     0.074 A 
ATOM     40  C   UNL A   1      38.048  32.736  32.807  1.00  0.00     0.049 A 
ATOM     41  N   UNL A   1      39.438  30.466  31.381  1.00  0.00    -0.248 NA
ATOM     42  C   UNL A   1      38.072  30.869  29.533  1.00  0.00     0.031 C 
ATOM     43  C   UNL A   1      37.374  33.793  33.563  1.00  0.00     0.029 A 
ATOM     44  N   UNL A   1      39.027  32.292  33.660  1.00  0.00    -0.354 N 
ATOM     45  C   UNL A   1      39.735  29.544  30.381  1.00  0.00     0.074 A 
ATOM     46  C   UNL A   1      38.803  29.790  29.300  1.00  0.00     0.031 C 
ATOM     47  C   UNL A   1      37.976  33.931  34.756  1.00  0.00     0.029 A 
ATOM     48  C   UNL A   1      39.047  32.946  34.871  1.00  0.00     0.049 A 
ATOM     49  H   UNL A   1      39.658  31.572  33.427  1.00  0.00     0.167 HD
ATOM     50  C   UNL A   1      40.710  28.599  30.352  1.00  0.00     0.034 A 
ATOM     51  C   UNL A   1      39.832  32.767  35.952  1.00  0.00     0.034 A 
ATOM     52  C   UNL A   1      41.646  28.385  31.430  1.00  0.00     0.049 A 
ATOM     53  C   UNL A   1      40.898  31.699  35.909  1.00  0.00     0.074 A 
ATOM     54  C   UNL A   1      42.703  27.493  31.494  1.00  0.00     0.029 A 
ATOM     55  N   UNL A   1      41.637  29.073  32.637  1.00  0.00    -0.354 N 
ATOM     56  N   UNL A   1      41.188  30.860  34.942  1.00  0.00    -0.248 NA
ATOM     57  C   UNL A   1      41.749  31.564  37.099  1.00  0.00     0.031 C 
ATOM     58  C   UNL A   1      43.293  27.599  32.758  1.00  0.00     0.029 A 
ATOM     59  C   UNL A   1      42.652  28.609  33.460  1.00  0.00     0.049 A 
ATOM     60  H   UNL A   1      41.002  29.788  32.874  1.00  0.00     0.167 HD
ATOM     61  C   UNL A   1      42.276  30.119  35.395  1.00  0.00     0.074 A 
ATOM     62  C   UNL A   1      42.598  30.622  36.715  1.00  0.00     0.031 C 
ATOM     63  C   UNL A   1      42.953  29.118  34.777  1.00  0.00     0.034 A 
BRANCH  50  64
ATOM     64  C   UNL A   1      40.787  27.717  29.124  1.00  0.00     0.023 A 
ATOM     65  C   UNL A   1      41.720  27.962  28.100  1.00  0.00     0.031 A 
ATOM     66  C   UNL A   1      39.891  26.649  28.950  1.00  0.00     0.131 A 
ATOM     67  C   UNL A   1      41.668  27.218  26.911  1.00  0.00     0.055 A 
ATOM     68  C   UNL A   1      39.907  25.851  27.803  1.00  0.00     0.041 A 
ATOM     69  F   UNL A   1      38.965  26.372  29.883  1.00  0.00    -0.206 F 
ATOM     70  C   UNL A   1      40.786  26.147  26.765  1.00  0.00     0.022 A 
BRANCH  67  71
ATOM     71  S   UNL A   1      42.654  27.786  25.497  1.00  0.00     0.124 S 
ATOM     72  O   UNL A   1      43.926  28.110  26.138  1.00  0.00    -0.237 OA
ATOM     73  O   UNL A   1      42.656  26.621  24.623  1.00  0.00    -0.237 OA
ATOM     74  O   UNL A   1      41.905  28.941  25.000  1.00  0.00    -0.744 OA
ENDBRANCH  67  71
ENDBRANCH  50  64
BRANCH  51  75
ATOM     75  C   UNL A   1      39.653  33.612  37.169  1.00  0.00     0.023 A 
ATOM     76  C   UNL A   1      40.461  34.739  37.389  1.00  0.00     0.031 A 
ATOM     77  C   UNL A   1      38.697  33.287  38.148  1.00  0.00     0.131 A 
ATOM     78  C   UNL A   1      40.331  35.475  38.577  1.00  0.00     0.055 A 
ATOM     79  C   UNL A   1      38.536  34.053  39.306  1.00  0.00     0.041 A 
ATOM     80  F   UNL A   1      37.894  32.223  37.988  1.00  0.00    -0.206 F 
ATOM     81  C   UNL A   1      39.366  35.147  39.531  1.00  0.00     0.022 A 
BRANCH  78  82
ATOM     82  S   UNL A   1      41.502  36.824  38.896  1.00  0.00     0.124 S 
ATOM     83  O   UNL A   1      40.604  37.926  39.222  1.00  0.00    -0.237 OA
ATOM     84  O   UNL A   1      42.287  36.286  40.003  1.00  0.00    -0.237 OA
ATOM     85  O   UNL A   1      42.222  36.955  37.631  1.00  0.00    -0.744 OA
ENDBRANCH  78  82
ENDBRANCH  51  75
BRANCH  63  86
ATOM     86  C   UNL A   1      44.137  28.537  35.510  1.00  0.00     0.023 A 
ATOM     87  C   UNL A   1      43.986  27.541  36.489  1.00  0.00     0.031 A 
ATOM     88  C   UNL A   1      45.437  28.995  35.226  1.00  0.00     0.131 A 
ATOM     89  C   UNL A   1      45.108  27.073  37.189  1.00  0.00     0.055 A 
ATOM     90  C   UNL A   1      46.556  28.483  35.883  1.00  0.00     0.041 A 
ATOM     91  F   UNL A   1      45.639  29.946  34.301  1.00  0.00    -0.206 F 
ATOM     92  C   UNL A   1      46.394  27.525  36.880  1.00  0.00     0.022 A 
BRANCH  89  93
ATOM     93  S   UNL A   1      44.856  25.926  38.571  1.00  0.00     0.124 S 
ATOM     94  O   UNL A   1      44.876  24.631  37.898  1.00  0.00    -0.237 OA
ATOM     95  O   UNL A   1      46.000  26.216  39.430  1.00  0.00    -0.237 OA
ATOM     96  O   UNL A   1      43.558  26.323  39.114  1.00  0.00    -0.744 OA
ENDBRANCH  89  93
ENDBRANCH  63  86
ENDBRANCH  37  38
ENDBRANCH  29  32
ENDBRANCH  27  28
ENDBRANCH  26  27
ENDBRANCH  25  26
ENDBRANCH   1  25
TORSDOF 20
ENDMDL
