MODEL 1
REMARK VINA RESULT:     -10.6      0.000      0.000
REMARK SMILES Cc1c(CC(=O)N[C@H](CO)C(=O)NCCCCCCNC(=O)c2ccc(-c3c4nc(c(-c5cc(S(=O)(=O)[O-])ccc5F)c5ccc([nH]5)c(-c5cc(S(=O)(=O)[O-])ccc5F)c5nc(c(-c6cc(S(=O)(=O)[O-])ccc6F)c6ccc3[nH]6)C=C5)C=C4)cc2)cc(-c2ccc(S(C)(=O)=O)cc2)n1-c1ccc(F)cc1
REMARK SMILES IDX 15 1 14 2 13 3 11 4 12 5 8 7 7 8 5 9 6 10 4 12 3 13 1 14
REMARK SMILES IDX 2 15 98 16 86 17 87 18 99 19 100 20 105 21 101 22 104 23
REMARK SMILES IDX 102 24 103 25 88 26 89 27 97 28 90 29 96 30 91 31 92 32
REMARK SMILES IDX 93 33 94 34 95 35 9 36 10 37 16 39 17 40 18 41 19 42 20 43
REMARK SMILES IDX 21 44 22 46 23 47 24 48 85 49 25 50 84 51 26 52 27 53 28 54
REMARK SMILES IDX 78 55 29 56 83 57 77 58 79 59 30 60 82 61 76 62 75 63 31 65
REMARK SMILES IDX 63 66 43 67 62 68 44 69 47 70 61 71 80 72 45 73 46 74 60 76
REMARK SMILES IDX 81 77 48 78 32 79 33 80 41 81 34 82 40 83 42 84 39 85 35 86
REMARK SMILES IDX 36 87 37 88 38 89 64 90 65 91 73 92 66 93 72 94 74 95 71 96
REMARK SMILES IDX 67 97 68 98 69 99 70 100 49 101 50 102 58 103 51 104 57 105
REMARK SMILES IDX 59 106 56 107 52 108 53 109 54 110 55 111
REMARK H PARENT 13 6 7 11 10 38 20 45 79 64 47 75
REMARK Flexibility Score: inf
ROOT
ATOM      1  C   UNL A   1      42.602  34.473  29.442  1.00  0.00     0.021 C 
ENDROOT
BRANCH   1   2
ATOM      2  C   UNL A   1      41.319  33.533  30.302  1.00  0.00     0.116 C 
BRANCH   2   3
ATOM      3  N   UNL A   1      41.179  32.035  30.343  1.00  0.00    -0.354 N 
ATOM      4  C   UNL A   1      40.745  31.062  31.179  1.00  0.00     0.244 C 
ATOM      5  O   UNL A   1      40.706  29.924  30.681  1.00  0.00    -0.273 OA
ATOM      6  H   UNL A   1      41.507  31.640  29.503  1.00  0.00     0.163 HD
BRANCH   4   7
ATOM      7  C   UNL A   1      40.319  31.219  32.630  1.00  0.00     0.197 C 
BRANCH   7   8
ATOM      8  N   UNL A   1      41.304  30.995  33.696  1.00  0.00    -0.342 N 
ATOM      9  C   UNL A   1      41.469  31.701  34.859  1.00  0.00     0.225 C 
ATOM     10  O   UNL A   1      41.772  31.062  35.873  1.00  0.00    -0.275 OA
ATOM     11  H   UNL A   1      41.924  30.244  33.557  1.00  0.00     0.164 HD
BRANCH   9  12
ATOM     12  C   UNL A   1      41.357  33.224  34.903  1.00  0.00     0.137 C 
BRANCH  12  13
ATOM     13  C   UNL A   1      40.019  33.668  35.428  1.00  0.00    -0.017 A 
ATOM     14  C   UNL A   1      38.921  34.632  33.306  1.00  0.00     0.065 C 
ATOM     15  C   UNL A   1      38.916  34.078  34.700  1.00  0.00     0.024 A 
ATOM     16  N   UNL A   1      37.737  33.812  35.438  1.00  0.00    -0.314 N 
ATOM     17  C   UNL A   1      39.690  33.747  36.800  1.00  0.00     0.033 A 
ATOM     18  C   UNL A   1      38.305  33.656  36.983  1.00  0.00     0.053 A 
BRANCH  16  19
ATOM     19  C   UNL A   1      36.351  33.491  34.563  1.00  0.00     0.046 A 
ATOM     20  C   UNL A   1      36.115  32.475  33.591  1.00  0.00     0.029 A 
ATOM     21  C   UNL A   1      35.322  34.441  34.475  1.00  0.00     0.029 A 
ATOM     22  C   UNL A   1      35.362  32.548  32.417  1.00  0.00     0.041 A 
ATOM     23  C   UNL A   1      34.465  34.513  33.324  1.00  0.00     0.041 A 
ATOM     24  C   UNL A   1      34.586  33.637  32.256  1.00  0.00     0.123 A 
ATOM     25  F   UNL A   1      34.014  33.867  31.074  1.00  0.00    -0.207 F 
ENDBRANCH  16  19
BRANCH  18  26
ATOM     26  C   UNL A   1      37.804  33.142  38.525  1.00  0.00    -0.001 A 
ATOM     27  C   UNL A   1      36.901  32.071  38.847  1.00  0.00     0.011 A 
ATOM     28  C   UNL A   1      38.190  33.804  39.704  1.00  0.00     0.011 A 
ATOM     29  C   UNL A   1      36.046  32.033  39.967  1.00  0.00     0.021 A 
ATOM     30  C   UNL A   1      37.408  33.701  40.920  1.00  0.00     0.021 A 
ATOM     31  C   UNL A   1      36.234  32.940  40.972  1.00  0.00     0.067 A 
BRANCH  31  32
ATOM     32  S   UNL A   1      35.025  32.955  42.288  1.00  0.00     0.175 S 
ATOM     33  C   UNL A   1      35.897  33.375  43.787  1.00  0.00     0.163 C 
ATOM     34  O   UNL A   1      34.105  34.023  42.011  1.00  0.00    -0.224 OA
ATOM     35  O   UNL A   1      34.540  31.577  42.424  1.00  0.00    -0.224 OA
ENDBRANCH  31  32
ENDBRANCH  18  26
ENDBRANCH  12  13
ENDBRANCH   9  12
ENDBRANCH   7   8
BRANCH   7  36
ATOM     36  C   UNL A   1      39.056  30.377  32.837  1.00  0.00     0.191 C 
BRANCH  36  37
ATOM     37  O   UNL A   1      39.126  29.676  34.079  1.00  0.00    -0.394 OA
ATOM     38  H   UNL A   1      40.005  29.797  34.470  1.00  0.00     0.210 HD
ENDBRANCH  36  37
ENDBRANCH   7  36
ENDBRANCH   4   7
ENDBRANCH   2   3
ENDBRANCH   1   2
BRANCH   1  39
ATOM     39  C   UNL A   1      43.500  34.466  27.796  1.00  0.00     0.002 C 
BRANCH  39  40
ATOM     40  C   UNL A   1      44.300  33.238  26.719  1.00  0.00     0.002 C 
BRANCH  40  41
ATOM     41  C   UNL A   1      44.622  31.542  26.838  1.00  0.00     0.021 C 
BRANCH  41  42
ATOM     42  C   UNL A   1      45.719  30.635  27.714  1.00  0.00     0.116 C 
BRANCH  42  43
ATOM     43  N   UNL A   1      46.074  31.024  29.106  1.00  0.00    -0.352 N 
ATOM     44  C   UNL A   1      46.522  32.120  29.884  1.00  0.00     0.251 C 
ATOM     45  H   UNL A   1      45.955  30.243  29.694  1.00  0.00     0.163 HD
ATOM     46  O   UNL A   1      46.663  31.794  31.072  1.00  0.00    -0.269 OA
BRANCH  44  47
ATOM     47  C   UNL A   1      46.771  33.641  29.580  1.00  0.00     0.039 A 
ATOM     48  C   UNL A   1      46.166  34.739  30.181  1.00  0.00     0.014 A 
ATOM     49  C   UNL A   1      47.531  34.030  28.431  1.00  0.00     0.014 A 
ATOM     50  C   UNL A   1      46.403  36.135  29.710  1.00  0.00     0.010 A 
ATOM     51  C   UNL A   1      47.773  35.430  27.961  1.00  0.00     0.010 A 
ATOM     52  C   UNL A   1      47.243  36.578  28.598  1.00  0.00    -0.014 A 
BRANCH  52  53
ATOM     53  C   UNL A   1      46.857  38.058  27.815  1.00  0.00     0.031 A 
ATOM     54  C   UNL A   1      48.078  38.798  28.219  1.00  0.00     0.074 A 
ATOM     55  C   UNL A   1      45.878  38.890  27.182  1.00  0.00     0.049 A 
ATOM     56  N   UNL A   1      48.326  38.852  29.496  1.00  0.00    -0.248 NA
ATOM     57  C   UNL A   1      49.230  39.074  27.372  1.00  0.00     0.031 C 
ATOM     58  C   UNL A   1      44.425  38.644  27.004  1.00  0.00     0.029 A 
ATOM     59  N   UNL A   1      45.919  40.216  26.539  1.00  0.00    -0.354 N 
ATOM     60  C   UNL A   1      49.514  39.502  29.648  1.00  0.00     0.074 A 
ATOM     61  C   UNL A   1      50.123  39.389  28.323  1.00  0.00     0.031 C 
ATOM     62  C   UNL A   1      43.803  39.588  26.220  1.00  0.00     0.029 A 
ATOM     63  C   UNL A   1      44.716  40.656  25.784  1.00  0.00     0.049 A 
ATOM     64  H   UNL A   1      46.715  40.790  26.608  1.00  0.00     0.167 HD
ATOM     65  C   UNL A   1      49.400  40.590  30.468  1.00  0.00     0.034 A 
ATOM     66  C   UNL A   1      44.436  41.804  24.981  1.00  0.00     0.034 A 
ATOM     67  C   UNL A   1      49.174  41.789  29.701  1.00  0.00     0.049 A 
ATOM     68  C   UNL A   1      45.196  42.882  25.602  1.00  0.00     0.074 A 
ATOM     69  C   UNL A   1      49.747  42.256  28.535  1.00  0.00     0.029 A 
ATOM     70  N   UNL A   1      47.955  42.424  29.827  1.00  0.00    -0.354 N 
ATOM     71  N   UNL A   1      44.785  43.460  26.685  1.00  0.00    -0.248 NA
ATOM     72  C   UNL A   1      46.414  43.412  25.015  1.00  0.00     0.031 C 
ATOM     73  C   UNL A   1      48.664  42.735  27.775  1.00  0.00     0.029 A 
ATOM     74  C   UNL A   1      47.598  43.003  28.624  1.00  0.00     0.049 A 
ATOM     75  H   UNL A   1      47.419  42.460  30.651  1.00  0.00     0.167 HD
ATOM     76  C   UNL A   1      45.941  43.956  27.199  1.00  0.00     0.074 A 
ATOM     77  C   UNL A   1      46.811  44.153  26.050  1.00  0.00     0.031 C 
ATOM     78  C   UNL A   1      46.258  43.526  28.448  1.00  0.00     0.034 A 
BRANCH  65  79
ATOM     79  C   UNL A   1      48.701  40.229  31.765  1.00  0.00     0.023 A 
ATOM     80  C   UNL A   1      47.903  41.196  32.388  1.00  0.00     0.031 A 
ATOM     81  C   UNL A   1      48.998  39.056  32.502  1.00  0.00     0.131 A 
ATOM     82  C   UNL A   1      47.484  41.009  33.718  1.00  0.00     0.055 A 
ATOM     83  C   UNL A   1      48.628  38.900  33.838  1.00  0.00     0.041 A 
ATOM     84  F   UNL A   1      49.706  38.056  31.947  1.00  0.00    -0.206 F 
ATOM     85  C   UNL A   1      47.873  39.887  34.458  1.00  0.00     0.022 A 
BRANCH  82  86
ATOM     86  S   UNL A   1      46.406  42.258  34.466  1.00  0.00     0.124 S 
ATOM     87  O   UNL A   1      45.801  41.531  35.577  1.00  0.00    -0.237 OA
ATOM     88  O   UNL A   1      47.360  43.299  34.843  1.00  0.00    -0.237 OA
ATOM     89  O   UNL A   1      45.492  42.625  33.386  1.00  0.00    -0.744 OA
ENDBRANCH  82  86
ENDBRANCH  65  79
BRANCH  66  90
ATOM     90  C   UNL A   1      43.500  42.521  23.867  1.00  0.00     0.023 A 
ATOM     91  C   UNL A   1      44.008  43.074  22.593  1.00  0.00     0.031 A 
ATOM     92  C   UNL A   1      42.118  42.291  23.839  1.00  0.00     0.131 A 
ATOM     93  C   UNL A   1      43.185  43.299  21.431  1.00  0.00     0.055 A 
ATOM     94  C   UNL A   1      41.310  42.519  22.685  1.00  0.00     0.041 A 
ATOM     95  F   UNL A   1      41.509  41.739  24.896  1.00  0.00    -0.206 F 
ATOM     96  C   UNL A   1      41.834  42.996  21.483  1.00  0.00     0.022 A 
BRANCH  93  97
ATOM     97  S   UNL A   1      43.846  43.793  19.756  1.00  0.00     0.124 S 
ATOM     98  O   UNL A   1      42.940  43.127  18.829  1.00  0.00    -0.237 OA
ATOM     99  O   UNL A   1      43.790  45.251  19.792  1.00  0.00    -0.237 OA
ATOM    100  O   UNL A   1      45.211  43.254  19.752  1.00  0.00    -0.744 OA
ENDBRANCH  93  97
ENDBRANCH  66  90
BRANCH  78 101
ATOM    101  C   UNL A   1      45.140  43.516  29.494  1.00  0.00     0.023 A 
ATOM    102  C   UNL A   1      44.497  42.372  30.044  1.00  0.00     0.031 A 
ATOM    103  C   UNL A   1      44.621  44.760  29.889  1.00  0.00     0.131 A 
ATOM    104  C   UNL A   1      43.380  42.500  30.897  1.00  0.00     0.055 A 
ATOM    105  C   UNL A   1      43.547  44.889  30.772  1.00  0.00     0.041 A 
ATOM    106  F   UNL A   1      45.142  45.897  29.400  1.00  0.00    -0.206 F 
ATOM    107  C   UNL A   1      42.909  43.759  31.265  1.00  0.00     0.022 A 
BRANCH 104 108
ATOM    108  S   UNL A   1      42.455  41.028  31.459  1.00  0.00     0.124 S 
ATOM    109  O   UNL A   1      42.488  41.137  32.912  1.00  0.00    -0.237 OA
ATOM    110  O   UNL A   1      41.149  41.220  30.834  1.00  0.00    -0.237 OA
ATOM    111  O   UNL A   1      43.234  39.913  30.917  1.00  0.00    -0.744 OA
ENDBRANCH 104 108
ENDBRANCH  78 101
ENDBRANCH  52  53
ENDBRANCH  44  47
ENDBRANCH  42  43
ENDBRANCH  41  42
ENDBRANCH  40  41
ENDBRANCH  39  40
ENDBRANCH   1  39
TORSDOF 24
ENDMDL
MODEL 2
REMARK VINA RESULT:     -10.5      7.085     11.800
REMARK SMILES Cc1c(CC(=O)N[C@H](CO)C(=O)NCCCCCCNC(=O)c2ccc(-c3c4nc(c(-c5cc(S(=O)(=O)[O-])ccc5F)c5ccc([nH]5)c(-c5cc(S(=O)(=O)[O-])ccc5F)c5nc(c(-c6cc(S(=O)(=O)[O-])ccc6F)c6ccc3[nH]6)C=C5)C=C4)cc2)cc(-c2ccc(S(C)(=O)=O)cc2)n1-c1ccc(F)cc1
REMARK SMILES IDX 15 1 14 2 13 3 11 4 12 5 8 7 7 8 5 9 6 10 4 12 3 13 1 14
REMARK SMILES IDX 2 15 98 16 86 17 87 18 99 19 100 20 105 21 101 22 104 23
REMARK SMILES IDX 102 24 103 25 88 26 89 27 97 28 90 29 96 30 91 31 92 32
REMARK SMILES IDX 93 33 94 34 95 35 9 36 10 37 16 39 17 40 18 41 19 42 20 43
REMARK SMILES IDX 21 44 22 46 23 47 24 48 85 49 25 50 84 51 26 52 27 53 28 54
REMARK SMILES IDX 78 55 29 56 83 57 77 58 79 59 30 60 82 61 76 62 75 63 31 65
REMARK SMILES IDX 63 66 43 67 62 68 44 69 47 70 61 71 80 72 45 73 46 74 60 76
REMARK SMILES IDX 81 77 48 78 32 79 33 80 41 81 34 82 40 83 42 84 39 85 35 86
REMARK SMILES IDX 36 87 37 88 38 89 64 90 65 91 73 92 66 93 72 94 74 95 71 96
REMARK SMILES IDX 67 97 68 98 69 99 70 100 49 101 50 102 58 103 51 104 57 105
REMARK SMILES IDX 59 106 56 107 52 108 53 109 54 110 55 111
REMARK H PARENT 13 6 7 11 10 38 20 45 79 64 47 75
REMARK Flexibility Score: inf
ROOT
ATOM      1  C   UNL A   1      40.238  26.423  27.284  1.00  0.00     0.021 C 
ENDROOT
BRANCH   1   2
ATOM      2  C   UNL A   1      38.870  27.323  28.050  1.00  0.00     0.116 C 
BRANCH   2   3
ATOM      3  N   UNL A   1      38.680  28.815  28.074  1.00  0.00    -0.354 N 
ATOM      4  C   UNL A   1      37.736  29.730  28.403  1.00  0.00     0.244 C 
ATOM      5  O   UNL A   1      38.121  30.911  28.374  1.00  0.00    -0.273 OA
ATOM      6  H   UNL A   1      39.492  29.267  27.749  1.00  0.00     0.163 HD
BRANCH   4   7
ATOM      7  C   UNL A   1      36.289  29.462  28.785  1.00  0.00     0.197 C 
BRANCH   7   8
ATOM      8  N   UNL A   1      35.238  30.359  28.291  1.00  0.00    -0.342 N 
ATOM      9  C   UNL A   1      34.154  30.049  27.512  1.00  0.00     0.225 C 
ATOM     10  O   UNL A   1      33.093  30.633  27.755  1.00  0.00    -0.275 OA
ATOM     11  H   UNL A   1      35.322  31.304  28.553  1.00  0.00     0.164 HD
BRANCH   9  12
ATOM     12  C   UNL A   1      34.255  29.073  26.341  1.00  0.00     0.137 C 
BRANCH  12  13
ATOM     13  C   UNL A   1      32.935  28.406  26.057  1.00  0.00    -0.017 A 
ATOM     14  C   UNL A   1      31.472  30.415  25.379  1.00  0.00     0.065 C 
ATOM     15  C   UNL A   1      31.819  28.957  25.454  1.00  0.00     0.024 A 
ATOM     16  N   UNL A   1      31.071  27.935  24.821  1.00  0.00    -0.314 N 
ATOM     17  C   UNL A   1      32.633  27.068  26.396  1.00  0.00     0.033 A 
ATOM     18  C   UNL A   1      31.614  26.569  25.576  1.00  0.00     0.053 A 
BRANCH  16  19
ATOM     19  C   UNL A   1      30.194  28.367  23.467  1.00  0.00     0.046 A 
ATOM     20  C   UNL A   1      30.546  29.258  22.411  1.00  0.00     0.029 A 
ATOM     21  C   UNL A   1      28.815  28.111  23.393  1.00  0.00     0.029 A 
ATOM     22  C   UNL A   1      29.730  30.150  21.712  1.00  0.00     0.041 A 
ATOM     23  C   UNL A   1      27.937  28.950  22.626  1.00  0.00     0.041 A 
ATOM     24  C   UNL A   1      28.401  30.035  21.897  1.00  0.00     0.123 A 
ATOM     25  F   UNL A   1      27.588  30.984  21.431  1.00  0.00    -0.207 F 
ENDBRANCH  16  19
BRANCH  18  26
ATOM     26  C   UNL A   1      31.550  24.875  25.439  1.00  0.00    -0.001 A 
ATOM     27  C   UNL A   1      31.907  23.895  26.428  1.00  0.00     0.011 A 
ATOM     28  C   UNL A   1      31.189  24.228  24.243  1.00  0.00     0.011 A 
ATOM     29  C   UNL A   1      32.427  22.614  26.157  1.00  0.00     0.021 A 
ATOM     30  C   UNL A   1      31.598  22.865  23.967  1.00  0.00     0.021 A 
ATOM     31  C   UNL A   1      32.372  22.135  24.878  1.00  0.00     0.067 A 
BRANCH  31  32
ATOM     32  S   UNL A   1      33.191  20.580  24.557  1.00  0.00     0.175 S 
ATOM     33  C   UNL A   1      33.042  19.601  26.042  1.00  0.00     0.163 C 
ATOM     34  O   UNL A   1      32.450  19.910  23.525  1.00  0.00    -0.224 OA
ATOM     35  O   UNL A   1      34.613  20.889  24.367  1.00  0.00    -0.224 OA
ENDBRANCH  31  32
ENDBRANCH  18  26
ENDBRANCH  12  13
ENDBRANCH   9  12
ENDBRANCH   7   8
BRANCH   7  36
ATOM     36  C   UNL A   1      36.233  29.303  30.308  1.00  0.00     0.191 C 
BRANCH  36  37
ATOM     37  O   UNL A   1      36.599  30.527  30.947  1.00  0.00    -0.394 OA
ATOM     38  H   UNL A   1      36.762  31.208  30.274  1.00  0.00     0.210 HD
ENDBRANCH  36  37
ENDBRANCH   7  36
ENDBRANCH   4   7
ENDBRANCH   2   3
ENDBRANCH   1   2
BRANCH   1  39
ATOM     39  C   UNL A   1      41.940  25.778  27.738  1.00  0.00     0.002 C 
BRANCH  39  40
ATOM     40  C   UNL A   1      42.630  24.383  28.678  1.00  0.00     0.002 C 
BRANCH  40  41
ATOM     41  C   UNL A   1      43.967  23.308  28.453  1.00  0.00     0.021 C 
BRANCH  41  42
ATOM     42  C   UNL A   1      45.203  23.224  27.331  1.00  0.00     0.116 C 
BRANCH  42  43
ATOM     43  N   UNL A   1      46.515  23.870  27.610  1.00  0.00    -0.352 N 
ATOM     44  C   UNL A   1      47.094  25.037  28.170  1.00  0.00     0.251 C 
ATOM     45  H   UNL A   1      47.235  23.278  27.292  1.00  0.00     0.163 HD
ATOM     46  O   UNL A   1      48.331  25.002  28.086  1.00  0.00    -0.269 OA
BRANCH  44  47
ATOM     47  C   UNL A   1      46.515  26.276  28.943  1.00  0.00     0.039 A 
ATOM     48  C   UNL A   1      45.274  26.880  28.774  1.00  0.00     0.014 A 
ATOM     49  C   UNL A   1      47.368  27.063  29.781  1.00  0.00     0.014 A 
ATOM     50  C   UNL A   1      44.896  28.133  29.490  1.00  0.00     0.010 A 
ATOM     51  C   UNL A   1      46.987  28.318  30.503  1.00  0.00     0.010 A 
ATOM     52  C   UNL A   1      45.706  28.915  30.422  1.00  0.00    -0.014 A 
BRANCH  52  53
ATOM     53  C   UNL A   1      45.383  30.595  30.583  1.00  0.00     0.031 A 
ATOM     54  C   UNL A   1      45.583  30.676  32.051  1.00  0.00     0.074 A 
ATOM     55  C   UNL A   1      44.850  31.800  30.020  1.00  0.00     0.049 A 
ATOM     56  N   UNL A   1      44.869  29.865  32.778  1.00  0.00    -0.248 NA
ATOM     57  C   UNL A   1      46.757  31.212  32.727  1.00  0.00     0.031 C 
ATOM     58  C   UNL A   1      44.155  31.990  28.722  1.00  0.00     0.029 A 
ATOM     59  N   UNL A   1      44.765  33.198  30.479  1.00  0.00    -0.354 N 
ATOM     60  C   UNL A   1      45.252  30.044  34.074  1.00  0.00     0.074 A 
ATOM     61  C   UNL A   1      46.560  30.685  33.945  1.00  0.00     0.031 C 
ATOM     62  C   UNL A   1      43.902  33.309  28.426  1.00  0.00     0.029 A 
ATOM     63  C   UNL A   1      44.332  34.224  29.496  1.00  0.00     0.049 A 
ATOM     64  H   UNL A   1      44.987  33.443  31.407  1.00  0.00     0.167 HD
ATOM     65  C   UNL A   1      44.194  30.366  34.879  1.00  0.00     0.034 A 
ATOM     66  C   UNL A   1      44.223  35.647  29.556  1.00  0.00     0.034 A 
ATOM     67  C   UNL A   1      44.075  31.795  35.021  1.00  0.00     0.049 A 
ATOM     68  C   UNL A   1      43.852  35.929  30.937  1.00  0.00     0.074 A 
ATOM     69  C   UNL A   1      45.020  32.781  35.229  1.00  0.00     0.029 A 
ATOM     70  N   UNL A   1      42.968  32.415  34.478  1.00  0.00    -0.354 N 
ATOM     71  N   UNL A   1      42.640  35.756  31.359  1.00  0.00    -0.248 NA
ATOM     72  C   UNL A   1      44.792  36.480  31.898  1.00  0.00     0.031 C 
ATOM     73  C   UNL A   1      44.650  33.817  34.354  1.00  0.00     0.029 A 
ATOM     74  C   UNL A   1      43.307  33.676  34.027  1.00  0.00     0.049 A 
ATOM     75  H   UNL A   1      42.069  32.018  34.422  1.00  0.00     0.167 HD
ATOM     76  C   UNL A   1      42.824  35.595  32.696  1.00  0.00     0.074 A 
ATOM     77  C   UNL A   1      44.054  36.312  32.996  1.00  0.00     0.031 C 
ATOM     78  C   UNL A   1      42.369  34.424  33.212  1.00  0.00     0.034 A 
BRANCH  65  79
ATOM     79  C   UNL A   1      43.041  29.400  34.682  1.00  0.00     0.023 A 
ATOM     80  C   UNL A   1      42.846  28.388  35.630  1.00  0.00     0.031 A 
ATOM     81  C   UNL A   1      42.298  29.318  33.479  1.00  0.00     0.131 A 
ATOM     82  C   UNL A   1      41.990  27.311  35.340  1.00  0.00     0.055 A 
ATOM     83  C   UNL A   1      41.494  28.220  33.172  1.00  0.00     0.041 A 
ATOM     84  F   UNL A   1      42.384  30.286  32.550  1.00  0.00    -0.206 F 
ATOM     85  C   UNL A   1      41.344  27.201  34.104  1.00  0.00     0.022 A 
BRANCH  82  86
ATOM     86  S   UNL A   1      41.724  26.052  36.616  1.00  0.00     0.124 S 
ATOM     87  O   UNL A   1      43.055  25.900  37.193  1.00  0.00    -0.237 OA
ATOM     88  O   UNL A   1      40.735  26.695  37.478  1.00  0.00    -0.237 OA
ATOM     89  O   UNL A   1      41.229  24.897  35.869  1.00  0.00    -0.744 OA
ENDBRANCH  82  86
ENDBRANCH  65  79
BRANCH  66  90
ATOM     90  C   UNL A   1      44.083  37.061  28.773  1.00  0.00     0.023 A 
ATOM     91  C   UNL A   1      45.182  38.041  28.636  1.00  0.00     0.031 A 
ATOM     92  C   UNL A   1      43.067  37.259  27.830  1.00  0.00     0.131 A 
ATOM     93  C   UNL A   1      45.231  39.052  27.610  1.00  0.00     0.055 A 
ATOM     94  C   UNL A   1      43.123  38.264  26.818  1.00  0.00     0.041 A 
ATOM     95  F   UNL A   1      42.024  36.420  27.782  1.00  0.00    -0.206 F 
ATOM     96  C   UNL A   1      44.200  39.141  26.688  1.00  0.00     0.022 A 
BRANCH  93  97
ATOM     97  S   UNL A   1      46.705  40.155  27.291  1.00  0.00     0.124 S 
ATOM     98  O   UNL A   1      46.218  41.079  26.275  1.00  0.00    -0.237 OA
ATOM     99  O   UNL A   1      46.988  40.720  28.607  1.00  0.00    -0.237 OA
ATOM    100  O   UNL A   1      47.734  39.225  26.814  1.00  0.00    -0.744 OA
ENDBRANCH  93  97
ENDBRANCH  66  90
BRANCH  78 101
ATOM    101  C   UNL A   1      40.977  33.957  32.781  1.00  0.00     0.023 A 
ATOM    102  C   UNL A   1      39.745  34.231  33.437  1.00  0.00     0.031 A 
ATOM    103  C   UNL A   1      40.905  33.088  31.680  1.00  0.00     0.131 A 
ATOM    104  C   UNL A   1      38.542  33.622  33.018  1.00  0.00     0.055 A 
ATOM    105  C   UNL A   1      39.708  32.523  31.234  1.00  0.00     0.041 A 
ATOM    106  F   UNL A   1      42.019  32.745  31.013  1.00  0.00    -0.206 F 
ATOM    107  C   UNL A   1      38.523  32.773  31.913  1.00  0.00     0.022 A 
BRANCH 104 108
ATOM    108  S   UNL A   1      36.998  33.843  33.971  1.00  0.00     0.124 S 
ATOM    109  O   UNL A   1      37.309  34.945  34.874  1.00  0.00    -0.237 OA
ATOM    110  O   UNL A   1      36.021  34.132  32.925  1.00  0.00    -0.237 OA
ATOM    111  O   UNL A   1      36.821  32.549  34.632  1.00  0.00    -0.744 OA
ENDBRANCH 104 108
ENDBRANCH  78 101
ENDBRANCH  52  53
ENDBRANCH  44  47
ENDBRANCH  42  43
ENDBRANCH  41  42
ENDBRANCH  40  41
ENDBRANCH  39  40
ENDBRANCH   1  39
TORSDOF 24
ENDMDL
MODEL 3
REMARK VINA RESULT:     -10.3      7.468     14.202
REMARK SMILES Cc1c(CC(=O)N[C@H](CO)C(=O)NCCCCCCNC(=O)c2ccc(-c3c4nc(c(-c5cc(S(=O)(=O)[O-])ccc5F)c5ccc([nH]5)c(-c5cc(S(=O)(=O)[O-])ccc5F)c5nc(c(-c6cc(S(=O)(=O)[O-])ccc6F)c6ccc3[nH]6)C=C5)C=C4)cc2)cc(-c2ccc(S(C)(=O)=O)cc2)n1-c1ccc(F)cc1
REMARK SMILES IDX 15 1 14 2 13 3 11 4 12 5 8 7 7 8 5 9 6 10 4 12 3 13 1 14
REMARK SMILES IDX 2 15 98 16 86 17 87 18 99 19 100 20 105 21 101 22 104 23
REMARK SMILES IDX 102 24 103 25 88 26 89 27 97 28 90 29 96 30 91 31 92 32
REMARK SMILES IDX 93 33 94 34 95 35 9 36 10 37 16 39 17 40 18 41 19 42 20 43
REMARK SMILES IDX 21 44 22 46 23 47 24 48 85 49 25 50 84 51 26 52 27 53 28 54
REMARK SMILES IDX 78 55 29 56 83 57 77 58 79 59 30 60 82 61 76 62 75 63 31 65
REMARK SMILES IDX 63 66 43 67 62 68 44 69 47 70 61 71 80 72 45 73 46 74 60 76
REMARK SMILES IDX 81 77 48 78 32 79 33 80 41 81 34 82 40 83 42 84 39 85 35 86
REMARK SMILES IDX 36 87 37 88 38 89 64 90 65 91 73 92 66 93 72 94 74 95 71 96
REMARK SMILES IDX 67 97 68 98 69 99 70 100 49 101 50 102 58 103 51 104 57 105
REMARK SMILES IDX 59 106 56 107 52 108 53 109 54 110 55 111
REMARK H PARENT 13 6 7 11 10 38 20 45 79 64 47 75
REMARK Flexibility Score: inf
ROOT
ATOM      1  C   UNL A   1      47.663  33.343  30.656  1.00  0.00     0.021 C 
ENDROOT
BRANCH   1   2
ATOM      2  C   UNL A   1      46.575  32.896  29.283  1.00  0.00     0.116 C 
BRANCH   2   3
ATOM      3  N   UNL A   1      46.801  33.193  27.826  1.00  0.00    -0.354 N 
ATOM      4  C   UNL A   1      46.104  33.255  26.666  1.00  0.00     0.244 C 
ATOM      5  O   UNL A   1      46.743  33.700  25.697  1.00  0.00    -0.273 OA
ATOM      6  H   UNL A   1      47.749  33.406  27.665  1.00  0.00     0.163 HD
BRANCH   4   7
ATOM      7  C   UNL A   1      44.660  32.840  26.436  1.00  0.00     0.197 C 
BRANCH   7   8
ATOM      8  N   UNL A   1      44.357  31.438  26.126  1.00  0.00    -0.342 N 
ATOM      9  C   UNL A   1      43.507  30.588  26.784  1.00  0.00     0.225 C 
ATOM     10  O   UNL A   1      42.849  29.797  26.099  1.00  0.00    -0.275 OA
ATOM     11  H   UNL A   1      44.822  31.060  25.345  1.00  0.00     0.164 HD
BRANCH   9  12
ATOM     12  C   UNL A   1      43.418  30.557  28.309  1.00  0.00     0.137 C 
BRANCH  12  13
ATOM     13  C   UNL A   1      42.307  29.657  28.782  1.00  0.00    -0.017 A 
ATOM     14  C   UNL A   1      41.115  31.162  30.501  1.00  0.00     0.065 C 
ATOM     15  C   UNL A   1      41.215  29.996  29.562  1.00  0.00     0.024 A 
ATOM     16  N   UNL A   1      40.141  29.118  29.278  1.00  0.00    -0.314 N 
ATOM     17  C   UNL A   1      42.228  28.276  28.497  1.00  0.00     0.033 A 
ATOM     18  C   UNL A   1      40.904  27.829  28.576  1.00  0.00     0.053 A 
BRANCH  16  19
ATOM     19  C   UNL A   1      38.597  29.726  29.459  1.00  0.00     0.046 A 
ATOM     20  C   UNL A   1      38.078  30.998  29.074  1.00  0.00     0.029 A 
ATOM     21  C   UNL A   1      37.685  29.120  30.338  1.00  0.00     0.029 A 
ATOM     22  C   UNL A   1      37.146  31.798  29.737  1.00  0.00     0.041 A 
ATOM     23  C   UNL A   1      36.656  29.880  30.991  1.00  0.00     0.041 A 
ATOM     24  C   UNL A   1      36.486  31.239  30.770  1.00  0.00     0.123 A 
ATOM     25  F   UNL A   1      35.747  32.007  31.571  1.00  0.00    -0.207 F 
ENDBRANCH  16  19
BRANCH  18  26
ATOM     26  C   UNL A   1      40.559  26.407  27.710  1.00  0.00    -0.001 A 
ATOM     27  C   UNL A   1      39.379  25.590  27.790  1.00  0.00     0.011 A 
ATOM     28  C   UNL A   1      41.483  25.816  26.830  1.00  0.00     0.011 A 
ATOM     29  C   UNL A   1      39.336  24.197  27.585  1.00  0.00     0.021 A 
ATOM     30  C   UNL A   1      41.411  24.408  26.492  1.00  0.00     0.021 A 
ATOM     31  C   UNL A   1      40.419  23.577  27.027  1.00  0.00     0.067 A 
BRANCH  31  32
ATOM     32  S   UNL A   1      40.379  21.793  26.940  1.00  0.00     0.175 S 
ATOM     33  C   UNL A   1      41.778  21.291  25.953  1.00  0.00     0.163 C 
ATOM     34  O   UNL A   1      40.590  21.294  28.271  1.00  0.00    -0.224 OA
ATOM     35  O   UNL A   1      39.161  21.440  26.201  1.00  0.00    -0.224 OA
ENDBRANCH  31  32
ENDBRANCH  18  26
ENDBRANCH  12  13
ENDBRANCH   9  12
ENDBRANCH   7   8
BRANCH   7  36
ATOM     36  C   UNL A   1      44.062  33.796  25.399  1.00  0.00     0.191 C 
BRANCH  36  37
ATOM     37  O   UNL A   1      44.201  33.251  24.086  1.00  0.00    -0.394 OA
ATOM     38  H   UNL A   1      44.476  32.323  24.148  1.00  0.00     0.210 HD
ENDBRANCH  36  37
ENDBRANCH   7  36
ENDBRANCH   4   7
ENDBRANCH   2   3
ENDBRANCH   1   2
BRANCH   1  39
ATOM     39  C   UNL A   1      47.626  34.396  32.208  1.00  0.00     0.002 C 
BRANCH  39  40
ATOM     40  C   UNL A   1      46.365  35.103  33.311  1.00  0.00     0.002 C 
BRANCH  40  41
ATOM     41  C   UNL A   1      45.666  36.673  33.509  1.00  0.00     0.021 C 
BRANCH  41  42
ATOM     42  C   UNL A   1      45.191  37.564  34.841  1.00  0.00     0.116 C 
BRANCH  42  43
ATOM     43  N   UNL A   1      44.018  37.136  35.651  1.00  0.00    -0.352 N 
ATOM     44  C   UNL A   1      43.225  36.004  35.965  1.00  0.00     0.251 C 
ATOM     45  H   UNL A   1      43.670  37.915  36.143  1.00  0.00     0.163 HD
ATOM     46  O   UNL A   1      42.308  36.306  36.744  1.00  0.00    -0.269 OA
BRANCH  44  47
ATOM     47  C   UNL A   1      43.327  34.474  35.622  1.00  0.00     0.039 A 
ATOM     48  C   UNL A   1      44.437  33.647  35.744  1.00  0.00     0.014 A 
ATOM     49  C   UNL A   1      42.273  33.828  34.901  1.00  0.00     0.014 A 
ATOM     50  C   UNL A   1      44.434  32.234  35.264  1.00  0.00     0.010 A 
ATOM     51  C   UNL A   1      42.267  32.409  34.423  1.00  0.00     0.010 A 
ATOM     52  C   UNL A   1      43.347  31.512  34.605  1.00  0.00    -0.014 A 
BRANCH  52  53
ATOM     53  C   UNL A   1      43.742  30.209  33.557  1.00  0.00     0.031 A 
ATOM     54  C   UNL A   1      43.095  29.136  34.353  1.00  0.00     0.074 A 
ATOM     55  C   UNL A   1      44.525  29.707  32.468  1.00  0.00     0.049 A 
ATOM     56  N   UNL A   1      43.471  29.030  35.595  1.00  0.00    -0.248 NA
ATOM     57  C   UNL A   1      41.816  28.505  34.056  1.00  0.00     0.031 C 
ATOM     58  C   UNL A   1      45.610  30.385  31.713  1.00  0.00     0.029 A 
ATOM     59  N   UNL A   1      44.577  28.423  31.746  1.00  0.00    -0.354 N 
ATOM     60  C   UNL A   1      42.713  28.049  36.161  1.00  0.00     0.074 A 
ATOM     61  C   UNL A   1      41.572  27.947  35.252  1.00  0.00     0.031 C 
ATOM     62  C   UNL A   1      46.053  29.665  30.628  1.00  0.00     0.029 A 
ATOM     63  C   UNL A   1      45.384  28.361  30.501  1.00  0.00     0.049 A 
ATOM     64  H   UNL A   1      44.094  27.632  32.080  1.00  0.00     0.167 HD
ATOM     65  C   UNL A   1      43.484  27.063  36.712  1.00  0.00     0.034 A 
ATOM     66  C   UNL A   1      45.587  27.341  29.521  1.00  0.00     0.034 A 
ATOM     67  C   UNL A   1      43.672  25.979  35.781  1.00  0.00     0.049 A 
ATOM     68  C   UNL A   1      45.524  26.093  30.270  1.00  0.00     0.074 A 
ATOM     69  C   UNL A   1      42.795  25.338  34.927  1.00  0.00     0.029 A 
ATOM     70  N   UNL A   1      44.941  25.751  35.291  1.00  0.00    -0.354 N 
ATOM     71  N   UNL A   1      46.520  25.687  30.991  1.00  0.00    -0.248 NA
ATOM     72  C   UNL A   1      44.377  25.204  30.203  1.00  0.00     0.031 C 
ATOM     73  C   UNL A   1      43.510  25.203  33.723  1.00  0.00     0.029 A 
ATOM     74  C   UNL A   1      44.870  25.290  33.991  1.00  0.00     0.049 A 
ATOM     75  H   UNL A   1      45.775  25.896  35.794  1.00  0.00     0.167 HD
ATOM     76  C   UNL A   1      45.909  24.869  31.887  1.00  0.00     0.074 A 
ATOM     77  C   UNL A   1      44.712  24.394  31.209  1.00  0.00     0.031 C 
ATOM     78  C   UNL A   1      46.077  25.202  33.193  1.00  0.00     0.034 A 
BRANCH  65  79
ATOM     79  C   UNL A   1      44.555  27.644  37.616  1.00  0.00     0.023 A 
ATOM     80  C   UNL A   1      45.361  28.676  37.123  1.00  0.00     0.031 A 
ATOM     81  C   UNL A   1      44.941  27.044  38.841  1.00  0.00     0.131 A 
ATOM     82  C   UNL A   1      46.537  29.035  37.805  1.00  0.00     0.055 A 
ATOM     83  C   UNL A   1      46.137  27.364  39.484  1.00  0.00     0.041 A 
ATOM     84  F   UNL A   1      44.182  26.090  39.408  1.00  0.00    -0.206 F 
ATOM     85  C   UNL A   1      46.950  28.361  38.959  1.00  0.00     0.022 A 
BRANCH  82  86
ATOM     86  S   UNL A   1      47.521  30.414  37.161  1.00  0.00     0.124 S 
ATOM     87  O   UNL A   1      48.850  30.131  37.693  1.00  0.00    -0.237 OA
ATOM     88  O   UNL A   1      47.374  30.247  35.717  1.00  0.00    -0.237 OA
ATOM     89  O   UNL A   1      46.866  31.599  37.713  1.00  0.00    -0.744 OA
ENDBRANCH  82  86
ENDBRANCH  65  79
BRANCH  66  90
ATOM     90  C   UNL A   1      46.086  26.928  28.034  1.00  0.00     0.023 A 
ATOM     91  C   UNL A   1      45.989  25.560  27.480  1.00  0.00     0.031 A 
ATOM     92  C   UNL A   1      46.248  27.899  27.037  1.00  0.00     0.131 A 
ATOM     93  C   UNL A   1      46.000  25.262  26.070  1.00  0.00     0.055 A 
ATOM     94  C   UNL A   1      46.260  27.595  25.643  1.00  0.00     0.041 A 
ATOM     95  F   UNL A   1      46.296  29.196  27.367  1.00  0.00    -0.206 F 
ATOM     96  C   UNL A   1      46.116  26.297  25.155  1.00  0.00     0.022 A 
BRANCH  93  97
ATOM     97  S   UNL A   1      45.665  23.572  25.350  1.00  0.00     0.124 S 
ATOM     98  O   UNL A   1      46.052  23.720  23.953  1.00  0.00    -0.237 OA
ATOM     99  O   UNL A   1      46.494  22.691  26.168  1.00  0.00    -0.237 OA
ATOM    100  O   UNL A   1      44.225  23.388  25.558  1.00  0.00    -0.744 OA
ENDBRANCH  93  97
ENDBRANCH  66  90
BRANCH  78 101
ATOM    101  C   UNL A   1      47.490  25.572  33.649  1.00  0.00     0.023 A 
ATOM    102  C   UNL A   1      48.566  24.677  33.903  1.00  0.00     0.031 A 
ATOM    103  C   UNL A   1      47.733  26.924  33.945  1.00  0.00     0.131 A 
ATOM    104  C   UNL A   1      49.781  25.134  34.459  1.00  0.00     0.055 A 
ATOM    105  C   UNL A   1      48.952  27.384  34.449  1.00  0.00     0.041 A 
ATOM    106  F   UNL A   1      46.769  27.841  33.767  1.00  0.00    -0.206 F 
ATOM    107  C   UNL A   1      49.975  26.488  34.726  1.00  0.00     0.022 A 
BRANCH 104 108
ATOM    108  S   UNL A   1      51.091  23.955  34.943  1.00  0.00     0.124 S 
ATOM    109  O   UNL A   1      50.898  23.800  36.379  1.00  0.00    -0.237 OA
ATOM    110  O   UNL A   1      50.779  22.785  34.128  1.00  0.00    -0.237 OA
ATOM    111  O   UNL A   1      52.325  24.649  34.568  1.00  0.00    -0.744 OA
ENDBRANCH 104 108
ENDBRANCH  78 101
ENDBRANCH  52  53
ENDBRANCH  44  47
ENDBRANCH  42  43
ENDBRANCH  41  42
ENDBRANCH  40  41
ENDBRANCH  39  40
ENDBRANCH   1  39
TORSDOF 24
ENDMDL
