MODEL 1
REMARK VINA RESULT:     -11.4      0.000      0.000
REMARK SMILES O=C(NCCCCCCNC(=O)[C@H]1C[N@H+](Cc2ccc(Cl)c(Cl)c2)CC12CCCCC2)c1ccc(-c2c3nc(c(-c4cc(S(=O)(=O)[O-])ccc4F)c4ccc([nH]4)c(-c4cc(S(=O)(=O)[O-])ccc4F)c4nc(c(-c5cc(S(=O)(=O)[O-])ccc5F)c5ccc2[nH]5)C=C4)C=C3)cc1
REMARK SMILES IDX 6 1 5 2 4 3 3 4 1 5 2 6 32 8 33 9 94 10 34 11 93 12 35 13
REMARK SMILES IDX 36 14 37 15 87 16 38 17 92 18 86 19 88 20 39 21 91 22 85 23
REMARK SMILES IDX 84 24 40 26 72 27 52 28 71 29 53 30 56 31 70 32 89 33 54 34
REMARK SMILES IDX 55 35 69 37 90 38 57 39 41 40 42 41 50 42 43 43 49 44 51 45
REMARK SMILES IDX 48 46 44 47 45 48 46 49 47 50 73 51 74 52 82 53 75 54 81 55
REMARK SMILES IDX 83 56 80 57 76 58 77 59 78 60 79 61 58 62 59 63 67 64 60 65
REMARK SMILES IDX 66 66 68 67 65 68 61 69 62 70 63 71 64 72 7 73 8 74 9 75
REMARK SMILES IDX 10 76 11 77 12 79 13 80 14 81 26 82 15 83 25 84 27 85 31 86
REMARK SMILES IDX 28 88 30 89 29 90 16 91 17 92 18 93 24 94 19 95 22 96 20 97
REMARK SMILES IDX 23 98 21 99
REMARK H PARENT 3 7 88 25 56 36 10 78 15 87
REMARK Flexibility Score: inf
ROOT
ATOM      1  C   UNL A   1      34.779  31.672  28.574  1.00  0.00     0.002 C 
ENDROOT
BRANCH   1   2
ATOM      2  C   UNL A   1      33.650  32.560  28.050  1.00  0.00     0.021 C 
BRANCH   2   3
ATOM      3  C   UNL A   1      33.949  34.050  28.059  1.00  0.00     0.116 C 
BRANCH   3   4
ATOM      4  N   UNL A   1      33.198  34.754  29.081  1.00  0.00    -0.352 N 
ATOM      5  O   UNL A   1      32.587  35.255  31.192  1.00  0.00    -0.269 OA
ATOM      6  C   UNL A   1      33.412  34.764  30.438  1.00  0.00     0.251 C 
ATOM      7  H   UNL A   1      32.439  35.294  28.762  1.00  0.00     0.163 HD
BRANCH   6   8
ATOM      8  C   UNL A   1      34.656  34.159  30.964  1.00  0.00     0.039 A 
ATOM      9  C   UNL A   1      34.590  33.068  31.836  1.00  0.00     0.014 A 
ATOM     10  C   UNL A   1      35.890  34.683  30.576  1.00  0.00     0.014 A 
ATOM     11  C   UNL A   1      35.754  32.563  32.399  1.00  0.00     0.010 A 
ATOM     12  C   UNL A   1      37.065  34.113  31.070  1.00  0.00     0.010 A 
ATOM     13  C   UNL A   1      37.004  33.047  31.982  1.00  0.00    -0.014 A 
BRANCH  13  14
ATOM     14  C   UNL A   1      38.228  32.315  32.390  1.00  0.00     0.031 A 
ATOM     15  C   UNL A   1      38.827  31.243  31.528  1.00  0.00     0.074 A 
ATOM     16  C   UNL A   1      38.782  32.641  33.576  1.00  0.00     0.049 A 
ATOM     17  N   UNL A   1      39.871  30.493  31.766  1.00  0.00    -0.248 NA
ATOM     18  C   UNL A   1      38.173  30.973  30.238  1.00  0.00     0.031 C 
ATOM     19  C   UNL A   1      38.263  33.666  34.491  1.00  0.00     0.029 A 
ATOM     20  N   UNL A   1      39.891  32.162  34.220  1.00  0.00    -0.354 N 
ATOM     21  C   UNL A   1      39.993  29.646  30.671  1.00  0.00     0.074 A 
ATOM     22  C   UNL A   1      38.905  29.969  29.770  1.00  0.00     0.031 C 
ATOM     23  C   UNL A   1      39.070  33.759  35.556  1.00  0.00     0.029 A 
ATOM     24  C   UNL A   1      40.108  32.743  35.449  1.00  0.00     0.049 A 
ATOM     25  H   UNL A   1      40.479  31.468  33.840  1.00  0.00     0.167 HD
ATOM     26  C   UNL A   1      40.927  28.689  30.451  1.00  0.00     0.034 A 
ATOM     27  C   UNL A   1      41.009  32.459  36.407  1.00  0.00     0.034 A 
ATOM     28  C   UNL A   1      42.004  28.395  31.368  1.00  0.00     0.049 A 
ATOM     29  C   UNL A   1      41.995  31.351  36.151  1.00  0.00     0.074 A 
ATOM     30  C   UNL A   1      43.044  27.495  31.209  1.00  0.00     0.029 A 
ATOM     31  N   UNL A   1      42.168  28.971  32.621  1.00  0.00    -0.354 N 
ATOM     32  N   UNL A   1      42.131  30.603  35.080  1.00  0.00    -0.248 NA
ATOM     33  C   UNL A   1      42.944  31.049  37.227  1.00  0.00     0.031 C 
ATOM     34  C   UNL A   1      43.781  27.463  32.396  1.00  0.00     0.029 A 
ATOM     35  C   UNL A   1      43.258  28.405  33.266  1.00  0.00     0.049 A 
ATOM     36  H   UNL A   1      41.595  29.678  32.997  1.00  0.00     0.167 HD
ATOM     37  C   UNL A   1      43.195  29.750  35.353  1.00  0.00     0.074 A 
ATOM     38  C   UNL A   1      43.684  30.103  36.669  1.00  0.00     0.031 C 
ATOM     39  C   UNL A   1      43.717  28.758  34.589  1.00  0.00     0.034 A 
BRANCH  26  40
ATOM     40  C   UNL A   1      40.813  27.851  29.202  1.00  0.00     0.023 A 
ATOM     41  C   UNL A   1      41.688  28.005  28.113  1.00  0.00     0.031 A 
ATOM     42  C   UNL A   1      39.838  26.838  29.127  1.00  0.00     0.131 A 
ATOM     43  C   UNL A   1      41.552  27.180  26.985  1.00  0.00     0.055 A 
ATOM     44  C   UNL A   1      39.749  25.980  28.030  1.00  0.00     0.041 A 
ATOM     45  F   UNL A   1      38.963  26.659  30.129  1.00  0.00    -0.206 F 
ATOM     46  C   UNL A   1      40.606  26.152  26.948  1.00  0.00     0.022 A 
BRANCH  43  47
ATOM     47  S   UNL A   1      42.575  27.521  25.527  1.00  0.00     0.124 S 
ATOM     48  O   UNL A   1      41.976  28.755  25.026  1.00  0.00    -0.237 OA
ATOM     49  O   UNL A   1      43.910  27.646  26.100  1.00  0.00    -0.237 OA
ATOM     50  O   UNL A   1      42.368  26.348  24.679  1.00  0.00    -0.744 OA
ENDBRANCH  43  47
ENDBRANCH  26  40
BRANCH  27  51
ATOM     51  C   UNL A   1      40.979  33.176  37.716  1.00  0.00     0.023 A 
ATOM     52  C   UNL A   1      40.220  32.688  38.789  1.00  0.00     0.031 A 
ATOM     53  C   UNL A   1      41.655  34.398  37.889  1.00  0.00     0.131 A 
ATOM     54  C   UNL A   1      40.097  33.452  39.960  1.00  0.00     0.055 A 
ATOM     55  C   UNL A   1      41.592  35.116  39.083  1.00  0.00     0.041 A 
ATOM     56  F   UNL A   1      42.395  34.914  36.895  1.00  0.00    -0.206 F 
ATOM     57  C   UNL A   1      40.792  34.653  40.122  1.00  0.00     0.022 A 
BRANCH  54  58
ATOM     58  S   UNL A   1      38.903  32.918  41.215  1.00  0.00     0.124 S 
ATOM     59  O   UNL A   1      39.764  32.706  42.373  1.00  0.00    -0.237 OA
ATOM     60  O   UNL A   1      38.006  34.067  41.285  1.00  0.00    -0.237 OA
ATOM     61  O   UNL A   1      38.322  31.708  40.637  1.00  0.00    -0.744 OA
ENDBRANCH  54  58
ENDBRANCH  27  51
BRANCH  39  62
ATOM     62  C   UNL A   1      44.892  28.007  35.164  1.00  0.00     0.023 A 
ATOM     63  C   UNL A   1      44.713  26.833  35.916  1.00  0.00     0.031 A 
ATOM     64  C   UNL A   1      46.201  28.484  34.980  1.00  0.00     0.131 A 
ATOM     65  C   UNL A   1      45.821  26.208  36.507  1.00  0.00     0.055 A 
ATOM     66  C   UNL A   1      47.305  27.821  35.513  1.00  0.00     0.041 A 
ATOM     67  F   UNL A   1      46.428  29.606  34.277  1.00  0.00    -0.206 F 
ATOM     68  C   UNL A   1      47.118  26.683  36.294  1.00  0.00     0.022 A 
BRANCH  65  69
ATOM     69  S   UNL A   1      45.533  24.821  37.639  1.00  0.00     0.124 S 
ATOM     70  O   UNL A   1      44.087  24.874  37.819  1.00  0.00    -0.237 OA
ATOM     71  O   UNL A   1      46.040  23.685  36.877  1.00  0.00    -0.237 OA
ATOM     72  O   UNL A   1      46.320  25.175  38.820  1.00  0.00    -0.744 OA
ENDBRANCH  65  69
ENDBRANCH  39  62
ENDBRANCH  13  14
ENDBRANCH   6   8
ENDBRANCH   3   4
ENDBRANCH   2   3
ENDBRANCH   1   2
BRANCH   1  73
ATOM     73  C   UNL A   1      35.482  30.805  27.529  1.00  0.00     0.002 C 
BRANCH  73  74
ATOM     74  C   UNL A   1      35.388  29.297  27.748  1.00  0.00     0.021 C 
BRANCH  74  75
ATOM     75  C   UNL A   1      34.352  28.573  26.901  1.00  0.00     0.116 C 
BRANCH  75  76
ATOM     76  N   UNL A   1      33.043  28.547  27.521  1.00  0.00    -0.356 N 
ATOM     77  C   UNL A   1      31.934  27.793  27.327  1.00  0.00     0.229 C 
ATOM     78  H   UNL A   1      32.937  29.218  28.233  1.00  0.00     0.163 HD
ATOM     79  O   UNL A   1      30.957  28.108  28.020  1.00  0.00    -0.275 OA
BRANCH  77  80
ATOM     80  C   UNL A   1      31.789  26.686  26.277  1.00  0.00     0.145 C 
ATOM     81  C   UNL A   1      30.678  25.662  26.443  1.00  0.00     0.276 C 
ATOM     82  C   UNL A   1      31.664  27.151  24.782  1.00  0.00     0.037 C 
ATOM     83  N   UNL A   1      30.446  25.063  25.144  1.00  0.00    -0.330 N 
ATOM     84  C   UNL A   1      30.644  26.132  24.176  1.00  0.00     0.270 C 
ATOM     85  C   UNL A   1      31.165  28.610  24.614  1.00  0.00     0.014 C 
ATOM     86  C   UNL A   1      33.032  27.068  24.064  1.00  0.00     0.014 C 
ATOM     87  H   UNL A   1      29.488  24.722  25.057  1.00  0.00     0.348 HD
ATOM     88  C   UNL A   1      31.100  29.069  23.155  1.00  0.00     0.001 C 
ATOM     89  C   UNL A   1      32.959  27.450  22.585  1.00  0.00     0.001 C 
ATOM     90  C   UNL A   1      32.423  28.863  22.418  1.00  0.00     0.000 C 
BRANCH  83  91
ATOM     91  C   UNL A   1      31.022  23.739  24.898  1.00  0.00     0.299 C 
BRANCH  91  92
ATOM     92  C   UNL A   1      32.458  23.672  24.423  1.00  0.00     0.008 A 
ATOM     93  C   UNL A   1      32.772  23.520  23.065  1.00  0.00     0.011 A 
ATOM     94  C   UNL A   1      33.507  23.702  25.357  1.00  0.00     0.031 A 
ATOM     95  C   UNL A   1      34.085  23.254  22.665  1.00  0.00     0.022 A 
ATOM     96  C   UNL A   1      34.827  23.462  24.957  1.00  0.00     0.060 A 
ATOM     97  C   UNL A   1      35.111  23.201  23.612  1.00  0.00     0.059 A 
ATOM     98  Cl  UNL A   1      36.044  23.431  26.183  1.00  0.00    -0.083 Cl
ATOM     99  Cl  UNL A   1      36.688  22.751  23.067  1.00  0.00    -0.083 Cl
ENDBRANCH  91  92
ENDBRANCH  83  91
ENDBRANCH  77  80
ENDBRANCH  75  76
ENDBRANCH  74  75
ENDBRANCH  73  74
ENDBRANCH   1  73
TORSDOF 18
ENDMDL
MODEL 2
REMARK VINA RESULT:     -11.4      2.704      3.888
REMARK SMILES O=C(NCCCCCCNC(=O)[C@H]1C[N@H+](Cc2ccc(Cl)c(Cl)c2)CC12CCCCC2)c1ccc(-c2c3nc(c(-c4cc(S(=O)(=O)[O-])ccc4F)c4ccc([nH]4)c(-c4cc(S(=O)(=O)[O-])ccc4F)c4nc(c(-c5cc(S(=O)(=O)[O-])ccc5F)c5ccc2[nH]5)C=C4)C=C3)cc1
REMARK SMILES IDX 6 1 5 2 4 3 3 4 1 5 2 6 32 8 33 9 94 10 34 11 93 12 35 13
REMARK SMILES IDX 36 14 37 15 87 16 38 17 92 18 86 19 88 20 39 21 91 22 85 23
REMARK SMILES IDX 84 24 40 26 72 27 52 28 71 29 53 30 56 31 70 32 89 33 54 34
REMARK SMILES IDX 55 35 69 37 90 38 57 39 41 40 42 41 50 42 43 43 49 44 51 45
REMARK SMILES IDX 48 46 44 47 45 48 46 49 47 50 73 51 74 52 82 53 75 54 81 55
REMARK SMILES IDX 83 56 80 57 76 58 77 59 78 60 79 61 58 62 59 63 67 64 60 65
REMARK SMILES IDX 66 66 68 67 65 68 61 69 62 70 63 71 64 72 7 73 8 74 9 75
REMARK SMILES IDX 10 76 11 77 12 79 13 80 14 81 26 82 15 83 25 84 27 85 31 86
REMARK SMILES IDX 28 88 30 89 29 90 16 91 17 92 18 93 24 94 19 95 22 96 20 97
REMARK SMILES IDX 23 98 21 99
REMARK H PARENT 3 7 88 25 56 36 10 78 15 87
REMARK Flexibility Score: inf
ROOT
ATOM      1  C   UNL A   1      31.368  29.735  24.858  1.00  0.00     0.002 C 
ENDROOT
BRANCH   1   2
ATOM      2  C   UNL A   1      32.686  29.953  25.600  1.00  0.00     0.021 C 
BRANCH   2   3
ATOM      3  C   UNL A   1      32.547  30.513  27.006  1.00  0.00     0.116 C 
BRANCH   3   4
ATOM      4  N   UNL A   1      32.581  31.964  27.025  1.00  0.00    -0.352 N 
ATOM      5  O   UNL A   1      33.302  33.985  27.716  1.00  0.00    -0.269 OA
ATOM      6  C   UNL A   1      33.503  32.784  27.629  1.00  0.00     0.251 C 
ATOM      7  H   UNL A   1      31.853  32.418  26.542  1.00  0.00     0.163 HD
BRANCH   6   8
ATOM      8  C   UNL A   1      34.736  32.180  28.180  1.00  0.00     0.039 A 
ATOM      9  C   UNL A   1      35.914  32.930  28.248  1.00  0.00     0.014 A 
ATOM     10  C   UNL A   1      34.709  30.860  28.633  1.00  0.00     0.014 A 
ATOM     11  C   UNL A   1      37.090  32.332  28.679  1.00  0.00     0.010 A 
ATOM     12  C   UNL A   1      35.872  30.288  29.154  1.00  0.00     0.010 A 
ATOM     13  C   UNL A   1      37.069  31.022  29.184  1.00  0.00    -0.014 A 
BRANCH  13  14
ATOM     14  C   UNL A   1      38.270  30.504  29.882  1.00  0.00     0.031 A 
ATOM     15  C   UNL A   1      39.156  29.467  29.258  1.00  0.00     0.074 A 
ATOM     16  C   UNL A   1      38.536  30.994  31.111  1.00  0.00     0.049 A 
ATOM     17  N   UNL A   1      40.218  28.892  29.759  1.00  0.00    -0.248 NA
ATOM     18  C   UNL A   1      38.808  29.011  27.904  1.00  0.00     0.031 C 
ATOM     19  C   UNL A   1      37.723  32.000  31.806  1.00  0.00     0.029 A 
ATOM     20  N   UNL A   1      39.548  30.726  31.994  1.00  0.00    -0.354 N 
ATOM     21  C   UNL A   1      40.658  27.992  28.796  1.00  0.00     0.074 A 
ATOM     22  C   UNL A   1      39.736  28.088  27.682  1.00  0.00     0.031 C 
ATOM     23  C   UNL A   1      38.287  32.287  32.987  1.00  0.00     0.029 A 
ATOM     24  C   UNL A   1      39.444  31.423  33.177  1.00  0.00     0.049 A 
ATOM     25  H   UNL A   1      40.281  30.096  31.801  1.00  0.00     0.167 HD
ATOM     26  C   UNL A   1      41.730  27.163  28.850  1.00  0.00     0.034 A 
ATOM     27  C   UNL A   1      40.168  31.343  34.308  1.00  0.00     0.034 A 
ATOM     28  C   UNL A   1      42.633  27.095  29.975  1.00  0.00     0.049 A 
ATOM     29  C   UNL A   1      41.316  30.370  34.351  1.00  0.00     0.074 A 
ATOM     30  C   UNL A   1      43.789  26.342  30.102  1.00  0.00     0.029 A 
ATOM     31  N   UNL A   1      42.475  27.780  31.171  1.00  0.00    -0.354 N 
ATOM     32  N   UNL A   1      41.752  29.570  33.405  1.00  0.00    -0.248 NA
ATOM     33  C   UNL A   1      42.065  30.286  35.609  1.00  0.00     0.031 C 
ATOM     34  C   UNL A   1      44.276  26.504  31.401  1.00  0.00     0.029 A 
ATOM     35  C   UNL A   1      43.479  27.425  32.061  1.00  0.00     0.049 A 
ATOM     36  H   UNL A   1      41.755  28.425  31.362  1.00  0.00     0.167 HD
ATOM     37  C   UNL A   1      42.839  28.900  33.954  1.00  0.00     0.074 A 
ATOM     38  C   UNL A   1      43.013  29.416  35.295  1.00  0.00     0.031 C 
ATOM     39  C   UNL A   1      43.622  27.937  33.403  1.00  0.00     0.034 A 
BRANCH  26  40
ATOM     40  C   UNL A   1      41.968  26.226  27.692  1.00  0.00     0.023 A 
ATOM     41  C   UNL A   1      41.439  24.924  27.661  1.00  0.00     0.031 A 
ATOM     42  C   UNL A   1      42.697  26.670  26.573  1.00  0.00     0.131 A 
ATOM     43  C   UNL A   1      41.672  24.102  26.546  1.00  0.00     0.055 A 
ATOM     44  C   UNL A   1      42.871  25.870  25.441  1.00  0.00     0.041 A 
ATOM     45  F   UNL A   1      43.242  27.896  26.557  1.00  0.00    -0.206 F 
ATOM     46  C   UNL A   1      42.361  24.576  25.426  1.00  0.00     0.022 A 
BRANCH  43  47
ATOM     47  S   UNL A   1      41.132  22.372  26.611  1.00  0.00     0.124 S 
ATOM     48  O   UNL A   1      39.725  22.486  26.235  1.00  0.00    -0.237 OA
ATOM     49  O   UNL A   1      42.004  21.731  25.633  1.00  0.00    -0.237 OA
ATOM     50  O   UNL A   1      41.368  21.990  28.002  1.00  0.00    -0.744 OA
ENDBRANCH  43  47
ENDBRANCH  26  40
BRANCH  27  51
ATOM     51  C   UNL A   1      39.793  32.144  35.510  1.00  0.00     0.023 A 
ATOM     52  C   UNL A   1      38.969  31.605  36.509  1.00  0.00     0.031 A 
ATOM     53  C   UNL A   1      40.195  33.486  35.641  1.00  0.00     0.131 A 
ATOM     54  C   UNL A   1      38.518  32.422  37.556  1.00  0.00     0.055 A 
ATOM     55  C   UNL A   1      39.806  34.272  36.726  1.00  0.00     0.041 A 
ATOM     56  F   UNL A   1      40.982  34.056  34.715  1.00  0.00    -0.206 F 
ATOM     57  C   UNL A   1      38.944  33.747  37.682  1.00  0.00     0.022 A 
BRANCH  54  58
ATOM     58  S   UNL A   1      37.251  31.766  38.675  1.00  0.00     0.124 S 
ATOM     59  O   UNL A   1      37.036  30.431  38.129  1.00  0.00    -0.237 OA
ATOM     60  O   UNL A   1      37.929  31.830  39.967  1.00  0.00    -0.237 OA
ATOM     61  O   UNL A   1      36.137  32.697  38.510  1.00  0.00    -0.744 OA
ENDBRANCH  54  58
ENDBRANCH  27  51
BRANCH  39  62
ATOM     62  C   UNL A   1      44.745  27.407  34.258  1.00  0.00     0.023 A 
ATOM     63  C   UNL A   1      44.577  26.266  35.063  1.00  0.00     0.031 A 
ATOM     64  C   UNL A   1      45.988  28.061  34.287  1.00  0.00     0.131 A 
ATOM     65  C   UNL A   1      45.614  25.850  35.908  1.00  0.00     0.055 A 
ATOM     66  C   UNL A   1      47.040  27.603  35.079  1.00  0.00     0.041 A 
ATOM     67  F   UNL A   1      46.200  29.160  33.544  1.00  0.00    -0.206 F 
ATOM     68  C   UNL A   1      46.852  26.499  35.907  1.00  0.00     0.022 A 
BRANCH  65  69
ATOM     69  S   UNL A   1      45.292  24.507  37.083  1.00  0.00     0.124 S 
ATOM     70  O   UNL A   1      46.580  24.380  37.757  1.00  0.00    -0.237 OA
ATOM     71  O   UNL A   1      44.202  25.049  37.887  1.00  0.00    -0.237 OA
ATOM     72  O   UNL A   1      44.927  23.382  36.224  1.00  0.00    -0.744 OA
ENDBRANCH  65  69
ENDBRANCH  39  62
ENDBRANCH  13  14
ENDBRANCH   6   8
ENDBRANCH   3   4
ENDBRANCH   2   3
ENDBRANCH   1   2
BRANCH   1  73
ATOM     73  C   UNL A   1      31.461  28.941  23.554  1.00  0.00     0.002 C 
BRANCH  73  74
ATOM     74  C   UNL A   1      30.139  28.413  23.004  1.00  0.00     0.021 C 
BRANCH  74  75
ATOM     75  C   UNL A   1      30.185  27.010  22.417  1.00  0.00     0.116 C 
BRANCH  75  76
ATOM     76  N   UNL A   1      31.391  26.764  21.652  1.00  0.00    -0.356 N 
ATOM     77  C   UNL A   1      32.331  25.789  21.681  1.00  0.00     0.229 C 
ATOM     78  H   UNL A   1      31.564  27.450  20.968  1.00  0.00     0.163 HD
ATOM     79  O   UNL A   1      33.278  25.949  20.899  1.00  0.00    -0.275 OA
BRANCH  77  80
ATOM     80  C   UNL A   1      32.345  24.602  22.650  1.00  0.00     0.145 C 
ATOM     81  C   UNL A   1      33.155  23.369  22.284  1.00  0.00     0.276 C 
ATOM     82  C   UNL A   1      32.765  24.912  24.132  1.00  0.00     0.037 C 
ATOM     83  N   UNL A   1      33.403  22.636  23.509  1.00  0.00    -0.330 N 
ATOM     84  C   UNL A   1      33.587  23.647  24.542  1.00  0.00     0.270 C 
ATOM     85  C   UNL A   1      33.609  26.203  24.291  1.00  0.00     0.014 C 
ATOM     86  C   UNL A   1      31.519  25.087  25.032  1.00  0.00     0.014 C 
ATOM     87  H   UNL A   1      34.257  22.082  23.445  1.00  0.00     0.348 HD
ATOM     88  C   UNL A   1      33.966  26.524  25.745  1.00  0.00     0.001 C 
ATOM     89  C   UNL A   1      31.868  25.331  26.501  1.00  0.00     0.001 C 
ATOM     90  C   UNL A   1      32.738  26.569  26.652  1.00  0.00     0.000 C 
BRANCH  83  91
ATOM     91  C   UNL A   1      32.569  21.462  23.776  1.00  0.00     0.299 C 
BRANCH  91  92
ATOM     92  C   UNL A   1      33.255  20.212  24.284  1.00  0.00     0.008 A 
ATOM     93  C   UNL A   1      34.616  20.210  24.624  1.00  0.00     0.011 A 
ATOM     94  C   UNL A   1      32.540  19.005  24.364  1.00  0.00     0.031 A 
ATOM     95  C   UNL A   1      35.280  19.010  24.892  1.00  0.00     0.022 A 
ATOM     96  C   UNL A   1      33.197  17.803  24.658  1.00  0.00     0.060 A 
ATOM     97  C   UNL A   1      34.578  17.802  24.886  1.00  0.00     0.059 A 
ATOM     98  Cl  UNL A   1      32.259  16.353  24.650  1.00  0.00    -0.083 Cl
ATOM     99  Cl  UNL A   1      35.480  16.345  25.107  1.00  0.00    -0.083 Cl
ENDBRANCH  91  92
ENDBRANCH  83  91
ENDBRANCH  77  80
ENDBRANCH  75  76
ENDBRANCH  74  75
ENDBRANCH  73  74
ENDBRANCH   1  73
TORSDOF 18
ENDMDL
MODEL 3
REMARK VINA RESULT:     -11.4      2.447      3.354
REMARK SMILES O=C(NCCCCCCNC(=O)[C@H]1C[N@H+](Cc2ccc(Cl)c(Cl)c2)CC12CCCCC2)c1ccc(-c2c3nc(c(-c4cc(S(=O)(=O)[O-])ccc4F)c4ccc([nH]4)c(-c4cc(S(=O)(=O)[O-])ccc4F)c4nc(c(-c5cc(S(=O)(=O)[O-])ccc5F)c5ccc2[nH]5)C=C4)C=C3)cc1
REMARK SMILES IDX 6 1 5 2 4 3 3 4 1 5 2 6 32 8 33 9 94 10 34 11 93 12 35 13
REMARK SMILES IDX 36 14 37 15 87 16 38 17 92 18 86 19 88 20 39 21 91 22 85 23
REMARK SMILES IDX 84 24 40 26 72 27 52 28 71 29 53 30 56 31 70 32 89 33 54 34
REMARK SMILES IDX 55 35 69 37 90 38 57 39 41 40 42 41 50 42 43 43 49 44 51 45
REMARK SMILES IDX 48 46 44 47 45 48 46 49 47 50 73 51 74 52 82 53 75 54 81 55
REMARK SMILES IDX 83 56 80 57 76 58 77 59 78 60 79 61 58 62 59 63 67 64 60 65
REMARK SMILES IDX 66 66 68 67 65 68 61 69 62 70 63 71 64 72 7 73 8 74 9 75
REMARK SMILES IDX 10 76 11 77 12 79 13 80 14 81 26 82 15 83 25 84 27 85 31 86
REMARK SMILES IDX 28 88 30 89 29 90 16 91 17 92 18 93 24 94 19 95 22 96 20 97
REMARK SMILES IDX 23 98 21 99
REMARK H PARENT 3 7 88 25 56 36 10 78 15 87
REMARK Flexibility Score: inf
ROOT
ATOM      1  C   UNL A   1      31.983  30.204  26.014  1.00  0.00     0.002 C 
ENDROOT
BRANCH   1   2
ATOM      2  C   UNL A   1      31.658  31.582  26.588  1.00  0.00     0.021 C 
BRANCH   2   3
ATOM      3  C   UNL A   1      32.798  32.248  27.341  1.00  0.00     0.116 C 
BRANCH   3   4
ATOM      4  N   UNL A   1      32.540  33.653  27.597  1.00  0.00    -0.352 N 
ATOM      5  O   UNL A   1      32.686  35.583  28.753  1.00  0.00    -0.269 OA
ATOM      6  C   UNL A   1      33.135  34.470  28.528  1.00  0.00     0.251 C 
ATOM      7  H   UNL A   1      31.851  34.074  27.033  1.00  0.00     0.163 HD
BRANCH   6   8
ATOM      8  C   UNL A   1      34.322  33.970  29.255  1.00  0.00     0.039 A 
ATOM      9  C   UNL A   1      34.171  33.039  30.288  1.00  0.00     0.014 A 
ATOM     10  C   UNL A   1      35.590  34.429  28.896  1.00  0.00     0.014 A 
ATOM     11  C   UNL A   1      35.276  32.643  31.027  1.00  0.00     0.010 A 
ATOM     12  C   UNL A   1      36.712  33.958  29.580  1.00  0.00     0.010 A 
ATOM     13  C   UNL A   1      36.562  33.058  30.648  1.00  0.00    -0.014 A 
BRANCH  13  14
ATOM     14  C   UNL A   1      37.739  32.412  31.279  1.00  0.00     0.031 A 
ATOM     15  C   UNL A   1      38.472  31.289  30.609  1.00  0.00     0.074 A 
ATOM     16  C   UNL A   1      38.124  32.867  32.490  1.00  0.00     0.049 A 
ATOM     17  N   UNL A   1      39.494  30.603  31.051  1.00  0.00    -0.248 NA
ATOM     18  C   UNL A   1      38.002  30.877  29.277  1.00  0.00     0.031 C 
ATOM     19  C   UNL A   1      37.463  33.952  33.227  1.00  0.00     0.029 A 
ATOM     20  N   UNL A   1      39.149  32.490  33.315  1.00  0.00    -0.354 N 
ATOM     21  C   UNL A   1      39.780  29.664  30.067  1.00  0.00     0.074 A 
ATOM     22  C   UNL A   1      38.813  29.862  29.006  1.00  0.00     0.031 C 
ATOM     23  C   UNL A   1      38.121  34.172  34.374  1.00  0.00     0.029 A 
ATOM     24  C   UNL A   1      39.187  33.190  34.500  1.00  0.00     0.049 A 
ATOM     25  H   UNL A   1      39.799  31.786  33.083  1.00  0.00     0.167 HD
ATOM     26  C   UNL A   1      40.759  28.726  30.063  1.00  0.00     0.034 A 
ATOM     27  C   UNL A   1      39.961  33.029  35.589  1.00  0.00     0.034 A 
ATOM     28  C   UNL A   1      41.712  28.557  31.135  1.00  0.00     0.049 A 
ATOM     29  C   UNL A   1      40.999  31.939  35.570  1.00  0.00     0.074 A 
ATOM     30  C   UNL A   1      42.786  27.685  31.199  1.00  0.00     0.029 A 
ATOM     31  N   UNL A   1      41.695  29.252  32.337  1.00  0.00    -0.354 N 
ATOM     32  N   UNL A   1      41.294  31.101  34.603  1.00  0.00    -0.248 NA
ATOM     33  C   UNL A   1      41.805  31.772  36.784  1.00  0.00     0.031 C 
ATOM     34  C   UNL A   1      43.360  27.790  32.468  1.00  0.00     0.029 A 
ATOM     35  C   UNL A   1      42.704  28.788  33.169  1.00  0.00     0.049 A 
ATOM     36  H   UNL A   1      41.060  29.969  32.566  1.00  0.00     0.167 HD
ATOM     37  C   UNL A   1      42.332  30.316  35.091  1.00  0.00     0.074 A 
ATOM     38  C   UNL A   1      42.635  30.807  36.419  1.00  0.00     0.031 C 
ATOM     39  C   UNL A   1      42.975  29.278  34.500  1.00  0.00     0.034 A 
BRANCH  26  40
ATOM     40  C   UNL A   1      40.831  27.772  28.895  1.00  0.00     0.023 A 
ATOM     41  C   UNL A   1      41.803  27.892  27.889  1.00  0.00     0.031 A 
ATOM     42  C   UNL A   1      39.937  26.688  28.824  1.00  0.00     0.131 A 
ATOM     43  C   UNL A   1      41.841  26.961  26.838  1.00  0.00     0.055 A 
ATOM     44  C   UNL A   1      40.019  25.730  27.811  1.00  0.00     0.041 A 
ATOM     45  F   UNL A   1      38.974  26.535  29.746  1.00  0.00    -0.206 F 
ATOM     46  C   UNL A   1      40.972  25.867  26.807  1.00  0.00     0.022 A 
BRANCH  43  47
ATOM     47  S   UNL A   1      42.987  27.244  25.462  1.00  0.00     0.124 S 
ATOM     48  O   UNL A   1      44.154  27.784  26.155  1.00  0.00    -0.237 OA
ATOM     49  O   UNL A   1      43.142  25.908  24.898  1.00  0.00    -0.237 OA
ATOM     50  O   UNL A   1      42.278  28.201  24.614  1.00  0.00    -0.744 OA
ENDBRANCH  43  47
ENDBRANCH  26  40
BRANCH  27  51
ATOM     51  C   UNL A   1      39.741  33.861  36.808  1.00  0.00     0.023 A 
ATOM     52  C   UNL A   1      40.577  34.947  37.102  1.00  0.00     0.031 A 
ATOM     53  C   UNL A   1      38.732  33.537  37.735  1.00  0.00     0.131 A 
ATOM     54  C   UNL A   1      40.436  35.626  38.322  1.00  0.00     0.055 A 
ATOM     55  C   UNL A   1      38.546  34.264  38.910  1.00  0.00     0.041 A 
ATOM     56  F   UNL A   1      37.903  32.506  37.507  1.00  0.00    -0.206 F 
ATOM     57  C   UNL A   1      39.416  35.304  39.221  1.00  0.00     0.022 A 
BRANCH  54  58
ATOM     58  S   UNL A   1      41.696  36.847  38.779  1.00  0.00     0.124 S 
ATOM     59  O   UNL A   1      40.876  37.958  39.248  1.00  0.00    -0.237 OA
ATOM     60  O   UNL A   1      42.451  36.130  39.803  1.00  0.00    -0.237 OA
ATOM     61  O   UNL A   1      42.412  37.081  37.527  1.00  0.00    -0.744 OA
ENDBRANCH  54  58
ENDBRANCH  27  51
BRANCH  39  62
ATOM     62  C   UNL A   1      44.082  28.627  35.291  1.00  0.00     0.023 A 
ATOM     63  C   UNL A   1      43.820  27.582  36.194  1.00  0.00     0.031 A 
ATOM     64  C   UNL A   1      45.408  29.073  35.161  1.00  0.00     0.131 A 
ATOM     65  C   UNL A   1      44.859  27.058  36.976  1.00  0.00     0.055 A 
ATOM     66  C   UNL A   1      46.450  28.502  35.890  1.00  0.00     0.041 A 
ATOM     67  F   UNL A   1      45.713  30.074  34.318  1.00  0.00    -0.206 F 
ATOM     68  C   UNL A   1      46.176  27.497  36.815  1.00  0.00     0.022 A 
BRANCH  65  69
ATOM     69  S   UNL A   1      44.450  25.861  38.275  1.00  0.00     0.124 S 
ATOM     70  O   UNL A   1      43.141  26.330  38.716  1.00  0.00    -0.237 OA
ATOM     71  O   UNL A   1      44.463  24.596  37.549  1.00  0.00    -0.237 OA
ATOM     72  O   UNL A   1      45.530  26.029  39.246  1.00  0.00    -0.744 OA
ENDBRANCH  65  69
ENDBRANCH  39  62
ENDBRANCH  13  14
ENDBRANCH   6   8
ENDBRANCH   3   4
ENDBRANCH   2   3
ENDBRANCH   1   2
BRANCH   1  73
ATOM     73  C   UNL A   1      31.934  29.041  27.007  1.00  0.00     0.002 C 
BRANCH  73  74
ATOM     74  C   UNL A   1      31.420  27.716  26.450  1.00  0.00     0.021 C 
BRANCH  74  75
ATOM     75  C   UNL A   1      32.491  26.710  26.054  1.00  0.00     0.116 C 
BRANCH  75  76
ATOM     76  N   UNL A   1      32.957  26.897  24.694  1.00  0.00    -0.356 N 
ATOM     77  C   UNL A   1      33.186  26.049  23.663  1.00  0.00     0.229 C 
ATOM     78  H   UNL A   1      33.146  27.837  24.474  1.00  0.00     0.163 HD
ATOM     79  O   UNL A   1      33.653  26.576  22.644  1.00  0.00    -0.275 OA
BRANCH  77  80
ATOM     80  C   UNL A   1      33.005  24.529  23.710  1.00  0.00     0.145 C 
ATOM     81  C   UNL A   1      32.702  23.788  22.417  1.00  0.00     0.276 C 
ATOM     82  C   UNL A   1      34.172  23.703  24.362  1.00  0.00     0.037 C 
ATOM     83  N   UNL A   1      33.053  22.398  22.624  1.00  0.00    -0.330 N 
ATOM     84  C   UNL A   1      34.231  22.412  23.481  1.00  0.00     0.270 C 
ATOM     85  C   UNL A   1      35.537  24.439  24.368  1.00  0.00     0.014 C 
ATOM     86  C   UNL A   1      33.848  23.362  25.836  1.00  0.00     0.014 C 
ATOM     87  H   UNL A   1      33.300  21.941  21.745  1.00  0.00     0.348 HD
ATOM     88  C   UNL A   1      36.654  23.647  25.055  1.00  0.00     0.001 C 
ATOM     89  C   UNL A   1      34.923  22.505  26.504  1.00  0.00     0.001 C 
ATOM     90  C   UNL A   1      36.273  23.204  26.467  1.00  0.00     0.000 C 
BRANCH  83  91
ATOM     91  C   UNL A   1      31.964  21.458  22.896  1.00  0.00     0.299 C 
BRANCH  91  92
ATOM     92  C   UNL A   1      32.307  20.168  23.611  1.00  0.00     0.008 A 
ATOM     93  C   UNL A   1      32.199  20.054  25.004  1.00  0.00     0.011 A 
ATOM     94  C   UNL A   1      32.803  19.074  22.883  1.00  0.00     0.031 A 
ATOM     95  C   UNL A   1      32.712  18.935  25.668  1.00  0.00     0.022 A 
ATOM     96  C   UNL A   1      33.294  17.940  23.542  1.00  0.00     0.060 A 
ATOM     97  C   UNL A   1      33.282  17.888  24.940  1.00  0.00     0.059 A 
ATOM     98  Cl  UNL A   1      33.967  16.678  22.574  1.00  0.00    -0.083 Cl
ATOM     99  Cl  UNL A   1      34.003  16.591  25.826  1.00  0.00    -0.083 Cl
ENDBRANCH  91  92
ENDBRANCH  83  91
ENDBRANCH  77  80
ENDBRANCH  75  76
ENDBRANCH  74  75
ENDBRANCH  73  74
ENDBRANCH   1  73
TORSDOF 18
ENDMDL
