MODEL 1
REMARK VINA RESULT:     -11.2      0.000      0.000
REMARK SMILES O=C(C[C@H]1CCCCO1)N[C@@H](C(=O)NCCCCCCNC(=O)c1ccc(-c2c3nc(c(-c4cc(S(=O)(=O)[O-])ccc4F)c4ccc([nH]4)c(-c4cc(S(=O)(=O)[O-])ccc4F)c4nc(c(-c5cc(S(=O)(=O)[O-])ccc5F)c5ccc2[nH]5)C=C4)C=C3)cc1)C1CCCCC1
REMARK SMILES IDX 17 1 16 2 15 3 14 4 12 5 13 6 11 8 10 9 1 10 2 11 3 13 4 14
REMARK SMILES IDX 5 15 9 16 6 17 8 18 7 19 87 20 88 21 92 22 89 23 91 24 90 25
REMARK SMILES IDX 18 26 19 27 20 28 21 29 22 30 23 32 24 33 25 34 86 35 26 36
REMARK SMILES IDX 85 37 27 38 28 39 29 40 79 41 30 42 84 43 78 44 80 45 31 46
REMARK SMILES IDX 83 47 77 48 76 49 32 51 64 52 44 53 63 54 45 55 48 56 62 57
REMARK SMILES IDX 81 58 46 59 47 60 61 62 82 63 49 64 33 65 34 66 42 67 35 68
REMARK SMILES IDX 41 69 43 70 40 71 36 72 37 73 38 74 39 75 65 76 66 77 74 78
REMARK SMILES IDX 67 79 73 80 75 81 72 82 68 83 69 84 70 85 71 86 50 87 51 88
REMARK SMILES IDX 59 89 52 90 58 91 60 92 57 93 53 94 54 95 55 96 56 97
REMARK H PARENT 14 7 10 12 21 31 80 50 48 61
REMARK Flexibility Score: inf
ROOT
ATOM      1  C   UNL A   1      34.146  23.483  24.598  1.00  0.00     0.002 C 
ENDROOT
BRANCH   1   2
ATOM      2  C   UNL A   1      34.210  24.978  24.251  1.00  0.00     0.021 C 
BRANCH   2   3
ATOM      3  C   UNL A   1      33.379  25.374  23.031  1.00  0.00     0.116 C 
BRANCH   3   4
ATOM      4  N   UNL A   1      33.611  26.755  22.665  1.00  0.00    -0.354 N 
ATOM      5  C   UNL A   1      33.044  27.901  23.139  1.00  0.00     0.242 C 
ATOM      6  O   UNL A   1      33.562  28.952  22.751  1.00  0.00    -0.273 OA
ATOM      7  H   UNL A   1      34.288  26.888  21.963  1.00  0.00     0.163 HD
BRANCH   5   8
ATOM      8  C   UNL A   1      31.931  27.851  24.225  1.00  0.00     0.174 C 
BRANCH   8   9
ATOM      9  N   UNL A   1      30.681  28.448  23.751  1.00  0.00    -0.344 N 
ATOM     10  O   UNL A   1      29.469  26.496  23.637  1.00  0.00    -0.275 OA
ATOM     11  C   UNL A   1      29.535  27.715  23.517  1.00  0.00     0.223 C 
ATOM     12  H   UNL A   1      30.657  29.419  23.591  1.00  0.00     0.164 HD
BRANCH  11  13
ATOM     13  C   UNL A   1      28.359  28.554  23.061  1.00  0.00     0.132 C 
BRANCH  13  14
ATOM     14  C   UNL A   1      28.788  29.935  22.563  1.00  0.00     0.127 C 
ATOM     15  C   UNL A   1      28.029  30.338  21.294  1.00  0.00     0.033 C 
ATOM     16  O   UNL A   1      28.623  30.889  23.618  1.00  0.00    -0.378 OA
ATOM     17  C   UNL A   1      28.397  31.756  20.875  1.00  0.00     0.005 C 
ATOM     18  C   UNL A   1      28.972  32.222  23.259  1.00  0.00     0.160 C 
ATOM     19  C   UNL A   1      28.188  32.705  22.047  1.00  0.00     0.029 C 
ENDBRANCH  13  14
ENDBRANCH  11  13
ENDBRANCH   8   9
BRANCH   8  20
ATOM     20  C   UNL A   1      32.332  28.500  25.581  1.00  0.00     0.021 C 
ATOM     21  C   UNL A   1      33.831  28.300  25.874  1.00  0.00     0.006 C 
ATOM     22  C   UNL A   1      31.906  29.979  25.709  1.00  0.00     0.006 C 
ATOM     23  C   UNL A   1      34.258  28.957  27.183  1.00  0.00     0.000 C 
ATOM     24  C   UNL A   1      32.389  30.623  27.007  1.00  0.00     0.000 C 
ATOM     25  C   UNL A   1      33.888  30.434  27.206  1.00  0.00     0.000 C 
ENDBRANCH   8  20
ENDBRANCH   5   8
ENDBRANCH   3   4
ENDBRANCH   2   3
ENDBRANCH   1   2
BRANCH   1  26
ATOM     26  C   UNL A   1      35.129  22.588  23.834  1.00  0.00     0.002 C 
BRANCH  26  27
ATOM     27  C   UNL A   1      36.609  22.863  24.109  1.00  0.00     0.021 C 
BRANCH  27  28
ATOM     28  C   UNL A   1      36.956  23.036  25.582  1.00  0.00     0.116 C 
BRANCH  28  29
ATOM     29  N   UNL A   1      38.042  22.160  25.994  1.00  0.00    -0.352 N 
ATOM     30  C   UNL A   1      39.270  22.509  26.503  1.00  0.00     0.251 C 
ATOM     31  H   UNL A   1      37.875  21.194  25.895  1.00  0.00     0.163 HD
ATOM     32  O   UNL A   1      40.151  21.665  26.630  1.00  0.00    -0.269 OA
BRANCH  30  33
ATOM     33  C   UNL A   1      39.517  23.919  26.869  1.00  0.00     0.039 A 
ATOM     34  C   UNL A   1      39.291  24.337  28.183  1.00  0.00     0.014 A 
ATOM     35  C   UNL A   1      40.013  24.814  25.916  1.00  0.00     0.014 A 
ATOM     36  C   UNL A   1      39.623  25.641  28.559  1.00  0.00     0.010 A 
ATOM     37  C   UNL A   1      40.400  26.089  26.308  1.00  0.00     0.010 A 
ATOM     38  C   UNL A   1      40.211  26.517  27.634  1.00  0.00    -0.014 A 
BRANCH  38  39
ATOM     39  C   UNL A   1      40.622  27.896  28.001  1.00  0.00     0.031 A 
ATOM     40  C   UNL A   1      42.086  28.236  28.053  1.00  0.00     0.074 A 
ATOM     41  C   UNL A   1      39.700  28.798  28.388  1.00  0.00     0.049 A 
ATOM     42  N   UNL A   1      42.676  29.298  28.537  1.00  0.00    -0.248 NA
ATOM     43  C   UNL A   1      43.009  27.222  27.519  1.00  0.00     0.031 C 
ATOM     44  C   UNL A   1      38.252  28.580  28.396  1.00  0.00     0.029 A 
ATOM     45  N   UNL A   1      39.844  30.074  28.875  1.00  0.00    -0.354 N 
ATOM     46  C   UNL A   1      44.040  29.067  28.397  1.00  0.00     0.074 A 
ATOM     47  C   UNL A   1      44.186  27.745  27.826  1.00  0.00     0.031 C 
ATOM     48  C   UNL A   1      37.644  29.683  28.862  1.00  0.00     0.029 A 
ATOM     49  C   UNL A   1      38.656  30.666  29.238  1.00  0.00     0.049 A 
ATOM     50  H   UNL A   1      40.716  30.524  28.957  1.00  0.00     0.167 HD
ATOM     51  C   UNL A   1      45.074  29.890  28.704  1.00  0.00     0.034 A 
ATOM     52  C   UNL A   1      38.413  31.851  29.833  1.00  0.00     0.034 A 
ATOM     53  C   UNL A   1      44.906  31.214  29.250  1.00  0.00     0.049 A 
ATOM     54  C   UNL A   1      39.578  32.742  30.188  1.00  0.00     0.074 A 
ATOM     55  C   UNL A   1      45.876  32.153  29.551  1.00  0.00     0.029 A 
ATOM     56  N   UNL A   1      43.684  31.787  29.580  1.00  0.00    -0.354 N 
ATOM     57  N   UNL A   1      40.863  32.520  30.032  1.00  0.00    -0.248 NA
ATOM     58  C   UNL A   1      39.262  34.041  30.797  1.00  0.00     0.031 C 
ATOM     59  C   UNL A   1      45.248  33.268  30.114  1.00  0.00     0.029 A 
ATOM     60  C   UNL A   1      43.879  33.056  30.101  1.00  0.00     0.049 A 
ATOM     61  H   UNL A   1      42.807  31.354  29.461  1.00  0.00     0.167 HD
ATOM     62  C   UNL A   1      41.504  33.669  30.486  1.00  0.00     0.074 A 
ATOM     63  C   UNL A   1      40.467  34.579  30.926  1.00  0.00     0.031 C 
ATOM     64  C   UNL A   1      42.831  33.950  30.527  1.00  0.00     0.034 A 
BRANCH  51  65
ATOM     65  C   UNL A   1      46.470  29.361  28.485  1.00  0.00     0.023 A 
ATOM     66  C   UNL A   1      47.161  28.659  29.488  1.00  0.00     0.031 A 
ATOM     67  C   UNL A   1      47.136  29.594  27.268  1.00  0.00     0.131 A 
ATOM     68  C   UNL A   1      48.499  28.290  29.290  1.00  0.00     0.055 A 
ATOM     69  C   UNL A   1      48.440  29.148  27.046  1.00  0.00     0.041 A 
ATOM     70  F   UNL A   1      46.536  30.277  26.280  1.00  0.00    -0.206 F 
ATOM     71  C   UNL A   1      49.135  28.506  28.065  1.00  0.00     0.022 A 
BRANCH  68  72
ATOM     72  S   UNL A   1      49.440  27.660  30.706  1.00  0.00     0.124 S 
ATOM     73  O   UNL A   1      48.687  26.454  31.046  1.00  0.00    -0.237 OA
ATOM     74  O   UNL A   1      50.765  27.447  30.136  1.00  0.00    -0.237 OA
ATOM     75  O   UNL A   1      49.346  28.740  31.687  1.00  0.00    -0.744 OA
ENDBRANCH  68  72
ENDBRANCH  51  65
BRANCH  52  76
ATOM     76  C   UNL A   1      37.017  32.261  30.157  1.00  0.00     0.023 A 
ATOM     77  C   UNL A   1      36.243  32.979  29.233  1.00  0.00     0.031 A 
ATOM     78  C   UNL A   1      36.448  31.972  31.410  1.00  0.00     0.131 A 
ATOM     79  C   UNL A   1      34.960  33.423  29.589  1.00  0.00     0.055 A 
ATOM     80  C   UNL A   1      35.153  32.372  31.742  1.00  0.00     0.041 A 
ATOM     81  F   UNL A   1      37.143  31.282  32.328  1.00  0.00    -0.206 F 
ATOM     82  C   UNL A   1      34.405  33.113  30.832  1.00  0.00     0.022 A 
BRANCH  79  83
ATOM     83  S   UNL A   1      34.055  34.482  28.427  1.00  0.00     0.124 S 
ATOM     84  O   UNL A   1      34.921  34.442  27.254  1.00  0.00    -0.237 OA
ATOM     85  O   UNL A   1      32.781  33.783  28.310  1.00  0.00    -0.237 OA
ATOM     86  O   UNL A   1      33.997  35.769  29.116  1.00  0.00    -0.744 OA
ENDBRANCH  79  83
ENDBRANCH  52  76
BRANCH  64  87
ATOM     87  C   UNL A   1      43.231  35.325  30.998  1.00  0.00     0.023 A 
ATOM     88  C   UNL A   1      43.403  36.396  30.105  1.00  0.00     0.031 A 
ATOM     89  C   UNL A   1      43.411  35.566  32.372  1.00  0.00     0.131 A 
ATOM     90  C   UNL A   1      43.776  37.657  30.597  1.00  0.00     0.055 A 
ATOM     91  C   UNL A   1      43.736  36.832  32.858  1.00  0.00     0.041 A 
ATOM     92  F   UNL A   1      43.257  34.575  33.264  1.00  0.00    -0.206 F 
ATOM     93  C   UNL A   1      43.927  37.885  31.969  1.00  0.00     0.022 A 
BRANCH  90  94
ATOM     94  S   UNL A   1      44.102  38.995  29.416  1.00  0.00     0.124 S 
ATOM     95  O   UNL A   1      44.175  38.271  28.152  1.00  0.00    -0.237 OA
ATOM     96  O   UNL A   1      42.939  39.858  29.590  1.00  0.00    -0.237 OA
ATOM     97  O   UNL A   1      45.366  39.561  29.880  1.00  0.00    -0.744 OA
ENDBRANCH  90  94
ENDBRANCH  64  87
ENDBRANCH  38  39
ENDBRANCH  30  33
ENDBRANCH  28  29
ENDBRANCH  27  28
ENDBRANCH  26  27
ENDBRANCH   1  26
TORSDOF 20
ENDMDL
MODEL 2
REMARK VINA RESULT:     -11.0      5.142      8.842
REMARK SMILES O=C(C[C@H]1CCCCO1)N[C@@H](C(=O)NCCCCCCNC(=O)c1ccc(-c2c3nc(c(-c4cc(S(=O)(=O)[O-])ccc4F)c4ccc([nH]4)c(-c4cc(S(=O)(=O)[O-])ccc4F)c4nc(c(-c5cc(S(=O)(=O)[O-])ccc5F)c5ccc2[nH]5)C=C4)C=C3)cc1)C1CCCCC1
REMARK SMILES IDX 17 1 16 2 15 3 14 4 12 5 13 6 11 8 10 9 1 10 2 11 3 13 4 14
REMARK SMILES IDX 5 15 9 16 6 17 8 18 7 19 87 20 88 21 92 22 89 23 91 24 90 25
REMARK SMILES IDX 18 26 19 27 20 28 21 29 22 30 23 32 24 33 25 34 86 35 26 36
REMARK SMILES IDX 85 37 27 38 28 39 29 40 79 41 30 42 84 43 78 44 80 45 31 46
REMARK SMILES IDX 83 47 77 48 76 49 32 51 64 52 44 53 63 54 45 55 48 56 62 57
REMARK SMILES IDX 81 58 46 59 47 60 61 62 82 63 49 64 33 65 34 66 42 67 35 68
REMARK SMILES IDX 41 69 43 70 40 71 36 72 37 73 38 74 39 75 65 76 66 77 74 78
REMARK SMILES IDX 67 79 73 80 75 81 72 82 68 83 69 84 70 85 71 86 50 87 51 88
REMARK SMILES IDX 59 89 52 90 58 91 60 92 57 93 53 94 54 95 55 96 56 97
REMARK H PARENT 14 7 10 12 21 31 80 50 48 61
REMARK Flexibility Score: inf
ROOT
ATOM      1  C   UNL A   1      31.961  29.094  27.207  1.00  0.00     0.002 C 
ENDROOT
BRANCH   1   2
ATOM      2  C   UNL A   1      33.046  28.009  27.141  1.00  0.00     0.021 C 
BRANCH   2   3
ATOM      3  C   UNL A   1      32.732  26.868  26.174  1.00  0.00     0.116 C 
BRANCH   3   4
ATOM      4  N   UNL A   1      31.568  26.124  26.602  1.00  0.00    -0.354 N 
ATOM      5  C   UNL A   1      30.517  25.638  25.881  1.00  0.00     0.242 C 
ATOM      6  O   UNL A   1      29.747  24.895  26.497  1.00  0.00    -0.273 OA
ATOM      7  H   UNL A   1      31.528  25.937  27.568  1.00  0.00     0.163 HD
BRANCH   5   8
ATOM      8  C   UNL A   1      30.419  25.884  24.348  1.00  0.00     0.174 C 
BRANCH   8   9
ATOM      9  N   UNL A   1      31.626  25.439  23.647  1.00  0.00    -0.344 N 
ATOM     10  O   UNL A   1      31.000  23.240  23.390  1.00  0.00    -0.275 OA
ATOM     11  C   UNL A   1      31.806  24.145  23.202  1.00  0.00     0.223 C 
ATOM     12  H   UNL A   1      32.343  26.094  23.487  1.00  0.00     0.164 HD
BRANCH  11  13
ATOM     13  C   UNL A   1      33.119  23.929  22.477  1.00  0.00     0.132 C 
BRANCH  13  14
ATOM     14  C   UNL A   1      34.218  23.413  23.407  1.00  0.00     0.127 C 
ATOM     15  C   UNL A   1      34.653  24.484  24.414  1.00  0.00     0.033 C 
ATOM     16  O   UNL A   1      33.766  22.217  24.052  1.00  0.00    -0.378 OA
ATOM     17  C   UNL A   1      35.673  23.917  25.394  1.00  0.00     0.005 C 
ATOM     18  C   UNL A   1      34.704  21.657  24.966  1.00  0.00     0.160 C 
ATOM     19  C   UNL A   1      35.115  22.656  26.038  1.00  0.00     0.029 C 
ENDBRANCH  13  14
ENDBRANCH  11  13
ENDBRANCH   8   9
BRANCH   8  20
ATOM     20  C   UNL A   1      30.108  27.358  23.956  1.00  0.00     0.021 C 
ATOM     21  C   UNL A   1      31.172  27.915  22.992  1.00  0.00     0.006 C 
ATOM     22  C   UNL A   1      28.673  27.566  23.423  1.00  0.00     0.006 C 
ATOM     23  C   UNL A   1      30.873  29.348  22.564  1.00  0.00     0.000 C 
ATOM     24  C   UNL A   1      28.418  28.998  22.958  1.00  0.00     0.000 C 
ATOM     25  C   UNL A   1      29.477  29.466  21.966  1.00  0.00     0.000 C 
ENDBRANCH   8  20
ENDBRANCH   5   8
ENDBRANCH   3   4
ENDBRANCH   2   3
ENDBRANCH   1   2
BRANCH   1  26
ATOM     26  C   UNL A   1      32.124  30.250  26.213  1.00  0.00     0.002 C 
BRANCH  26  27
ATOM     27  C   UNL A   1      31.737  31.630  26.750  1.00  0.00     0.021 C 
BRANCH  27  28
ATOM     28  C   UNL A   1      32.882  32.399  27.397  1.00  0.00     0.116 C 
BRANCH  28  29
ATOM     29  N   UNL A   1      32.539  33.792  27.635  1.00  0.00    -0.352 N 
ATOM     30  C   UNL A   1      33.057  34.646  28.579  1.00  0.00     0.251 C 
ATOM     31  H   UNL A   1      31.848  34.171  27.045  1.00  0.00     0.163 HD
ATOM     32  O   UNL A   1      32.535  35.739  28.780  1.00  0.00    -0.269 OA
BRANCH  30  33
ATOM     33  C   UNL A   1      34.233  34.216  29.363  1.00  0.00     0.039 A 
ATOM     34  C   UNL A   1      34.047  33.440  30.510  1.00  0.00     0.014 A 
ATOM     35  C   UNL A   1      35.521  34.550  28.934  1.00  0.00     0.014 A 
ATOM     36  C   UNL A   1      35.159  32.943  31.194  1.00  0.00     0.010 A 
ATOM     37  C   UNL A   1      36.623  34.003  29.580  1.00  0.00     0.010 A 
ATOM     38  C   UNL A   1      36.454  33.192  30.716  1.00  0.00    -0.014 A 
BRANCH  38  39
ATOM     39  C   UNL A   1      37.663  32.646  31.385  1.00  0.00     0.031 A 
ATOM     40  C   UNL A   1      38.400  31.500  30.748  1.00  0.00     0.074 A 
ATOM     41  C   UNL A   1      38.029  33.100  32.599  1.00  0.00     0.049 A 
ATOM     42  N   UNL A   1      39.343  30.741  31.241  1.00  0.00    -0.248 NA
ATOM     43  C   UNL A   1      37.989  31.142  29.382  1.00  0.00     0.031 C 
ATOM     44  C   UNL A   1      37.384  34.195  33.325  1.00  0.00     0.029 A 
ATOM     45  N   UNL A   1      39.021  32.678  33.451  1.00  0.00    -0.354 N 
ATOM     46  C   UNL A   1      39.616  29.794  30.261  1.00  0.00     0.074 A 
ATOM     47  C   UNL A   1      38.704  30.049  29.165  1.00  0.00     0.031 C 
ATOM     48  C   UNL A   1      37.996  34.358  34.509  1.00  0.00     0.029 A 
ATOM     49  C   UNL A   1      39.040  33.348  34.652  1.00  0.00     0.049 A 
ATOM     50  H   UNL A   1      39.659  31.963  33.223  1.00  0.00     0.167 HD
ATOM     51  C   UNL A   1      40.551  28.811  30.270  1.00  0.00     0.034 A 
ATOM     52  C   UNL A   1      39.792  33.151  35.754  1.00  0.00     0.034 A 
ATOM     53  C   UNL A   1      41.466  28.589  31.361  1.00  0.00     0.049 A 
ATOM     54  C   UNL A   1      40.811  32.038  35.753  1.00  0.00     0.074 A 
ATOM     55  C   UNL A   1      42.486  27.660  31.457  1.00  0.00     0.029 A 
ATOM     56  N   UNL A   1      41.470  29.307  32.552  1.00  0.00    -0.354 N 
ATOM     57  N   UNL A   1      41.072  31.161  34.810  1.00  0.00    -0.248 NA
ATOM     58  C   UNL A   1      41.635  31.887  36.959  1.00  0.00     0.031 C 
ATOM     59  C   UNL A   1      43.068  27.775  32.724  1.00  0.00     0.029 A 
ATOM     60  C   UNL A   1      42.459  28.824  33.394  1.00  0.00     0.049 A 
ATOM     61  H   UNL A   1      40.859  30.049  32.765  1.00  0.00     0.167 HD
ATOM     62  C   UNL A   1      42.119  30.382  35.297  1.00  0.00     0.074 A 
ATOM     63  C   UNL A   1      42.437  30.889  36.616  1.00  0.00     0.031 C 
ATOM     64  C   UNL A   1      42.765  29.348  34.703  1.00  0.00     0.034 A 
BRANCH  51  65
ATOM     65  C   UNL A   1      40.601  27.890  29.075  1.00  0.00     0.023 A 
ATOM     66  C   UNL A   1      41.552  28.056  28.054  1.00  0.00     0.031 A 
ATOM     67  C   UNL A   1      39.661  26.853  28.937  1.00  0.00     0.131 A 
ATOM     68  C   UNL A   1      41.490  27.256  26.903  1.00  0.00     0.055 A 
ATOM     69  C   UNL A   1      39.659  26.004  27.829  1.00  0.00     0.041 A 
ATOM     70  F   UNL A   1      38.715  26.657  29.870  1.00  0.00    -0.206 F 
ATOM     71  C   UNL A   1      40.567  26.213  26.795  1.00  0.00     0.022 A 
BRANCH  68  72
ATOM     72  S   UNL A   1      42.536  27.696  25.489  1.00  0.00     0.124 S 
ATOM     73  O   UNL A   1      42.404  26.510  24.646  1.00  0.00    -0.237 OA
ATOM     74  O   UNL A   1      41.898  28.909  24.990  1.00  0.00    -0.237 OA
ATOM     75  O   UNL A   1      43.857  27.884  26.085  1.00  0.00    -0.744 OA
ENDBRANCH  68  72
ENDBRANCH  51  65
BRANCH  52  76
ATOM     76  C   UNL A   1      39.601  34.004  36.961  1.00  0.00     0.023 A 
ATOM     77  C   UNL A   1      38.962  33.502  38.105  1.00  0.00     0.031 A 
ATOM     78  C   UNL A   1      40.023  35.345  36.977  1.00  0.00     0.131 A 
ATOM     79  C   UNL A   1      38.723  34.346  39.201  1.00  0.00     0.055 A 
ATOM     80  C   UNL A   1      39.828  36.167  38.088  1.00  0.00     0.041 A 
ATOM     81  F   UNL A   1      40.645  35.873  35.911  1.00  0.00    -0.206 F 
ATOM     82  C   UNL A   1      39.163  35.671  39.206  1.00  0.00     0.022 A 
BRANCH  79  83
ATOM     83  S   UNL A   1      37.755  33.704  40.595  1.00  0.00     0.124 S 
ATOM     84  O   UNL A   1      36.630  33.076  39.910  1.00  0.00    -0.237 OA
ATOM     85  O   UNL A   1      38.706  32.799  41.232  1.00  0.00    -0.237 OA
ATOM     86  O   UNL A   1      37.429  34.904  41.362  1.00  0.00    -0.744 OA
ENDBRANCH  79  83
ENDBRANCH  52  76
BRANCH  64  87
ATOM     87  C   UNL A   1      43.929  28.743  35.445  1.00  0.00     0.023 A 
ATOM     88  C   UNL A   1      43.760  27.700  36.371  1.00  0.00     0.031 A 
ATOM     89  C   UNL A   1      45.233  29.204  35.190  1.00  0.00     0.131 A 
ATOM     90  C   UNL A   1      44.878  27.172  37.034  1.00  0.00     0.055 A 
ATOM     91  C   UNL A   1      46.345  28.643  35.818  1.00  0.00     0.041 A 
ATOM     92  F   UNL A   1      45.446  30.197  34.313  1.00  0.00    -0.206 F 
ATOM     93  C   UNL A   1      46.170  27.625  36.751  1.00  0.00     0.022 A 
BRANCH  90  94
ATOM     94  S   UNL A   1      44.622  25.905  38.307  1.00  0.00     0.124 S 
ATOM     95  O   UNL A   1      45.942  25.289  38.391  1.00  0.00    -0.237 OA
ATOM     96  O   UNL A   1      44.214  26.697  39.462  1.00  0.00    -0.237 OA
ATOM     97  O   UNL A   1      43.576  25.056  37.740  1.00  0.00    -0.744 OA
ENDBRANCH  90  94
ENDBRANCH  64  87
ENDBRANCH  38  39
ENDBRANCH  30  33
ENDBRANCH  28  29
ENDBRANCH  27  28
ENDBRANCH  26  27
ENDBRANCH   1  26
TORSDOF 20
ENDMDL
MODEL 3
REMARK VINA RESULT:     -11.0      4.443     10.010
REMARK SMILES O=C(C[C@H]1CCCCO1)N[C@@H](C(=O)NCCCCCCNC(=O)c1ccc(-c2c3nc(c(-c4cc(S(=O)(=O)[O-])ccc4F)c4ccc([nH]4)c(-c4cc(S(=O)(=O)[O-])ccc4F)c4nc(c(-c5cc(S(=O)(=O)[O-])ccc5F)c5ccc2[nH]5)C=C4)C=C3)cc1)C1CCCCC1
REMARK SMILES IDX 17 1 16 2 15 3 14 4 12 5 13 6 11 8 10 9 1 10 2 11 3 13 4 14
REMARK SMILES IDX 5 15 9 16 6 17 8 18 7 19 87 20 88 21 92 22 89 23 91 24 90 25
REMARK SMILES IDX 18 26 19 27 20 28 21 29 22 30 23 32 24 33 25 34 86 35 26 36
REMARK SMILES IDX 85 37 27 38 28 39 29 40 79 41 30 42 84 43 78 44 80 45 31 46
REMARK SMILES IDX 83 47 77 48 76 49 32 51 64 52 44 53 63 54 45 55 48 56 62 57
REMARK SMILES IDX 81 58 46 59 47 60 61 62 82 63 49 64 33 65 34 66 42 67 35 68
REMARK SMILES IDX 41 69 43 70 40 71 36 72 37 73 38 74 39 75 65 76 66 77 74 78
REMARK SMILES IDX 67 79 73 80 75 81 72 82 68 83 69 84 70 85 71 86 50 87 51 88
REMARK SMILES IDX 59 89 52 90 58 91 60 92 57 93 53 94 54 95 55 96 56 97
REMARK H PARENT 14 7 10 12 21 31 80 50 48 61
REMARK Flexibility Score: inf
ROOT
ATOM      1  C   UNL A   1      31.262  27.427  24.316  1.00  0.00     0.002 C 
ENDROOT
BRANCH   1   2
ATOM      2  C   UNL A   1      30.505  26.842  25.516  1.00  0.00     0.021 C 
BRANCH   2   3
ATOM      3  C   UNL A   1      29.674  25.602  25.189  1.00  0.00     0.116 C 
BRANCH   3   4
ATOM      4  N   UNL A   1      29.619  24.695  26.316  1.00  0.00    -0.354 N 
ATOM      5  C   UNL A   1      30.296  23.535  26.548  1.00  0.00     0.242 C 
ATOM      6  O   UNL A   1      30.164  23.058  27.679  1.00  0.00    -0.273 OA
ATOM      7  H   UNL A   1      28.994  24.960  27.029  1.00  0.00     0.163 HD
BRANCH   5   8
ATOM      8  C   UNL A   1      31.292  22.967  25.496  1.00  0.00     0.174 C 
BRANCH   8   9
ATOM      9  N   UNL A   1      31.954  21.752  25.975  1.00  0.00    -0.344 N 
ATOM     10  O   UNL A   1      32.073  20.684  23.940  1.00  0.00    -0.275 OA
ATOM     11  C   UNL A   1      32.314  20.711  25.142  1.00  0.00     0.223 C 
ATOM     12  H   UNL A   1      32.152  21.673  26.936  1.00  0.00     0.164 HD
BRANCH  11  13
ATOM     13  C   UNL A   1      33.015  19.574  25.859  1.00  0.00     0.132 C 
BRANCH  13  14
ATOM     14  C   UNL A   1      32.890  18.249  25.106  1.00  0.00     0.127 C 
ATOM     15  C   UNL A   1      34.131  17.968  24.251  1.00  0.00     0.033 C 
ATOM     16  O   UNL A   1      32.630  17.197  26.043  1.00  0.00    -0.378 OA
ATOM     17  C   UNL A   1      34.029  16.597  23.592  1.00  0.00     0.005 C 
ATOM     18  C   UNL A   1      32.519  15.905  25.454  1.00  0.00     0.160 C 
ATOM     19  C   UNL A   1      33.760  15.540  24.653  1.00  0.00     0.029 C 
ENDBRANCH  13  14
ENDBRANCH  11  13
ENDBRANCH   8   9
BRANCH   8  20
ATOM     20  C   UNL A   1      32.366  23.986  25.018  1.00  0.00     0.021 C 
ATOM     21  C   UNL A   1      33.655  23.870  25.851  1.00  0.00     0.006 C 
ATOM     22  C   UNL A   1      32.645  23.923  23.500  1.00  0.00     0.006 C 
ATOM     23  C   UNL A   1      34.739  24.836  25.380  1.00  0.00     0.000 C 
ATOM     24  C   UNL A   1      33.767  24.865  23.066  1.00  0.00     0.000 C 
ATOM     25  C   UNL A   1      35.029  24.659  23.895  1.00  0.00     0.000 C 
ENDBRANCH   8  20
ENDBRANCH   5   8
ENDBRANCH   3   4
ENDBRANCH   2   3
ENDBRANCH   1   2
BRANCH   1  26
ATOM     26  C   UNL A   1      32.646  28.009  24.629  1.00  0.00     0.002 C 
BRANCH  26  27
ATOM     27  C   UNL A   1      33.042  27.984  26.108  1.00  0.00     0.021 C 
BRANCH  27  28
ATOM     28  C   UNL A   1      34.297  28.783  26.438  1.00  0.00     0.116 C 
BRANCH  28  29
ATOM     29  N   UNL A   1      33.989  30.158  26.799  1.00  0.00    -0.352 N 
ATOM     30  C   UNL A   1      34.626  30.958  27.718  1.00  0.00     0.251 C 
ATOM     31  H   UNL A   1      33.229  30.567  26.325  1.00  0.00     0.163 HD
ATOM     32  O   UNL A   1      34.137  32.034  28.048  1.00  0.00    -0.269 OA
BRANCH  30  33
ATOM     33  C   UNL A   1      35.892  30.489  28.319  1.00  0.00     0.039 A 
ATOM     34  C   UNL A   1      35.859  29.779  29.521  1.00  0.00     0.014 A 
ATOM     35  C   UNL A   1      37.105  30.720  27.665  1.00  0.00     0.014 A 
ATOM     36  C   UNL A   1      37.040  29.242  30.038  1.00  0.00     0.010 A 
ATOM     37  C   UNL A   1      38.268  30.132  28.149  1.00  0.00     0.010 A 
ATOM     38  C   UNL A   1      38.249  29.386  29.339  1.00  0.00    -0.014 A 
BRANCH  38  39
ATOM     39  C   UNL A   1      39.520  28.794  29.828  1.00  0.00     0.031 A 
ATOM     40  C   UNL A   1      40.284  29.493  30.918  1.00  0.00     0.074 A 
ATOM     41  C   UNL A   1      40.037  27.706  29.226  1.00  0.00     0.049 A 
ATOM     42  N   UNL A   1      41.497  29.277  31.354  1.00  0.00    -0.248 NA
ATOM     43  C   UNL A   1      39.595  30.613  31.580  1.00  0.00     0.031 C 
ATOM     44  C   UNL A   1      39.398  26.950  28.147  1.00  0.00     0.029 A 
ATOM     45  N   UNL A   1      41.233  27.058  29.420  1.00  0.00    -0.354 N 
ATOM     46  C   UNL A   1      41.731  30.253  32.317  1.00  0.00     0.074 A 
ATOM     47  C   UNL A   1      40.549  31.087  32.365  1.00  0.00     0.031 C 
ATOM     48  C   UNL A   1      40.207  25.944  27.777  1.00  0.00     0.029 A 
ATOM     49  C   UNL A   1      41.443  26.013  28.550  1.00  0.00     0.049 A 
ATOM     50  H   UNL A   1      41.880  27.318  30.115  1.00  0.00     0.167 HD
ATOM     51  C   UNL A   1      42.827  30.425  33.098  1.00  0.00     0.034 A 
ATOM     52  C   UNL A   1      42.520  25.221  28.376  1.00  0.00     0.034 A 
ATOM     53  C   UNL A   1      43.984  29.567  33.053  1.00  0.00     0.049 A 
ATOM     54  C   UNL A   1      43.738  25.444  29.239  1.00  0.00     0.074 A 
ATOM     55  C   UNL A   1      45.126  29.615  33.831  1.00  0.00     0.029 A 
ATOM     56  N   UNL A   1      44.148  28.502  32.174  1.00  0.00    -0.354 N 
ATOM     57  N   UNL A   1      43.938  26.358  30.160  1.00  0.00    -0.248 NA
ATOM     58  C   UNL A   1      44.871  24.530  29.041  1.00  0.00     0.031 C 
ATOM     59  C   UNL A   1      46.003  28.620  33.388  1.00  0.00     0.029 A 
ATOM     60  C   UNL A   1      45.381  27.903  32.379  1.00  0.00     0.049 A 
ATOM     61  H   UNL A   1      43.485  28.216  31.505  1.00  0.00     0.167 HD
ATOM     62  C   UNL A   1      45.205  26.103  30.678  1.00  0.00     0.074 A 
ATOM     63  C   UNL A   1      45.723  24.953  29.965  1.00  0.00     0.031 C 
ATOM     64  C   UNL A   1      45.875  26.753  31.662  1.00  0.00     0.034 A 
BRANCH  51  65
ATOM     65  C   UNL A   1      42.828  31.605  34.040  1.00  0.00     0.023 A 
ATOM     66  C   UNL A   1      42.360  31.496  35.361  1.00  0.00     0.031 A 
ATOM     67  C   UNL A   1      43.271  32.865  33.601  1.00  0.00     0.131 A 
ATOM     68  C   UNL A   1      42.265  32.640  36.167  1.00  0.00     0.055 A 
ATOM     69  C   UNL A   1      43.254  33.983  34.437  1.00  0.00     0.041 A 
ATOM     70  F   UNL A   1      43.711  33.036  32.344  1.00  0.00    -0.206 F 
ATOM     71  C   UNL A   1      42.733  33.878  35.723  1.00  0.00     0.022 A 
BRANCH  68  72
ATOM     72  S   UNL A   1      41.381  32.513  37.745  1.00  0.00     0.124 S 
ATOM     73  O   UNL A   1      40.070  32.037  37.310  1.00  0.00    -0.237 OA
ATOM     74  O   UNL A   1      42.194  31.558  38.487  1.00  0.00    -0.237 OA
ATOM     75  O   UNL A   1      41.399  33.882  38.258  1.00  0.00    -0.744 OA
ENDBRANCH  68  72
ENDBRANCH  51  65
BRANCH  52  76
ATOM     76  C   UNL A   1      42.516  24.160  27.329  1.00  0.00     0.023 A 
ATOM     77  C   UNL A   1      41.891  22.924  27.557  1.00  0.00     0.031 A 
ATOM     78  C   UNL A   1      43.167  24.352  26.098  1.00  0.00     0.131 A 
ATOM     79  C   UNL A   1      41.968  21.912  26.588  1.00  0.00     0.055 A 
ATOM     80  C   UNL A   1      43.198  23.360  25.116  1.00  0.00     0.041 A 
ATOM     81  F   UNL A   1      43.775  25.518  25.826  1.00  0.00    -0.206 F 
ATOM     82  C   UNL A   1      42.605  22.125  25.364  1.00  0.00     0.022 A 
BRANCH  79  83
ATOM     83  S   UNL A   1      41.285  20.278  26.985  1.00  0.00     0.124 S 
ATOM     84  O   UNL A   1      40.219  20.155  25.996  1.00  0.00    -0.237 OA
ATOM     85  O   UNL A   1      42.443  19.412  26.793  1.00  0.00    -0.237 OA
ATOM     86  O   UNL A   1      40.840  20.424  28.369  1.00  0.00    -0.744 OA
ENDBRANCH  79  83
ENDBRANCH  52  76
BRANCH  64  87
ATOM     87  C   UNL A   1      47.212  26.192  32.075  1.00  0.00     0.023 A 
ATOM     88  C   UNL A   1      47.344  25.297  33.150  1.00  0.00     0.031 A 
ATOM     89  C   UNL A   1      48.367  26.542  31.352  1.00  0.00     0.131 A 
ATOM     90  C   UNL A   1      48.613  24.804  33.492  1.00  0.00     0.055 A 
ATOM     91  C   UNL A   1      49.618  26.012  31.668  1.00  0.00     0.041 A 
ATOM     92  F   UNL A   1      48.292  27.392  30.317  1.00  0.00    -0.206 F 
ATOM     93  C   UNL A   1      49.747  25.143  32.747  1.00  0.00     0.022 A 
BRANCH  90  94
ATOM     94  S   UNL A   1      48.772  23.739  34.951  1.00  0.00     0.124 S 
ATOM     95  O   UNL A   1      47.518  23.995  35.651  1.00  0.00    -0.237 OA
ATOM     96  O   UNL A   1      48.913  22.413  34.360  1.00  0.00    -0.237 OA
ATOM     97  O   UNL A   1      49.969  24.249  35.618  1.00  0.00    -0.744 OA
ENDBRANCH  90  94
ENDBRANCH  64  87
ENDBRANCH  38  39
ENDBRANCH  30  33
ENDBRANCH  28  29
ENDBRANCH  27  28
ENDBRANCH  26  27
ENDBRANCH   1  26
TORSDOF 20
ENDMDL
