MODEL 1
REMARK VINA RESULT:      -9.4      0.000      0.000
REMARK SMILES Cc1ccc(S(=O)(=O)n2cc(C(=O)C(=O)N[C@@H](Cc3cnc[nH]3)C(=O)NCCCCCCNC(=O)c3ccc(-c4c5nc(c(-c6cc(S(=O)(=O)[O-])ccc6F)c6ccc([nH]6)c(-c6cc(S(=O)(=O)[O-])ccc6F)c6nc(c(-c7cc(S(=O)(=O)[O-])ccc7F)c7ccc4[nH]7)C=C6)C=C5)cc3)c3ccccc32)cc1
REMARK SMILES IDX 28 1 27 2 26 3 24 4 25 5 17 7 16 8 14 9 15 10 12 12 13 13
REMARK SMILES IDX 11 14 9 15 10 16 104 17 99 18 103 19 100 20 102 21 101 22
REMARK SMILES IDX 6 23 7 24 8 25 5 26 1 27 2 28 3 29 106 30 4 31 105 32 18 33
REMARK SMILES IDX 19 34 20 35 23 36 21 37 22 38 29 40 30 41 31 42 32 43 33 44
REMARK SMILES IDX 34 45 35 47 36 48 37 49 98 50 38 51 97 52 39 53 40 54 41 55
REMARK SMILES IDX 91 56 42 57 96 58 90 59 92 60 43 61 95 62 89 63 88 64 44 66
REMARK SMILES IDX 76 67 56 68 75 69 57 70 60 71 74 72 93 73 58 74 59 75 73 77
REMARK SMILES IDX 94 78 61 79 45 80 46 81 54 82 47 83 53 84 55 85 52 86 48 87
REMARK SMILES IDX 49 88 50 89 51 90 77 91 78 92 86 93 79 94 85 95 87 96 84 97
REMARK SMILES IDX 80 98 81 99 82 100 83 101 62 102 63 103 71 104 64 105 70 106
REMARK SMILES IDX 72 107 69 108 65 109 66 110 67 111 68 112
REMARK H PARENT 26 6 16 11 23 39 33 46 92 65 60 76
REMARK Flexibility Score: inf
ROOT
ATOM      1  C   UNL A   1      39.043  33.873  30.367  1.00  0.00     0.021 C 
ENDROOT
BRANCH   1   2
ATOM      2  C   UNL A   1      38.038  33.443  29.316  1.00  0.00     0.116 C 
BRANCH   2   3
ATOM      3  N   UNL A   1      37.490  32.118  29.496  1.00  0.00    -0.354 N 
ATOM      4  C   UNL A   1      36.195  31.717  29.347  1.00  0.00     0.242 C 
ATOM      5  O   UNL A   1      35.995  30.540  29.025  1.00  0.00    -0.273 OA
ATOM      6  H   UNL A   1      38.130  31.418  29.759  1.00  0.00     0.163 HD
BRANCH   4   7
ATOM      7  C   UNL A   1      35.000  32.699  29.448  1.00  0.00     0.177 C 
BRANCH   7   8
ATOM      8  N   UNL A   1      34.193  32.546  30.667  1.00  0.00    -0.337 N 
ATOM      9  C   UNL A   1      34.467  32.835  31.983  1.00  0.00     0.293 C 
ATOM     10  O   UNL A   1      33.533  32.811  32.780  1.00  0.00    -0.265 OA
ATOM     11  H   UNL A   1      33.296  32.168  30.514  1.00  0.00     0.164 HD
BRANCH   9  12
ATOM     12  C   UNL A   1      35.907  33.115  32.475  1.00  0.00     0.252 C 
ATOM     13  O   UNL A   1      36.348  34.256  32.387  1.00  0.00    -0.283 OA
BRANCH  12  14
ATOM     14  C   UNL A   1      36.783  32.044  32.971  1.00  0.00     0.054 A 
ATOM     15  N   UNL A   1      38.065  30.225  33.128  1.00  0.00    -0.240 N 
ATOM     16  C   UNL A   1      37.181  30.891  32.321  1.00  0.00     0.117 A 
ATOM     17  C   UNL A   1      38.249  30.889  34.323  1.00  0.00     0.065 A 
ATOM     18  C   UNL A   1      37.421  32.017  34.263  1.00  0.00     0.012 A 
ATOM     19  C   UNL A   1      39.034  30.607  35.456  1.00  0.00     0.028 A 
ATOM     20  C   UNL A   1      37.371  32.875  35.386  1.00  0.00     0.011 A 
ATOM     21  C   UNL A   1      38.952  31.470  36.553  1.00  0.00     0.002 A 
ATOM     22  C   UNL A   1      38.129  32.588  36.523  1.00  0.00     0.001 A 
BRANCH  15  23
ATOM     23  S   UNL A   1      38.803  28.750  32.710  1.00  0.00     0.268 S 
ATOM     24  O   UNL A   1      37.800  27.739  32.977  1.00  0.00    -0.201 OA
ATOM     25  O   UNL A   1      40.095  28.747  33.376  1.00  0.00    -0.201 OA
BRANCH  23  26
ATOM     26  C   UNL A   1      39.104  28.763  30.964  1.00  0.00     0.088 A 
ATOM     27  C   UNL A   1      40.273  28.727  26.826  1.00  0.00     0.044 C 
ATOM     28  C   UNL A   1      39.844  28.751  28.263  1.00  0.00    -0.051 A 
ATOM     29  C   UNL A   1      40.462  29.631  29.161  1.00  0.00     0.005 A 
ATOM     30  C   UNL A   1      38.824  27.910  28.724  1.00  0.00     0.005 A 
ATOM     31  C   UNL A   1      40.100  29.634  30.507  1.00  0.00     0.022 A 
ATOM     32  C   UNL A   1      38.442  27.922  30.068  1.00  0.00     0.022 A 
ENDBRANCH  23  26
ENDBRANCH  15  23
ENDBRANCH  12  14
ENDBRANCH   9  12
ENDBRANCH   7   8
BRANCH   7  33
ATOM     33  C   UNL A   1      35.338  34.161  29.104  1.00  0.00     0.090 C 
BRANCH  33  34
ATOM     34  C   UNL A   1      34.208  35.133  29.066  1.00  0.00     0.037 A 
ATOM     35  C   UNL A   1      32.939  35.071  28.528  1.00  0.00     0.134 A 
ATOM     36  N   UNL A   1      34.294  36.400  29.598  1.00  0.00    -0.348 N 
ATOM     37  N   UNL A   1      32.248  36.229  28.771  1.00  0.00    -0.245 NA
ATOM     38  C   UNL A   1      33.085  37.008  29.418  1.00  0.00     0.196 A 
ATOM     39  H   UNL A   1      35.085  36.796  30.031  1.00  0.00     0.167 HD
ENDBRANCH  33  34
ENDBRANCH   7  33
ENDBRANCH   4   7
ENDBRANCH   2   3
ENDBRANCH   1   2
BRANCH   1  40
ATOM     40  C   UNL A   1      40.471  33.399  30.100  1.00  0.00     0.002 C 
BRANCH  40  41
ATOM     41  C   UNL A   1      41.201  32.736  31.279  1.00  0.00     0.002 C 
BRANCH  41  42
ATOM     42  C   UNL A   1      40.976  33.360  32.653  1.00  0.00     0.021 C 
BRANCH  42  43
ATOM     43  C   UNL A   1      42.237  33.775  33.389  1.00  0.00     0.116 C 
BRANCH  43  44
ATOM     44  N   UNL A   1      42.054  34.081  34.803  1.00  0.00    -0.352 N 
ATOM     45  C   UNL A   1      42.141  33.237  35.900  1.00  0.00     0.251 C 
ATOM     46  H   UNL A   1      41.837  35.019  35.007  1.00  0.00     0.163 HD
ATOM     47  O   UNL A   1      41.808  33.599  37.025  1.00  0.00    -0.269 OA
BRANCH  45  48
ATOM     48  C   UNL A   1      42.855  31.941  35.752  1.00  0.00     0.039 A 
ATOM     49  C   UNL A   1      44.234  31.983  36.008  1.00  0.00     0.014 A 
ATOM     50  C   UNL A   1      42.312  30.922  34.982  1.00  0.00     0.014 A 
ATOM     51  C   UNL A   1      45.087  31.245  35.205  1.00  0.00     0.010 A 
ATOM     52  C   UNL A   1      43.143  30.310  34.081  1.00  0.00     0.010 A 
ATOM     53  C   UNL A   1      44.518  30.538  34.154  1.00  0.00    -0.014 A 
BRANCH  53  54
ATOM     54  C   UNL A   1      45.275  29.962  33.068  1.00  0.00     0.031 A 
ATOM     55  C   UNL A   1      45.224  30.680  31.790  1.00  0.00     0.074 A 
ATOM     56  C   UNL A   1      46.055  28.892  33.328  1.00  0.00     0.049 A 
ATOM     57  N   UNL A   1      45.348  30.136  30.637  1.00  0.00    -0.248 NA
ATOM     58  C   UNL A   1      44.920  32.108  31.722  1.00  0.00     0.031 C 
ATOM     59  C   UNL A   1      47.100  28.299  32.505  1.00  0.00     0.029 A 
ATOM     60  N   UNL A   1      45.895  27.990  34.379  1.00  0.00    -0.354 N 
ATOM     61  C   UNL A   1      45.480  31.161  29.723  1.00  0.00     0.074 A 
ATOM     62  C   UNL A   1      45.057  32.347  30.417  1.00  0.00     0.031 C 
ATOM     63  C   UNL A   1      47.317  27.037  32.923  1.00  0.00     0.029 A 
ATOM     64  C   UNL A   1      46.303  26.727  33.923  1.00  0.00     0.049 A 
ATOM     65  H   UNL A   1      45.556  28.202  35.279  1.00  0.00     0.167 HD
ATOM     66  C   UNL A   1      46.122  30.904  28.551  1.00  0.00     0.034 A 
ATOM     67  C   UNL A   1      45.375  25.728  33.804  1.00  0.00     0.034 A 
ATOM     68  C   UNL A   1      46.500  29.491  28.503  1.00  0.00     0.049 A 
ATOM     69  C   UNL A   1      45.108  25.372  32.356  1.00  0.00     0.074 A 
ATOM     70  C   UNL A   1      47.673  28.842  28.854  1.00  0.00     0.029 A 
ATOM     71  N   UNL A   1      45.509  28.522  28.449  1.00  0.00    -0.354 N 
ATOM     72  N   UNL A   1      45.360  26.162  31.346  1.00  0.00    -0.248 NA
ATOM     73  C   UNL A   1      44.562  24.085  31.939  1.00  0.00     0.031 C 
ATOM     74  C   UNL A   1      47.349  27.486  29.120  1.00  0.00     0.029 A 
ATOM     75  C   UNL A   1      45.995  27.305  28.888  1.00  0.00     0.049 A 
ATOM     76  H   UNL A   1      44.586  28.680  28.142  1.00  0.00     0.167 HD
ATOM     77  C   UNL A   1      45.014  25.537  30.177  1.00  0.00     0.074 A 
ATOM     78  C   UNL A   1      44.548  24.227  30.603  1.00  0.00     0.031 C 
ATOM     79  C   UNL A   1      45.119  26.146  28.955  1.00  0.00     0.034 A 
BRANCH  66  80
ATOM     80  C   UNL A   1      46.715  31.938  27.623  1.00  0.00     0.023 A 
ATOM     81  C   UNL A   1      48.093  31.845  27.335  1.00  0.00     0.031 A 
ATOM     82  C   UNL A   1      46.053  33.032  27.031  1.00  0.00     0.131 A 
ATOM     83  C   UNL A   1      48.761  32.821  26.578  1.00  0.00     0.055 A 
ATOM     84  C   UNL A   1      46.724  34.025  26.301  1.00  0.00     0.041 A 
ATOM     85  F   UNL A   1      44.725  33.176  27.081  1.00  0.00    -0.206 F 
ATOM     86  C   UNL A   1      48.088  33.927  26.075  1.00  0.00     0.022 A 
BRANCH  83  87
ATOM     87  S   UNL A   1      50.531  32.608  26.261  1.00  0.00     0.124 S 
ATOM     88  O   UNL A   1      50.685  33.225  24.948  1.00  0.00    -0.237 OA
ATOM     89  O   UNL A   1      51.135  33.315  27.385  1.00  0.00    -0.237 OA
ATOM     90  O   UNL A   1      50.705  31.155  26.284  1.00  0.00    -0.744 OA
ENDBRANCH  83  87
ENDBRANCH  66  80
BRANCH  67  91
ATOM     91  C   UNL A   1      44.337  25.788  34.885  1.00  0.00     0.023 A 
ATOM     92  C   UNL A   1      44.742  25.433  36.191  1.00  0.00     0.031 A 
ATOM     93  C   UNL A   1      43.196  26.593  34.749  1.00  0.00     0.131 A 
ATOM     94  C   UNL A   1      44.138  26.036  37.306  1.00  0.00     0.055 A 
ATOM     95  C   UNL A   1      42.568  27.153  35.869  1.00  0.00     0.041 A 
ATOM     96  F   UNL A   1      42.761  26.967  33.538  1.00  0.00    -0.206 F 
ATOM     97  C   UNL A   1      43.076  26.928  37.147  1.00  0.00     0.022 A 
BRANCH  94  98
ATOM     98  S   UNL A   1      44.909  25.868  38.941  1.00  0.00     0.124 S 
ATOM     99  O   UNL A   1      44.016  26.646  39.791  1.00  0.00    -0.237 OA
ATOM    100  O   UNL A   1      44.890  24.424  39.167  1.00  0.00    -0.237 OA
ATOM    101  O   UNL A   1      46.244  26.432  38.743  1.00  0.00    -0.744 OA
ENDBRANCH  94  98
ENDBRANCH  67  91
BRANCH  79 102
ATOM    102  C   UNL A   1      44.461  25.644  27.691  1.00  0.00     0.023 A 
ATOM    103  C   UNL A   1      45.011  24.614  26.923  1.00  0.00     0.031 A 
ATOM    104  C   UNL A   1      43.210  26.137  27.248  1.00  0.00     0.131 A 
ATOM    105  C   UNL A   1      44.431  24.223  25.709  1.00  0.00     0.055 A 
ATOM    106  C   UNL A   1      42.565  25.653  26.107  1.00  0.00     0.041 A 
ATOM    107  F   UNL A   1      42.554  27.105  27.903  1.00  0.00    -0.206 F 
ATOM    108  C   UNL A   1      43.193  24.712  25.306  1.00  0.00     0.022 A 
BRANCH 105 109
ATOM    109  S   UNL A   1      45.419  23.177  24.615  1.00  0.00     0.124 S 
ATOM    110  O   UNL A   1      46.300  24.158  23.985  1.00  0.00    -0.237 OA
ATOM    111  O   UNL A   1      46.063  22.261  25.551  1.00  0.00    -0.237 OA
ATOM    112  O   UNL A   1      44.428  22.573  23.729  1.00  0.00    -0.744 OA
ENDBRANCH 105 109
ENDBRANCH  79 102
ENDBRANCH  53  54
ENDBRANCH  45  48
ENDBRANCH  43  44
ENDBRANCH  42  43
ENDBRANCH  41  42
ENDBRANCH  40  41
ENDBRANCH   1  40
TORSDOF 23
ENDMDL
MODEL 2
REMARK VINA RESULT:      -8.8      6.597     13.245
REMARK SMILES Cc1ccc(S(=O)(=O)n2cc(C(=O)C(=O)N[C@@H](Cc3cnc[nH]3)C(=O)NCCCCCCNC(=O)c3ccc(-c4c5nc(c(-c6cc(S(=O)(=O)[O-])ccc6F)c6ccc([nH]6)c(-c6cc(S(=O)(=O)[O-])ccc6F)c6nc(c(-c7cc(S(=O)(=O)[O-])ccc7F)c7ccc4[nH]7)C=C6)C=C5)cc3)c3ccccc32)cc1
REMARK SMILES IDX 28 1 27 2 26 3 24 4 25 5 17 7 16 8 14 9 15 10 12 12 13 13
REMARK SMILES IDX 11 14 9 15 10 16 104 17 99 18 103 19 100 20 102 21 101 22
REMARK SMILES IDX 6 23 7 24 8 25 5 26 1 27 2 28 3 29 106 30 4 31 105 32 18 33
REMARK SMILES IDX 19 34 20 35 23 36 21 37 22 38 29 40 30 41 31 42 32 43 33 44
REMARK SMILES IDX 34 45 35 47 36 48 37 49 98 50 38 51 97 52 39 53 40 54 41 55
REMARK SMILES IDX 91 56 42 57 96 58 90 59 92 60 43 61 95 62 89 63 88 64 44 66
REMARK SMILES IDX 76 67 56 68 75 69 57 70 60 71 74 72 93 73 58 74 59 75 73 77
REMARK SMILES IDX 94 78 61 79 45 80 46 81 54 82 47 83 53 84 55 85 52 86 48 87
REMARK SMILES IDX 49 88 50 89 51 90 77 91 78 92 86 93 79 94 85 95 87 96 84 97
REMARK SMILES IDX 80 98 81 99 82 100 83 101 62 102 63 103 71 104 64 105 70 106
REMARK SMILES IDX 72 107 69 108 65 109 66 110 67 111 68 112
REMARK H PARENT 26 6 16 11 23 39 33 46 92 65 60 76
REMARK Flexibility Score: inf
ROOT
ATOM      1  C   UNL A   1      38.920  26.507  29.129  1.00  0.00     0.021 C 
ENDROOT
BRANCH   1   2
ATOM      2  C   UNL A   1      40.138  25.650  28.843  1.00  0.00     0.116 C 
BRANCH   2   3
ATOM      3  N   UNL A   1      40.565  25.633  27.463  1.00  0.00    -0.354 N 
ATOM      4  C   UNL A   1      40.178  24.776  26.474  1.00  0.00     0.242 C 
ATOM      5  O   UNL A   1      40.209  25.196  25.311  1.00  0.00    -0.273 OA
ATOM      6  H   UNL A   1      41.216  26.324  27.204  1.00  0.00     0.163 HD
BRANCH   4   7
ATOM      7  C   UNL A   1      39.600  23.369  26.766  1.00  0.00     0.177 C 
BRANCH   7   8
ATOM      8  N   UNL A   1      38.882  22.763  25.636  1.00  0.00    -0.337 N 
ATOM      9  C   UNL A   1      37.593  22.923  25.184  1.00  0.00     0.293 C 
ATOM     10  O   UNL A   1      37.312  22.457  24.084  1.00  0.00    -0.265 OA
ATOM     11  H   UNL A   1      39.420  22.129  25.108  1.00  0.00     0.164 HD
BRANCH   9  12
ATOM     12  C   UNL A   1      36.503  23.601  26.048  1.00  0.00     0.252 C 
ATOM     13  O   UNL A   1      36.822  24.072  27.135  1.00  0.00    -0.283 OA
BRANCH  12  14
ATOM     14  C   UNL A   1      35.091  23.630  25.640  1.00  0.00     0.054 A 
ATOM     15  N   UNL A   1      33.016  23.050  25.064  1.00  0.00    -0.240 N 
ATOM     16  C   UNL A   1      34.278  22.568  25.288  1.00  0.00     0.117 A 
ATOM     17  C   UNL A   1      32.965  24.418  25.228  1.00  0.00     0.065 A 
ATOM     18  C   UNL A   1      34.270  24.811  25.552  1.00  0.00     0.012 A 
ATOM     19  C   UNL A   1      31.921  25.353  25.104  1.00  0.00     0.028 A 
ATOM     20  C   UNL A   1      34.531  26.187  25.738  1.00  0.00     0.011 A 
ATOM     21  C   UNL A   1      32.217  26.708  25.284  1.00  0.00     0.002 A 
ATOM     22  C   UNL A   1      33.505  27.123  25.592  1.00  0.00     0.001 A 
BRANCH  15  23
ATOM     23  S   UNL A   1      31.697  22.075  24.607  1.00  0.00     0.268 S 
ATOM     24  O   UNL A   1      31.294  22.574  23.308  1.00  0.00    -0.201 OA
ATOM     25  O   UNL A   1      30.793  22.068  25.744  1.00  0.00    -0.201 OA
BRANCH  23  26
ATOM     26  C   UNL A   1      32.290  20.420  24.387  1.00  0.00     0.088 A 
ATOM     27  C   UNL A   1      33.974  16.564  23.501  1.00  0.00     0.044 C 
ATOM     28  C   UNL A   1      33.368  17.897  23.823  1.00  0.00    -0.051 A 
ATOM     29  C   UNL A   1      32.697  18.617  22.826  1.00  0.00     0.005 A 
ATOM     30  C   UNL A   1      33.456  18.435  25.113  1.00  0.00     0.005 A 
ATOM     31  C   UNL A   1      32.165  19.877  23.103  1.00  0.00     0.022 A 
ATOM     32  C   UNL A   1      32.907  19.687  25.402  1.00  0.00     0.022 A 
ENDBRANCH  23  26
ENDBRANCH  15  23
ENDBRANCH  12  14
ENDBRANCH   9  12
ENDBRANCH   7   8
BRANCH   7  33
ATOM     33  C   UNL A   1      40.573  22.408  27.474  1.00  0.00     0.090 C 
BRANCH  33  34
ATOM     34  C   UNL A   1      41.682  21.836  26.659  1.00  0.00     0.037 A 
ATOM     35  C   UNL A   1      41.998  20.547  26.282  1.00  0.00     0.134 A 
ATOM     36  N   UNL A   1      42.694  22.606  26.129  1.00  0.00    -0.348 N 
ATOM     37  N   UNL A   1      43.123  20.527  25.501  1.00  0.00    -0.245 NA
ATOM     38  C   UNL A   1      43.519  21.777  25.423  1.00  0.00     0.196 A 
ATOM     39  H   UNL A   1      42.803  23.578  26.239  1.00  0.00     0.167 HD
ENDBRANCH  33  34
ENDBRANCH   7  33
ENDBRANCH   4   7
ENDBRANCH   2   3
ENDBRANCH   1   2
BRANCH   1  40
ATOM     40  C   UNL A   1      39.162  28.009  28.980  1.00  0.00     0.002 C 
BRANCH  40  41
ATOM     41  C   UNL A   1      37.988  28.928  29.354  1.00  0.00     0.002 C 
BRANCH  41  42
ATOM     42  C   UNL A   1      37.032  29.301  28.227  1.00  0.00     0.021 C 
BRANCH  42  43
ATOM     43  C   UNL A   1      37.232  30.688  27.641  1.00  0.00     0.116 C 
BRANCH  43  44
ATOM     44  N   UNL A   1      36.501  31.754  28.316  1.00  0.00    -0.352 N 
ATOM     45  C   UNL A   1      36.976  32.725  29.185  1.00  0.00     0.251 C 
ATOM     46  H   UNL A   1      35.536  31.789  28.128  1.00  0.00     0.163 HD
ATOM     47  O   UNL A   1      36.218  33.468  29.803  1.00  0.00    -0.269 OA
BRANCH  45  48
ATOM     48  C   UNL A   1      38.433  33.020  29.205  1.00  0.00     0.039 A 
ATOM     49  C   UNL A   1      39.241  32.010  29.750  1.00  0.00     0.014 A 
ATOM     50  C   UNL A   1      38.887  34.329  29.143  1.00  0.00     0.014 A 
ATOM     51  C   UNL A   1      40.313  32.368  30.550  1.00  0.00     0.010 A 
ATOM     52  C   UNL A   1      39.842  34.703  30.053  1.00  0.00     0.010 A 
ATOM     53  C   UNL A   1      40.492  33.722  30.803  1.00  0.00    -0.014 A 
BRANCH  53  54
ATOM     54  C   UNL A   1      41.366  34.240  31.829  1.00  0.00     0.031 A 
ATOM     55  C   UNL A   1      40.723  34.661  33.077  1.00  0.00     0.074 A 
ATOM     56  C   UNL A   1      42.698  34.193  31.619  1.00  0.00     0.049 A 
ATOM     57  N   UNL A   1      41.162  35.577  33.858  1.00  0.00    -0.248 NA
ATOM     58  C   UNL A   1      39.431  34.119  33.497  1.00  0.00     0.031 C 
ATOM     59  C   UNL A   1      43.783  34.391  32.571  1.00  0.00     0.029 A 
ATOM     60  N   UNL A   1      43.337  34.133  30.381  1.00  0.00    -0.354 N 
ATOM     61  C   UNL A   1      40.418  35.505  35.018  1.00  0.00     0.074 A 
ATOM     62  C   UNL A   1      39.272  34.701  34.686  1.00  0.00     0.031 C 
ATOM     63  C   UNL A   1      44.909  34.683  31.890  1.00  0.00     0.029 A 
ATOM     64  C   UNL A   1      44.544  34.842  30.488  1.00  0.00     0.049 A 
ATOM     65  H   UNL A   1      43.001  33.675  29.576  1.00  0.00     0.167 HD
ATOM     66  C   UNL A   1      40.970  35.973  36.171  1.00  0.00     0.034 A 
ATOM     67  C   UNL A   1      44.706  35.995  29.769  1.00  0.00     0.034 A 
ATOM     68  C   UNL A   1      42.291  36.533  35.885  1.00  0.00     0.049 A 
ATOM     69  C   UNL A   1      44.737  37.219  30.661  1.00  0.00     0.074 A 
ATOM     70  C   UNL A   1      43.558  35.974  35.947  1.00  0.00     0.029 A 
ATOM     71  N   UNL A   1      42.394  37.667  35.094  1.00  0.00    -0.354 N 
ATOM     72  N   UNL A   1      44.245  37.260  31.870  1.00  0.00    -0.248 NA
ATOM     73  C   UNL A   1      45.352  38.481  30.261  1.00  0.00     0.031 C 
ATOM     74  C   UNL A   1      44.401  36.728  35.088  1.00  0.00     0.029 A 
ATOM     75  C   UNL A   1      43.659  37.764  34.545  1.00  0.00     0.049 A 
ATOM     76  H   UNL A   1      41.666  38.314  34.943  1.00  0.00     0.167 HD
ATOM     77  C   UNL A   1      44.444  38.506  32.405  1.00  0.00     0.074 A 
ATOM     78  C   UNL A   1      45.168  39.222  31.367  1.00  0.00     0.031 C 
ATOM     79  C   UNL A   1      43.987  38.859  33.646  1.00  0.00     0.034 A 
BRANCH  66  80
ATOM     80  C   UNL A   1      40.514  35.632  37.570  1.00  0.00     0.023 A 
ATOM     81  C   UNL A   1      40.336  36.699  38.477  1.00  0.00     0.031 A 
ATOM     82  C   UNL A   1      40.278  34.350  38.102  1.00  0.00     0.131 A 
ATOM     83  C   UNL A   1      40.025  36.480  39.829  1.00  0.00     0.055 A 
ATOM     84  C   UNL A   1      40.000  34.126  39.460  1.00  0.00     0.041 A 
ATOM     85  F   UNL A   1      40.255  33.253  37.339  1.00  0.00    -0.206 F 
ATOM     86  C   UNL A   1      39.877  35.195  40.334  1.00  0.00     0.022 A 
BRANCH  83  87
ATOM     87  S   UNL A   1      39.815  37.916  40.911  1.00  0.00     0.124 S 
ATOM     88  O   UNL A   1      39.284  37.309  42.127  1.00  0.00    -0.237 OA
ATOM     89  O   UNL A   1      41.172  38.446  40.991  1.00  0.00    -0.237 OA
ATOM     90  O   UNL A   1      38.869  38.756  40.176  1.00  0.00    -0.744 OA
ENDBRANCH  83  87
ENDBRANCH  66  80
BRANCH  67  91
ATOM     91  C   UNL A   1      44.047  35.921  28.424  1.00  0.00     0.023 A 
ATOM     92  C   UNL A   1      44.635  35.071  27.461  1.00  0.00     0.031 A 
ATOM     93  C   UNL A   1      42.695  36.259  28.261  1.00  0.00     0.131 A 
ATOM     94  C   UNL A   1      43.834  34.434  26.499  1.00  0.00     0.055 A 
ATOM     95  C   UNL A   1      41.913  35.656  27.268  1.00  0.00     0.041 A 
ATOM     96  F   UNL A   1      42.077  37.059  29.141  1.00  0.00    -0.206 F 
ATOM     97  C   UNL A   1      42.465  34.693  26.425  1.00  0.00     0.022 A 
BRANCH  94  98
ATOM     98  S   UNL A   1      44.526  33.067  25.523  1.00  0.00     0.124 S 
ATOM     99  O   UNL A   1      43.803  31.913  26.043  1.00  0.00    -0.237 OA
ATOM    100  O   UNL A   1      44.200  33.445  24.150  1.00  0.00    -0.237 OA
ATOM    101  O   UNL A   1      45.953  33.115  25.843  1.00  0.00    -0.744 OA
ENDBRANCH  94  98
ENDBRANCH  67  91
BRANCH  79 102
ATOM    102  C   UNL A   1      43.888  40.281  34.147  1.00  0.00     0.023 A 
ATOM    103  C   UNL A   1      43.249  41.286  33.415  1.00  0.00     0.031 A 
ATOM    104  C   UNL A   1      44.372  40.665  35.421  1.00  0.00     0.131 A 
ATOM    105  C   UNL A   1      43.246  42.616  33.857  1.00  0.00     0.055 A 
ATOM    106  C   UNL A   1      44.248  41.964  35.920  1.00  0.00     0.041 A 
ATOM    107  F   UNL A   1      44.980  39.797  36.242  1.00  0.00    -0.206 F 
ATOM    108  C   UNL A   1      43.713  42.961  35.120  1.00  0.00     0.022 A 
BRANCH 105 109
ATOM    109  S   UNL A   1      42.750  43.884  32.668  1.00  0.00     0.124 S 
ATOM    110  O   UNL A   1      44.042  44.440  32.274  1.00  0.00    -0.237 OA
ATOM    111  O   UNL A   1      42.059  43.106  31.646  1.00  0.00    -0.237 OA
ATOM    112  O   UNL A   1      41.902  44.778  33.453  1.00  0.00    -0.744 OA
ENDBRANCH 105 109
ENDBRANCH  79 102
ENDBRANCH  53  54
ENDBRANCH  45  48
ENDBRANCH  43  44
ENDBRANCH  42  43
ENDBRANCH  41  42
ENDBRANCH  40  41
ENDBRANCH   1  40
TORSDOF 23
ENDMDL
MODEL 3
REMARK VINA RESULT:      -8.8      4.784     10.200
REMARK SMILES Cc1ccc(S(=O)(=O)n2cc(C(=O)C(=O)N[C@@H](Cc3cnc[nH]3)C(=O)NCCCCCCNC(=O)c3ccc(-c4c5nc(c(-c6cc(S(=O)(=O)[O-])ccc6F)c6ccc([nH]6)c(-c6cc(S(=O)(=O)[O-])ccc6F)c6nc(c(-c7cc(S(=O)(=O)[O-])ccc7F)c7ccc4[nH]7)C=C6)C=C5)cc3)c3ccccc32)cc1
REMARK SMILES IDX 28 1 27 2 26 3 24 4 25 5 17 7 16 8 14 9 15 10 12 12 13 13
REMARK SMILES IDX 11 14 9 15 10 16 104 17 99 18 103 19 100 20 102 21 101 22
REMARK SMILES IDX 6 23 7 24 8 25 5 26 1 27 2 28 3 29 106 30 4 31 105 32 18 33
REMARK SMILES IDX 19 34 20 35 23 36 21 37 22 38 29 40 30 41 31 42 32 43 33 44
REMARK SMILES IDX 34 45 35 47 36 48 37 49 98 50 38 51 97 52 39 53 40 54 41 55
REMARK SMILES IDX 91 56 42 57 96 58 90 59 92 60 43 61 95 62 89 63 88 64 44 66
REMARK SMILES IDX 76 67 56 68 75 69 57 70 60 71 74 72 93 73 58 74 59 75 73 77
REMARK SMILES IDX 94 78 61 79 45 80 46 81 54 82 47 83 53 84 55 85 52 86 48 87
REMARK SMILES IDX 49 88 50 89 51 90 77 91 78 92 86 93 79 94 85 95 87 96 84 97
REMARK SMILES IDX 80 98 81 99 82 100 83 101 62 102 63 103 71 104 64 105 70 106
REMARK SMILES IDX 72 107 69 108 65 109 66 110 67 111 68 112
REMARK H PARENT 26 6 16 11 23 39 33 46 92 65 60 76
REMARK Flexibility Score: inf
ROOT
ATOM      1  C   UNL A   1      38.563  32.516  29.195  1.00  0.00     0.021 C 
ENDROOT
BRANCH   1   2
ATOM      2  C   UNL A   1      37.429  33.509  29.366  1.00  0.00     0.116 C 
BRANCH   2   3
ATOM      3  N   UNL A   1      36.581  33.677  28.208  1.00  0.00    -0.354 N 
ATOM      4  C   UNL A   1      35.264  33.347  28.076  1.00  0.00     0.242 C 
ATOM      5  O   UNL A   1      34.589  34.003  27.275  1.00  0.00    -0.273 OA
ATOM      6  H   UNL A   1      37.006  34.080  27.417  1.00  0.00     0.163 HD
BRANCH   4   7
ATOM      7  C   UNL A   1      34.578  32.280  28.966  1.00  0.00     0.177 C 
BRANCH   7   8
ATOM      8  N   UNL A   1      35.027  30.903  28.714  1.00  0.00    -0.337 N 
ATOM      9  C   UNL A   1      34.626  29.968  27.788  1.00  0.00     0.293 C 
ATOM     10  O   UNL A   1      35.317  28.964  27.654  1.00  0.00    -0.265 OA
ATOM     11  H   UNL A   1      35.742  30.594  29.316  1.00  0.00     0.164 HD
BRANCH   9  12
ATOM     12  C   UNL A   1      33.314  30.127  26.984  1.00  0.00     0.252 C 
ATOM     13  O   UNL A   1      32.689  31.179  27.077  1.00  0.00    -0.283 OA
BRANCH  12  14
ATOM     14  C   UNL A   1      32.757  29.033  26.176  1.00  0.00     0.054 A 
ATOM     15  N   UNL A   1      31.509  27.340  25.432  1.00  0.00    -0.240 N 
ATOM     16  C   UNL A   1      31.770  28.128  26.522  1.00  0.00     0.117 A 
ATOM     17  C   UNL A   1      32.319  27.673  24.367  1.00  0.00     0.065 A 
ATOM     18  C   UNL A   1      33.141  28.710  24.825  1.00  0.00     0.012 A 
ATOM     19  C   UNL A   1      32.434  27.160  23.062  1.00  0.00     0.028 A 
ATOM     20  C   UNL A   1      34.119  29.231  23.947  1.00  0.00     0.011 A 
ATOM     21  C   UNL A   1      33.418  27.691  22.224  1.00  0.00     0.002 A 
ATOM     22  C   UNL A   1      34.254  28.710  22.658  1.00  0.00     0.001 A 
BRANCH  15  23
ATOM     23  S   UNL A   1      30.353  26.090  25.422  1.00  0.00     0.268 S 
ATOM     24  O   UNL A   1      29.535  26.343  24.253  1.00  0.00    -0.201 OA
ATOM     25  O   UNL A   1      29.792  26.055  26.762  1.00  0.00    -0.201 OA
BRANCH  23  26
ATOM     26  C   UNL A   1      31.206  24.558  25.161  1.00  0.00     0.088 A 
ATOM     27  C   UNL A   1      33.418  21.019  24.131  1.00  0.00     0.044 C 
ATOM     28  C   UNL A   1      32.633  22.240  24.507  1.00  0.00    -0.051 A 
ATOM     29  C   UNL A   1      31.676  22.752  23.623  1.00  0.00     0.005 A 
ATOM     30  C   UNL A   1      32.836  22.876  25.738  1.00  0.00     0.005 A 
ATOM     31  C   UNL A   1      30.968  23.911  23.943  1.00  0.00     0.022 A 
ATOM     32  C   UNL A   1      32.116  24.025  26.074  1.00  0.00     0.022 A 
ENDBRANCH  23  26
ENDBRANCH  15  23
ENDBRANCH  12  14
ENDBRANCH   9  12
ENDBRANCH   7   8
BRANCH   7  33
ATOM     33  C   UNL A   1      34.494  32.645  30.460  1.00  0.00     0.090 C 
BRANCH  33  34
ATOM     34  C   UNL A   1      34.009  34.011  30.803  1.00  0.00     0.037 A 
ATOM     35  C   UNL A   1      34.215  34.831  31.894  1.00  0.00     0.134 A 
ATOM     36  N   UNL A   1      33.151  34.725  29.995  1.00  0.00    -0.348 N 
ATOM     37  N   UNL A   1      33.562  36.025  31.739  1.00  0.00    -0.245 NA
ATOM     38  C   UNL A   1      32.934  35.935  30.589  1.00  0.00     0.196 A 
ATOM     39  H   UNL A   1      32.766  34.418  29.143  1.00  0.00     0.167 HD
ENDBRANCH  33  34
ENDBRANCH   7  33
ENDBRANCH   4   7
ENDBRANCH   2   3
ENDBRANCH   1   2
BRANCH   1  40
ATOM     40  C   UNL A   1      38.128  31.155  28.654  1.00  0.00     0.002 C 
BRANCH  40  41
ATOM     41  C   UNL A   1      39.207  30.061  28.615  1.00  0.00     0.002 C 
BRANCH  41  42
ATOM     42  C   UNL A   1      39.431  29.376  27.271  1.00  0.00     0.021 C 
BRANCH  42  43
ATOM     43  C   UNL A   1      40.825  28.813  27.056  1.00  0.00     0.116 C 
BRANCH  43  44
ATOM     44  N   UNL A   1      40.868  27.426  26.608  1.00  0.00    -0.352 N 
ATOM     45  C   UNL A   1      41.414  26.319  27.240  1.00  0.00     0.251 C 
ATOM     46  H   UNL A   1      40.451  27.252  25.733  1.00  0.00     0.163 HD
ATOM     47  O   UNL A   1      41.517  25.235  26.672  1.00  0.00    -0.269 OA
BRANCH  45  48
ATOM     48  C   UNL A   1      41.681  26.386  28.701  1.00  0.00     0.039 A 
ATOM     49  C   UNL A   1      40.565  26.669  29.502  1.00  0.00     0.014 A 
ATOM     50  C   UNL A   1      42.965  26.622  29.171  1.00  0.00     0.014 A 
ATOM     51  C   UNL A   1      40.717  27.515  30.588  1.00  0.00     0.010 A 
ATOM     52  C   UNL A   1      43.108  27.580  30.142  1.00  0.00     0.010 A 
ATOM     53  C   UNL A   1      41.973  28.072  30.788  1.00  0.00    -0.014 A 
BRANCH  53  54
ATOM     54  C   UNL A   1      42.231  29.177  31.681  1.00  0.00     0.031 A 
ATOM     55  C   UNL A   1      41.105  30.080  31.937  1.00  0.00     0.074 A 
ATOM     56  C   UNL A   1      43.429  29.235  32.299  1.00  0.00     0.049 A 
ATOM     57  N   UNL A   1      41.211  31.324  32.226  1.00  0.00    -0.248 NA
ATOM     58  C   UNL A   1      39.718  29.644  31.781  1.00  0.00     0.031 C 
ATOM     59  C   UNL A   1      43.841  30.065  33.423  1.00  0.00     0.029 A 
ATOM     60  N   UNL A   1      44.612  28.639  31.863  1.00  0.00    -0.354 N 
ATOM     61  C   UNL A   1      39.960  31.752  32.620  1.00  0.00     0.074 A 
ATOM     62  C   UNL A   1      39.051  30.727  32.182  1.00  0.00     0.031 C 
ATOM     63  C   UNL A   1      45.187  30.131  33.443  1.00  0.00     0.029 A 
ATOM     64  C   UNL A   1      45.675  29.477  32.235  1.00  0.00     0.049 A 
ATOM     65  H   UNL A   1      44.687  27.784  31.381  1.00  0.00     0.167 HD
ATOM     66  C   UNL A   1      39.875  32.830  33.447  1.00  0.00     0.034 A 
ATOM     67  C   UNL A   1      46.409  30.096  31.260  1.00  0.00     0.034 A 
ATOM     68  C   UNL A   1      41.218  33.357  33.698  1.00  0.00     0.049 A 
ATOM     69  C   UNL A   1      46.177  31.593  31.240  1.00  0.00     0.074 A 
ATOM     70  C   UNL A   1      42.121  33.116  34.720  1.00  0.00     0.029 A 
ATOM     71  N   UNL A   1      41.938  33.914  32.652  1.00  0.00    -0.354 N 
ATOM     72  N   UNL A   1      45.126  32.181  31.748  1.00  0.00    -0.248 NA
ATOM     73  C   UNL A   1      47.129  32.540  30.669  1.00  0.00     0.031 C 
ATOM     74  C   UNL A   1      43.416  33.433  34.231  1.00  0.00     0.029 A 
ATOM     75  C   UNL A   1      43.291  33.906  32.935  1.00  0.00     0.049 A 
ATOM     76  H   UNL A   1      41.541  34.265  31.821  1.00  0.00     0.167 HD
ATOM     77  C   UNL A   1      45.230  33.536  31.573  1.00  0.00     0.074 A 
ATOM     78  C   UNL A   1      46.517  33.710  30.919  1.00  0.00     0.031 C 
ATOM     79  C   UNL A   1      44.248  34.408  31.961  1.00  0.00     0.034 A 
BRANCH  66  80
ATOM     80  C   UNL A   1      38.681  33.202  34.294  1.00  0.00     0.023 A 
ATOM     81  C   UNL A   1      38.612  32.665  35.597  1.00  0.00     0.031 A 
ATOM     82  C   UNL A   1      37.586  34.004  33.919  1.00  0.00     0.131 A 
ATOM     83  C   UNL A   1      37.491  32.857  36.420  1.00  0.00     0.055 A 
ATOM     84  C   UNL A   1      36.451  34.171  34.727  1.00  0.00     0.041 A 
ATOM     85  F   UNL A   1      37.570  34.706  32.782  1.00  0.00    -0.206 F 
ATOM     86  C   UNL A   1      36.395  33.591  35.984  1.00  0.00     0.022 A 
BRANCH  83  87
ATOM     87  S   UNL A   1      37.500  32.128  38.077  1.00  0.00     0.124 S 
ATOM     88  O   UNL A   1      37.523  30.698  37.784  1.00  0.00    -0.237 OA
ATOM     89  O   UNL A   1      38.716  32.689  38.656  1.00  0.00    -0.237 OA
ATOM     90  O   UNL A   1      36.255  32.617  38.668  1.00  0.00    -0.744 OA
ENDBRANCH  83  87
ENDBRANCH  66  80
BRANCH  67  91
ATOM     91  C   UNL A   1      46.581  29.232  30.046  1.00  0.00     0.023 A 
ATOM     92  C   UNL A   1      46.047  29.712  28.829  1.00  0.00     0.031 A 
ATOM     93  C   UNL A   1      47.602  28.273  29.979  1.00  0.00     0.131 A 
ATOM     94  C   UNL A   1      46.663  29.385  27.610  1.00  0.00     0.055 A 
ATOM     95  C   UNL A   1      48.180  27.914  28.754  1.00  0.00     0.041 A 
ATOM     96  F   UNL A   1      48.154  27.779  31.097  1.00  0.00    -0.206 F 
ATOM     97  C   UNL A   1      47.755  28.518  27.572  1.00  0.00     0.022 A 
BRANCH  94  98
ATOM     98  S   UNL A   1      46.211  30.299  26.107  1.00  0.00     0.124 S 
ATOM     99  O   UNL A   1      47.090  31.461  26.171  1.00  0.00    -0.237 OA
ATOM    100  O   UNL A   1      46.508  29.346  25.040  1.00  0.00    -0.237 OA
ATOM    101  O   UNL A   1      44.787  30.574  26.296  1.00  0.00    -0.744 OA
ENDBRANCH  94  98
ENDBRANCH  67  91
BRANCH  79 102
ATOM    102  C   UNL A   1      44.156  35.847  31.511  1.00  0.00     0.023 A 
ATOM    103  C   UNL A   1      44.427  36.915  32.371  1.00  0.00     0.031 A 
ATOM    104  C   UNL A   1      43.861  36.198  30.172  1.00  0.00     0.131 A 
ATOM    105  C   UNL A   1      44.250  38.243  31.957  1.00  0.00     0.055 A 
ATOM    106  C   UNL A   1      43.817  37.522  29.726  1.00  0.00     0.041 A 
ATOM    107  F   UNL A   1      43.610  35.275  29.233  1.00  0.00    -0.206 F 
ATOM    108  C   UNL A   1      43.977  38.559  30.632  1.00  0.00     0.022 A 
BRANCH 105 109
ATOM    109  S   UNL A   1      44.243  39.516  33.240  1.00  0.00     0.124 S 
ATOM    110  O   UNL A   1      44.831  38.801  34.370  1.00  0.00    -0.237 OA
ATOM    111  O   UNL A   1      45.074  40.562  32.652  1.00  0.00    -0.237 OA
ATOM    112  O   UNL A   1      42.827  39.850  33.385  1.00  0.00    -0.744 OA
ENDBRANCH 105 109
ENDBRANCH  79 102
ENDBRANCH  53  54
ENDBRANCH  45  48
ENDBRANCH  43  44
ENDBRANCH  42  43
ENDBRANCH  41  42
ENDBRANCH  40  41
ENDBRANCH   1  40
TORSDOF 23
ENDMDL
