MODEL 1
REMARK VINA RESULT:     -11.2      0.000      0.000
REMARK SMILES Cc1cc2c(c(C)c1Br)C=C(C(=O)NCCCCCCNC(=O)c1ccc(-c3c4nc(c(-c5cc(S(=O)(=O)[O-])ccc5F)c5ccc([nH]5)c(-c5cc(S(=O)(=O)[O-])ccc5F)c5nc(c(-c6cc(S(=O)(=O)[O-])ccc6F)c6ccc3[nH]6)C=C5)C=C4)cc1)[C@@H](C(F)(F)F)O2
REMARK SMILES IDX 18 1 17 2 16 3 15 4 14 5 12 6 13 7 11 9 1 10 2 11 3 12 8 13
REMARK SMILES IDX 4 14 6 15 9 16 5 17 92 18 7 19 10 20 87 21 88 22 89 23 90 24
REMARK SMILES IDX 91 25 19 26 20 27 21 28 22 29 23 31 24 32 25 33 86 34 26 35
REMARK SMILES IDX 85 36 27 37 28 38 29 39 79 40 30 41 84 42 78 43 80 44 31 45
REMARK SMILES IDX 83 46 77 47 76 48 32 50 64 51 44 52 63 53 45 54 48 55 62 56
REMARK SMILES IDX 81 57 46 58 47 59 61 61 82 62 49 63 33 64 34 65 42 66 35 67
REMARK SMILES IDX 41 68 43 69 40 70 36 71 37 72 38 73 39 74 65 75 66 76 74 77
REMARK SMILES IDX 67 78 73 79 75 80 72 81 68 82 69 83 70 84 71 85 50 86 51 87
REMARK SMILES IDX 59 88 52 89 58 90 60 91 57 92 53 93 54 94 55 95 56 96
REMARK H PARENT 14 8 21 30 80 49 48 60
REMARK Flexibility Score: inf
ROOT
ATOM      1  C   UNL A   1      40.444  21.920  27.537  1.00  0.00     0.002 C 
ENDROOT
BRANCH   1   2
ATOM      2  C   UNL A   1      39.607  22.437  26.359  1.00  0.00     0.002 C 
BRANCH   2   3
ATOM      3  C   UNL A   1      38.854  23.742  26.628  1.00  0.00     0.021 C 
BRANCH   3   4
ATOM      4  C   UNL A   1      37.420  23.734  26.110  1.00  0.00     0.116 C 
BRANCH   4   5
ATOM      5  N   UNL A   1      37.357  23.341  24.713  1.00  0.00    -0.352 N 
ATOM      6  C   UNL A   1      36.410  23.254  23.752  1.00  0.00     0.251 C 
ATOM      7  O   UNL A   1      36.813  22.869  22.648  1.00  0.00    -0.270 OA
ATOM      8  H   UNL A   1      38.240  23.063  24.377  1.00  0.00     0.163 HD
BRANCH   6   9
ATOM      9  C   UNL A   1      34.965  23.587  23.935  1.00  0.00     0.067 C 
ATOM     10  C   UNL A   1      29.035  26.226  24.408  1.00  0.00     0.046 C 
ATOM     11  C   UNL A   1      30.506  25.960  24.225  1.00  0.00    -0.033 A 
ATOM     12  C   UNL A   1      30.932  24.631  24.248  1.00  0.00     0.051 A 
ATOM     13  C   UNL A   1      31.465  26.978  24.039  1.00  0.00     0.024 A 
ATOM     14  C   UNL A   1      32.277  24.317  24.103  1.00  0.00     0.128 A 
ATOM     15  C   UNL A   1      32.840  26.670  23.876  1.00  0.00    -0.026 A 
ATOM     16  Br  UNL A   1      30.855  28.794  24.008  1.00  0.00    -0.050 Br
ATOM     17  C   UNL A   1      33.240  25.310  23.910  1.00  0.00     0.021 A 
ATOM     18  O   UNL A   1      32.555  22.984  24.123  1.00  0.00    -0.475 OA
ATOM     19  C   UNL A   1      33.894  27.734  23.674  1.00  0.00     0.046 C 
ATOM     20  C   UNL A   1      34.628  24.872  23.718  1.00  0.00     0.026 C 
ATOM     21  C   UNL A   1      33.926  22.598  24.372  1.00  0.00     0.314 C 
BRANCH  21  22
ATOM     22  C   UNL A   1      34.075  22.185  25.847  1.00  0.00     0.429 C 
ATOM     23  F   UNL A   1      32.961  21.545  26.277  1.00  0.00    -0.167 F 
ATOM     24  F   UNL A   1      35.107  21.334  26.051  1.00  0.00    -0.167 F 
ATOM     25  F   UNL A   1      34.276  23.246  26.662  1.00  0.00    -0.167 F 
ENDBRANCH  21  22
ENDBRANCH   6   9
ENDBRANCH   4   5
ENDBRANCH   3   4
ENDBRANCH   2   3
ENDBRANCH   1   2
BRANCH   1  26
ATOM     26  C   UNL A   1      41.010  20.507  27.363  1.00  0.00     0.021 C 
BRANCH  26  27
ATOM     27  C   UNL A   1      40.952  19.981  25.934  1.00  0.00     0.116 C 
BRANCH  27  28
ATOM     28  N   UNL A   1      42.191  19.323  25.558  1.00  0.00    -0.352 N 
ATOM     29  C   UNL A   1      43.418  19.878  25.300  1.00  0.00     0.251 C 
ATOM     30  H   UNL A   1      42.144  18.343  25.478  1.00  0.00     0.163 HD
ATOM     31  O   UNL A   1      44.290  19.208  24.752  1.00  0.00    -0.269 OA
BRANCH  29  32
ATOM     32  C   UNL A   1      43.673  21.282  25.675  1.00  0.00     0.039 A 
ATOM     33  C   UNL A   1      43.397  22.293  24.754  1.00  0.00     0.014 A 
ATOM     34  C   UNL A   1      44.193  21.596  26.936  1.00  0.00     0.014 A 
ATOM     35  C   UNL A   1      43.602  23.626  25.113  1.00  0.00     0.010 A 
ATOM     36  C   UNL A   1      44.327  22.926  27.317  1.00  0.00     0.010 A 
ATOM     37  C   UNL A   1      44.047  23.953  26.405  1.00  0.00    -0.014 A 
BRANCH  37  38
ATOM     38  C   UNL A   1      44.271  25.364  26.803  1.00  0.00     0.031 A 
ATOM     39  C   UNL A   1      45.639  25.970  26.652  1.00  0.00     0.074 A 
ATOM     40  C   UNL A   1      43.256  26.085  27.318  1.00  0.00     0.049 A 
ATOM     41  N   UNL A   1      46.057  27.159  26.997  1.00  0.00    -0.248 NA
ATOM     42  C   UNL A   1      46.680  25.117  26.054  1.00  0.00     0.031 C 
ATOM     43  C   UNL A   1      41.889  25.598  27.519  1.00  0.00     0.029 A 
ATOM     44  N   UNL A   1      43.214  27.383  27.761  1.00  0.00    -0.354 N 
ATOM     45  C   UNL A   1      47.404  27.199  26.657  1.00  0.00     0.074 A 
ATOM     46  C   UNL A   1      47.749  25.893  26.141  1.00  0.00     0.031 C 
ATOM     47  C   UNL A   1      41.136  26.597  28.007  1.00  0.00     0.029 A 
ATOM     48  C   UNL A   1      41.971  27.778  28.199  1.00  0.00     0.049 A 
ATOM     49  H   UNL A   1      43.999  27.977  27.764  1.00  0.00     0.167 HD
ATOM     50  C   UNL A   1      48.267  28.240  26.741  1.00  0.00     0.034 A 
ATOM     51  C   UNL A   1      41.556  28.956  28.706  1.00  0.00     0.034 A 
ATOM     52  C   UNL A   1      47.905  29.541  27.239  1.00  0.00     0.049 A 
ATOM     53  C   UNL A   1      42.550  30.079  28.844  1.00  0.00     0.074 A 
ATOM     54  C   UNL A   1      48.695  30.673  27.337  1.00  0.00     0.029 A 
ATOM     55  N   UNL A   1      46.650  29.887  27.719  1.00  0.00    -0.354 N 
ATOM     56  N   UNL A   1      43.820  30.101  28.515  1.00  0.00    -0.248 NA
ATOM     57  C   UNL A   1      42.056  31.335  29.424  1.00  0.00     0.031 C 
ATOM     58  C   UNL A   1      47.936  31.683  27.933  1.00  0.00     0.029 A 
ATOM     59  C   UNL A   1      46.653  31.205  28.144  1.00  0.00     0.049 A 
ATOM     60  H   UNL A   1      45.873  29.285  27.753  1.00  0.00     0.167 HD
ATOM     61  C   UNL A   1      44.272  31.378  28.832  1.00  0.00     0.074 A 
ATOM     62  C   UNL A   1      43.137  32.100  29.366  1.00  0.00     0.031 C 
ATOM     63  C   UNL A   1      45.515  31.904  28.691  1.00  0.00     0.034 A 
BRANCH  50  64
ATOM     64  C   UNL A   1      49.684  28.010  26.288  1.00  0.00     0.023 A 
ATOM     65  C   UNL A   1      50.083  28.275  24.966  1.00  0.00     0.031 A 
ATOM     66  C   UNL A   1      50.653  27.539  27.190  1.00  0.00     0.131 A 
ATOM     67  C   UNL A   1      51.405  28.025  24.571  1.00  0.00     0.055 A 
ATOM     68  C   UNL A   1      51.984  27.355  26.808  1.00  0.00     0.041 A 
ATOM     69  F   UNL A   1      50.323  27.251  28.459  1.00  0.00    -0.206 F 
ATOM     70  C   UNL A   1      52.365  27.591  25.490  1.00  0.00     0.022 A 
BRANCH  67  71
ATOM     71  S   UNL A   1      51.835  28.196  22.819  1.00  0.00     0.124 S 
ATOM     72  O   UNL A   1      50.726  29.006  22.322  1.00  0.00    -0.237 OA
ATOM     73  O   UNL A   1      53.134  28.858  22.875  1.00  0.00    -0.237 OA
ATOM     74  O   UNL A   1      51.858  26.818  22.336  1.00  0.00    -0.744 OA
ENDBRANCH  67  71
ENDBRANCH  50  64
BRANCH  51  75
ATOM     75  C   UNL A   1      40.136  29.133  29.120  1.00  0.00     0.023 A 
ATOM     76  C   UNL A   1      39.767  29.058  30.472  1.00  0.00     0.031 A 
ATOM     77  C   UNL A   1      39.129  29.380  28.170  1.00  0.00     0.131 A 
ATOM     78  C   UNL A   1      38.420  29.202  30.836  1.00  0.00     0.055 A 
ATOM     79  C   UNL A   1      37.796  29.563  28.541  1.00  0.00     0.041 A 
ATOM     80  F   UNL A   1      39.433  29.468  26.866  1.00  0.00    -0.206 F 
ATOM     81  C   UNL A   1      37.434  29.469  29.882  1.00  0.00     0.022 A 
BRANCH  78  82
ATOM     82  S   UNL A   1      37.963  29.007  32.580  1.00  0.00     0.124 S 
ATOM     83  O   UNL A   1      36.630  29.600  32.605  1.00  0.00    -0.237 OA
ATOM     84  O   UNL A   1      38.025  27.559  32.752  1.00  0.00    -0.237 OA
ATOM     85  O   UNL A   1      38.996  29.759  33.289  1.00  0.00    -0.744 OA
ENDBRANCH  78  82
ENDBRANCH  51  75
BRANCH  63  86
ATOM     86  C   UNL A   1      45.711  33.338  29.110  1.00  0.00     0.023 A 
ATOM     87  C   UNL A   1      45.403  34.398  28.244  1.00  0.00     0.031 A 
ATOM     88  C   UNL A   1      46.163  33.645  30.405  1.00  0.00     0.131 A 
ATOM     89  C   UNL A   1      45.579  35.722  28.673  1.00  0.00     0.055 A 
ATOM     90  C   UNL A   1      46.289  34.963  30.844  1.00  0.00     0.041 A 
ATOM     91  F   UNL A   1      46.468  32.665  31.273  1.00  0.00    -0.206 F 
ATOM     92  C   UNL A   1      46.003  36.011  29.973  1.00  0.00     0.022 A 
BRANCH  89  93
ATOM     93  S   UNL A   1      45.288  37.066  27.491  1.00  0.00     0.124 S 
ATOM     94  O   UNL A   1      45.307  38.239  28.359  1.00  0.00    -0.237 OA
ATOM     95  O   UNL A   1      46.417  36.931  26.576  1.00  0.00    -0.237 OA
ATOM     96  O   UNL A   1      43.984  36.740  26.916  1.00  0.00    -0.744 OA
ENDBRANCH  89  93
ENDBRANCH  63  86
ENDBRANCH  37  38
ENDBRANCH  29  32
ENDBRANCH  27  28
ENDBRANCH  26  27
ENDBRANCH   1  26
TORSDOF 17
ENDMDL
MODEL 2
REMARK VINA RESULT:     -11.1      0.363      7.638
REMARK SMILES Cc1cc2c(c(C)c1Br)C=C(C(=O)NCCCCCCNC(=O)c1ccc(-c3c4nc(c(-c5cc(S(=O)(=O)[O-])ccc5F)c5ccc([nH]5)c(-c5cc(S(=O)(=O)[O-])ccc5F)c5nc(c(-c6cc(S(=O)(=O)[O-])ccc6F)c6ccc3[nH]6)C=C5)C=C4)cc1)[C@@H](C(F)(F)F)O2
REMARK SMILES IDX 18 1 17 2 16 3 15 4 14 5 12 6 13 7 11 9 1 10 2 11 3 12 8 13
REMARK SMILES IDX 4 14 6 15 9 16 5 17 92 18 7 19 10 20 87 21 88 22 89 23 90 24
REMARK SMILES IDX 91 25 19 26 20 27 21 28 22 29 23 31 24 32 25 33 86 34 26 35
REMARK SMILES IDX 85 36 27 37 28 38 29 39 79 40 30 41 84 42 78 43 80 44 31 45
REMARK SMILES IDX 83 46 77 47 76 48 32 50 64 51 44 52 63 53 45 54 48 55 62 56
REMARK SMILES IDX 81 57 46 58 47 59 61 61 82 62 49 63 33 64 34 65 42 66 35 67
REMARK SMILES IDX 41 68 43 69 40 70 36 71 37 72 38 73 39 74 65 75 66 76 74 77
REMARK SMILES IDX 67 78 73 79 75 80 72 81 68 82 69 83 70 84 71 85 50 86 51 87
REMARK SMILES IDX 59 88 52 89 58 90 60 91 57 92 53 93 54 94 55 95 56 96
REMARK H PARENT 14 8 21 30 80 49 48 60
REMARK Flexibility Score: inf
ROOT
ATOM      1  C   UNL A   1      40.356  22.460  27.577  1.00  0.00     0.002 C 
ENDROOT
BRANCH   1   2
ATOM      2  C   UNL A   1      39.574  22.940  26.347  1.00  0.00     0.002 C 
BRANCH   2   3
ATOM      3  C   UNL A   1      38.608  24.098  26.609  1.00  0.00     0.021 C 
BRANCH   3   4
ATOM      4  C   UNL A   1      37.197  23.841  26.094  1.00  0.00     0.116 C 
BRANCH   4   5
ATOM      5  N   UNL A   1      37.204  23.391  24.713  1.00  0.00    -0.352 N 
ATOM      6  C   UNL A   1      36.307  23.269  23.709  1.00  0.00     0.251 C 
ATOM      7  O   UNL A   1      36.763  22.838  22.644  1.00  0.00    -0.270 OA
ATOM      8  H   UNL A   1      38.101  23.097  24.435  1.00  0.00     0.163 HD
BRANCH   6   9
ATOM      9  C   UNL A   1      34.856  23.614  23.803  1.00  0.00     0.067 C 
ATOM     10  C   UNL A   1      28.942  26.322  24.024  1.00  0.00     0.046 C 
ATOM     11  C   UNL A   1      30.419  26.043  23.938  1.00  0.00    -0.033 A 
ATOM     12  C   UNL A   1      30.825  24.709  23.881  1.00  0.00     0.051 A 
ATOM     13  C   UNL A   1      31.403  27.054  23.917  1.00  0.00     0.024 A 
ATOM     14  C   UNL A   1      32.173  24.381  23.818  1.00  0.00     0.128 A 
ATOM     15  C   UNL A   1      32.784  26.733  23.839  1.00  0.00    -0.026 A 
ATOM     16  Br  UNL A   1      30.822  28.877  23.992  1.00  0.00    -0.050 Br
ATOM     17  C   UNL A   1      33.161  25.367  23.788  1.00  0.00     0.021 A 
ATOM     18  O   UNL A   1      32.431  23.045  23.746  1.00  0.00    -0.475 OA
ATOM     19  C   UNL A   1      33.864  27.789  23.813  1.00  0.00     0.046 C 
ATOM     20  C   UNL A   1      34.554  24.919  23.671  1.00  0.00     0.026 C 
ATOM     21  C   UNL A   1      33.771  22.613  24.070  1.00  0.00     0.314 C 
BRANCH  21  22
ATOM     22  C   UNL A   1      33.795  22.074  25.512  1.00  0.00     0.429 C 
ATOM     23  F   UNL A   1      33.976  23.086  26.395  1.00  0.00    -0.167 F 
ATOM     24  F   UNL A   1      32.639  21.464  25.861  1.00  0.00    -0.167 F 
ATOM     25  F   UNL A   1      34.787  21.176  25.710  1.00  0.00    -0.167 F 
ENDBRANCH  21  22
ENDBRANCH   6   9
ENDBRANCH   4   5
ENDBRANCH   3   4
ENDBRANCH   2   3
ENDBRANCH   1   2
BRANCH   1  26
ATOM     26  C   UNL A   1      40.849  21.011  27.510  1.00  0.00     0.021 C 
BRANCH  26  27
ATOM     27  C   UNL A   1      40.594  20.324  26.174  1.00  0.00     0.116 C 
BRANCH  27  28
ATOM     28  N   UNL A   1      41.763  19.592  25.719  1.00  0.00    -0.352 N 
ATOM     29  C   UNL A   1      43.006  20.070  25.391  1.00  0.00     0.251 C 
ATOM     30  H   UNL A   1      41.648  18.618  25.634  1.00  0.00     0.163 HD
ATOM     31  O   UNL A   1      43.798  19.352  24.787  1.00  0.00    -0.269 OA
BRANCH  29  32
ATOM     32  C   UNL A   1      43.373  21.451  25.762  1.00  0.00     0.039 A 
ATOM     33  C   UNL A   1      43.100  22.490  24.870  1.00  0.00     0.014 A 
ATOM     34  C   UNL A   1      43.995  21.714  26.987  1.00  0.00     0.014 A 
ATOM     35  C   UNL A   1      43.412  23.802  25.227  1.00  0.00     0.010 A 
ATOM     36  C   UNL A   1      44.237  23.029  27.371  1.00  0.00     0.010 A 
ATOM     37  C   UNL A   1      43.962  24.083  26.489  1.00  0.00    -0.014 A 
BRANCH  37  38
ATOM     38  C   UNL A   1      44.300  25.472  26.884  1.00  0.00     0.031 A 
ATOM     39  C   UNL A   1      43.231  26.363  27.454  1.00  0.00     0.074 A 
ATOM     40  C   UNL A   1      45.553  25.934  26.708  1.00  0.00     0.049 A 
ATOM     41  N   UNL A   1      43.304  27.622  27.800  1.00  0.00    -0.248 NA
ATOM     42  C   UNL A   1      41.898  25.766  27.637  1.00  0.00     0.031 C 
ATOM     43  C   UNL A   1      46.669  25.162  26.155  1.00  0.00     0.029 A 
ATOM     44  N   UNL A   1      46.102  27.161  26.981  1.00  0.00    -0.354 N 
ATOM     45  C   UNL A   1      42.032  27.965  28.244  1.00  0.00     0.074 A 
ATOM     46  C   UNL A   1      41.191  26.803  28.059  1.00  0.00     0.031 C 
ATOM     47  C   UNL A   1      47.776  25.921  26.169  1.00  0.00     0.029 A 
ATOM     48  C   UNL A   1      47.443  27.245  26.683  1.00  0.00     0.049 A 
ATOM     49  H   UNL A   1      45.587  27.911  27.355  1.00  0.00     0.167 HD
ATOM     50  C   UNL A   1      41.612  29.134  28.783  1.00  0.00     0.034 A 
ATOM     51  C   UNL A   1      48.302  28.277  26.805  1.00  0.00     0.034 A 
ATOM     52  C   UNL A   1      42.466  30.277  28.980  1.00  0.00     0.049 A 
ATOM     53  C   UNL A   1      47.796  29.585  27.352  1.00  0.00     0.074 A 
ATOM     54  C   UNL A   1      42.148  31.499  29.546  1.00  0.00     0.029 A 
ATOM     55  N   UNL A   1      43.804  30.340  28.620  1.00  0.00    -0.354 N 
ATOM     56  N   UNL A   1      46.590  29.893  27.769  1.00  0.00    -0.248 NA
ATOM     57  C   UNL A   1      48.764  30.687  27.441  1.00  0.00     0.031 C 
ATOM     58  C   UNL A   1      43.275  32.321  29.472  1.00  0.00     0.029 A 
ATOM     59  C   UNL A   1      44.317  31.591  28.923  1.00  0.00     0.049 A 
ATOM     60  H   UNL A   1      44.314  29.605  28.210  1.00  0.00     0.167 HD
ATOM     61  C   UNL A   1      46.660  31.217  28.188  1.00  0.00     0.074 A 
ATOM     62  C   UNL A   1      48.029  31.646  27.984  1.00  0.00     0.031 C 
ATOM     63  C   UNL A   1      45.681  32.007  28.696  1.00  0.00     0.034 A 
BRANCH  50  64
ATOM     64  C   UNL A   1      40.167  29.235  29.194  1.00  0.00     0.023 A 
ATOM     65  C   UNL A   1      39.784  29.179  30.545  1.00  0.00     0.031 A 
ATOM     66  C   UNL A   1      39.162  29.407  28.228  1.00  0.00     0.131 A 
ATOM     67  C   UNL A   1      38.428  29.249  30.891  1.00  0.00     0.055 A 
ATOM     68  C   UNL A   1      37.818  29.543  28.583  1.00  0.00     0.041 A 
ATOM     69  F   UNL A   1      39.469  29.448  26.922  1.00  0.00    -0.206 F 
ATOM     70  C   UNL A   1      37.444  29.457  29.921  1.00  0.00     0.022 A 
BRANCH  67  71
ATOM     71  S   UNL A   1      37.957  28.983  32.621  1.00  0.00     0.124 S 
ATOM     72  O   UNL A   1      36.595  29.512  32.639  1.00  0.00    -0.237 OA
ATOM     73  O   UNL A   1      38.082  27.537  32.765  1.00  0.00    -0.237 OA
ATOM     74  O   UNL A   1      38.936  29.771  33.367  1.00  0.00    -0.744 OA
ENDBRANCH  67  71
ENDBRANCH  50  64
BRANCH  51  75
ATOM     75  C   UNL A   1      49.727  28.115  26.400  1.00  0.00     0.023 A 
ATOM     76  C   UNL A   1      50.134  28.372  25.082  1.00  0.00     0.031 A 
ATOM     77  C   UNL A   1      50.701  27.699  27.325  1.00  0.00     0.131 A 
ATOM     78  C   UNL A   1      51.476  28.188  24.718  1.00  0.00     0.055 A 
ATOM     79  C   UNL A   1      52.042  27.557  26.968  1.00  0.00     0.041 A 
ATOM     80  F   UNL A   1      50.363  27.447  28.599  1.00  0.00    -0.206 F 
ATOM     81  C   UNL A   1      52.436  27.797  25.655  1.00  0.00     0.022 A 
BRANCH  78  82
ATOM     82  S   UNL A   1      51.951  28.440  22.985  1.00  0.00     0.124 S 
ATOM     83  O   UNL A   1      52.563  27.157  22.657  1.00  0.00    -0.237 OA
ATOM     84  O   UNL A   1      50.666  28.720  22.354  1.00  0.00    -0.237 OA
ATOM     85  O   UNL A   1      52.871  29.574  23.046  1.00  0.00    -0.744 OA
ENDBRANCH  78  82
ENDBRANCH  51  75
BRANCH  63  86
ATOM     86  C   UNL A   1      46.055  33.414  29.082  1.00  0.00     0.023 A 
ATOM     87  C   UNL A   1      45.880  34.484  28.191  1.00  0.00     0.031 A 
ATOM     88  C   UNL A   1      46.543  33.691  30.371  1.00  0.00     0.131 A 
ATOM     89  C   UNL A   1      46.220  35.785  28.590  1.00  0.00     0.055 A 
ATOM     90  C   UNL A   1      46.832  34.993  30.780  1.00  0.00     0.041 A 
ATOM     91  F   UNL A   1      46.724  32.702  31.261  1.00  0.00    -0.206 F 
ATOM     92  C   UNL A   1      46.678  36.048  29.885  1.00  0.00     0.022 A 
BRANCH  89  93
ATOM     93  S   UNL A   1      46.098  37.127  27.379  1.00  0.00     0.124 S 
ATOM     94  O   UNL A   1      46.398  38.299  28.195  1.00  0.00    -0.237 OA
ATOM     95  O   UNL A   1      47.111  36.758  26.395  1.00  0.00    -0.237 OA
ATOM     96  O   UNL A   1      44.717  37.038  26.906  1.00  0.00    -0.744 OA
ENDBRANCH  89  93
ENDBRANCH  63  86
ENDBRANCH  37  38
ENDBRANCH  29  32
ENDBRANCH  27  28
ENDBRANCH  26  27
ENDBRANCH   1  26
TORSDOF 17
ENDMDL
MODEL 3
REMARK VINA RESULT:     -11.1      5.809     11.474
REMARK SMILES Cc1cc2c(c(C)c1Br)C=C(C(=O)NCCCCCCNC(=O)c1ccc(-c3c4nc(c(-c5cc(S(=O)(=O)[O-])ccc5F)c5ccc([nH]5)c(-c5cc(S(=O)(=O)[O-])ccc5F)c5nc(c(-c6cc(S(=O)(=O)[O-])ccc6F)c6ccc3[nH]6)C=C5)C=C4)cc1)[C@@H](C(F)(F)F)O2
REMARK SMILES IDX 18 1 17 2 16 3 15 4 14 5 12 6 13 7 11 9 1 10 2 11 3 12 8 13
REMARK SMILES IDX 4 14 6 15 9 16 5 17 92 18 7 19 10 20 87 21 88 22 89 23 90 24
REMARK SMILES IDX 91 25 19 26 20 27 21 28 22 29 23 31 24 32 25 33 86 34 26 35
REMARK SMILES IDX 85 36 27 37 28 38 29 39 79 40 30 41 84 42 78 43 80 44 31 45
REMARK SMILES IDX 83 46 77 47 76 48 32 50 64 51 44 52 63 53 45 54 48 55 62 56
REMARK SMILES IDX 81 57 46 58 47 59 61 61 82 62 49 63 33 64 34 65 42 66 35 67
REMARK SMILES IDX 41 68 43 69 40 70 36 71 37 72 38 73 39 74 65 75 66 76 74 77
REMARK SMILES IDX 67 78 73 79 75 80 72 81 68 82 69 83 70 84 71 85 50 86 51 87
REMARK SMILES IDX 59 88 52 89 58 90 60 91 57 92 53 93 54 94 55 95 56 96
REMARK H PARENT 14 8 21 30 80 49 48 60
REMARK Flexibility Score: inf
ROOT
ATOM      1  C   UNL A   1      31.382  30.798  25.831  1.00  0.00     0.002 C 
ENDROOT
BRANCH   1   2
ATOM      2  C   UNL A   1      32.658  29.978  26.067  1.00  0.00     0.002 C 
BRANCH   2   3
ATOM      3  C   UNL A   1      33.291  29.392  24.803  1.00  0.00     0.021 C 
BRANCH   3   4
ATOM      4  C   UNL A   1      32.344  29.357  23.609  1.00  0.00     0.116 C 
BRANCH   4   5
ATOM      5  N   UNL A   1      32.881  28.555  22.524  1.00  0.00    -0.352 N 
ATOM      6  C   UNL A   1      33.235  27.265  22.329  1.00  0.00     0.251 C 
ATOM      7  O   UNL A   1      33.649  26.997  21.195  1.00  0.00    -0.270 OA
ATOM      8  H   UNL A   1      33.026  29.096  21.714  1.00  0.00     0.163 HD
BRANCH   6   9
ATOM      9  C   UNL A   1      33.154  26.185  23.358  1.00  0.00     0.067 C 
ATOM     10  C   UNL A   1      33.902  21.071  27.313  1.00  0.00     0.046 C 
ATOM     11  C   UNL A   1      34.032  22.121  26.242  1.00  0.00    -0.033 A 
ATOM     12  C   UNL A   1      33.148  23.200  26.282  1.00  0.00     0.051 A 
ATOM     13  C   UNL A   1      34.991  22.065  25.208  1.00  0.00     0.024 A 
ATOM     14  C   UNL A   1      33.203  24.195  25.314  1.00  0.00     0.128 A 
ATOM     15  C   UNL A   1      35.066  23.083  24.221  1.00  0.00    -0.026 A 
ATOM     16  Br  UNL A   1      36.195  20.577  25.177  1.00  0.00    -0.050 Br
ATOM     17  C   UNL A   1      34.149  24.163  24.289  1.00  0.00     0.021 A 
ATOM     18  O   UNL A   1      32.299  25.201  25.482  1.00  0.00    -0.475 OA
ATOM     19  C   UNL A   1      36.080  23.056  23.101  1.00  0.00     0.046 C 
ATOM     20  C   UNL A   1      34.156  25.286  23.344  1.00  0.00     0.026 C 
ATOM     21  C   UNL A   1      32.027  26.042  24.337  1.00  0.00     0.314 C 
BRANCH  21  22
ATOM     22  C   UNL A   1      30.713  25.589  23.677  1.00  0.00     0.429 C 
ATOM     23  F   UNL A   1      30.945  24.589  22.791  1.00  0.00    -0.167 F 
ATOM     24  F   UNL A   1      29.817  25.108  24.569  1.00  0.00    -0.167 F 
ATOM     25  F   UNL A   1      30.100  26.592  23.009  1.00  0.00    -0.167 F 
ENDBRANCH  21  22
ENDBRANCH   6   9
ENDBRANCH   4   5
ENDBRANCH   3   4
ENDBRANCH   2   3
ENDBRANCH   1   2
BRANCH   1  26
ATOM     26  C   UNL A   1      31.318  32.133  26.579  1.00  0.00     0.021 C 
BRANCH  26  27
ATOM     27  C   UNL A   1      32.652  32.592  27.156  1.00  0.00     0.116 C 
BRANCH  27  28
ATOM     28  N   UNL A   1      32.577  33.954  27.654  1.00  0.00    -0.352 N 
ATOM     29  C   UNL A   1      33.242  34.524  28.709  1.00  0.00     0.251 C 
ATOM     30  H   UNL A   1      31.964  34.551  27.168  1.00  0.00     0.163 HD
ATOM     31  O   UNL A   1      32.875  35.612  29.149  1.00  0.00    -0.269 OA
BRANCH  29  32
ATOM     32  C   UNL A   1      34.389  33.818  29.312  1.00  0.00     0.039 A 
ATOM     33  C   UNL A   1      35.684  34.214  28.977  1.00  0.00     0.014 A 
ATOM     34  C   UNL A   1      34.180  32.758  30.202  1.00  0.00     0.014 A 
ATOM     35  C   UNL A   1      36.774  33.575  29.569  1.00  0.00     0.010 A 
ATOM     36  C   UNL A   1      35.265  32.172  30.845  1.00  0.00     0.010 A 
ATOM     37  C   UNL A   1      36.572  32.565  30.524  1.00  0.00    -0.014 A 
BRANCH  37  38
ATOM     38  C   UNL A   1      37.719  31.875  31.163  1.00  0.00     0.031 A 
ATOM     39  C   UNL A   1      38.144  32.270  32.550  1.00  0.00     0.074 A 
ATOM     40  C   UNL A   1      38.386  30.918  30.489  1.00  0.00     0.049 A 
ATOM     41  N   UNL A   1      39.154  31.837  33.258  1.00  0.00    -0.248 NA
ATOM     42  C   UNL A   1      37.340  33.305  33.221  1.00  0.00     0.031 C 
ATOM     43  C   UNL A   1      38.068  30.460  29.134  1.00  0.00     0.029 A 
ATOM     44  N   UNL A   1      39.465  30.154  30.853  1.00  0.00    -0.354 N 
ATOM     45  C   UNL A   1      39.106  32.542  34.455  1.00  0.00     0.074 A 
ATOM     46  C   UNL A   1      38.008  33.478  34.351  1.00  0.00     0.031 C 
ATOM     47  C   UNL A   1      38.908  29.467  28.799  1.00  0.00     0.029 A 
ATOM     48  C   UNL A   1      39.853  29.251  29.890  1.00  0.00     0.049 A 
ATOM     49  H   UNL A   1      39.920  30.242  31.721  1.00  0.00     0.167 HD
ATOM     50  C   UNL A   1      39.888  32.400  35.552  1.00  0.00     0.034 A 
ATOM     51  C   UNL A   1      40.860  28.354  29.886  1.00  0.00     0.034 A 
ATOM     52  C   UNL A   1      40.965  31.450  35.649  1.00  0.00     0.049 A 
ATOM     53  C   UNL A   1      41.752  28.258  31.095  1.00  0.00     0.074 A 
ATOM     54  C   UNL A   1      41.798  31.204  36.726  1.00  0.00     0.029 A 
ATOM     55  N   UNL A   1      41.357  30.587  34.635  1.00  0.00    -0.354 N 
ATOM     56  N   UNL A   1      41.692  28.931  32.221  1.00  0.00    -0.248 NA
ATOM     57  C   UNL A   1      42.851  27.285  31.033  1.00  0.00     0.031 C 
ATOM     58  C   UNL A   1      42.733  30.238  36.342  1.00  0.00     0.029 A 
ATOM     59  C   UNL A   1      42.441  29.830  35.051  1.00  0.00     0.049 A 
ATOM     60  H   UNL A   1      40.929  30.522  33.752  1.00  0.00     0.167 HD
ATOM     61  C   UNL A   1      42.732  28.448  33.008  1.00  0.00     0.074 A 
ATOM     62  C   UNL A   1      43.397  27.421  32.233  1.00  0.00     0.031 C 
ATOM     63  C   UNL A   1      43.103  28.822  34.258  1.00  0.00     0.034 A 
BRANCH  50  64
ATOM     64  C   UNL A   1      39.608  33.295  36.729  1.00  0.00     0.023 A 
ATOM     65  C   UNL A   1      38.962  32.810  37.880  1.00  0.00     0.031 A 
ATOM     66  C   UNL A   1      40.006  34.642  36.712  1.00  0.00     0.131 A 
ATOM     67  C   UNL A   1      38.693  33.677  38.949  1.00  0.00     0.055 A 
ATOM     68  C   UNL A   1      39.795  35.485  37.805  1.00  0.00     0.041 A 
ATOM     69  F   UNL A   1      40.609  35.162  35.631  1.00  0.00    -0.206 F 
ATOM     70  C   UNL A   1      39.129  35.005  38.930  1.00  0.00     0.022 A 
BRANCH  67  71
ATOM     71  S   UNL A   1      37.694  33.068  40.332  1.00  0.00     0.124 S 
ATOM     72  O   UNL A   1      38.274  31.746  40.554  1.00  0.00    -0.237 OA
ATOM     73  O   UNL A   1      37.950  34.061  41.370  1.00  0.00    -0.237 OA
ATOM     74  O   UNL A   1      36.335  33.064  39.796  1.00  0.00    -0.744 OA
ENDBRANCH  67  71
ENDBRANCH  50  64
BRANCH  51  75
ATOM     75  C   UNL A   1      41.079  27.480  28.700  1.00  0.00     0.023 A 
ATOM     76  C   UNL A   1      42.074  27.783  27.757  1.00  0.00     0.031 A 
ATOM     77  C   UNL A   1      40.295  26.331  28.491  1.00  0.00     0.131 A 
ATOM     78  C   UNL A   1      42.245  26.959  26.635  1.00  0.00     0.055 A 
ATOM     79  C   UNL A   1      40.496  25.493  27.394  1.00  0.00     0.041 A 
ATOM     80  F   UNL A   1      39.336  25.996  29.368  1.00  0.00    -0.206 F 
ATOM     81  C   UNL A   1      41.473  25.809  26.454  1.00  0.00     0.022 A 
BRANCH  78  82
ATOM     82  S   UNL A   1      43.477  27.429  25.389  1.00  0.00     0.124 S 
ATOM     83  O   UNL A   1      44.249  28.440  26.104  1.00  0.00    -0.237 OA
ATOM     84  O   UNL A   1      44.155  26.162  25.137  1.00  0.00    -0.237 OA
ATOM     85  O   UNL A   1      42.666  27.930  24.281  1.00  0.00    -0.744 OA
ENDBRANCH  78  82
ENDBRANCH  51  75
BRANCH  63  86
ATOM     86  C   UNL A   1      44.275  28.106  34.876  1.00  0.00     0.023 A 
ATOM     87  C   UNL A   1      44.114  26.873  35.528  1.00  0.00     0.031 A 
ATOM     88  C   UNL A   1      45.571  28.639  34.768  1.00  0.00     0.131 A 
ATOM     89  C   UNL A   1      45.230  26.224  36.076  1.00  0.00     0.055 A 
ATOM     90  C   UNL A   1      46.684  27.965  35.270  1.00  0.00     0.041 A 
ATOM     91  F   UNL A   1      45.777  29.814  34.150  1.00  0.00    -0.206 F 
ATOM     92  C   UNL A   1      46.516  26.754  35.935  1.00  0.00     0.022 A 
BRANCH  89  93
ATOM     93  S   UNL A   1      44.974  24.696  37.016  1.00  0.00     0.124 S 
ATOM     94  O   UNL A   1      44.196  23.892  36.078  1.00  0.00    -0.237 OA
ATOM     95  O   UNL A   1      46.340  24.244  37.263  1.00  0.00    -0.237 OA
ATOM     96  O   UNL A   1      44.246  25.141  38.203  1.00  0.00    -0.744 OA
ENDBRANCH  89  93
ENDBRANCH  63  86
ENDBRANCH  37  38
ENDBRANCH  29  32
ENDBRANCH  27  28
ENDBRANCH  26  27
ENDBRANCH   1  26
TORSDOF 17
ENDMDL
