MODEL 1
REMARK VINA RESULT:     -10.9      0.000      0.000
REMARK SMILES COCC[C@H](NC(=O)c1ccc(C)cc1F)C(=O)NCCCCCCNC(=O)c1ccc(-c2c3nc(c(-c4cc(S(=O)(=O)[O-])ccc4F)c4ccc([nH]4)c(-c4cc(S(=O)(=O)[O-])ccc4F)c4nc(c(-c5cc(S(=O)(=O)[O-])ccc5F)c5ccc2[nH]5)C=C4)C=C3)cc1
REMARK SMILES IDX 22 1 21 2 20 3 19 4 17 5 18 6 5 8 4 9 3 10 2 11 1 12 6 13
REMARK SMILES IDX 7 14 8 16 9 17 10 18 15 19 11 20 14 21 16 22 12 23 13 24
REMARK SMILES IDX 23 25 24 26 25 27 26 28 27 29 28 31 29 32 30 33 91 34 31 35
REMARK SMILES IDX 90 36 32 37 33 38 34 39 84 40 35 41 89 42 83 43 85 44 36 45
REMARK SMILES IDX 88 46 82 47 81 48 37 50 69 51 49 52 68 53 50 54 53 55 67 56
REMARK SMILES IDX 86 57 51 58 52 59 66 61 87 62 54 63 38 64 39 65 47 66 40 67
REMARK SMILES IDX 46 68 48 69 45 70 41 71 42 72 43 73 44 74 70 75 71 76 79 77
REMARK SMILES IDX 72 78 78 79 80 80 77 81 73 82 74 83 75 84 76 85 55 86 56 87
REMARK SMILES IDX 64 88 57 89 63 90 65 91 62 92 58 93 59 94 60 95 61 96
REMARK H PARENT 19 7 6 15 26 30 85 49 53 60
REMARK Flexibility Score: inf
ROOT
ATOM      1  C   UNL A   1      34.952  32.060  28.060  1.00  0.00     0.002 C 
ENDROOT
BRANCH   1   2
ATOM      2  C   UNL A   1      35.829  30.887  27.614  1.00  0.00     0.021 C 
BRANCH   2   3
ATOM      3  C   UNL A   1      35.184  29.318  27.843  1.00  0.00     0.116 C 
BRANCH   3   4
ATOM      4  N   UNL A   1      33.240  28.571  27.835  1.00  0.00    -0.354 N 
ATOM      5  C   UNL A   1      32.139  27.882  27.252  1.00  0.00     0.242 C 
ATOM      6  O   UNL A   1      31.147  27.812  28.000  1.00  0.00    -0.273 OA
ATOM      7  H   UNL A   1      32.893  28.844  28.715  1.00  0.00     0.163 HD
BRANCH   5   8
ATOM      8  C   UNL A   1      32.086  27.082  25.893  1.00  0.00     0.173 C 
BRANCH   8   9
ATOM      9  C   UNL A   1      31.972  25.562  26.139  1.00  0.00     0.063 C 
BRANCH   9  10
ATOM     10  C   UNL A   1      32.782  24.667  25.210  1.00  0.00     0.162 C 
BRANCH  10  11
ATOM     11  O   UNL A   1      34.168  24.619  25.530  1.00  0.00    -0.385 OA
ATOM     12  C   UNL A   1      34.544  23.538  26.364  1.00  0.00     0.194 C 
ENDBRANCH  10  11
ENDBRANCH   9  10
ENDBRANCH   8   9
BRANCH   8  13
ATOM     13  N   UNL A   1      33.120  27.425  24.919  1.00  0.00    -0.340 N 
ATOM     14  C   UNL A   1      33.038  28.506  24.100  1.00  0.00     0.254 C 
ATOM     15  H   UNL A   1      33.913  26.844  24.854  1.00  0.00     0.164 HD
ATOM     16  O   UNL A   1      33.941  28.946  23.416  1.00  0.00    -0.269 OA
BRANCH  14  17
ATOM     17  C   UNL A   1      31.680  28.978  24.015  1.00  0.00     0.075 A 
ATOM     18  C   UNL A   1      30.680  28.625  22.521  1.00  0.00     0.017 A 
ATOM     19  C   UNL A   1      31.319  30.453  25.013  1.00  0.00     0.136 A 
ATOM     20  C   UNL A   1      29.282  29.699  22.120  1.00  0.00     0.004 A 
ATOM     21  C   UNL A   1      29.878  31.474  24.628  1.00  0.00     0.043 A 
ATOM     22  F   UNL A   1      32.134  30.818  26.012  1.00  0.00    -0.206 F 
ATOM     23  C   UNL A   1      28.861  31.107  23.177  1.00  0.00    -0.048 A 
ATOM     24  C   UNL A   1      27.651  31.939  22.876  1.00  0.00     0.044 C 
ENDBRANCH  14  17
ENDBRANCH   8  13
ENDBRANCH   5   8
ENDBRANCH   3   4
ENDBRANCH   2   3
ENDBRANCH   1   2
BRANCH   1  25
ATOM     25  C   UNL A   1      35.650  33.420  27.993  1.00  0.00     0.002 C 
BRANCH  25  26
ATOM     26  C   UNL A   1      34.722  34.608  28.249  1.00  0.00     0.021 C 
BRANCH  26  27
ATOM     27  C   UNL A   1      33.403  34.158  28.843  1.00  0.00     0.116 C 
BRANCH  27  28
ATOM     28  N   UNL A   1      33.062  34.999  29.990  1.00  0.00    -0.352 N 
ATOM     29  C   UNL A   1      33.473  34.826  31.282  1.00  0.00     0.251 C 
ATOM     30  H   UNL A   1      32.477  35.769  29.812  1.00  0.00     0.163 HD
ATOM     31  O   UNL A   1      32.843  35.274  32.228  1.00  0.00    -0.269 OA
BRANCH  29  32
ATOM     32  C   UNL A   1      34.734  34.101  31.438  1.00  0.00     0.039 A 
ATOM     33  C   UNL A   1      35.949  34.769  31.346  1.00  0.00     0.014 A 
ATOM     34  C   UNL A   1      34.645  32.766  31.850  1.00  0.00     0.014 A 
ATOM     35  C   UNL A   1      37.101  34.076  31.694  1.00  0.00     0.010 A 
ATOM     36  C   UNL A   1      35.767  32.139  32.336  1.00  0.00     0.010 A 
ATOM     37  C   UNL A   1      37.009  32.769  32.208  1.00  0.00    -0.014 A 
BRANCH  37  38
ATOM     38  C   UNL A   1      38.214  31.990  32.544  1.00  0.00     0.031 A 
ATOM     39  C   UNL A   1      38.902  32.264  33.853  1.00  0.00     0.074 A 
ATOM     40  C   UNL A   1      38.695  31.103  31.655  1.00  0.00     0.049 A 
ATOM     41  N   UNL A   1      39.999  31.742  34.332  1.00  0.00    -0.248 NA
ATOM     42  C   UNL A   1      38.307  33.300  34.717  1.00  0.00     0.031 C 
ATOM     43  C   UNL A   1      38.123  30.832  30.333  1.00  0.00     0.029 A 
ATOM     44  N   UNL A   1      39.767  30.259  31.732  1.00  0.00    -0.354 N 
ATOM     45  C   UNL A   1      40.228  32.400  35.535  1.00  0.00     0.074 A 
ATOM     46  C   UNL A   1      39.222  33.427  35.662  1.00  0.00     0.031 C 
ATOM     47  C   UNL A   1      38.817  29.845  29.748  1.00  0.00     0.029 A 
ATOM     48  C   UNL A   1      39.910  29.450  30.629  1.00  0.00     0.049 A 
ATOM     49  H   UNL A   1      40.378  30.232  32.503  1.00  0.00     0.167 HD
ATOM     50  C   UNL A   1      41.166  32.135  36.472  1.00  0.00     0.034 A 
ATOM     51  C   UNL A   1      40.827  28.499  30.373  1.00  0.00     0.034 A 
ATOM     52  C   UNL A   1      42.133  31.080  36.322  1.00  0.00     0.049 A 
ATOM     53  C   UNL A   1      41.866  28.222  31.429  1.00  0.00     0.074 A 
ATOM     54  C   UNL A   1      43.101  30.664  37.214  1.00  0.00     0.029 A 
ATOM     55  N   UNL A   1      42.249  30.273  35.195  1.00  0.00    -0.354 N 
ATOM     56  N   UNL A   1      42.034  28.803  32.597  1.00  0.00    -0.248 NA
ATOM     57  C   UNL A   1      42.828  27.153  31.144  1.00  0.00     0.031 C 
ATOM     58  C   UNL A   1      43.852  29.660  36.597  1.00  0.00     0.029 A 
ATOM     59  C   UNL A   1      43.297  29.384  35.356  1.00  0.00     0.049 A 
ATOM     60  H   UNL A   1      41.672  30.327  34.400  1.00  0.00     0.167 HD
ATOM     61  C   UNL A   1      43.104  28.148  33.197  1.00  0.00     0.074 A 
ATOM     62  C   UNL A   1      43.525  27.116  32.270  1.00  0.00     0.031 C 
ATOM     63  C   UNL A   1      43.691  28.373  34.402  1.00  0.00     0.034 A 
BRANCH  50  64
ATOM     64  C   UNL A   1      41.187  33.006  37.705  1.00  0.00     0.023 A 
ATOM     65  C   UNL A   1      40.417  32.700  38.843  1.00  0.00     0.031 A 
ATOM     66  C   UNL A   1      41.947  34.188  37.727  1.00  0.00     0.131 A 
ATOM     67  C   UNL A   1      40.357  33.603  39.915  1.00  0.00     0.055 A 
ATOM     68  C   UNL A   1      41.955  35.036  38.835  1.00  0.00     0.041 A 
ATOM     69  F   UNL A   1      42.677  34.551  36.661  1.00  0.00    -0.206 F 
ATOM     70  C   UNL A   1      41.145  34.755  39.932  1.00  0.00     0.022 A 
BRANCH  67  71
ATOM     71  S   UNL A   1      39.118  33.329  41.211  1.00  0.00     0.124 S 
ATOM     72  O   UNL A   1      37.910  33.857  40.580  1.00  0.00    -0.237 OA
ATOM     73  O   UNL A   1      39.163  31.882  41.392  1.00  0.00    -0.237 OA
ATOM     74  O   UNL A   1      39.620  34.114  42.336  1.00  0.00    -0.744 OA
ENDBRANCH  67  71
ENDBRANCH  50  64
BRANCH  51  75
ATOM     75  C   UNL A   1      40.799  27.743  29.088  1.00  0.00     0.023 A 
ATOM     76  C   UNL A   1      41.760  27.973  28.092  1.00  0.00     0.031 A 
ATOM     77  C   UNL A   1      39.790  26.799  28.823  1.00  0.00     0.131 A 
ATOM     78  C   UNL A   1      41.662  27.311  26.857  1.00  0.00     0.055 A 
ATOM     79  C   UNL A   1      39.731  26.100  27.617  1.00  0.00     0.041 A 
ATOM     80  F   UNL A   1      38.849  26.532  29.743  1.00  0.00    -0.206 F 
ATOM     81  C   UNL A   1      40.663  26.366  26.618  1.00  0.00     0.022 A 
BRANCH  78  82
ATOM     82  S   UNL A   1      42.805  27.781  25.529  1.00  0.00     0.124 S 
ATOM     83  O   UNL A   1      41.939  28.568  24.659  1.00  0.00    -0.237 OA
ATOM     84  O   UNL A   1      43.828  28.521  26.258  1.00  0.00    -0.237 OA
ATOM     85  O   UNL A   1      43.236  26.495  24.984  1.00  0.00    -0.744 OA
ENDBRANCH  78  82
ENDBRANCH  51  75
BRANCH  63  86
ATOM     86  C   UNL A   1      44.821  27.453  34.789  1.00  0.00     0.023 A 
ATOM     87  C   UNL A   1      44.582  26.211  35.398  1.00  0.00     0.031 A 
ATOM     88  C   UNL A   1      46.153  27.829  34.543  1.00  0.00     0.131 A 
ATOM     89  C   UNL A   1      45.664  25.415  35.802  1.00  0.00     0.055 A 
ATOM     90  C   UNL A   1      47.222  26.999  34.877  1.00  0.00     0.041 A 
ATOM     91  F   UNL A   1      46.436  29.007  33.964  1.00  0.00    -0.206 F 
ATOM     92  C   UNL A   1      46.981  25.791  35.525  1.00  0.00     0.022 A 
BRANCH  89  93
ATOM     93  S   UNL A   1      45.326  23.937  36.795  1.00  0.00     0.124 S 
ATOM     94  O   UNL A   1      46.672  23.501  37.153  1.00  0.00    -0.237 OA
ATOM     95  O   UNL A   1      44.517  24.472  37.886  1.00  0.00    -0.237 OA
ATOM     96  O   UNL A   1      44.614  23.060  35.868  1.00  0.00    -0.744 OA
ENDBRANCH  89  93
ENDBRANCH  63  86
ENDBRANCH  37  38
ENDBRANCH  29  32
ENDBRANCH  27  28
ENDBRANCH  26  27
ENDBRANCH  25  26
ENDBRANCH   1  25
TORSDOF 21
ENDMDL
MODEL 2
REMARK VINA RESULT:     -10.6      6.357     12.089
REMARK SMILES COCC[C@H](NC(=O)c1ccc(C)cc1F)C(=O)NCCCCCCNC(=O)c1ccc(-c2c3nc(c(-c4cc(S(=O)(=O)[O-])ccc4F)c4ccc([nH]4)c(-c4cc(S(=O)(=O)[O-])ccc4F)c4nc(c(-c5cc(S(=O)(=O)[O-])ccc5F)c5ccc2[nH]5)C=C4)C=C3)cc1
REMARK SMILES IDX 22 1 21 2 20 3 19 4 17 5 18 6 5 8 4 9 3 10 2 11 1 12 6 13
REMARK SMILES IDX 7 14 8 16 9 17 10 18 15 19 11 20 14 21 16 22 12 23 13 24
REMARK SMILES IDX 23 25 24 26 25 27 26 28 27 29 28 31 29 32 30 33 91 34 31 35
REMARK SMILES IDX 90 36 32 37 33 38 34 39 84 40 35 41 89 42 83 43 85 44 36 45
REMARK SMILES IDX 88 46 82 47 81 48 37 50 69 51 49 52 68 53 50 54 53 55 67 56
REMARK SMILES IDX 86 57 51 58 52 59 66 61 87 62 54 63 38 64 39 65 47 66 40 67
REMARK SMILES IDX 46 68 48 69 45 70 41 71 42 72 43 73 44 74 70 75 71 76 79 77
REMARK SMILES IDX 72 78 78 79 80 80 77 81 73 82 74 83 75 84 76 85 55 86 56 87
REMARK SMILES IDX 64 88 57 89 63 90 65 91 62 92 58 93 59 94 60 95 61 96
REMARK H PARENT 19 7 6 15 26 30 85 49 53 60
REMARK Flexibility Score: inf
ROOT
ATOM      1  C   UNL A   1      40.458  22.312  26.247  1.00  0.00     0.002 C 
ENDROOT
BRANCH   1   2
ATOM      2  C   UNL A   1      39.642  23.355  27.017  1.00  0.00     0.021 C 
BRANCH   2   3
ATOM      3  C   UNL A   1      38.248  23.966  26.236  1.00  0.00     0.116 C 
BRANCH   3   4
ATOM      4  N   UNL A   1      37.310  23.492  24.438  1.00  0.00    -0.354 N 
ATOM      5  C   UNL A   1      36.176  23.204  23.626  1.00  0.00     0.242 C 
ATOM      6  O   UNL A   1      36.460  23.015  22.429  1.00  0.00    -0.273 OA
ATOM      7  H   UNL A   1      38.060  23.439  23.802  1.00  0.00     0.163 HD
BRANCH   5   8
ATOM      8  C   UNL A   1      34.648  23.257  24.014  1.00  0.00     0.173 C 
BRANCH   8   9
ATOM      9  C   UNL A   1      34.408  24.183  25.227  1.00  0.00     0.063 C 
BRANCH   9  10
ATOM     10  C   UNL A   1      34.539  23.539  26.601  1.00  0.00     0.162 C 
BRANCH  10  11
ATOM     11  O   UNL A   1      33.370  22.843  27.018  1.00  0.00    -0.385 OA
ATOM     12  C   UNL A   1      33.618  21.624  27.694  1.00  0.00     0.194 C 
ENDBRANCH  10  11
ENDBRANCH   9  10
ENDBRANCH   8   9
BRANCH   8  13
ATOM     13  N   UNL A   1      33.986  21.961  24.147  1.00  0.00    -0.340 N 
ATOM     14  C   UNL A   1      32.867  21.626  23.454  1.00  0.00     0.254 C 
ATOM     15  H   UNL A   1      34.369  21.301  24.769  1.00  0.00     0.164 HD
ATOM     16  O   UNL A   1      32.388  20.511  23.378  1.00  0.00    -0.269 OA
BRANCH  14  17
ATOM     17  C   UNL A   1      32.211  22.804  22.945  1.00  0.00     0.075 A 
ATOM     18  C   UNL A   1      33.020  23.815  21.649  1.00  0.00     0.017 A 
ATOM     19  C   UNL A   1      31.037  23.582  24.093  1.00  0.00     0.136 A 
ATOM     20  C   UNL A   1      32.560  25.554  21.471  1.00  0.00     0.004 A 
ATOM     21  C   UNL A   1      30.547  25.305  23.854  1.00  0.00     0.043 A 
ATOM     22  F   UNL A   1      30.558  22.903  25.145  1.00  0.00    -0.206 F 
ATOM     23  C   UNL A   1      31.311  26.298  22.550  1.00  0.00    -0.048 A 
ATOM     24  C   UNL A   1      30.883  27.718  22.337  1.00  0.00     0.044 C 
ENDBRANCH  14  17
ENDBRANCH   8  13
ENDBRANCH   5   8
ENDBRANCH   3   4
ENDBRANCH   2   3
ENDBRANCH   1   2
BRANCH   1  25
ATOM     25  C   UNL A   1      40.822  21.074  27.070  1.00  0.00     0.002 C 
BRANCH  25  26
ATOM     26  C   UNL A   1      41.495  19.966  26.260  1.00  0.00     0.021 C 
BRANCH  26  27
ATOM     27  C   UNL A   1      42.922  19.740  26.718  1.00  0.00     0.116 C 
BRANCH  27  28
ATOM     28  N   UNL A   1      43.721  19.217  25.610  1.00  0.00    -0.352 N 
ATOM     29  C   UNL A   1      44.277  19.938  24.590  1.00  0.00     0.251 C 
ATOM     30  H   UNL A   1      43.874  18.245  25.597  1.00  0.00     0.163 HD
ATOM     31  O   UNL A   1      44.550  19.434  23.512  1.00  0.00    -0.269 OA
BRANCH  29  32
ATOM     32  C   UNL A   1      44.551  21.341  24.904  1.00  0.00     0.039 A 
ATOM     33  C   UNL A   1      43.837  22.357  24.281  1.00  0.00     0.014 A 
ATOM     34  C   UNL A   1      45.427  21.588  25.968  1.00  0.00     0.014 A 
ATOM     35  C   UNL A   1      44.000  23.652  24.754  1.00  0.00     0.010 A 
ATOM     36  C   UNL A   1      45.465  22.843  26.527  1.00  0.00     0.010 A 
ATOM     37  C   UNL A   1      44.796  23.893  25.890  1.00  0.00    -0.014 A 
BRANCH  37  38
ATOM     38  C   UNL A   1      45.025  25.260  26.390  1.00  0.00     0.031 A 
ATOM     39  C   UNL A   1      46.392  25.864  26.224  1.00  0.00     0.074 A 
ATOM     40  C   UNL A   1      44.031  25.905  27.025  1.00  0.00     0.049 A 
ATOM     41  N   UNL A   1      46.836  27.022  26.630  1.00  0.00    -0.248 NA
ATOM     42  C   UNL A   1      47.413  25.034  25.558  1.00  0.00     0.031 C 
ATOM     43  C   UNL A   1      42.696  25.358  27.287  1.00  0.00     0.029 A 
ATOM     44  N   UNL A   1      43.984  27.163  27.557  1.00  0.00    -0.354 N 
ATOM     45  C   UNL A   1      48.182  27.044  26.286  1.00  0.00     0.074 A 
ATOM     46  C   UNL A   1      48.508  25.751  25.737  1.00  0.00     0.031 C 
ATOM     47  C   UNL A   1      41.945  26.299  27.878  1.00  0.00     0.029 A 
ATOM     48  C   UNL A   1      42.757  27.493  28.082  1.00  0.00     0.049 A 
ATOM     49  H   UNL A   1      44.754  27.776  27.562  1.00  0.00     0.167 HD
ATOM     50  C   UNL A   1      49.056  28.074  26.377  1.00  0.00     0.034 A 
ATOM     51  C   UNL A   1      42.347  28.637  28.661  1.00  0.00     0.034 A 
ATOM     52  C   UNL A   1      48.683  29.361  26.901  1.00  0.00     0.049 A 
ATOM     53  C   UNL A   1      43.338  29.770  28.755  1.00  0.00     0.074 A 
ATOM     54  C   UNL A   1      49.447  30.507  26.998  1.00  0.00     0.029 A 
ATOM     55  N   UNL A   1      47.429  29.666  27.422  1.00  0.00    -0.354 N 
ATOM     56  N   UNL A   1      44.592  29.806  28.363  1.00  0.00    -0.248 NA
ATOM     57  C   UNL A   1      42.855  31.019  29.352  1.00  0.00     0.031 C 
ATOM     58  C   UNL A   1      48.682  31.480  27.647  1.00  0.00     0.029 A 
ATOM     59  C   UNL A   1      47.411  30.974  27.873  1.00  0.00     0.049 A 
ATOM     60  H   UNL A   1      46.669  29.043  27.463  1.00  0.00     0.167 HD
ATOM     61  C   UNL A   1      45.040  31.094  28.641  1.00  0.00     0.074 A 
ATOM     62  C   UNL A   1      43.913  31.805  29.212  1.00  0.00     0.031 C 
ATOM     63  C   UNL A   1      46.267  31.645  28.446  1.00  0.00     0.034 A 
BRANCH  50  64
ATOM     64  C   UNL A   1      50.473  27.829  25.916  1.00  0.00     0.023 A 
ATOM     65  C   UNL A   1      50.855  27.992  24.571  1.00  0.00     0.031 A 
ATOM     66  C   UNL A   1      51.446  27.377  26.824  1.00  0.00     0.131 A 
ATOM     67  C   UNL A   1      52.145  27.626  24.158  1.00  0.00     0.055 A 
ATOM     68  C   UNL A   1      52.754  27.102  26.422  1.00  0.00     0.041 A 
ATOM     69  F   UNL A   1      51.135  27.172  28.113  1.00  0.00    -0.206 F 
ATOM     70  C   UNL A   1      53.106  27.210  25.080  1.00  0.00     0.022 A 
BRANCH  67  71
ATOM     71  S   UNL A   1      52.495  27.548  22.380  1.00  0.00     0.124 S 
ATOM     72  O   UNL A   1      53.491  28.607  22.229  1.00  0.00    -0.237 OA
ATOM     73  O   UNL A   1      52.983  26.184  22.213  1.00  0.00    -0.237 OA
ATOM     74  O   UNL A   1      51.201  27.827  21.763  1.00  0.00    -0.744 OA
ENDBRANCH  67  71
ENDBRANCH  50  64
BRANCH  51  75
ATOM     75  C   UNL A   1      40.955  28.771  29.178  1.00  0.00     0.023 A 
ATOM     76  C   UNL A   1      40.687  28.721  30.555  1.00  0.00     0.031 A 
ATOM     77  C   UNL A   1      39.866  28.921  28.301  1.00  0.00     0.131 A 
ATOM     78  C   UNL A   1      39.360  28.764  31.011  1.00  0.00     0.055 A 
ATOM     79  C   UNL A   1      38.554  29.023  28.763  1.00  0.00     0.041 A 
ATOM     80  F   UNL A   1      40.065  28.984  26.974  1.00  0.00    -0.206 F 
ATOM     81  C   UNL A   1      38.293  28.929  30.126  1.00  0.00     0.022 A 
BRANCH  78  82
ATOM     82  S   UNL A   1      39.042  28.499  32.778  1.00  0.00     0.124 S 
ATOM     83  O   UNL A   1      40.319  27.961  33.230  1.00  0.00    -0.237 OA
ATOM     84  O   UNL A   1      38.714  29.845  33.231  1.00  0.00    -0.237 OA
ATOM     85  O   UNL A   1      37.928  27.552  32.782  1.00  0.00    -0.744 OA
ENDBRANCH  78  82
ENDBRANCH  51  75
BRANCH  63  86
ATOM     86  C   UNL A   1      46.426  33.097  28.819  1.00  0.00     0.023 A 
ATOM     87  C   UNL A   1      46.162  34.125  27.900  1.00  0.00     0.031 A 
ATOM     88  C   UNL A   1      46.849  33.451  30.112  1.00  0.00     0.131 A 
ATOM     89  C   UNL A   1      46.386  35.460  28.267  1.00  0.00     0.055 A 
ATOM     90  C   UNL A   1      46.996  34.783  30.495  1.00  0.00     0.041 A 
ATOM     91  F   UNL A   1      47.116  32.505  31.027  1.00  0.00    -0.206 F 
ATOM     92  C   UNL A   1      46.780  35.796  29.566  1.00  0.00     0.022 A 
BRANCH  89  93
ATOM     93  S   UNL A   1      46.265  36.740  26.990  1.00  0.00     0.124 S 
ATOM     94  O   UNL A   1      46.672  36.011  25.793  1.00  0.00    -0.237 OA
ATOM     95  O   UNL A   1      44.857  37.117  27.060  1.00  0.00    -0.237 OA
ATOM     96  O   UNL A   1      47.204  37.764  27.444  1.00  0.00    -0.744 OA
ENDBRANCH  89  93
ENDBRANCH  63  86
ENDBRANCH  37  38
ENDBRANCH  29  32
ENDBRANCH  27  28
ENDBRANCH  26  27
ENDBRANCH  25  26
ENDBRANCH   1  25
TORSDOF 21
ENDMDL
MODEL 3
REMARK VINA RESULT:     -10.5      1.777      8.155
REMARK SMILES COCC[C@H](NC(=O)c1ccc(C)cc1F)C(=O)NCCCCCCNC(=O)c1ccc(-c2c3nc(c(-c4cc(S(=O)(=O)[O-])ccc4F)c4ccc([nH]4)c(-c4cc(S(=O)(=O)[O-])ccc4F)c4nc(c(-c5cc(S(=O)(=O)[O-])ccc5F)c5ccc2[nH]5)C=C4)C=C3)cc1
REMARK SMILES IDX 22 1 21 2 20 3 19 4 17 5 18 6 5 8 4 9 3 10 2 11 1 12 6 13
REMARK SMILES IDX 7 14 8 16 9 17 10 18 15 19 11 20 14 21 16 22 12 23 13 24
REMARK SMILES IDX 23 25 24 26 25 27 26 28 27 29 28 31 29 32 30 33 91 34 31 35
REMARK SMILES IDX 90 36 32 37 33 38 34 39 84 40 35 41 89 42 83 43 85 44 36 45
REMARK SMILES IDX 88 46 82 47 81 48 37 50 69 51 49 52 68 53 50 54 53 55 67 56
REMARK SMILES IDX 86 57 51 58 52 59 66 61 87 62 54 63 38 64 39 65 47 66 40 67
REMARK SMILES IDX 46 68 48 69 45 70 41 71 42 72 43 73 44 74 70 75 71 76 79 77
REMARK SMILES IDX 72 78 78 79 80 80 77 81 73 82 74 83 75 84 76 85 55 86 56 87
REMARK SMILES IDX 64 88 57 89 63 90 65 91 62 92 58 93 59 94 60 95 61 96
REMARK H PARENT 19 7 6 15 26 30 85 49 53 60
REMARK Flexibility Score: inf
ROOT
ATOM      1  C   UNL A   1      35.181  31.948  28.337  1.00  0.00     0.002 C 
ENDROOT
BRANCH   1   2
ATOM      2  C   UNL A   1      36.108  30.807  27.908  1.00  0.00     0.021 C 
BRANCH   2   3
ATOM      3  C   UNL A   1      35.359  29.326  27.491  1.00  0.00     0.116 C 
BRANCH   3   4
ATOM      4  N   UNL A   1      33.386  28.664  27.580  1.00  0.00    -0.354 N 
ATOM      5  C   UNL A   1      32.227  28.030  27.049  1.00  0.00     0.242 C 
ATOM      6  O   UNL A   1      31.274  27.992  27.849  1.00  0.00    -0.273 OA
ATOM      7  H   UNL A   1      33.099  28.940  28.480  1.00  0.00     0.163 HD
BRANCH   5   8
ATOM      8  C   UNL A   1      32.066  27.252  25.686  1.00  0.00     0.173 C 
BRANCH   8   9
ATOM      9  C   UNL A   1      33.436  26.806  25.129  1.00  0.00     0.063 C 
BRANCH   9  10
ATOM     10  C   UNL A   1      33.973  25.477  25.646  1.00  0.00     0.162 C 
BRANCH  10  11
ATOM     11  O   UNL A   1      34.648  24.711  24.654  1.00  0.00    -0.385 OA
ATOM     12  C   UNL A   1      35.778  24.000  25.125  1.00  0.00     0.194 C 
ENDBRANCH  10  11
ENDBRANCH   9  10
ENDBRANCH   8   9
BRANCH   8  13
ATOM     13  N   UNL A   1      31.230  27.905  24.683  1.00  0.00    -0.340 N 
ATOM     14  C   UNL A   1      30.147  27.309  24.119  1.00  0.00     0.254 C 
ATOM     15  H   UNL A   1      31.462  28.820  24.402  1.00  0.00     0.164 HD
ATOM     16  O   UNL A   1      29.311  27.864  23.432  1.00  0.00    -0.269 OA
BRANCH  14  17
ATOM     17  C   UNL A   1      30.199  25.881  24.301  1.00  0.00     0.075 A 
ATOM     18  C   UNL A   1      30.039  25.164  25.979  1.00  0.00     0.017 A 
ATOM     19  C   UNL A   1      31.124  24.981  23.022  1.00  0.00     0.136 A 
ATOM     20  C   UNL A   1      30.720  23.522  26.307  1.00  0.00     0.004 A 
ATOM     21  C   UNL A   1      31.740  23.315  23.356  1.00  0.00     0.043 A 
ATOM     22  F   UNL A   1      31.391  25.555  21.840  1.00  0.00    -0.206 F 
ATOM     23  C   UNL A   1      31.549  22.584  25.000  1.00  0.00    -0.048 A 
ATOM     24  C   UNL A   1      32.036  21.193  25.266  1.00  0.00     0.044 C 
ENDBRANCH  14  17
ENDBRANCH   8  13
ENDBRANCH   5   8
ENDBRANCH   3   4
ENDBRANCH   2   3
ENDBRANCH   1   2
BRANCH   1  25
ATOM     25  C   UNL A   1      35.706  33.342  27.988  1.00  0.00     0.002 C 
BRANCH  25  26
ATOM     26  C   UNL A   1      34.628  34.426  27.971  1.00  0.00     0.021 C 
BRANCH  26  27
ATOM     27  C   UNL A   1      33.343  33.934  28.606  1.00  0.00     0.116 C 
BRANCH  27  28
ATOM     28  N   UNL A   1      32.862  34.916  29.577  1.00  0.00    -0.352 N 
ATOM     29  C   UNL A   1      33.136  34.944  30.916  1.00  0.00     0.251 C 
ATOM     30  H   UNL A   1      32.281  35.630  29.230  1.00  0.00     0.163 HD
ATOM     31  O   UNL A   1      32.398  35.497  31.718  1.00  0.00    -0.269 OA
BRANCH  29  32
ATOM     32  C   UNL A   1      34.389  34.297  31.304  1.00  0.00     0.039 A 
ATOM     33  C   UNL A   1      35.592  34.989  31.235  1.00  0.00     0.014 A 
ATOM     34  C   UNL A   1      34.287  33.034  31.901  1.00  0.00     0.014 A 
ATOM     35  C   UNL A   1      36.717  34.398  31.797  1.00  0.00     0.010 A 
ATOM     36  C   UNL A   1      35.366  32.528  32.585  1.00  0.00     0.010 A 
ATOM     37  C   UNL A   1      36.600  33.179  32.489  1.00  0.00    -0.014 A 
BRANCH  37  38
ATOM     38  C   UNL A   1      37.781  32.503  33.057  1.00  0.00     0.031 A 
ATOM     39  C   UNL A   1      38.412  31.386  32.272  1.00  0.00     0.074 A 
ATOM     40  C   UNL A   1      38.225  32.862  34.273  1.00  0.00     0.049 A 
ATOM     41  N   UNL A   1      39.419  30.620  32.595  1.00  0.00    -0.248 NA
ATOM     42  C   UNL A   1      37.799  31.051  30.974  1.00  0.00     0.031 C 
ATOM     43  C   UNL A   1      37.621  33.890  35.127  1.00  0.00     0.029 A 
ATOM     44  N   UNL A   1      39.291  32.411  35.001  1.00  0.00    -0.354 N 
ATOM     45  C   UNL A   1      39.540  29.708  31.552  1.00  0.00     0.074 A 
ATOM     46  C   UNL A   1      38.445  29.947  30.643  1.00  0.00     0.031 C 
ATOM     47  C   UNL A   1      38.362  34.029  36.237  1.00  0.00     0.029 A 
ATOM     48  C   UNL A   1      39.459  33.069  36.195  1.00  0.00     0.049 A 
ATOM     49  H   UNL A   1      39.882  31.685  34.697  1.00  0.00     0.167 HD
ATOM     50  C   UNL A   1      40.509  28.787  31.350  1.00  0.00     0.034 A 
ATOM     51  C   UNL A   1      40.401  32.906  37.143  1.00  0.00     0.034 A 
ATOM     52  C   UNL A   1      41.603  28.601  32.265  1.00  0.00     0.049 A 
ATOM     53  C   UNL A   1      41.470  31.871  36.899  1.00  0.00     0.074 A 
ATOM     54  C   UNL A   1      42.683  27.748  32.157  1.00  0.00     0.029 A 
ATOM     55  N   UNL A   1      41.750  29.288  33.467  1.00  0.00    -0.354 N 
ATOM     56  N   UNL A   1      41.617  31.059  35.875  1.00  0.00    -0.248 NA
ATOM     57  C   UNL A   1      42.508  31.740  37.927  1.00  0.00     0.031 C 
ATOM     58  C   UNL A   1      43.440  27.861  33.327  1.00  0.00     0.029 A 
ATOM     59  C   UNL A   1      42.886  28.851  34.125  1.00  0.00     0.049 A 
ATOM     60  H   UNL A   1      41.136  29.982  33.799  1.00  0.00     0.167 HD
ATOM     61  C   UNL A   1      42.783  30.341  36.123  1.00  0.00     0.074 A 
ATOM     62  C   UNL A   1      43.307  30.834  37.383  1.00  0.00     0.031 C 
ATOM     63  C   UNL A   1      43.371  29.363  35.386  1.00  0.00     0.034 A 
BRANCH  50  64
ATOM     64  C   UNL A   1      40.405  27.924  30.115  1.00  0.00     0.023 A 
ATOM     65  C   UNL A   1      41.247  28.114  29.003  1.00  0.00     0.031 A 
ATOM     66  C   UNL A   1      39.417  26.928  30.026  1.00  0.00     0.131 A 
ATOM     67  C   UNL A   1      41.030  27.384  27.825  1.00  0.00     0.055 A 
ATOM     68  C   UNL A   1      39.267  26.141  28.884  1.00  0.00     0.041 A 
ATOM     69  F   UNL A   1      38.564  26.719  31.041  1.00  0.00    -0.206 F 
ATOM     70  C   UNL A   1      40.066  26.377  27.768  1.00  0.00     0.022 A 
BRANCH  67  71
ATOM     71  S   UNL A   1      41.919  27.879  26.323  1.00  0.00     0.124 S 
ATOM     72  O   UNL A   1      41.542  26.816  25.394  1.00  0.00    -0.237 OA
ATOM     73  O   UNL A   1      41.362  29.198  26.046  1.00  0.00    -0.237 OA
ATOM     74  O   UNL A   1      43.321  27.867  26.736  1.00  0.00    -0.744 OA
ENDBRANCH  67  71
ENDBRANCH  50  64
BRANCH  51  75
ATOM     75  C   UNL A   1      40.384  33.734  38.383  1.00  0.00     0.023 A 
ATOM     76  C   UNL A   1      39.475  33.468  39.418  1.00  0.00     0.031 A 
ATOM     77  C   UNL A   1      41.258  34.825  38.539  1.00  0.00     0.131 A 
ATOM     78  C   UNL A   1      39.420  34.314  40.537  1.00  0.00     0.055 A 
ATOM     79  C   UNL A   1      41.240  35.628  39.680  1.00  0.00     0.041 A 
ATOM     80  F   UNL A   1      42.155  35.121  37.585  1.00  0.00    -0.206 F 
ATOM     81  C   UNL A   1      40.306  35.383  40.682  1.00  0.00     0.022 A 
BRANCH  78  82
ATOM     82  S   UNL A   1      38.102  34.055  41.757  1.00  0.00     0.124 S 
ATOM     83  O   UNL A   1      37.054  33.458  40.937  1.00  0.00    -0.237 OA
ATOM     84  O   UNL A   1      38.750  33.169  42.718  1.00  0.00    -0.237 OA
ATOM     85  O   UNL A   1      37.823  35.404  42.244  1.00  0.00    -0.744 OA
ENDBRANCH  78  82
ENDBRANCH  51  75
BRANCH  63  86
ATOM     86  C   UNL A   1      44.668  28.803  35.913  1.00  0.00     0.023 A 
ATOM     87  C   UNL A   1      44.696  27.679  36.754  1.00  0.00     0.031 A 
ATOM     88  C   UNL A   1      45.889  29.406  35.565  1.00  0.00     0.131 A 
ATOM     89  C   UNL A   1      45.918  27.231  37.274  1.00  0.00     0.055 A 
ATOM     90  C   UNL A   1      47.108  28.908  36.023  1.00  0.00     0.041 A 
ATOM     91  F   UNL A   1      45.917  30.483  34.764  1.00  0.00    -0.206 F 
ATOM     92  C   UNL A   1      47.126  27.824  36.897  1.00  0.00     0.022 A 
BRANCH  89  93
ATOM     93  S   UNL A   1      45.895  25.934  38.540  1.00  0.00     0.124 S 
ATOM     94  O   UNL A   1      44.526  25.440  38.441  1.00  0.00    -0.237 OA
ATOM     95  O   UNL A   1      46.937  25.025  38.073  1.00  0.00    -0.237 OA
ATOM     96  O   UNL A   1      46.209  26.655  39.772  1.00  0.00    -0.744 OA
ENDBRANCH  89  93
ENDBRANCH  63  86
ENDBRANCH  37  38
ENDBRANCH  29  32
ENDBRANCH  27  28
ENDBRANCH  26  27
ENDBRANCH  25  26
ENDBRANCH   1  25
TORSDOF 21
ENDMDL
