MODEL 1
REMARK VINA RESULT:     -11.7      0.000      0.000
REMARK SMILES Cc1ccc(-c2ncccc2C(=O)NCCCCCCNC(=O)c2ccc(-c3c4nc(c(-c5cc(S(=O)(=O)[O-])ccc5F)c5ccc([nH]5)c(-c5cc(S(=O)(=O)[O-])ccc5F)c5nc(c(-c6cc(S(=O)(=O)[O-])ccc6F)c6ccc3[nH]6)C=C5)C=C4)cc2)c(Cl)c1
REMARK SMILES IDX 18 1 17 2 16 3 15 4 14 5 12 6 13 7 11 9 6 10 7 11 8 12 10 13
REMARK SMILES IDX 9 14 5 15 1 16 2 17 3 18 89 19 4 20 87 21 88 22 19 23 20 24
REMARK SMILES IDX 21 25 22 26 23 28 24 29 25 30 86 31 26 32 85 33 27 34 28 35
REMARK SMILES IDX 29 36 79 37 30 38 84 39 78 40 80 41 31 42 83 43 77 44 76 45
REMARK SMILES IDX 32 47 64 48 44 49 63 50 45 51 48 52 62 53 81 54 46 55 47 56
REMARK SMILES IDX 61 58 82 59 49 60 33 61 34 62 42 63 35 64 41 65 43 66 40 67
REMARK SMILES IDX 36 68 37 69 38 70 39 71 65 72 66 73 74 74 67 75 73 76 75 77
REMARK SMILES IDX 72 78 68 79 69 80 70 81 71 82 50 83 51 84 59 85 52 86 58 87
REMARK SMILES IDX 60 88 57 89 53 90 54 91 55 92 56 93
REMARK H PARENT 14 8 21 27 80 46 48 57
REMARK Flexibility Score: inf
ROOT
ATOM      1  C   UNL A   1      31.494  30.925  25.836  1.00  0.00     0.002 C 
ENDROOT
BRANCH   1   2
ATOM      2  C   UNL A   1      32.036  29.544  26.228  1.00  0.00     0.002 C 
BRANCH   2   3
ATOM      3  C   UNL A   1      33.504  29.287  25.846  1.00  0.00     0.021 C 
BRANCH   3   4
ATOM      4  C   UNL A   1      34.033  27.940  26.339  1.00  0.00     0.116 C 
BRANCH   4   5
ATOM      5  N   UNL A   1      32.938  27.052  26.668  1.00  0.00    -0.352 N 
ATOM      6  C   UNL A   1      32.337  25.948  26.129  1.00  0.00     0.253 C 
ATOM      7  O   UNL A   1      31.401  25.533  26.815  1.00  0.00    -0.269 OA
ATOM      8  H   UNL A   1      32.507  27.317  27.513  1.00  0.00     0.163 HD
BRANCH   6   9
ATOM      9  C   UNL A   1      32.735  25.234  24.868  1.00  0.00     0.066 A 
ATOM     10  C   UNL A   1      32.097  25.537  23.643  1.00  0.00     0.084 A 
ATOM     11  N   UNL A   1      32.338  24.848  22.483  1.00  0.00    -0.255 NA
ATOM     12  C   UNL A   1      33.215  23.832  22.515  1.00  0.00     0.112 A 
ATOM     13  C   UNL A   1      33.708  24.229  24.810  1.00  0.00     0.018 A 
ATOM     14  C   UNL A   1      33.933  23.501  23.639  1.00  0.00     0.021 A 
BRANCH  10  15
ATOM     15  C   UNL A   1      31.166  26.658  23.425  1.00  0.00     0.020 A 
ATOM     16  C   UNL A   1      28.298  29.816  22.657  1.00  0.00     0.044 C 
ATOM     17  C   UNL A   1      29.286  28.728  22.955  1.00  0.00    -0.050 A 
ATOM     18  C   UNL A   1      28.873  27.513  23.501  1.00  0.00     0.004 A 
ATOM     19  C   UNL A   1      30.645  28.921  22.680  1.00  0.00     0.024 A 
ATOM     20  C   UNL A   1      29.802  26.498  23.747  1.00  0.00     0.012 A 
ATOM     21  C   UNL A   1      31.575  27.897  22.904  1.00  0.00     0.050 A 
ATOM     22  Cl  UNL A   1      33.224  28.218  22.479  1.00  0.00    -0.084 Cl
ENDBRANCH  10  15
ENDBRANCH   6   9
ENDBRANCH   4   5
ENDBRANCH   3   4
ENDBRANCH   2   3
ENDBRANCH   1   2
BRANCH   1  23
ATOM     23  C   UNL A   1      31.408  31.934  26.984  1.00  0.00     0.021 C 
BRANCH  23  24
ATOM     24  C   UNL A   1      32.731  32.612  27.321  1.00  0.00     0.116 C 
BRANCH  24  25
ATOM     25  N   UNL A   1      32.546  34.020  27.626  1.00  0.00    -0.352 N 
ATOM     26  C   UNL A   1      33.118  34.773  28.621  1.00  0.00     0.251 C 
ATOM     27  H   UNL A   1      31.923  34.502  27.035  1.00  0.00     0.163 HD
ATOM     28  O   UNL A   1      32.657  35.877  28.890  1.00  0.00    -0.269 OA
BRANCH  26  29
ATOM     29  C   UNL A   1      34.274  34.238  29.372  1.00  0.00     0.039 A 
ATOM     30  C   UNL A   1      34.045  33.510  30.541  1.00  0.00     0.014 A 
ATOM     31  C   UNL A   1      35.581  34.465  28.928  1.00  0.00     0.014 A 
ATOM     32  C   UNL A   1      35.126  32.964  31.237  1.00  0.00     0.010 A 
ATOM     33  C   UNL A   1      36.650  33.857  29.580  1.00  0.00     0.010 A 
ATOM     34  C   UNL A   1      36.435  33.106  30.746  1.00  0.00    -0.014 A 
BRANCH  34  35
ATOM     35  C   UNL A   1      37.588  32.480  31.442  1.00  0.00     0.031 A 
ATOM     36  C   UNL A   1      38.352  31.362  30.786  1.00  0.00     0.074 A 
ATOM     37  C   UNL A   1      37.907  32.879  32.690  1.00  0.00     0.049 A 
ATOM     38  N   UNL A   1      39.341  30.646  31.257  1.00  0.00    -0.248 NA
ATOM     39  C   UNL A   1      37.923  30.977  29.433  1.00  0.00     0.031 C 
ATOM     40  C   UNL A   1      37.210  33.924  33.445  1.00  0.00     0.029 A 
ATOM     41  N   UNL A   1      38.889  32.452  33.548  1.00  0.00    -0.354 N 
ATOM     42  C   UNL A   1      39.645  29.719  30.265  1.00  0.00     0.074 A 
ATOM     43  C   UNL A   1      38.692  29.925  29.195  1.00  0.00     0.031 C 
ATOM     44  C   UNL A   1      37.801  34.070  34.641  1.00  0.00     0.029 A 
ATOM     45  C   UNL A   1      38.885  33.100  34.761  1.00  0.00     0.049 A 
ATOM     46  H   UNL A   1      39.537  31.747  33.316  1.00  0.00     0.167 HD
ATOM     47  C   UNL A   1      40.640  28.798  30.241  1.00  0.00     0.034 A 
ATOM     48  C   UNL A   1      39.656  32.924  35.853  1.00  0.00     0.034 A 
ATOM     49  C   UNL A   1      41.587  28.618  31.316  1.00  0.00     0.049 A 
ATOM     50  C   UNL A   1      40.744  31.881  35.812  1.00  0.00     0.074 A 
ATOM     51  C   UNL A   1      42.675  27.763  31.372  1.00  0.00     0.029 A 
ATOM     52  N   UNL A   1      41.555  29.295  32.529  1.00  0.00    -0.354 N 
ATOM     53  N   UNL A   1      41.059  31.053  34.841  1.00  0.00    -0.248 NA
ATOM     54  C   UNL A   1      41.588  31.758  37.007  1.00  0.00     0.031 C 
ATOM     55  C   UNL A   1      43.248  27.864  32.643  1.00  0.00     0.029 A 
ATOM     56  C   UNL A   1      42.577  28.847  33.354  1.00  0.00     0.049 A 
ATOM     57  H   UNL A   1      40.901  29.991  32.770  1.00  0.00     0.167 HD
ATOM     58  C   UNL A   1      42.157  30.332  35.300  1.00  0.00     0.074 A 
ATOM     59  C   UNL A   1      42.458  30.834  36.625  1.00  0.00     0.031 C 
ATOM     60  C   UNL A   1      42.857  29.345  34.681  1.00  0.00     0.034 A 
BRANCH  47  61
ATOM     61  C   UNL A   1      40.730  27.898  29.030  1.00  0.00     0.023 A 
ATOM     62  C   UNL A   1      41.710  28.083  28.039  1.00  0.00     0.031 A 
ATOM     63  C   UNL A   1      39.805  26.853  28.850  1.00  0.00     0.131 A 
ATOM     64  C   UNL A   1      41.693  27.293  26.879  1.00  0.00     0.055 A 
ATOM     65  C   UNL A   1      39.849  26.014  27.735  1.00  0.00     0.041 A 
ATOM     66  F   UNL A   1      38.832  26.639  29.750  1.00  0.00    -0.206 F 
ATOM     67  C   UNL A   1      40.786  26.242  26.732  1.00  0.00     0.022 A 
BRANCH  64  68
ATOM     68  S   UNL A   1      42.771  27.761  25.498  1.00  0.00     0.124 S 
ATOM     69  O   UNL A   1      43.824  28.506  26.185  1.00  0.00    -0.237 OA
ATOM     70  O   UNL A   1      43.158  26.468  24.947  1.00  0.00    -0.237 OA
ATOM     71  O   UNL A   1      41.904  28.570  24.644  1.00  0.00    -0.744 OA
ENDBRANCH  64  68
ENDBRANCH  47  61
BRANCH  48  72
ATOM     72  C   UNL A   1      39.419  33.737  37.081  1.00  0.00     0.023 A 
ATOM     73  C   UNL A   1      38.797  33.184  38.210  1.00  0.00     0.031 A 
ATOM     74  C   UNL A   1      39.787  35.094  37.129  1.00  0.00     0.131 A 
ATOM     75  C   UNL A   1      38.519  33.994  39.323  1.00  0.00     0.055 A 
ATOM     76  C   UNL A   1      39.558  35.882  38.258  1.00  0.00     0.041 A 
ATOM     77  F   UNL A   1      40.389  35.672  36.077  1.00  0.00    -0.206 F 
ATOM     78  C   UNL A   1      38.909  35.335  39.360  1.00  0.00     0.022 A 
BRANCH  75  79
ATOM     79  S   UNL A   1      37.560  33.291  40.693  1.00  0.00     0.124 S 
ATOM     80  O   UNL A   1      37.287  34.474  41.501  1.00  0.00    -0.237 OA
ATOM     81  O   UNL A   1      36.417  32.711  39.995  1.00  0.00    -0.237 OA
ATOM     82  O   UNL A   1      38.479  32.325  41.290  1.00  0.00    -0.744 OA
ENDBRANCH  75  79
ENDBRANCH  48  72
BRANCH  60  83
ATOM     83  C   UNL A   1      44.044  28.777  35.421  1.00  0.00     0.023 A 
ATOM     84  C   UNL A   1      43.936  27.633  36.230  1.00  0.00     0.031 A 
ATOM     85  C   UNL A   1      45.302  29.399  35.319  1.00  0.00     0.131 A 
ATOM     86  C   UNL A   1      45.052  27.181  36.953  1.00  0.00     0.055 A 
ATOM     87  C   UNL A   1      46.423  28.904  35.987  1.00  0.00     0.041 A 
ATOM     88  F   UNL A   1      45.464  30.497  34.564  1.00  0.00    -0.206 F 
ATOM     89  C   UNL A   1      46.298  27.797  36.821  1.00  0.00     0.022 A 
BRANCH  86  90
ATOM     90  S   UNL A   1      44.826  25.832  38.146  1.00  0.00     0.124 S 
ATOM     91  O   UNL A   1      43.719  26.328  38.957  1.00  0.00    -0.237 OA
ATOM     92  O   UNL A   1      44.525  24.696  37.280  1.00  0.00    -0.237 OA
ATOM     93  O   UNL A   1      46.115  25.764  38.832  1.00  0.00    -0.744 OA
ENDBRANCH  86  90
ENDBRANCH  60  83
ENDBRANCH  34  35
ENDBRANCH  26  29
ENDBRANCH  24  25
ENDBRANCH  23  24
ENDBRANCH   1  23
TORSDOF 17
ENDMDL
MODEL 2
REMARK VINA RESULT:     -11.6      5.536     10.770
REMARK SMILES Cc1ccc(-c2ncccc2C(=O)NCCCCCCNC(=O)c2ccc(-c3c4nc(c(-c5cc(S(=O)(=O)[O-])ccc5F)c5ccc([nH]5)c(-c5cc(S(=O)(=O)[O-])ccc5F)c5nc(c(-c6cc(S(=O)(=O)[O-])ccc6F)c6ccc3[nH]6)C=C5)C=C4)cc2)c(Cl)c1
REMARK SMILES IDX 18 1 17 2 16 3 15 4 14 5 12 6 13 7 11 9 6 10 7 11 8 12 10 13
REMARK SMILES IDX 9 14 5 15 1 16 2 17 3 18 89 19 4 20 87 21 88 22 19 23 20 24
REMARK SMILES IDX 21 25 22 26 23 28 24 29 25 30 86 31 26 32 85 33 27 34 28 35
REMARK SMILES IDX 29 36 79 37 30 38 84 39 78 40 80 41 31 42 83 43 77 44 76 45
REMARK SMILES IDX 32 47 64 48 44 49 63 50 45 51 48 52 62 53 81 54 46 55 47 56
REMARK SMILES IDX 61 58 82 59 49 60 33 61 34 62 42 63 35 64 41 65 43 66 40 67
REMARK SMILES IDX 36 68 37 69 38 70 39 71 65 72 66 73 74 74 67 75 73 76 75 77
REMARK SMILES IDX 72 78 68 79 69 80 70 81 71 82 50 83 51 84 59 85 52 86 58 87
REMARK SMILES IDX 60 88 57 89 53 90 54 91 55 92 56 93
REMARK H PARENT 14 8 21 27 80 46 48 57
REMARK Flexibility Score: inf
ROOT
ATOM      1  C   UNL A   1      35.528  23.284  23.544  1.00  0.00     0.002 C 
ENDROOT
BRANCH   1   2
ATOM      2  C   UNL A   1      34.183  23.866  23.089  1.00  0.00     0.002 C 
BRANCH   2   3
ATOM      3  C   UNL A   1      32.993  23.560  24.014  1.00  0.00     0.021 C 
BRANCH   3   4
ATOM      4  C   UNL A   1      31.738  24.365  23.676  1.00  0.00     0.116 C 
BRANCH   4   5
ATOM      5  N   UNL A   1      31.114  24.865  24.882  1.00  0.00    -0.352 N 
ATOM      6  C   UNL A   1      30.442  25.989  25.280  1.00  0.00     0.253 C 
ATOM      7  O   UNL A   1      30.091  25.941  26.460  1.00  0.00    -0.269 OA
ATOM      8  H   UNL A   1      31.196  24.219  25.621  1.00  0.00     0.163 HD
BRANCH   6   9
ATOM      9  C   UNL A   1      30.093  27.176  24.427  1.00  0.00     0.066 A 
ATOM     10  C   UNL A   1      30.797  28.393  24.574  1.00  0.00     0.084 A 
ATOM     11  N   UNL A   1      30.458  29.540  23.905  1.00  0.00    -0.255 NA
ATOM     12  C   UNL A   1      29.401  29.507  23.078  1.00  0.00     0.112 A 
ATOM     13  C   UNL A   1      29.063  27.185  23.479  1.00  0.00     0.018 A 
ATOM     14  C   UNL A   1      28.691  28.358  22.819  1.00  0.00     0.021 A 
BRANCH  10  15
ATOM     15  C   UNL A   1      32.014  28.578  25.384  1.00  0.00     0.020 A 
ATOM     16  C   UNL A   1      35.542  29.344  27.783  1.00  0.00     0.044 C 
ATOM     17  C   UNL A   1      34.312  29.056  26.975  1.00  0.00    -0.050 A 
ATOM     18  C   UNL A   1      33.048  29.432  27.433  1.00  0.00     0.004 A 
ATOM     19  C   UNL A   1      34.421  28.407  25.740  1.00  0.00     0.024 A 
ATOM     20  C   UNL A   1      31.914  29.182  26.655  1.00  0.00     0.012 A 
ATOM     21  C   UNL A   1      33.288  28.176  24.949  1.00  0.00     0.050 A 
ATOM     22  Cl  UNL A   1      33.538  27.415  23.412  1.00  0.00    -0.084 Cl
ENDBRANCH  10  15
ENDBRANCH   6   9
ENDBRANCH   4   5
ENDBRANCH   3   4
ENDBRANCH   2   3
ENDBRANCH   1   2
BRANCH   1  23
ATOM     23  C   UNL A   1      35.425  22.080  24.484  1.00  0.00     0.021 C 
BRANCH  23  24
ATOM     24  C   UNL A   1      36.319  22.171  25.716  1.00  0.00     0.116 C 
BRANCH  24  25
ATOM     25  N   UNL A   1      37.263  21.068  25.771  1.00  0.00    -0.352 N 
ATOM     26  C   UNL A   1      38.625  21.102  25.938  1.00  0.00     0.251 C 
ATOM     27  H   UNL A   1      36.871  20.170  25.675  1.00  0.00     0.163 HD
ATOM     28  O   UNL A   1      39.292  20.099  25.705  1.00  0.00    -0.269 OA
BRANCH  26  29
ATOM     29  C   UNL A   1      39.278  22.352  26.381  1.00  0.00     0.039 A 
ATOM     30  C   UNL A   1      40.357  22.278  27.264  1.00  0.00     0.014 A 
ATOM     31  C   UNL A   1      38.820  23.595  25.932  1.00  0.00     0.014 A 
ATOM     32  C   UNL A   1      41.009  23.449  27.658  1.00  0.00     0.010 A 
ATOM     33  C   UNL A   1      39.518  24.753  26.265  1.00  0.00     0.010 A 
ATOM     34  C   UNL A   1      40.616  24.693  27.137  1.00  0.00    -0.014 A 
BRANCH  34  35
ATOM     35  C   UNL A   1      41.339  25.940  27.499  1.00  0.00     0.031 A 
ATOM     36  C   UNL A   1      40.644  27.013  28.291  1.00  0.00     0.074 A 
ATOM     37  C   UNL A   1      42.600  26.128  27.061  1.00  0.00     0.049 A 
ATOM     38  N   UNL A   1      41.080  28.194  28.648  1.00  0.00    -0.248 NA
ATOM     39  C   UNL A   1      39.262  26.732  28.710  1.00  0.00     0.031 C 
ATOM     40  C   UNL A   1      43.361  25.175  26.248  1.00  0.00     0.029 A 
ATOM     41  N   UNL A   1      43.462  27.182  27.229  1.00  0.00    -0.354 N 
ATOM     42  C   UNL A   1      40.025  28.802  29.320  1.00  0.00     0.074 A 
ATOM     43  C   UNL A   1      38.909  27.882  29.265  1.00  0.00     0.031 C 
ATOM     44  C   UNL A   1      44.582  25.680  26.008  1.00  0.00     0.029 A 
ATOM     45  C   UNL A   1      44.677  27.008  26.605  1.00  0.00     0.049 A 
ATOM     46  H   UNL A   1      43.234  27.987  27.748  1.00  0.00     0.167 HD
ATOM     47  C   UNL A   1      39.999  30.006  29.944  1.00  0.00     0.034 A 
ATOM     48  C   UNL A   1      45.740  27.830  26.511  1.00  0.00     0.034 A 
ATOM     49  C   UNL A   1      41.129  30.903  29.997  1.00  0.00     0.049 A 
ATOM     50  C   UNL A   1      45.682  29.173  27.196  1.00  0.00     0.074 A 
ATOM     51  C   UNL A   1      41.236  32.116  30.656  1.00  0.00     0.029 A 
ATOM     52  N   UNL A   1      42.344  30.693  29.356  1.00  0.00    -0.354 N 
ATOM     53  N   UNL A   1      44.698  29.708  27.882  1.00  0.00    -0.248 NA
ATOM     54  C   UNL A   1      46.882  30.014  27.106  1.00  0.00     0.031 C 
ATOM     55  C   UNL A   1      42.481  32.674  30.348  1.00  0.00     0.029 A 
ATOM     56  C   UNL A   1      43.190  31.771  29.571  1.00  0.00     0.049 A 
ATOM     57  H   UNL A   1      42.572  29.895  28.827  1.00  0.00     0.167 HD
ATOM     58  C   UNL A   1      45.172  30.938  28.329  1.00  0.00     0.074 A 
ATOM     59  C   UNL A   1      46.535  31.055  27.849  1.00  0.00     0.031 C 
ATOM     60  C   UNL A   1      44.541  31.884  29.073  1.00  0.00     0.034 A 
BRANCH  47  61
ATOM     61  C   UNL A   1      38.699  30.430  30.588  1.00  0.00     0.023 A 
ATOM     62  C   UNL A   1      37.768  31.243  29.916  1.00  0.00     0.031 A 
ATOM     63  C   UNL A   1      38.395  30.038  31.904  1.00  0.00     0.131 A 
ATOM     64  C   UNL A   1      36.624  31.701  30.587  1.00  0.00     0.055 A 
ATOM     65  C   UNL A   1      37.212  30.426  32.535  1.00  0.00     0.041 A 
ATOM     66  F   UNL A   1      39.253  29.280  32.607  1.00  0.00    -0.206 F 
ATOM     67  C   UNL A   1      36.325  31.277  31.883  1.00  0.00     0.022 A 
BRANCH  64  68
ATOM     68  S   UNL A   1      35.614  32.985  29.796  1.00  0.00     0.124 S 
ATOM     69  O   UNL A   1      35.394  33.911  30.905  1.00  0.00    -0.237 OA
ATOM     70  O   UNL A   1      36.487  33.460  28.729  1.00  0.00    -0.237 OA
ATOM     71  O   UNL A   1      34.424  32.261  29.355  1.00  0.00    -0.744 OA
ENDBRANCH  64  68
ENDBRANCH  47  61
BRANCH  48  72
ATOM     72  C   UNL A   1      46.942  27.421  25.728  1.00  0.00     0.023 A 
ATOM     73  C   UNL A   1      47.105  27.812  24.390  1.00  0.00     0.031 A 
ATOM     74  C   UNL A   1      47.932  26.603  26.301  1.00  0.00     0.131 A 
ATOM     75  C   UNL A   1      48.208  27.348  23.655  1.00  0.00     0.055 A 
ATOM     76  C   UNL A   1      49.056  26.190  25.583  1.00  0.00     0.041 A 
ATOM     77  F   UNL A   1      47.827  26.204  27.579  1.00  0.00    -0.206 F 
ATOM     78  C   UNL A   1      49.192  26.552  24.247  1.00  0.00     0.022 A 
BRANCH  75  79
ATOM     79  S   UNL A   1      48.296  27.730  21.884  1.00  0.00     0.124 S 
ATOM     80  O   UNL A   1      46.985  28.320  21.643  1.00  0.00    -0.237 OA
ATOM     81  O   UNL A   1      49.432  28.644  21.829  1.00  0.00    -0.237 OA
ATOM     82  O   UNL A   1      48.518  26.425  21.265  1.00  0.00    -0.744 OA
ENDBRANCH  75  79
ENDBRANCH  48  72
BRANCH  60  83
ATOM     83  C   UNL A   1      45.340  33.109  29.446  1.00  0.00     0.023 A 
ATOM     84  C   UNL A   1      45.340  34.267  28.648  1.00  0.00     0.031 A 
ATOM     85  C   UNL A   1      46.122  33.114  30.616  1.00  0.00     0.131 A 
ATOM     86  C   UNL A   1      46.151  35.358  28.999  1.00  0.00     0.055 A 
ATOM     87  C   UNL A   1      46.873  34.227  30.994  1.00  0.00     0.041 A 
ATOM     88  F   UNL A   1      46.164  32.035  31.414  1.00  0.00    -0.206 F 
ATOM     89  C   UNL A   1      46.902  35.352  30.177  1.00  0.00     0.022 A 
BRANCH  86  90
ATOM     90  S   UNL A   1      46.287  36.748  27.841  1.00  0.00     0.124 S 
ATOM     91  O   UNL A   1      47.723  36.787  27.583  1.00  0.00    -0.237 OA
ATOM     92  O   UNL A   1      45.450  36.311  26.728  1.00  0.00    -0.237 OA
ATOM     93  O   UNL A   1      45.762  37.880  28.603  1.00  0.00    -0.744 OA
ENDBRANCH  86  90
ENDBRANCH  60  83
ENDBRANCH  34  35
ENDBRANCH  26  29
ENDBRANCH  24  25
ENDBRANCH  23  24
ENDBRANCH   1  23
TORSDOF 17
ENDMDL
MODEL 3
REMARK VINA RESULT:     -11.5      1.554      2.784
REMARK SMILES Cc1ccc(-c2ncccc2C(=O)NCCCCCCNC(=O)c2ccc(-c3c4nc(c(-c5cc(S(=O)(=O)[O-])ccc5F)c5ccc([nH]5)c(-c5cc(S(=O)(=O)[O-])ccc5F)c5nc(c(-c6cc(S(=O)(=O)[O-])ccc6F)c6ccc3[nH]6)C=C5)C=C4)cc2)c(Cl)c1
REMARK SMILES IDX 18 1 17 2 16 3 15 4 14 5 12 6 13 7 11 9 6 10 7 11 8 12 10 13
REMARK SMILES IDX 9 14 5 15 1 16 2 17 3 18 89 19 4 20 87 21 88 22 19 23 20 24
REMARK SMILES IDX 21 25 22 26 23 28 24 29 25 30 86 31 26 32 85 33 27 34 28 35
REMARK SMILES IDX 29 36 79 37 30 38 84 39 78 40 80 41 31 42 83 43 77 44 76 45
REMARK SMILES IDX 32 47 64 48 44 49 63 50 45 51 48 52 62 53 81 54 46 55 47 56
REMARK SMILES IDX 61 58 82 59 49 60 33 61 34 62 42 63 35 64 41 65 43 66 40 67
REMARK SMILES IDX 36 68 37 69 38 70 39 71 65 72 66 73 74 74 67 75 73 76 75 77
REMARK SMILES IDX 72 78 68 79 69 80 70 81 71 82 50 83 51 84 59 85 52 86 58 87
REMARK SMILES IDX 60 88 57 89 53 90 54 91 55 92 56 93
REMARK H PARENT 14 8 21 27 80 46 48 57
REMARK Flexibility Score: inf
ROOT
ATOM      1  C   UNL A   1      31.483  30.974  25.892  1.00  0.00     0.002 C 
ENDROOT
BRANCH   1   2
ATOM      2  C   UNL A   1      32.450  29.949  26.501  1.00  0.00     0.002 C 
BRANCH   2   3
ATOM      3  C   UNL A   1      31.795  28.893  27.409  1.00  0.00     0.021 C 
BRANCH   3   4
ATOM      4  C   UNL A   1      32.363  27.488  27.214  1.00  0.00     0.116 C 
BRANCH   4   5
ATOM      5  N   UNL A   1      31.295  26.528  27.033  1.00  0.00    -0.352 N 
ATOM      6  C   UNL A   1      30.558  26.021  25.998  1.00  0.00     0.253 C 
ATOM      7  O   UNL A   1      29.730  25.187  26.368  1.00  0.00    -0.269 OA
ATOM      8  H   UNL A   1      31.025  26.129  27.892  1.00  0.00     0.163 HD
BRANCH   6   9
ATOM      9  C   UNL A   1      30.703  26.359  24.541  1.00  0.00     0.066 A 
ATOM     10  C   UNL A   1      31.535  25.578  23.706  1.00  0.00     0.084 A 
ATOM     11  N   UNL A   1      31.793  25.897  22.398  1.00  0.00    -0.255 NA
ATOM     12  C   UNL A   1      31.236  27.009  21.891  1.00  0.00     0.112 A 
ATOM     13  C   UNL A   1      30.079  27.450  23.924  1.00  0.00     0.018 A 
ATOM     14  C   UNL A   1      30.365  27.799  22.602  1.00  0.00     0.021 A 
BRANCH  10  15
ATOM     15  C   UNL A   1      32.161  24.300  24.086  1.00  0.00     0.020 A 
ATOM     16  C   UNL A   1      33.819  20.492  25.324  1.00  0.00     0.044 C 
ATOM     17  C   UNL A   1      33.250  21.800  24.864  1.00  0.00    -0.050 A 
ATOM     18  C   UNL A   1      31.997  21.863  24.252  1.00  0.00     0.004 A 
ATOM     19  C   UNL A   1      33.973  22.984  25.052  1.00  0.00     0.024 A 
ATOM     20  C   UNL A   1      31.469  23.094  23.854  1.00  0.00     0.012 A 
ATOM     21  C   UNL A   1      33.434  24.221  24.674  1.00  0.00     0.050 A 
ATOM     22  Cl  UNL A   1      34.388  25.631  25.000  1.00  0.00    -0.084 Cl
ENDBRANCH  10  15
ENDBRANCH   6   9
ENDBRANCH   4   5
ENDBRANCH   3   4
ENDBRANCH   2   3
ENDBRANCH   1   2
BRANCH   1  23
ATOM     23  C   UNL A   1      31.399  32.306  26.640  1.00  0.00     0.021 C 
BRANCH  23  24
ATOM     24  C   UNL A   1      32.704  32.735  27.301  1.00  0.00     0.116 C 
BRANCH  24  25
ATOM     25  N   UNL A   1      32.656  34.124  27.723  1.00  0.00    -0.352 N 
ATOM     26  C   UNL A   1      33.335  34.743  28.743  1.00  0.00     0.251 C 
ATOM     27  H   UNL A   1      32.051  34.703  27.204  1.00  0.00     0.163 HD
ATOM     28  O   UNL A   1      32.984  35.856  29.120  1.00  0.00    -0.269 OA
BRANCH  26  29
ATOM     29  C   UNL A   1      34.472  34.055  29.389  1.00  0.00     0.039 A 
ATOM     30  C   UNL A   1      35.773  34.398  29.017  1.00  0.00     0.014 A 
ATOM     31  C   UNL A   1      34.254  33.066  30.354  1.00  0.00     0.014 A 
ATOM     32  C   UNL A   1      36.857  33.785  29.650  1.00  0.00     0.010 A 
ATOM     33  C   UNL A   1      35.333  32.512  31.036  1.00  0.00     0.010 A 
ATOM     34  C   UNL A   1      36.647  32.861  30.687  1.00  0.00    -0.014 A 
BRANCH  34  35
ATOM     35  C   UNL A   1      37.790  32.246  31.410  1.00  0.00     0.031 A 
ATOM     36  C   UNL A   1      38.601  31.160  30.759  1.00  0.00     0.074 A 
ATOM     37  C   UNL A   1      38.057  32.626  32.676  1.00  0.00     0.049 A 
ATOM     38  N   UNL A   1      39.589  30.456  31.248  1.00  0.00    -0.248 NA
ATOM     39  C   UNL A   1      38.227  30.794  29.384  1.00  0.00     0.031 C 
ATOM     40  C   UNL A   1      37.311  33.639  33.427  1.00  0.00     0.029 A 
ATOM     41  N   UNL A   1      39.019  32.203  33.558  1.00  0.00    -0.354 N 
ATOM     42  C   UNL A   1      39.948  29.558  30.249  1.00  0.00     0.074 A 
ATOM     43  C   UNL A   1      39.027  29.764  29.151  1.00  0.00     0.031 C 
ATOM     44  C   UNL A   1      37.858  33.774  34.646  1.00  0.00     0.029 A 
ATOM     45  C   UNL A   1      38.959  32.826  34.784  1.00  0.00     0.049 A 
ATOM     46  H   UNL A   1      39.691  31.518  33.334  1.00  0.00     0.167 HD
ATOM     47  C   UNL A   1      40.964  28.660  30.241  1.00  0.00     0.034 A 
ATOM     48  C   UNL A   1      39.696  32.644  35.897  1.00  0.00     0.034 A 
ATOM     49  C   UNL A   1      41.878  28.478  31.343  1.00  0.00     0.049 A 
ATOM     50  C   UNL A   1      40.809  31.626  35.873  1.00  0.00     0.074 A 
ATOM     51  C   UNL A   1      42.982  27.646  31.419  1.00  0.00     0.029 A 
ATOM     52  N   UNL A   1      41.789  29.128  32.568  1.00  0.00    -0.354 N 
ATOM     53  N   UNL A   1      41.176  30.827  34.897  1.00  0.00    -0.248 NA
ATOM     54  C   UNL A   1      41.615  31.498  37.093  1.00  0.00     0.031 C 
ATOM     55  C   UNL A   1      43.510  27.734  32.711  1.00  0.00     0.029 A 
ATOM     56  C   UNL A   1      42.793  28.687  33.418  1.00  0.00     0.049 A 
ATOM     57  H   UNL A   1      41.112  29.804  32.800  1.00  0.00     0.167 HD
ATOM     58  C   UNL A   1      42.274  30.120  35.378  1.00  0.00     0.074 A 
ATOM     59  C   UNL A   1      42.518  30.601  36.723  1.00  0.00     0.031 C 
ATOM     60  C   UNL A   1      43.016  29.163  34.763  1.00  0.00     0.034 A 
BRANCH  47  61
ATOM     61  C   UNL A   1      41.115  27.787  29.015  1.00  0.00     0.023 A 
ATOM     62  C   UNL A   1      42.148  27.990  28.083  1.00  0.00     0.031 A 
ATOM     63  C   UNL A   1      40.197  26.752  28.762  1.00  0.00     0.131 A 
ATOM     64  C   UNL A   1      42.190  27.227  26.906  1.00  0.00     0.055 A 
ATOM     65  C   UNL A   1      40.298  25.938  27.631  1.00  0.00     0.041 A 
ATOM     66  F   UNL A   1      39.176  26.522  29.603  1.00  0.00    -0.206 F 
ATOM     67  C   UNL A   1      41.288  26.184  26.686  1.00  0.00     0.022 A 
BRANCH  64  68
ATOM     68  S   UNL A   1      43.344  27.721  25.596  1.00  0.00     0.124 S 
ATOM     69  O   UNL A   1      42.448  27.852  24.449  1.00  0.00    -0.237 OA
ATOM     70  O   UNL A   1      43.901  28.964  26.117  1.00  0.00    -0.237 OA
ATOM     71  O   UNL A   1      44.278  26.600  25.521  1.00  0.00    -0.744 OA
ENDBRANCH  64  68
ENDBRANCH  47  61
BRANCH  48  72
ATOM     72  C   UNL A   1      39.400  33.426  37.132  1.00  0.00     0.023 A 
ATOM     73  C   UNL A   1      40.042  34.647  37.391  1.00  0.00     0.031 A 
ATOM     74  C   UNL A   1      38.489  32.945  38.090  1.00  0.00     0.131 A 
ATOM     75  C   UNL A   1      39.800  35.323  38.598  1.00  0.00     0.055 A 
ATOM     76  C   UNL A   1      38.210  33.648  39.263  1.00  0.00     0.041 A 
ATOM     77  F   UNL A   1      37.843  31.785  37.889  1.00  0.00    -0.206 F 
ATOM     78  C   UNL A   1      38.877  34.839  39.528  1.00  0.00     0.022 A 
BRANCH  75  79
ATOM     79  S   UNL A   1      40.775  36.805  38.975  1.00  0.00     0.124 S 
ATOM     80  O   UNL A   1      39.746  37.838  38.998  1.00  0.00    -0.237 OA
ATOM     81  O   UNL A   1      41.366  36.457  40.264  1.00  0.00    -0.237 OA
ATOM     82  O   UNL A   1      41.717  36.886  37.861  1.00  0.00    -0.744 OA
ENDBRANCH  75  79
ENDBRANCH  48  72
BRANCH  60  83
ATOM     83  C   UNL A   1      44.191  28.606  35.532  1.00  0.00     0.023 A 
ATOM     84  C   UNL A   1      44.053  27.519  36.413  1.00  0.00     0.031 A 
ATOM     85  C   UNL A   1      45.467  29.180  35.385  1.00  0.00     0.131 A 
ATOM     86  C   UNL A   1      45.159  27.079  37.157  1.00  0.00     0.055 A 
ATOM     87  C   UNL A   1      46.576  28.694  36.078  1.00  0.00     0.041 A 
ATOM     88  F   UNL A   1      45.657  30.223  34.562  1.00  0.00    -0.206 F 
ATOM     89  C   UNL A   1      46.423  27.646  36.980  1.00  0.00     0.022 A 
BRANCH  86  90
ATOM     90  S   UNL A   1      44.900  25.816  38.434  1.00  0.00     0.124 S 
ATOM     91  O   UNL A   1      46.191  25.806  39.116  1.00  0.00    -0.237 OA
ATOM     92  O   UNL A   1      43.781  26.364  39.194  1.00  0.00    -0.237 OA
ATOM     93  O   UNL A   1      44.596  24.610  37.666  1.00  0.00    -0.744 OA
ENDBRANCH  86  90
ENDBRANCH  60  83
ENDBRANCH  34  35
ENDBRANCH  26  29
ENDBRANCH  24  25
ENDBRANCH  23  24
ENDBRANCH   1  23
TORSDOF 17
ENDMDL
