MODEL 1
REMARK VINA RESULT:     -11.6      0.000      0.000
REMARK SMILES O=C(CCC(=O)Nc1ccc2nc(-c3ccccc3)oc2c1)NCCCCCCNC(=O)c1ccc(-c2c3nc(c(-c4cc(S(=O)(=O)[O-])ccc4F)c4ccc([nH]4)c(-c4cc(S(=O)(=O)[O-])ccc4F)c4nc(c(-c5cc(S(=O)(=O)[O-])ccc5F)c5ccc2[nH]5)C=C4)C=C3)cc1
REMARK SMILES IDX 26 1 25 2 24 3 23 4 1 5 2 6 3 8 4 9 5 10 6 11 7 12 8 14 9 15
REMARK SMILES IDX 22 16 10 17 21 18 11 19 20 20 12 21 13 22 14 23 15 24 19 25
REMARK SMILES IDX 16 26 18 27 17 28 27 29 28 30 29 31 30 32 31 33 32 35 33 36
REMARK SMILES IDX 34 37 95 38 35 39 94 40 36 41 37 42 38 43 88 44 39 45 93 46
REMARK SMILES IDX 87 47 89 48 40 49 92 50 86 51 85 52 41 54 73 55 53 56 72 57
REMARK SMILES IDX 54 58 57 59 71 60 90 61 55 62 56 63 70 65 91 66 58 67 42 68
REMARK SMILES IDX 43 69 51 70 44 71 50 72 52 73 49 74 45 75 46 76 47 77 48 78
REMARK SMILES IDX 74 79 75 80 83 81 76 82 82 83 84 84 81 85 77 86 78 87 79 88
REMARK SMILES IDX 80 89 59 90 60 91 68 92 61 93 67 94 69 95 66 96 62 97 63 98
REMARK SMILES IDX 64 99 65 100
REMARK H PARENT 23 7 7 13 30 34 89 53 57 64
REMARK Flexibility Score: inf
ROOT
ATOM      1  C   UNL A   1      35.074  20.539  24.991  1.00  0.00     0.002 C 
ENDROOT
BRANCH   1   2
ATOM      2  C   UNL A   1      34.137  19.357  24.714  1.00  0.00     0.021 C 
BRANCH   2   3
ATOM      3  C   UNL A   1      32.688  19.736  24.437  1.00  0.00     0.116 C 
BRANCH   3   4
ATOM      4  N   UNL A   1      32.156  20.700  25.384  1.00  0.00    -0.356 N 
ATOM      5  O   UNL A   1      31.883  22.435  23.897  1.00  0.00    -0.275 OA
ATOM      6  C   UNL A   1      31.700  21.940  25.005  1.00  0.00     0.220 C 
ATOM      7  H   UNL A   1      32.120  20.455  26.337  1.00  0.00     0.163 HD
BRANCH   6   8
ATOM      8  C   UNL A   1      30.872  22.647  26.059  1.00  0.00     0.110 C 
BRANCH   8   9
ATOM      9  C   UNL A   1      31.680  23.394  27.121  1.00  0.00     0.110 C 
BRANCH   9  10
ATOM     10  C   UNL A   1      33.119  23.660  26.742  1.00  0.00     0.224 C 
ATOM     11  O   UNL A   1      33.974  22.815  27.034  1.00  0.00    -0.275 OA
ATOM     12  N   UNL A   1      33.557  24.790  26.116  1.00  0.00    -0.326 N 
ATOM     13  H   UNL A   1      34.452  24.684  25.720  1.00  0.00     0.169 HD
BRANCH  12  14
ATOM     14  C   UNL A   1      33.016  26.078  25.911  1.00  0.00     0.045 A 
ATOM     15  C   UNL A   1      33.592  27.257  26.397  1.00  0.00     0.028 A 
ATOM     16  C   UNL A   1      31.904  26.159  25.044  1.00  0.00     0.075 A 
ATOM     17  C   UNL A   1      33.230  28.521  25.920  1.00  0.00     0.034 A 
ATOM     18  C   UNL A   1      31.528  27.438  24.634  1.00  0.00     0.157 A 
ATOM     19  C   UNL A   1      32.193  28.594  25.003  1.00  0.00     0.110 A 
ATOM     20  O   UNL A   1      30.477  27.812  23.835  1.00  0.00    -0.436 OA
ATOM     21  N   UNL A   1      31.657  29.676  24.385  1.00  0.00    -0.209 NA
ATOM     22  C   UNL A   1      30.609  29.178  23.760  1.00  0.00     0.227 A 
BRANCH  22  23
ATOM     23  C   UNL A   1      29.510  29.955  23.223  1.00  0.00     0.037 A 
ATOM     24  C   UNL A   1      29.020  29.674  21.940  1.00  0.00     0.014 A 
ATOM     25  C   UNL A   1      29.121  31.135  23.867  1.00  0.00     0.014 A 
ATOM     26  C   UNL A   1      28.178  30.581  21.298  1.00  0.00     0.001 A 
ATOM     27  C   UNL A   1      28.294  32.049  23.215  1.00  0.00     0.001 A 
ATOM     28  C   UNL A   1      27.833  31.777  21.927  1.00  0.00     0.000 A 
ENDBRANCH  22  23
ENDBRANCH  12  14
ENDBRANCH   9  10
ENDBRANCH   8   9
ENDBRANCH   6   8
ENDBRANCH   3   4
ENDBRANCH   2   3
ENDBRANCH   1   2
BRANCH   1  29
ATOM     29  C   UNL A   1      36.574  20.233  24.929  1.00  0.00     0.002 C 
BRANCH  29  30
ATOM     30  C   UNL A   1      37.488  21.430  24.658  1.00  0.00     0.021 C 
BRANCH  30  31
ATOM     31  C   UNL A   1      38.347  21.883  25.836  1.00  0.00     0.116 C 
BRANCH  31  32
ATOM     32  N   UNL A   1      39.592  21.140  25.952  1.00  0.00    -0.352 N 
ATOM     33  C   UNL A   1      40.838  21.584  26.324  1.00  0.00     0.251 C 
ATOM     34  H   UNL A   1      39.534  20.183  25.733  1.00  0.00     0.163 HD
ATOM     35  O   UNL A   1      41.801  20.822  26.242  1.00  0.00    -0.269 OA
BRANCH  33  36
ATOM     36  C   UNL A   1      41.026  22.978  26.782  1.00  0.00     0.039 A 
ATOM     37  C   UNL A   1      41.260  23.216  28.139  1.00  0.00     0.014 A 
ATOM     38  C   UNL A   1      40.971  24.048  25.885  1.00  0.00     0.014 A 
ATOM     39  C   UNL A   1      41.501  24.517  28.585  1.00  0.00     0.010 A 
ATOM     40  C   UNL A   1      41.288  25.334  26.318  1.00  0.00     0.010 A 
ATOM     41  C   UNL A   1      41.553  25.585  27.673  1.00  0.00    -0.014 A 
BRANCH  41  42
ATOM     42  C   UNL A   1      41.856  26.971  28.122  1.00  0.00     0.031 A 
ATOM     43  C   UNL A   1      43.285  27.443  28.188  1.00  0.00     0.074 A 
ATOM     44  C   UNL A   1      40.855  27.788  28.513  1.00  0.00     0.049 A 
ATOM     45  N   UNL A   1      43.763  28.575  28.637  1.00  0.00    -0.248 NA
ATOM     46  C   UNL A   1      44.313  26.506  27.710  1.00  0.00     0.031 C 
ATOM     47  C   UNL A   1      39.433  27.437  28.521  1.00  0.00     0.029 A 
ATOM     48  N   UNL A   1      40.878  29.077  28.987  1.00  0.00    -0.354 N 
ATOM     49  C   UNL A   1      45.145  28.487  28.494  1.00  0.00     0.074 A 
ATOM     50  C   UNL A   1      45.429  27.162  27.987  1.00  0.00     0.031 C 
ATOM     51  C   UNL A   1      38.722  28.490  28.955  1.00  0.00     0.029 A 
ATOM     52  C   UNL A   1      39.635  29.573  29.310  1.00  0.00     0.049 A 
ATOM     53  H   UNL A   1      41.707  29.598  29.087  1.00  0.00     0.167 HD
ATOM     54  C   UNL A   1      46.085  29.432  28.736  1.00  0.00     0.034 A 
ATOM     55  C   UNL A   1      39.273  30.756  29.847  1.00  0.00     0.034 A 
ATOM     56  C   UNL A   1      45.788  30.752  29.235  1.00  0.00     0.049 A 
ATOM     57  C   UNL A   1      40.347  31.774  30.153  1.00  0.00     0.074 A 
ATOM     58  C   UNL A   1      46.665  31.791  29.498  1.00  0.00     0.029 A 
ATOM     59  N   UNL A   1      44.518  31.218  29.547  1.00  0.00    -0.354 N 
ATOM     60  N   UNL A   1      41.647  31.681  29.985  1.00  0.00    -0.248 NA
ATOM     61  C   UNL A   1      39.907  33.061  30.707  1.00  0.00     0.031 C 
ATOM     62  C   UNL A   1      45.934  32.858  30.029  1.00  0.00     0.029 A 
ATOM     63  C   UNL A   1      44.591  32.520  30.016  1.00  0.00     0.049 A 
ATOM     64  H   UNL A   1      43.686  30.700  29.448  1.00  0.00     0.167 HD
ATOM     65  C   UNL A   1      42.168  32.915  30.368  1.00  0.00     0.074 A 
ATOM     66  C   UNL A   1      41.044  33.736  30.761  1.00  0.00     0.031 C 
ATOM     67  C   UNL A   1      43.459  33.333  30.393  1.00  0.00     0.034 A 
BRANCH  54  68
ATOM     68  C   UNL A   1      47.526  29.068  28.472  1.00  0.00     0.023 A 
ATOM     69  C   UNL A   1      48.006  28.874  27.164  1.00  0.00     0.031 A 
ATOM     70  C   UNL A   1      48.435  28.918  29.534  1.00  0.00     0.131 A 
ATOM     71  C   UNL A   1      49.337  28.484  26.957  1.00  0.00     0.055 A 
ATOM     72  C   UNL A   1      49.779  28.608  29.315  1.00  0.00     0.041 A 
ATOM     73  F   UNL A   1      48.031  29.069  30.806  1.00  0.00    -0.206 F 
ATOM     74  C   UNL A   1      50.234  28.377  28.021  1.00  0.00     0.022 A 
BRANCH  71  75
ATOM     75  S   UNL A   1      49.846  27.998  25.285  1.00  0.00     0.124 S 
ATOM     76  O   UNL A   1      48.591  28.123  24.548  1.00  0.00    -0.237 OA
ATOM     77  O   UNL A   1      50.874  28.983  24.969  1.00  0.00    -0.237 OA
ATOM     78  O   UNL A   1      50.325  26.629  25.457  1.00  0.00    -0.744 OA
ENDBRANCH  71  75
ENDBRANCH  54  68
BRANCH  55  79
ATOM     79  C   UNL A   1      37.842  31.051  30.162  1.00  0.00     0.023 A 
ATOM     80  C   UNL A   1      36.968  31.539  29.178  1.00  0.00     0.031 A 
ATOM     81  C   UNL A   1      37.350  30.935  31.475  1.00  0.00     0.131 A 
ATOM     82  C   UNL A   1      35.680  31.969  29.533  1.00  0.00     0.055 A 
ATOM     83  C   UNL A   1      36.042  31.293  31.809  1.00  0.00     0.041 A 
ATOM     84  F   UNL A   1      38.138  30.475  32.459  1.00  0.00    -0.206 F 
ATOM     85  C   UNL A   1      35.205  31.835  30.839  1.00  0.00     0.022 A 
BRANCH  82  86
ATOM     86  S   UNL A   1      34.684  32.840  28.291  1.00  0.00     0.124 S 
ATOM     87  O   UNL A   1      35.715  33.484  27.487  1.00  0.00    -0.237 OA
ATOM     88  O   UNL A   1      33.965  31.742  27.655  1.00  0.00    -0.237 OA
ATOM     89  O   UNL A   1      33.860  33.744  29.091  1.00  0.00    -0.744 OA
ENDBRANCH  82  86
ENDBRANCH  55  79
BRANCH  67  90
ATOM     90  C   UNL A   1      43.714  34.768  30.789  1.00  0.00     0.023 A 
ATOM     91  C   UNL A   1      43.663  35.820  29.858  1.00  0.00     0.031 A 
ATOM     92  C   UNL A   1      44.020  35.083  32.126  1.00  0.00     0.131 A 
ATOM     93  C   UNL A   1      43.975  37.127  30.263  1.00  0.00     0.055 A 
ATOM     94  C   UNL A   1      44.262  36.394  32.536  1.00  0.00     0.041 A 
ATOM     95  F   UNL A   1      44.085  34.119  33.057  1.00  0.00    -0.206 F 
ATOM     96  C   UNL A   1      44.255  37.423  31.600  1.00  0.00     0.022 A 
BRANCH  93  97
ATOM     97  S   UNL A   1      44.113  38.421  28.999  1.00  0.00     0.124 S 
ATOM     98  O   UNL A   1      43.346  39.510  29.596  1.00  0.00    -0.237 OA
ATOM     99  O   UNL A   1      45.556  38.627  28.920  1.00  0.00    -0.237 OA
ATOM    100  O   UNL A   1      43.509  37.811  27.817  1.00  0.00    -0.744 OA
ENDBRANCH  93  97
ENDBRANCH  67  90
ENDBRANCH  41  42
ENDBRANCH  33  36
ENDBRANCH  31  32
ENDBRANCH  30  31
ENDBRANCH  29  30
ENDBRANCH   1  29
TORSDOF 20
ENDMDL
MODEL 2
REMARK VINA RESULT:     -11.3      1.966      7.650
REMARK SMILES O=C(CCC(=O)Nc1ccc2nc(-c3ccccc3)oc2c1)NCCCCCCNC(=O)c1ccc(-c2c3nc(c(-c4cc(S(=O)(=O)[O-])ccc4F)c4ccc([nH]4)c(-c4cc(S(=O)(=O)[O-])ccc4F)c4nc(c(-c5cc(S(=O)(=O)[O-])ccc5F)c5ccc2[nH]5)C=C4)C=C3)cc1
REMARK SMILES IDX 26 1 25 2 24 3 23 4 1 5 2 6 3 8 4 9 5 10 6 11 7 12 8 14 9 15
REMARK SMILES IDX 22 16 10 17 21 18 11 19 20 20 12 21 13 22 14 23 15 24 19 25
REMARK SMILES IDX 16 26 18 27 17 28 27 29 28 30 29 31 30 32 31 33 32 35 33 36
REMARK SMILES IDX 34 37 95 38 35 39 94 40 36 41 37 42 38 43 88 44 39 45 93 46
REMARK SMILES IDX 87 47 89 48 40 49 92 50 86 51 85 52 41 54 73 55 53 56 72 57
REMARK SMILES IDX 54 58 57 59 71 60 90 61 55 62 56 63 70 65 91 66 58 67 42 68
REMARK SMILES IDX 43 69 51 70 44 71 50 72 52 73 49 74 45 75 46 76 47 77 48 78
REMARK SMILES IDX 74 79 75 80 83 81 76 82 82 83 84 84 81 85 77 86 78 87 79 88
REMARK SMILES IDX 80 89 59 90 60 91 68 92 61 93 67 94 69 95 66 96 62 97 63 98
REMARK SMILES IDX 64 99 65 100
REMARK H PARENT 23 7 7 13 30 34 89 53 57 64
REMARK Flexibility Score: inf
ROOT
ATOM      1  C   UNL A   1      35.322  19.504  24.965  1.00  0.00     0.002 C 
ENDROOT
BRANCH   1   2
ATOM      2  C   UNL A   1      34.336  18.400  24.565  1.00  0.00     0.021 C 
BRANCH   2   3
ATOM      3  C   UNL A   1      32.879  18.837  24.484  1.00  0.00     0.116 C 
BRANCH   3   4
ATOM      4  N   UNL A   1      32.615  20.085  25.179  1.00  0.00    -0.356 N 
ATOM      5  O   UNL A   1      32.389  21.407  23.310  1.00  0.00    -0.275 OA
ATOM      6  C   UNL A   1      32.288  21.246  24.522  1.00  0.00     0.220 C 
ATOM      7  H   UNL A   1      32.673  20.099  26.162  1.00  0.00     0.163 HD
BRANCH   6   8
ATOM      8  C   UNL A   1      31.713  22.326  25.417  1.00  0.00     0.110 C 
BRANCH   8   9
ATOM      9  C   UNL A   1      32.708  22.951  26.397  1.00  0.00     0.110 C 
BRANCH   9  10
ATOM     10  C   UNL A   1      33.905  23.602  25.743  1.00  0.00     0.224 C 
ATOM     11  O   UNL A   1      34.971  22.974  25.703  1.00  0.00    -0.275 OA
ATOM     12  N   UNL A   1      33.909  24.858  25.211  1.00  0.00    -0.326 N 
ATOM     13  H   UNL A   1      34.672  25.015  24.610  1.00  0.00     0.169 HD
BRANCH  12  14
ATOM     14  C   UNL A   1      33.064  25.982  25.329  1.00  0.00     0.045 A 
ATOM     15  C   UNL A   1      33.044  26.835  26.439  1.00  0.00     0.028 A 
ATOM     16  C   UNL A   1      32.305  26.319  24.186  1.00  0.00     0.075 A 
ATOM     17  C   UNL A   1      32.449  28.100  26.403  1.00  0.00     0.034 A 
ATOM     18  C   UNL A   1      31.672  27.562  24.205  1.00  0.00     0.157 A 
ATOM     19  C   UNL A   1      31.775  28.465  25.247  1.00  0.00     0.110 A 
ATOM     20  O   UNL A   1      30.852  28.124  23.260  1.00  0.00    -0.436 OA
ATOM     21  N   UNL A   1      31.127  29.619  24.950  1.00  0.00    -0.209 NA
ATOM     22  C   UNL A   1      30.543  29.350  23.800  1.00  0.00     0.227 A 
BRANCH  22  23
ATOM     23  C   UNL A   1      29.467  30.120  23.208  1.00  0.00     0.037 A 
ATOM     24  C   UNL A   1      28.980  29.775  21.940  1.00  0.00     0.014 A 
ATOM     25  C   UNL A   1      29.104  31.345  23.778  1.00  0.00     0.014 A 
ATOM     26  C   UNL A   1      28.166  30.662  21.238  1.00  0.00     0.001 A 
ATOM     27  C   UNL A   1      28.304  32.239  23.065  1.00  0.00     0.001 A 
ATOM     28  C   UNL A   1      27.846  31.901  21.792  1.00  0.00     0.000 A 
ENDBRANCH  22  23
ENDBRANCH  12  14
ENDBRANCH   9  10
ENDBRANCH   8   9
ENDBRANCH   6   8
ENDBRANCH   3   4
ENDBRANCH   2   3
ENDBRANCH   1   2
BRANCH   1  29
ATOM     29  C   UNL A   1      36.805  19.115  24.948  1.00  0.00     0.002 C 
BRANCH  29  30
ATOM     30  C   UNL A   1      37.788  20.250  24.655  1.00  0.00     0.021 C 
BRANCH  30  31
ATOM     31  C   UNL A   1      38.836  20.510  25.733  1.00  0.00     0.116 C 
BRANCH  31  32
ATOM     32  N   UNL A   1      39.830  19.453  25.828  1.00  0.00    -0.352 N 
ATOM     33  C   UNL A   1      41.174  19.544  26.098  1.00  0.00     0.251 C 
ATOM     34  H   UNL A   1      39.492  18.541  25.676  1.00  0.00     0.163 HD
ATOM     35  O   UNL A   1      41.878  18.539  26.013  1.00  0.00    -0.269 OA
BRANCH  33  36
ATOM     36  C   UNL A   1      41.775  20.848  26.452  1.00  0.00     0.039 A 
ATOM     37  C   UNL A   1      41.948  21.805  25.448  1.00  0.00     0.014 A 
ATOM     38  C   UNL A   1      42.170  21.133  27.762  1.00  0.00     0.014 A 
ATOM     39  C   UNL A   1      42.457  23.066  25.770  1.00  0.00     0.010 A 
ATOM     40  C   UNL A   1      42.604  22.415  28.094  1.00  0.00     0.010 A 
ATOM     41  C   UNL A   1      42.757  23.395  27.102  1.00  0.00    -0.014 A 
BRANCH  41  42
ATOM     42  C   UNL A   1      43.254  24.748  27.471  1.00  0.00     0.031 A 
ATOM     43  C   UNL A   1      42.306  25.763  28.055  1.00  0.00     0.074 A 
ATOM     44  C   UNL A   1      44.542  25.080  27.241  1.00  0.00     0.049 A 
ATOM     45  N   UNL A   1      42.519  27.018  28.355  1.00  0.00    -0.248 NA
ATOM     46  C   UNL A   1      40.929  25.311  28.309  1.00  0.00     0.031 C 
ATOM     47  C   UNL A   1      45.550  24.194  26.656  1.00  0.00     0.029 A 
ATOM     48  N   UNL A   1      45.223  26.251  27.462  1.00  0.00    -0.354 N 
ATOM     49  C   UNL A   1      41.306  27.505  28.833  1.00  0.00     0.074 A 
ATOM     50  C   UNL A   1      40.346  26.429  28.712  1.00  0.00     0.031 C 
ATOM     51  C   UNL A   1      46.722  24.845  26.584  1.00  0.00     0.029 A 
ATOM     52  C   UNL A   1      46.541  26.212  27.066  1.00  0.00     0.049 A 
ATOM     53  H   UNL A   1      44.807  27.047  27.866  1.00  0.00     0.167 HD
ATOM     54  C   UNL A   1      41.026  28.726  29.352  1.00  0.00     0.034 A 
ATOM     55  C   UNL A   1      47.490  27.170  27.073  1.00  0.00     0.034 A 
ATOM     56  C   UNL A   1      41.994  29.788  29.473  1.00  0.00     0.049 A 
ATOM     57  C   UNL A   1      47.138  28.538  27.611  1.00  0.00     0.074 A 
ATOM     58  C   UNL A   1      41.819  31.056  30.000  1.00  0.00     0.029 A 
ATOM     59  N   UNL A   1      43.319  29.709  29.064  1.00  0.00    -0.354 N 
ATOM     60  N   UNL A   1      45.991  28.971  28.085  1.00  0.00    -0.248 NA
ATOM     61  C   UNL A   1      48.209  29.542  27.630  1.00  0.00     0.031 C 
ATOM     62  C   UNL A   1      43.016  31.763  29.850  1.00  0.00     0.029 A 
ATOM     63  C   UNL A   1      43.965  30.910  29.310  1.00  0.00     0.049 A 
ATOM     64  H   UNL A   1      43.738  28.915  28.661  1.00  0.00     0.167 HD
ATOM     65  C   UNL A   1      46.222  30.280  28.500  1.00  0.00     0.074 A 
ATOM     66  C   UNL A   1      47.616  30.560  28.234  1.00  0.00     0.031 C 
ATOM     67  C   UNL A   1      45.360  31.172  29.052  1.00  0.00     0.034 A 
BRANCH  54  68
ATOM     68  C   UNL A   1      39.613  28.980  29.818  1.00  0.00     0.023 A 
ATOM     69  C   UNL A   1      38.680  29.647  29.005  1.00  0.00     0.031 A 
ATOM     70  C   UNL A   1      39.188  28.546  31.087  1.00  0.00     0.131 A 
ATOM     71  C   UNL A   1      37.392  29.913  29.490  1.00  0.00     0.055 A 
ATOM     72  C   UNL A   1      37.879  28.744  31.532  1.00  0.00     0.041 A 
ATOM     73  F   UNL A   1      40.040  27.924  31.918  1.00  0.00    -0.206 F 
ATOM     74  C   UNL A   1      36.976  29.441  30.737  1.00  0.00     0.022 A 
BRANCH  71  75
ATOM     75  S   UNL A   1      36.307  30.992  28.516  1.00  0.00     0.124 S 
ATOM     76  O   UNL A   1      36.322  30.327  27.215  1.00  0.00    -0.237 OA
ATOM     77  O   UNL A   1      35.050  30.925  29.253  1.00  0.00    -0.237 OA
ATOM     78  O   UNL A   1      36.985  32.286  28.555  1.00  0.00    -0.744 OA
ENDBRANCH  71  75
ENDBRANCH  54  68
BRANCH  55  79
ATOM     79  C   UNL A   1      48.858  26.901  26.534  1.00  0.00     0.023 A 
ATOM     80  C   UNL A   1      49.239  27.357  25.262  1.00  0.00     0.031 A 
ATOM     81  C   UNL A   1      49.774  26.106  27.245  1.00  0.00     0.131 A 
ATOM     82  C   UNL A   1      50.462  26.950  24.708  1.00  0.00     0.055 A 
ATOM     83  C   UNL A   1      51.023  25.766  26.720  1.00  0.00     0.041 A 
ATOM     84  F   UNL A   1      49.467  25.641  28.467  1.00  0.00    -0.206 F 
ATOM     85  C   UNL A   1      51.364  26.170  25.434  1.00  0.00     0.022 A 
BRANCH  82  86
ATOM     86  S   UNL A   1      50.795  27.334  22.966  1.00  0.00     0.124 S 
ATOM     87  O   UNL A   1      49.667  26.693  22.302  1.00  0.00    -0.237 OA
ATOM     88  O   UNL A   1      50.791  28.793  22.972  1.00  0.00    -0.237 OA
ATOM     89  O   UNL A   1      52.097  26.715  22.724  1.00  0.00    -0.744 OA
ENDBRANCH  82  86
ENDBRANCH  55  79
BRANCH  67  90
ATOM     90  C   UNL A   1      45.925  32.508  29.474  1.00  0.00     0.023 A 
ATOM     91  C   UNL A   1      45.910  33.627  28.624  1.00  0.00     0.031 A 
ATOM     92  C   UNL A   1      46.493  32.655  30.753  1.00  0.00     0.131 A 
ATOM     93  C   UNL A   1      46.509  34.826  29.039  1.00  0.00     0.055 A 
ATOM     94  C   UNL A   1      47.026  33.871  31.185  1.00  0.00     0.041 A 
ATOM     95  F   UNL A   1      46.537  31.620  31.606  1.00  0.00    -0.206 F 
ATOM     96  C   UNL A   1      47.049  34.961  30.321  1.00  0.00     0.022 A 
BRANCH  93  97
ATOM     97  S   UNL A   1      46.667  36.180  27.842  1.00  0.00     0.124 S 
ATOM     98  O   UNL A   1      45.285  36.629  27.708  1.00  0.00    -0.237 OA
ATOM     99  O   UNL A   1      47.571  37.099  28.528  1.00  0.00    -0.237 OA
ATOM    100  O   UNL A   1      47.226  35.529  26.659  1.00  0.00    -0.744 OA
ENDBRANCH  93  97
ENDBRANCH  67  90
ENDBRANCH  41  42
ENDBRANCH  33  36
ENDBRANCH  31  32
ENDBRANCH  30  31
ENDBRANCH  29  30
ENDBRANCH   1  29
TORSDOF 20
ENDMDL
MODEL 3
REMARK VINA RESULT:     -11.3      2.804      8.334
REMARK SMILES O=C(CCC(=O)Nc1ccc2nc(-c3ccccc3)oc2c1)NCCCCCCNC(=O)c1ccc(-c2c3nc(c(-c4cc(S(=O)(=O)[O-])ccc4F)c4ccc([nH]4)c(-c4cc(S(=O)(=O)[O-])ccc4F)c4nc(c(-c5cc(S(=O)(=O)[O-])ccc5F)c5ccc2[nH]5)C=C4)C=C3)cc1
REMARK SMILES IDX 26 1 25 2 24 3 23 4 1 5 2 6 3 8 4 9 5 10 6 11 7 12 8 14 9 15
REMARK SMILES IDX 22 16 10 17 21 18 11 19 20 20 12 21 13 22 14 23 15 24 19 25
REMARK SMILES IDX 16 26 18 27 17 28 27 29 28 30 29 31 30 32 31 33 32 35 33 36
REMARK SMILES IDX 34 37 95 38 35 39 94 40 36 41 37 42 38 43 88 44 39 45 93 46
REMARK SMILES IDX 87 47 89 48 40 49 92 50 86 51 85 52 41 54 73 55 53 56 72 57
REMARK SMILES IDX 54 58 57 59 71 60 90 61 55 62 56 63 70 65 91 66 58 67 42 68
REMARK SMILES IDX 43 69 51 70 44 71 50 72 52 73 49 74 45 75 46 76 47 77 48 78
REMARK SMILES IDX 74 79 75 80 83 81 76 82 82 83 84 84 81 85 77 86 78 87 79 88
REMARK SMILES IDX 80 89 59 90 60 91 68 92 61 93 67 94 69 95 66 96 62 97 63 98
REMARK SMILES IDX 64 99 65 100
REMARK H PARENT 23 7 7 13 30 34 89 53 57 64
REMARK Flexibility Score: inf
ROOT
ATOM      1  C   UNL A   1      35.749  21.736  25.190  1.00  0.00     0.002 C 
ENDROOT
BRANCH   1   2
ATOM      2  C   UNL A   1      34.274  21.437  25.484  1.00  0.00     0.021 C 
BRANCH   2   3
ATOM      3  C   UNL A   1      33.281  22.126  24.557  1.00  0.00     0.116 C 
BRANCH   3   4
ATOM      4  N   UNL A   1      33.754  23.407  24.060  1.00  0.00    -0.356 N 
ATOM      5  O   UNL A   1      32.268  24.726  25.219  1.00  0.00    -0.275 OA
ATOM      6  C   UNL A   1      33.269  24.607  24.520  1.00  0.00     0.220 C 
ATOM      7  H   UNL A   1      34.451  23.415  23.365  1.00  0.00     0.163 HD
BRANCH   6   8
ATOM      8  C   UNL A   1      34.119  25.805  24.149  1.00  0.00     0.110 C 
BRANCH   8   9
ATOM      9  C   UNL A   1      33.409  26.865  23.304  1.00  0.00     0.110 C 
BRANCH   9  10
ATOM     10  C   UNL A   1      32.014  27.209  23.773  1.00  0.00     0.224 C 
ATOM     11  O   UNL A   1      31.059  26.951  23.030  1.00  0.00    -0.275 OA
ATOM     12  N   UNL A   1      31.726  27.816  24.960  1.00  0.00    -0.326 N 
ATOM     13  H   UNL A   1      30.778  27.727  25.214  1.00  0.00     0.169 HD
BRANCH  12  14
ATOM     14  C   UNL A   1      32.480  28.544  25.906  1.00  0.00     0.045 A 
ATOM     15  C   UNL A   1      33.677  28.090  26.470  1.00  0.00     0.028 A 
ATOM     16  C   UNL A   1      32.044  29.861  26.175  1.00  0.00     0.075 A 
ATOM     17  C   UNL A   1      34.559  28.941  27.144  1.00  0.00     0.034 A 
ATOM     18  C   UNL A   1      32.920  30.667  26.903  1.00  0.00     0.157 A 
ATOM     19  C   UNL A   1      34.169  30.258  27.334  1.00  0.00     0.110 A 
ATOM     20  O   UNL A   1      32.743  31.958  27.333  1.00  0.00    -0.436 OA
ATOM     21  N   UNL A   1      34.827  31.279  27.938  1.00  0.00    -0.209 NA
ATOM     22  C   UNL A   1      33.927  32.240  27.974  1.00  0.00     0.227 A 
BRANCH  22  23
ATOM     23  C   UNL A   1      34.003  33.426  28.803  1.00  0.00     0.037 A 
ATOM     24  C   UNL A   1      34.584  33.349  30.076  1.00  0.00     0.014 A 
ATOM     25  C   UNL A   1      33.271  34.564  28.446  1.00  0.00     0.014 A 
ATOM     26  C   UNL A   1      34.406  34.386  30.992  1.00  0.00     0.001 A 
ATOM     27  C   UNL A   1      33.079  35.591  29.370  1.00  0.00     0.001 A 
ATOM     28  C   UNL A   1      33.636  35.496  30.645  1.00  0.00     0.000 A 
ENDBRANCH  22  23
ENDBRANCH  12  14
ENDBRANCH   9  10
ENDBRANCH   8   9
ENDBRANCH   6   8
ENDBRANCH   3   4
ENDBRANCH   2   3
ENDBRANCH   1   2
BRANCH   1  29
ATOM     29  C   UNL A   1      36.659  20.513  25.023  1.00  0.00     0.002 C 
BRANCH  29  30
ATOM     30  C   UNL A   1      38.150  20.811  24.854  1.00  0.00     0.021 C 
BRANCH  30  31
ATOM     31  C   UNL A   1      38.989  20.723  26.126  1.00  0.00     0.116 C 
BRANCH  31  32
ATOM     32  N   UNL A   1      39.999  19.679  26.072  1.00  0.00    -0.352 N 
ATOM     33  C   UNL A   1      41.366  19.786  26.154  1.00  0.00     0.251 C 
ATOM     34  H   UNL A   1      39.654  18.764  25.961  1.00  0.00     0.163 HD
ATOM     35  O   UNL A   1      42.064  18.792  25.962  1.00  0.00    -0.269 OA
BRANCH  33  36
ATOM     36  C   UNL A   1      41.995  21.097  26.431  1.00  0.00     0.039 A 
ATOM     37  C   UNL A   1      42.244  21.964  25.364  1.00  0.00     0.014 A 
ATOM     38  C   UNL A   1      42.340  21.473  27.732  1.00  0.00     0.014 A 
ATOM     39  C   UNL A   1      42.779  23.231  25.610  1.00  0.00     0.010 A 
ATOM     40  C   UNL A   1      42.801  22.764  27.983  1.00  0.00     0.010 A 
ATOM     41  C   UNL A   1      43.030  23.656  26.925  1.00  0.00    -0.014 A 
BRANCH  41  42
ATOM     42  C   UNL A   1      43.556  25.020  27.210  1.00  0.00     0.031 A 
ATOM     43  C   UNL A   1      42.648  26.065  27.803  1.00  0.00     0.074 A 
ATOM     44  C   UNL A   1      44.830  25.331  26.895  1.00  0.00     0.049 A 
ATOM     45  N   UNL A   1      42.885  27.330  28.039  1.00  0.00    -0.248 NA
ATOM     46  C   UNL A   1      41.284  25.636  28.152  1.00  0.00     0.031 C 
ATOM     47  C   UNL A   1      45.799  24.413  26.291  1.00  0.00     0.029 A 
ATOM     48  N   UNL A   1      45.530  26.505  27.028  1.00  0.00    -0.354 N 
ATOM     49  C   UNL A   1      41.703  27.846  28.563  1.00  0.00     0.074 A 
ATOM     50  C   UNL A   1      40.732  26.774  28.541  1.00  0.00     0.031 C 
ATOM     51  C   UNL A   1      46.969  25.052  26.127  1.00  0.00     0.029 A 
ATOM     52  C   UNL A   1      46.824  26.438  26.562  1.00  0.00     0.049 A 
ATOM     53  H   UNL A   1      45.142  27.320  27.422  1.00  0.00     0.167 HD
ATOM     54  C   UNL A   1      41.461  29.089  29.046  1.00  0.00     0.034 A 
ATOM     55  C   UNL A   1      47.777  27.388  26.476  1.00  0.00     0.034 A 
ATOM     56  C   UNL A   1      42.441  30.147  29.069  1.00  0.00     0.049 A 
ATOM     57  C   UNL A   1      47.464  28.780  26.976  1.00  0.00     0.074 A 
ATOM     58  C   UNL A   1      42.303  31.438  29.552  1.00  0.00     0.029 A 
ATOM     59  N   UNL A   1      43.739  30.041  28.591  1.00  0.00    -0.354 N 
ATOM     60  N   UNL A   1      46.348  29.241  27.495  1.00  0.00    -0.248 NA
ATOM     61  C   UNL A   1      48.541  29.775  26.894  1.00  0.00     0.031 C 
ATOM     62  C   UNL A   1      43.494  32.128  29.307  1.00  0.00     0.029 A 
ATOM     63  C   UNL A   1      44.405  31.246  28.751  1.00  0.00     0.049 A 
ATOM     64  H   UNL A   1      44.131  29.227  28.198  1.00  0.00     0.167 HD
ATOM     65  C   UNL A   1      46.610  30.564  27.842  1.00  0.00     0.074 A 
ATOM     66  C   UNL A   1      47.988  30.821  27.488  1.00  0.00     0.031 C 
ATOM     67  C   UNL A   1      45.786  31.485  28.404  1.00  0.00     0.034 A 
BRANCH  54  68
ATOM     68  C   UNL A   1      40.077  29.374  29.580  1.00  0.00     0.023 A 
ATOM     69  C   UNL A   1      39.820  29.424  30.962  1.00  0.00     0.031 A 
ATOM     70  C   UNL A   1      39.003  29.604  28.703  1.00  0.00     0.131 A 
ATOM     71  C   UNL A   1      38.514  29.637  31.424  1.00  0.00     0.055 A 
ATOM     72  C   UNL A   1      37.720  29.896  29.170  1.00  0.00     0.041 A 
ATOM     73  F   UNL A   1      39.182  29.546  27.373  1.00  0.00    -0.206 F 
ATOM     74  C   UNL A   1      37.467  29.902  30.538  1.00  0.00     0.022 A 
BRANCH  71  75
ATOM     75  S   UNL A   1      38.180  29.442  33.196  1.00  0.00     0.124 S 
ATOM     76  O   UNL A   1      37.403  28.205  33.214  1.00  0.00    -0.237 OA
ATOM     77  O   UNL A   1      39.521  29.363  33.764  1.00  0.00    -0.237 OA
ATOM     78  O   UNL A   1      37.427  30.647  33.537  1.00  0.00    -0.744 OA
ENDBRANCH  71  75
ENDBRANCH  54  68
BRANCH  55  79
ATOM     79  C   UNL A   1      49.111  27.086  25.873  1.00  0.00     0.023 A 
ATOM     80  C   UNL A   1      49.439  27.526  24.581  1.00  0.00     0.031 A 
ATOM     81  C   UNL A   1      50.043  26.275  26.545  1.00  0.00     0.131 A 
ATOM     82  C   UNL A   1      50.625  27.089  23.971  1.00  0.00     0.055 A 
ATOM     83  C   UNL A   1      51.257  25.905  25.962  1.00  0.00     0.041 A 
ATOM     84  F   UNL A   1      49.786  25.824  27.783  1.00  0.00    -0.206 F 
ATOM     85  C   UNL A   1      51.544  26.294  24.658  1.00  0.00     0.022 A 
BRANCH  82  86
ATOM     86  S   UNL A   1      50.881  27.456  22.212  1.00  0.00     0.124 S 
ATOM     87  O   UNL A   1      52.170  26.824  21.964  1.00  0.00    -0.237 OA
ATOM     88  O   UNL A   1      49.723  26.816  21.598  1.00  0.00    -0.237 OA
ATOM     89  O   UNL A   1      50.881  28.917  22.167  1.00  0.00    -0.744 OA
ENDBRANCH  82  86
ENDBRANCH  55  79
BRANCH  67  90
ATOM     90  C   UNL A   1      46.381  32.833  28.739  1.00  0.00     0.023 A 
ATOM     91  C   UNL A   1      46.303  33.923  27.856  1.00  0.00     0.031 A 
ATOM     92  C   UNL A   1      47.044  33.020  29.966  1.00  0.00     0.131 A 
ATOM     93  C   UNL A   1      46.932  35.134  28.186  1.00  0.00     0.055 A 
ATOM     94  C   UNL A   1      47.609  34.247  30.317  1.00  0.00     0.041 A 
ATOM     95  F   UNL A   1      47.152  32.013  30.846  1.00  0.00    -0.206 F 
ATOM     96  C   UNL A   1      47.567  35.308  29.418  1.00  0.00     0.022 A 
BRANCH  93  97
ATOM     97  S   UNL A   1      47.000  36.448  26.937  1.00  0.00     0.124 S 
ATOM     98  O   UNL A   1      46.256  35.854  25.831  1.00  0.00    -0.237 OA
ATOM     99  O   UNL A   1      46.346  37.560  27.619  1.00  0.00    -0.237 OA
ATOM    100  O   UNL A   1      48.431  36.623  26.700  1.00  0.00    -0.744 OA
ENDBRANCH  93  97
ENDBRANCH  67  90
ENDBRANCH  41  42
ENDBRANCH  33  36
ENDBRANCH  31  32
ENDBRANCH  30  31
ENDBRANCH  29  30
ENDBRANCH   1  29
TORSDOF 20
ENDMDL
