MODEL 1
REMARK VINA RESULT:     -12.3      0.000      0.000
REMARK SMILES Cc1nsc(Nc2ccccc2C(C)C)c1C(=O)NCCCCCCNC(=O)c1ccc(-c2c3nc(c(-c4cc(S(=O)(=O)[O-])ccc4F)c4ccc([nH]4)c(-c4cc(S(=O)(=O)[O-])ccc4F)c4nc(c(-c5cc(S(=O)(=O)[O-])ccc5F)c5ccc2[nH]5)C=C4)C=C3)cc1
REMARK SMILES IDX 22 1 21 2 20 3 19 4 17 5 18 6 16 8 1 9 2 10 3 11 4 12 5 13
REMARK SMILES IDX 6 14 7 16 8 17 12 18 9 19 11 20 10 21 13 22 14 23 15 24
REMARK SMILES IDX 23 25 24 26 25 27 26 28 27 29 28 31 29 32 30 33 91 34 31 35
REMARK SMILES IDX 90 36 32 37 33 38 34 39 84 40 35 41 89 42 83 43 85 44 36 45
REMARK SMILES IDX 88 46 82 47 81 48 37 50 69 51 49 52 68 53 50 54 53 55 67 56
REMARK SMILES IDX 86 57 51 58 52 59 66 61 87 62 54 63 38 64 39 65 47 66 40 67
REMARK SMILES IDX 46 68 48 69 45 70 41 71 42 72 43 73 44 74 70 75 71 76 79 77
REMARK SMILES IDX 72 78 78 79 80 80 77 81 73 82 74 83 75 84 76 85 55 86 56 87
REMARK SMILES IDX 64 88 57 89 63 90 65 91 62 92 58 93 59 94 60 95 61 96
REMARK H PARENT 19 7 6 15 26 30 85 49 53 60
REMARK Flexibility Score: inf
ROOT
ATOM      1  C   UNL A   1      32.809  29.280  24.580  1.00  0.00     0.002 C 
ENDROOT
BRANCH   1   2
ATOM      2  C   UNL A   1      32.982  29.114  23.066  1.00  0.00     0.021 C 
BRANCH   2   3
ATOM      3  C   UNL A   1      33.923  27.972  22.675  1.00  0.00     0.116 C 
BRANCH   3   4
ATOM      4  N   UNL A   1      33.316  27.157  21.663  1.00  0.00    -0.352 N 
ATOM      5  C   UNL A   1      32.368  26.178  21.658  1.00  0.00     0.256 C 
ATOM      6  O   UNL A   1      32.204  25.694  20.527  1.00  0.00    -0.269 OA
ATOM      7  H   UNL A   1      33.665  27.349  20.763  1.00  0.00     0.163 HD
BRANCH   5   8
ATOM      8  C   UNL A   1      31.545  25.723  22.797  1.00  0.00     0.097 A 
ATOM      9  C   UNL A   1      29.668  27.544  23.460  1.00  0.00     0.069 C 
ATOM     10  C   UNL A   1      30.421  26.266  23.563  1.00  0.00     0.066 A 
ATOM     11  N   UNL A   1      29.963  25.503  24.559  1.00  0.00    -0.195 NA
ATOM     12  S   UNL A   1      30.904  24.186  24.730  1.00  0.00    -0.018 S 
ATOM     13  C   UNL A   1      31.864  24.463  23.341  1.00  0.00     0.127 A 
BRANCH  13  14
ATOM     14  N   UNL A   1      32.813  23.593  22.888  1.00  0.00    -0.345 N 
ATOM     15  H   UNL A   1      33.214  23.796  22.013  1.00  0.00     0.167 HD
BRANCH  14  16
ATOM     16  C   UNL A   1      33.277  22.438  23.539  1.00  0.00     0.043 A 
ATOM     17  C   UNL A   1      32.421  21.326  23.556  1.00  0.00     0.026 A 
ATOM     18  C   UNL A   1      34.533  22.367  24.185  1.00  0.00    -0.022 A 
ATOM     19  C   UNL A   1      32.813  20.126  24.145  1.00  0.00     0.002 A 
ATOM     20  C   UNL A   1      34.910  21.143  24.771  1.00  0.00     0.006 A 
ATOM     21  C   UNL A   1      34.063  20.033  24.744  1.00  0.00     0.000 A 
BRANCH  18  22
ATOM     22  C   UNL A   1      35.464  23.571  24.300  1.00  0.00     0.015 C 
ATOM     23  C   UNL A   1      35.107  24.448  25.506  1.00  0.00     0.012 C 
ATOM     24  C   UNL A   1      36.939  23.160  24.363  1.00  0.00     0.012 C 
ENDBRANCH  18  22
ENDBRANCH  14  16
ENDBRANCH  13  14
ENDBRANCH   5   8
ENDBRANCH   3   4
ENDBRANCH   2   3
ENDBRANCH   1   2
BRANCH   1  25
ATOM     25  C   UNL A   1      33.980  28.773  25.437  1.00  0.00     0.002 C 
BRANCH  25  26
ATOM     26  C   UNL A   1      34.036  29.294  26.882  1.00  0.00     0.021 C 
BRANCH  26  27
ATOM     27  C   UNL A   1      35.422  29.201  27.492  1.00  0.00     0.116 C 
BRANCH  27  28
ATOM     28  N   UNL A   1      35.438  29.664  28.884  1.00  0.00    -0.352 N 
ATOM     29  C   UNL A   1      36.390  29.448  29.869  1.00  0.00     0.251 C 
ATOM     30  H   UNL A   1      34.663  30.206  29.158  1.00  0.00     0.163 HD
ATOM     31  O   UNL A   1      36.106  29.574  31.046  1.00  0.00    -0.269 OA
BRANCH  29  32
ATOM     32  C   UNL A   1      37.752  29.072  29.445  1.00  0.00     0.039 A 
ATOM     33  C   UNL A   1      38.384  29.626  28.327  1.00  0.00     0.014 A 
ATOM     34  C   UNL A   1      38.404  28.135  30.234  1.00  0.00     0.014 A 
ATOM     35  C   UNL A   1      39.699  29.251  28.054  1.00  0.00     0.010 A 
ATOM     36  C   UNL A   1      39.751  27.985  30.126  1.00  0.00     0.010 A 
ATOM     37  C   UNL A   1      40.368  28.426  28.966  1.00  0.00    -0.014 A 
BRANCH  37  38
ATOM     38  C   UNL A   1      41.738  27.975  28.792  1.00  0.00     0.031 A 
ATOM     39  C   UNL A   1      41.887  26.733  27.996  1.00  0.00     0.074 A 
ATOM     40  C   UNL A   1      42.771  28.813  29.047  1.00  0.00     0.049 A 
ATOM     41  N   UNL A   1      42.314  25.585  28.399  1.00  0.00    -0.248 NA
ATOM     42  C   UNL A   1      41.347  26.711  26.626  1.00  0.00     0.031 C 
ATOM     43  C   UNL A   1      42.726  30.215  29.492  1.00  0.00     0.029 A 
ATOM     44  N   UNL A   1      44.092  28.633  28.809  1.00  0.00    -0.354 N 
ATOM     45  C   UNL A   1      42.316  24.756  27.281  1.00  0.00     0.074 A 
ATOM     46  C   UNL A   1      41.506  25.427  26.301  1.00  0.00     0.031 C 
ATOM     47  C   UNL A   1      43.913  30.811  29.240  1.00  0.00     0.029 A 
ATOM     48  C   UNL A   1      44.849  29.801  28.781  1.00  0.00     0.049 A 
ATOM     49  H   UNL A   1      44.487  27.743  28.666  1.00  0.00     0.167 HD
ATOM     50  C   UNL A   1      43.174  23.701  27.186  1.00  0.00     0.034 A 
ATOM     51  C   UNL A   1      46.137  29.925  28.357  1.00  0.00     0.034 A 
ATOM     52  C   UNL A   1      43.809  23.451  28.464  1.00  0.00     0.049 A 
ATOM     53  C   UNL A   1      46.722  28.557  28.422  1.00  0.00     0.074 A 
ATOM     54  C   UNL A   1      43.345  23.114  29.720  1.00  0.00     0.029 A 
ATOM     55  N   UNL A   1      45.076  23.961  28.662  1.00  0.00    -0.354 N 
ATOM     56  N   UNL A   1      46.851  27.889  29.540  1.00  0.00    -0.248 NA
ATOM     57  C   UNL A   1      46.656  27.734  27.221  1.00  0.00     0.031 C 
ATOM     58  C   UNL A   1      44.114  23.915  30.616  1.00  0.00     0.029 A 
ATOM     59  C   UNL A   1      45.072  24.612  29.874  1.00  0.00     0.049 A 
ATOM     60  H   UNL A   1      45.842  23.876  28.050  1.00  0.00     0.167 HD
ATOM     61  C   UNL A   1      46.450  26.594  29.240  1.00  0.00     0.074 A 
ATOM     62  C   UNL A   1      46.428  26.538  27.777  1.00  0.00     0.031 C 
ATOM     63  C   UNL A   1      45.879  25.783  30.183  1.00  0.00     0.034 A 
BRANCH  50  64
ATOM     64  C   UNL A   1      43.713  23.097  25.908  1.00  0.00     0.023 A 
ATOM     65  C   UNL A   1      43.666  21.691  25.798  1.00  0.00     0.031 A 
ATOM     66  C   UNL A   1      44.487  23.756  24.928  1.00  0.00     0.131 A 
ATOM     67  C   UNL A   1      44.438  21.008  24.844  1.00  0.00     0.055 A 
ATOM     68  C   UNL A   1      45.201  23.075  23.936  1.00  0.00     0.041 A 
ATOM     69  F   UNL A   1      44.676  25.079  24.919  1.00  0.00    -0.206 F 
ATOM     70  C   UNL A   1      45.208  21.693  23.910  1.00  0.00     0.022 A 
BRANCH  67  71
ATOM     71  S   UNL A   1      44.558  19.206  24.969  1.00  0.00     0.124 S 
ATOM     72  O   UNL A   1      44.365  18.800  23.582  1.00  0.00    -0.237 OA
ATOM     73  O   UNL A   1      45.901  19.032  25.512  1.00  0.00    -0.237 OA
ATOM     74  O   UNL A   1      43.468  18.858  25.877  1.00  0.00    -0.744 OA
ENDBRANCH  67  71
ENDBRANCH  50  64
BRANCH  51  75
ATOM     75  C   UNL A   1      46.707  31.056  27.560  1.00  0.00     0.023 A 
ATOM     76  C   UNL A   1      45.916  32.065  26.964  1.00  0.00     0.031 A 
ATOM     77  C   UNL A   1      48.104  31.280  27.567  1.00  0.00     0.131 A 
ATOM     78  C   UNL A   1      46.527  33.219  26.407  1.00  0.00     0.055 A 
ATOM     79  C   UNL A   1      48.700  32.419  27.016  1.00  0.00     0.041 A 
ATOM     80  F   UNL A   1      48.942  30.432  28.186  1.00  0.00    -0.206 F 
ATOM     81  C   UNL A   1      47.912  33.399  26.440  1.00  0.00     0.022 A 
BRANCH  78  82
ATOM     82  S   UNL A   1      45.515  34.563  25.697  1.00  0.00     0.124 S 
ATOM     83  O   UNL A   1      46.472  35.661  25.617  1.00  0.00    -0.237 OA
ATOM     84  O   UNL A   1      45.075  33.991  24.431  1.00  0.00    -0.237 OA
ATOM     85  O   UNL A   1      44.450  34.748  26.685  1.00  0.00    -0.744 OA
ENDBRANCH  78  82
ENDBRANCH  51  75
BRANCH  63  86
ATOM     86  C   UNL A   1      45.895  26.221  31.639  1.00  0.00     0.023 A 
ATOM     87  C   UNL A   1      44.806  26.807  32.327  1.00  0.00     0.031 A 
ATOM     88  C   UNL A   1      47.023  25.863  32.398  1.00  0.00     0.131 A 
ATOM     89  C   UNL A   1      44.877  27.010  33.722  1.00  0.00     0.055 A 
ATOM     90  C   UNL A   1      47.080  26.042  33.780  1.00  0.00     0.041 A 
ATOM     91  F   UNL A   1      48.081  25.278  31.810  1.00  0.00    -0.206 F 
ATOM     92  C   UNL A   1      46.007  26.620  34.448  1.00  0.00     0.022 A 
BRANCH  89  93
ATOM     93  S   UNL A   1      43.503  27.798  34.629  1.00  0.00     0.124 S 
ATOM     94  O   UNL A   1      43.323  29.069  33.936  1.00  0.00    -0.237 OA
ATOM     95  O   UNL A   1      42.422  26.826  34.475  1.00  0.00    -0.237 OA
ATOM     96  O   UNL A   1      44.020  27.918  35.993  1.00  0.00    -0.744 OA
ENDBRANCH  89  93
ENDBRANCH  63  86
ENDBRANCH  37  38
ENDBRANCH  29  32
ENDBRANCH  27  28
ENDBRANCH  26  27
ENDBRANCH  25  26
ENDBRANCH   1  25
TORSDOF 19
ENDMDL
MODEL 2
REMARK VINA RESULT:     -12.1      2.324      6.958
REMARK SMILES Cc1nsc(Nc2ccccc2C(C)C)c1C(=O)NCCCCCCNC(=O)c1ccc(-c2c3nc(c(-c4cc(S(=O)(=O)[O-])ccc4F)c4ccc([nH]4)c(-c4cc(S(=O)(=O)[O-])ccc4F)c4nc(c(-c5cc(S(=O)(=O)[O-])ccc5F)c5ccc2[nH]5)C=C4)C=C3)cc1
REMARK SMILES IDX 22 1 21 2 20 3 19 4 17 5 18 6 16 8 1 9 2 10 3 11 4 12 5 13
REMARK SMILES IDX 6 14 7 16 8 17 12 18 9 19 11 20 10 21 13 22 14 23 15 24
REMARK SMILES IDX 23 25 24 26 25 27 26 28 27 29 28 31 29 32 30 33 91 34 31 35
REMARK SMILES IDX 90 36 32 37 33 38 34 39 84 40 35 41 89 42 83 43 85 44 36 45
REMARK SMILES IDX 88 46 82 47 81 48 37 50 69 51 49 52 68 53 50 54 53 55 67 56
REMARK SMILES IDX 86 57 51 58 52 59 66 61 87 62 54 63 38 64 39 65 47 66 40 67
REMARK SMILES IDX 46 68 48 69 45 70 41 71 42 72 43 73 44 74 70 75 71 76 79 77
REMARK SMILES IDX 72 78 78 79 80 80 77 81 73 82 74 83 75 84 76 85 55 86 56 87
REMARK SMILES IDX 64 88 57 89 63 90 65 91 62 92 58 93 59 94 60 95 61 96
REMARK H PARENT 19 7 6 15 26 30 85 49 53 60
REMARK Flexibility Score: inf
ROOT
ATOM      1  C   UNL A   1      32.685  29.219  24.533  1.00  0.00     0.002 C 
ENDROOT
BRANCH   1   2
ATOM      2  C   UNL A   1      33.028  29.124  23.043  1.00  0.00     0.021 C 
BRANCH   2   3
ATOM      3  C   UNL A   1      34.145  28.127  22.729  1.00  0.00     0.116 C 
BRANCH   3   4
ATOM      4  N   UNL A   1      33.732  27.237  21.682  1.00  0.00    -0.352 N 
ATOM      5  C   UNL A   1      32.850  26.203  21.592  1.00  0.00     0.256 C 
ATOM      6  O   UNL A   1      32.873  25.666  20.473  1.00  0.00    -0.269 OA
ATOM      7  H   UNL A   1      34.194  27.415  20.832  1.00  0.00     0.163 HD
BRANCH   5   8
ATOM      8  C   UNL A   1      31.900  25.744  22.626  1.00  0.00     0.097 A 
ATOM      9  C   UNL A   1      29.864  27.485  22.952  1.00  0.00     0.069 C 
ATOM     10  C   UNL A   1      30.656  26.252  23.210  1.00  0.00     0.066 A 
ATOM     11  N   UNL A   1      30.102  25.500  24.164  1.00  0.00    -0.195 NA
ATOM     12  S   UNL A   1      31.073  24.241  24.515  1.00  0.00    -0.018 S 
ATOM     13  C   UNL A   1      32.200  24.522  23.260  1.00  0.00     0.127 A 
BRANCH  13  14
ATOM     14  N   UNL A   1      33.243  23.688  22.976  1.00  0.00    -0.345 N 
ATOM     15  H   UNL A   1      33.857  23.978  22.263  1.00  0.00     0.167 HD
BRANCH  14  16
ATOM     16  C   UNL A   1      33.534  22.461  23.594  1.00  0.00     0.043 A 
ATOM     17  C   UNL A   1      32.585  21.435  23.456  1.00  0.00     0.026 A 
ATOM     18  C   UNL A   1      34.704  22.236  24.354  1.00  0.00    -0.022 A 
ATOM     19  C   UNL A   1      32.806  20.173  24.002  1.00  0.00     0.002 A 
ATOM     20  C   UNL A   1      34.908  20.951  24.895  1.00  0.00     0.006 A 
ATOM     21  C   UNL A   1      33.974  19.930  24.713  1.00  0.00     0.000 A 
BRANCH  18  22
ATOM     22  C   UNL A   1      35.721  23.338  24.637  1.00  0.00     0.015 C 
ATOM     23  C   UNL A   1      35.146  24.414  25.566  1.00  0.00     0.012 C 
ATOM     24  C   UNL A   1      37.030  22.787  25.215  1.00  0.00     0.012 C 
ENDBRANCH  18  22
ENDBRANCH  14  16
ENDBRANCH  13  14
ENDBRANCH   5   8
ENDBRANCH   3   4
ENDBRANCH   2   3
ENDBRANCH   1   2
BRANCH   1  25
ATOM     25  C   UNL A   1      33.295  28.121  25.421  1.00  0.00     0.002 C 
BRANCH  25  26
ATOM     26  C   UNL A   1      33.401  28.445  26.920  1.00  0.00     0.021 C 
BRANCH  26  27
ATOM     27  C   UNL A   1      34.748  29.031  27.306  1.00  0.00     0.116 C 
BRANCH  27  28
ATOM     28  N   UNL A   1      34.758  30.493  27.198  1.00  0.00    -0.352 N 
ATOM     29  C   UNL A   1      35.629  31.408  27.768  1.00  0.00     0.251 C 
ATOM     30  H   UNL A   1      34.044  30.881  26.641  1.00  0.00     0.163 HD
ATOM     31  O   UNL A   1      35.310  32.576  27.894  1.00  0.00    -0.269 OA
BRANCH  29  32
ATOM     32  C   UNL A   1      36.952  30.924  28.207  1.00  0.00     0.039 A 
ATOM     33  C   UNL A   1      37.750  31.614  29.126  1.00  0.00     0.014 A 
ATOM     34  C   UNL A   1      37.374  29.715  27.673  1.00  0.00     0.014 A 
ATOM     35  C   UNL A   1      38.954  31.034  29.526  1.00  0.00     0.010 A 
ATOM     36  C   UNL A   1      38.394  29.037  28.262  1.00  0.00     0.010 A 
ATOM     37  C   UNL A   1      39.261  29.742  29.080  1.00  0.00    -0.014 A 
BRANCH  37  38
ATOM     38  C   UNL A   1      40.480  29.035  29.435  1.00  0.00     0.031 A 
ATOM     39  C   UNL A   1      40.678  28.831  30.891  1.00  0.00     0.074 A 
ATOM     40  C   UNL A   1      41.168  28.344  28.496  1.00  0.00     0.049 A 
ATOM     41  N   UNL A   1      41.599  29.335  31.639  1.00  0.00    -0.248 NA
ATOM     42  C   UNL A   1      39.638  28.111  31.643  1.00  0.00     0.031 C 
ATOM     43  C   UNL A   1      40.849  28.169  27.069  1.00  0.00     0.029 A 
ATOM     44  N   UNL A   1      42.226  27.515  28.654  1.00  0.00    -0.354 N 
ATOM     45  C   UNL A   1      41.394  28.814  32.913  1.00  0.00     0.074 A 
ATOM     46  C   UNL A   1      40.064  28.268  32.898  1.00  0.00     0.031 C 
ATOM     47  C   UNL A   1      41.527  27.107  26.578  1.00  0.00     0.029 A 
ATOM     48  C   UNL A   1      42.449  26.637  27.596  1.00  0.00     0.049 A 
ATOM     49  H   UNL A   1      42.795  27.530  29.457  1.00  0.00     0.167 HD
ATOM     50  C   UNL A   1      42.426  28.675  33.793  1.00  0.00     0.034 A 
ATOM     51  C   UNL A   1      43.296  25.570  27.588  1.00  0.00     0.034 A 
ATOM     52  C   UNL A   1      43.598  29.378  33.312  1.00  0.00     0.049 A 
ATOM     53  C   UNL A   1      44.275  25.819  28.682  1.00  0.00     0.074 A 
ATOM     54  C   UNL A   1      43.873  30.698  33.013  1.00  0.00     0.029 A 
ATOM     55  N   UNL A   1      44.567  28.642  32.662  1.00  0.00    -0.354 N 
ATOM     56  N   UNL A   1      45.097  26.838  28.686  1.00  0.00    -0.248 NA
ATOM     57  C   UNL A   1      43.976  25.271  29.999  1.00  0.00     0.031 C 
ATOM     58  C   UNL A   1      44.633  30.644  31.807  1.00  0.00     0.029 A 
ATOM     59  C   UNL A   1      44.871  29.302  31.494  1.00  0.00     0.049 A 
ATOM     60  H   UNL A   1      44.967  27.799  32.975  1.00  0.00     0.167 HD
ATOM     61  C   UNL A   1      45.071  27.324  29.986  1.00  0.00     0.074 A 
ATOM     62  C   UNL A   1      44.434  26.264  30.769  1.00  0.00     0.031 C 
ATOM     63  C   UNL A   1      45.282  28.648  30.261  1.00  0.00     0.034 A 
BRANCH  50  64
ATOM     64  C   UNL A   1      42.523  27.655  34.907  1.00  0.00     0.023 A 
ATOM     65  C   UNL A   1      43.278  26.494  34.643  1.00  0.00     0.031 A 
ATOM     66  C   UNL A   1      41.738  27.616  36.080  1.00  0.00     0.131 A 
ATOM     67  C   UNL A   1      43.152  25.346  35.443  1.00  0.00     0.055 A 
ATOM     68  C   UNL A   1      41.667  26.493  36.912  1.00  0.00     0.041 A 
ATOM     69  F   UNL A   1      40.927  28.613  36.448  1.00  0.00    -0.206 F 
ATOM     70  C   UNL A   1      42.349  25.337  36.578  1.00  0.00     0.022 A 
BRANCH  67  71
ATOM     71  S   UNL A   1      43.915  23.810  34.862  1.00  0.00     0.124 S 
ATOM     72  O   UNL A   1      44.777  24.294  33.790  1.00  0.00    -0.237 OA
ATOM     73  O   UNL A   1      44.588  23.336  36.066  1.00  0.00    -0.237 OA
ATOM     74  O   UNL A   1      42.773  23.008  34.428  1.00  0.00    -0.744 OA
ENDBRANCH  67  71
ENDBRANCH  50  64
BRANCH  51  75
ATOM     75  C   UNL A   1      43.039  24.235  26.965  1.00  0.00     0.023 A 
ATOM     76  C   UNL A   1      43.900  23.640  26.016  1.00  0.00     0.031 A 
ATOM     77  C   UNL A   1      42.017  23.406  27.487  1.00  0.00     0.131 A 
ATOM     78  C   UNL A   1      43.713  22.287  25.626  1.00  0.00     0.055 A 
ATOM     79  C   UNL A   1      41.839  22.075  27.100  1.00  0.00     0.041 A 
ATOM     80  F   UNL A   1      41.200  23.839  28.462  1.00  0.00    -0.206 F 
ATOM     81  C   UNL A   1      42.692  21.506  26.172  1.00  0.00     0.022 A 
BRANCH  78  82
ATOM     82  S   UNL A   1      44.859  21.484  24.453  1.00  0.00     0.124 S 
ATOM     83  O   UNL A   1      44.385  20.105  24.452  1.00  0.00    -0.237 OA
ATOM     84  O   UNL A   1      44.643  22.246  23.230  1.00  0.00    -0.237 OA
ATOM     85  O   UNL A   1      46.173  21.680  25.070  1.00  0.00    -0.744 OA
ENDBRANCH  78  82
ENDBRANCH  51  75
BRANCH  63  86
ATOM     86  C   UNL A   1      45.782  29.561  29.152  1.00  0.00     0.023 A 
ATOM     87  C   UNL A   1      44.962  30.373  28.333  1.00  0.00     0.031 A 
ATOM     88  C   UNL A   1      47.174  29.732  29.049  1.00  0.00     0.131 A 
ATOM     89  C   UNL A   1      45.548  31.312  27.456  1.00  0.00     0.055 A 
ATOM     90  C   UNL A   1      47.748  30.678  28.201  1.00  0.00     0.041 A 
ATOM     91  F   UNL A   1      48.006  29.011  29.819  1.00  0.00    -0.206 F 
ATOM     92  C   UNL A   1      46.937  31.470  27.398  1.00  0.00     0.022 A 
BRANCH  89  93
ATOM     93  S   UNL A   1      44.518  32.346  26.361  1.00  0.00     0.124 S 
ATOM     94  O   UNL A   1      44.048  33.410  27.241  1.00  0.00    -0.237 OA
ATOM     95  O   UNL A   1      45.462  32.745  25.320  1.00  0.00    -0.237 OA
ATOM     96  O   UNL A   1      43.472  31.426  25.909  1.00  0.00    -0.744 OA
ENDBRANCH  89  93
ENDBRANCH  63  86
ENDBRANCH  37  38
ENDBRANCH  29  32
ENDBRANCH  27  28
ENDBRANCH  26  27
ENDBRANCH  25  26
ENDBRANCH   1  25
TORSDOF 19
ENDMDL
MODEL 3
REMARK VINA RESULT:     -12.1      4.369      6.206
REMARK SMILES Cc1nsc(Nc2ccccc2C(C)C)c1C(=O)NCCCCCCNC(=O)c1ccc(-c2c3nc(c(-c4cc(S(=O)(=O)[O-])ccc4F)c4ccc([nH]4)c(-c4cc(S(=O)(=O)[O-])ccc4F)c4nc(c(-c5cc(S(=O)(=O)[O-])ccc5F)c5ccc2[nH]5)C=C4)C=C3)cc1
REMARK SMILES IDX 22 1 21 2 20 3 19 4 17 5 18 6 16 8 1 9 2 10 3 11 4 12 5 13
REMARK SMILES IDX 6 14 7 16 8 17 12 18 9 19 11 20 10 21 13 22 14 23 15 24
REMARK SMILES IDX 23 25 24 26 25 27 26 28 27 29 28 31 29 32 30 33 91 34 31 35
REMARK SMILES IDX 90 36 32 37 33 38 34 39 84 40 35 41 89 42 83 43 85 44 36 45
REMARK SMILES IDX 88 46 82 47 81 48 37 50 69 51 49 52 68 53 50 54 53 55 67 56
REMARK SMILES IDX 86 57 51 58 52 59 66 61 87 62 54 63 38 64 39 65 47 66 40 67
REMARK SMILES IDX 46 68 48 69 45 70 41 71 42 72 43 73 44 74 70 75 71 76 79 77
REMARK SMILES IDX 72 78 78 79 80 80 77 81 73 82 74 83 75 84 76 85 55 86 56 87
REMARK SMILES IDX 64 88 57 89 63 90 65 91 62 92 58 93 59 94 60 95 61 96
REMARK H PARENT 19 7 6 15 26 30 85 49 53 60
REMARK Flexibility Score: inf
ROOT
ATOM      1  C   UNL A   1      32.381  29.556  26.594  1.00  0.00     0.002 C 
ENDROOT
BRANCH   1   2
ATOM      2  C   UNL A   1      31.764  28.304  27.226  1.00  0.00     0.021 C 
BRANCH   2   3
ATOM      3  C   UNL A   1      32.422  26.998  26.778  1.00  0.00     0.116 C 
BRANCH   3   4
ATOM      4  N   UNL A   1      31.546  25.890  27.031  1.00  0.00    -0.352 N 
ATOM      5  C   UNL A   1      31.509  24.585  26.641  1.00  0.00     0.256 C 
ATOM      6  O   UNL A   1      30.500  24.000  27.065  1.00  0.00    -0.269 OA
ATOM      7  H   UNL A   1      30.798  26.129  27.625  1.00  0.00     0.163 HD
BRANCH   5   8
ATOM      8  C   UNL A   1      32.529  23.855  25.861  1.00  0.00     0.097 A 
ATOM      9  C   UNL A   1      33.867  22.076  27.387  1.00  0.00     0.069 C 
ATOM     10  C   UNL A   1      33.518  22.812  26.142  1.00  0.00     0.066 A 
ATOM     11  N   UNL A   1      34.278  22.427  25.113  1.00  0.00    -0.195 NA
ATOM     12  S   UNL A   1      33.967  23.355  23.813  1.00  0.00    -0.018 S 
ATOM     13  C   UNL A   1      32.644  24.196  24.499  1.00  0.00     0.127 A 
BRANCH  13  14
ATOM     14  N   UNL A   1      31.871  25.086  23.811  1.00  0.00    -0.345 N 
ATOM     15  H   UNL A   1      30.984  24.770  23.527  1.00  0.00     0.167 HD
BRANCH  14  16
ATOM     16  C   UNL A   1      32.208  26.406  23.467  1.00  0.00     0.043 A 
ATOM     17  C   UNL A   1      33.569  26.749  23.507  1.00  0.00     0.026 A 
ATOM     18  C   UNL A   1      31.248  27.383  23.118  1.00  0.00    -0.022 A 
ATOM     19  C   UNL A   1      33.999  28.023  23.145  1.00  0.00     0.002 A 
ATOM     20  C   UNL A   1      31.707  28.664  22.754  1.00  0.00     0.006 A 
ATOM     21  C   UNL A   1      33.067  28.977  22.758  1.00  0.00     0.000 A 
BRANCH  18  22
ATOM     22  C   UNL A   1      29.747  27.109  23.163  1.00  0.00     0.015 C 
ATOM     23  C   UNL A   1      29.342  26.388  24.454  1.00  0.00     0.012 C 
ATOM     24  C   UNL A   1      28.918  28.387  22.989  1.00  0.00     0.012 C 
ENDBRANCH  18  22
ENDBRANCH  14  16
ENDBRANCH  13  14
ENDBRANCH   5   8
ENDBRANCH   3   4
ENDBRANCH   2   3
ENDBRANCH   1   2
BRANCH   1  25
ATOM     25  C   UNL A   1      31.420  30.413  25.755  1.00  0.00     0.002 C 
BRANCH  25  26
ATOM     26  C   UNL A   1      31.252  31.874  26.201  1.00  0.00     0.021 C 
BRANCH  26  27
ATOM     27  C   UNL A   1      32.284  32.303  27.229  1.00  0.00     0.116 C 
BRANCH  27  28
ATOM     28  N   UNL A   1      32.260  33.751  27.455  1.00  0.00    -0.352 N 
ATOM     29  C   UNL A   1      33.003  34.512  28.344  1.00  0.00     0.251 C 
ATOM     30  H   UNL A   1      31.625  34.256  26.896  1.00  0.00     0.163 HD
ATOM     31  O   UNL A   1      32.629  35.621  28.678  1.00  0.00    -0.269 OA
BRANCH  29  32
ATOM     32  C   UNL A   1      34.261  33.940  28.862  1.00  0.00     0.039 A 
ATOM     33  C   UNL A   1      34.392  33.437  30.160  1.00  0.00     0.014 A 
ATOM     34  C   UNL A   1      35.330  33.904  27.979  1.00  0.00     0.014 A 
ATOM     35  C   UNL A   1      35.605  32.855  30.528  1.00  0.00     0.010 A 
ATOM     36  C   UNL A   1      36.397  33.104  28.245  1.00  0.00     0.010 A 
ATOM     37  C   UNL A   1      36.600  32.699  29.554  1.00  0.00    -0.014 A 
BRANCH  37  38
ATOM     38  C   UNL A   1      37.898  32.103  29.817  1.00  0.00     0.031 A 
ATOM     39  C   UNL A   1      38.025  30.684  29.406  1.00  0.00     0.074 A 
ATOM     40  C   UNL A   1      38.968  32.887  30.091  1.00  0.00     0.049 A 
ATOM     41  N   UNL A   1      38.193  29.655  30.165  1.00  0.00    -0.248 NA
ATOM     42  C   UNL A   1      37.773  30.339  27.997  1.00  0.00     0.031 C 
ATOM     43  C   UNL A   1      39.036  34.356  30.157  1.00  0.00     0.029 A 
ATOM     44  N   UNL A   1      40.270  32.537  30.217  1.00  0.00    -0.354 N 
ATOM     45  C   UNL A   1      38.301  28.558  29.315  1.00  0.00     0.074 A 
ATOM     46  C   UNL A   1      37.809  29.006  28.041  1.00  0.00     0.031 C 
ATOM     47  C   UNL A   1      40.322  34.758  30.048  1.00  0.00     0.029 A 
ATOM     48  C   UNL A   1      41.177  33.585  30.080  1.00  0.00     0.049 A 
ATOM     49  H   UNL A   1      40.554  31.611  30.391  1.00  0.00     0.167 HD
ATOM     50  C   UNL A   1      39.001  27.447  29.682  1.00  0.00     0.034 A 
ATOM     51  C   UNL A   1      42.528  33.480  29.947  1.00  0.00     0.034 A 
ATOM     52  C   UNL A   1      39.325  27.498  31.093  1.00  0.00     0.049 A 
ATOM     53  C   UNL A   1      42.886  32.135  30.478  1.00  0.00     0.074 A 
ATOM     54  C   UNL A   1      38.574  27.554  32.252  1.00  0.00     0.029 A 
ATOM     55  N   UNL A   1      40.585  27.933  31.448  1.00  0.00    -0.354 N 
ATOM     56  N   UNL A   1      42.691  31.785  31.724  1.00  0.00    -0.248 NA
ATOM     57  C   UNL A   1      42.945  31.026  29.534  1.00  0.00     0.031 C 
ATOM     58  C   UNL A   1      39.254  28.498  33.077  1.00  0.00     0.029 A 
ATOM     59  C   UNL A   1      40.431  28.885  32.429  1.00  0.00     0.049 A 
ATOM     60  H   UNL A   1      41.438  27.620  31.069  1.00  0.00     0.167 HD
ATOM     61  C   UNL A   1      42.178  30.496  31.666  1.00  0.00     0.074 A 
ATOM     62  C   UNL A   1      42.442  30.049  30.297  1.00  0.00     0.031 C 
ATOM     63  C   UNL A   1      41.319  30.022  32.620  1.00  0.00     0.034 A 
BRANCH  50  64
ATOM     64  C   UNL A   1      39.694  26.476  28.751  1.00  0.00     0.023 A 
ATOM     65  C   UNL A   1      40.786  26.974  28.010  1.00  0.00     0.031 A 
ATOM     66  C   UNL A   1      39.216  25.209  28.351  1.00  0.00     0.131 A 
ATOM     67  C   UNL A   1      41.272  26.292  26.882  1.00  0.00     0.055 A 
ATOM     68  C   UNL A   1      39.748  24.501  27.267  1.00  0.00     0.041 A 
ATOM     69  F   UNL A   1      38.157  24.619  28.915  1.00  0.00    -0.206 F 
ATOM     70  C   UNL A   1      40.759  25.056  26.504  1.00  0.00     0.022 A 
BRANCH  67  71
ATOM     71  S   UNL A   1      42.462  27.142  25.814  1.00  0.00     0.124 S 
ATOM     72  O   UNL A   1      43.562  27.394  26.739  1.00  0.00    -0.237 OA
ATOM     73  O   UNL A   1      42.705  26.142  24.781  1.00  0.00    -0.237 OA
ATOM     74  O   UNL A   1      41.734  28.330  25.375  1.00  0.00    -0.744 OA
ENDBRANCH  67  71
ENDBRANCH  50  64
BRANCH  51  75
ATOM     75  C   UNL A   1      43.401  34.300  29.052  1.00  0.00     0.023 A 
ATOM     76  C   UNL A   1      43.885  33.844  27.804  1.00  0.00     0.031 A 
ATOM     77  C   UNL A   1      43.591  35.674  29.330  1.00  0.00     0.131 A 
ATOM     78  C   UNL A   1      44.527  34.742  26.912  1.00  0.00     0.055 A 
ATOM     79  C   UNL A   1      44.223  36.554  28.447  1.00  0.00     0.041 A 
ATOM     80  F   UNL A   1      43.091  36.234  30.444  1.00  0.00    -0.206 F 
ATOM     81  C   UNL A   1      44.688  36.093  27.228  1.00  0.00     0.022 A 
BRANCH  78  82
ATOM     82  S   UNL A   1      45.094  34.184  25.269  1.00  0.00     0.124 S 
ATOM     83  O   UNL A   1      45.191  32.740  25.449  1.00  0.00    -0.237 OA
ATOM     84  O   UNL A   1      44.032  34.659  24.391  1.00  0.00    -0.237 OA
ATOM     85  O   UNL A   1      46.378  34.868  25.099  1.00  0.00    -0.744 OA
ENDBRANCH  78  82
ENDBRANCH  51  75
BRANCH  63  86
ATOM     86  C   UNL A   1      41.105  30.834  33.888  1.00  0.00     0.023 A 
ATOM     87  C   UNL A   1      40.021  31.714  34.120  1.00  0.00     0.031 A 
ATOM     88  C   UNL A   1      41.960  30.560  34.970  1.00  0.00     0.131 A 
ATOM     89  C   UNL A   1      39.829  32.278  35.399  1.00  0.00     0.055 A 
ATOM     90  C   UNL A   1      41.753  31.100  36.239  1.00  0.00     0.041 A 
ATOM     91  F   UNL A   1      42.992  29.712  34.824  1.00  0.00    -0.206 F 
ATOM     92  C   UNL A   1      40.688  31.964  36.459  1.00  0.00     0.022 A 
BRANCH  89  93
ATOM     93  S   UNL A   1      38.463  33.445  35.717  1.00  0.00     0.124 S 
ATOM     94  O   UNL A   1      38.269  34.101  34.429  1.00  0.00    -0.237 OA
ATOM     95  O   UNL A   1      37.385  32.561  36.154  1.00  0.00    -0.237 OA
ATOM     96  O   UNL A   1      38.995  34.315  36.768  1.00  0.00    -0.744 OA
ENDBRANCH  89  93
ENDBRANCH  63  86
ENDBRANCH  37  38
ENDBRANCH  29  32
ENDBRANCH  27  28
ENDBRANCH  26  27
ENDBRANCH  25  26
ENDBRANCH   1  25
TORSDOF 19
ENDMDL
