MODEL 1
REMARK VINA RESULT:     -10.5      0.000      0.000
REMARK SMILES Nc1c(CC(=O)NCCCCCCNC(=O)c2ccc(-c3c4nc(c(-c5cc(S(=O)(=O)[O-])ccc5F)c5ccc([nH]5)c(-c5cc(S(=O)(=O)[O-])ccc5F)c5nc(c(-c6cc(S(=O)(=O)[O-])ccc6F)c6ccc3[nH]6)C=C5)C=C4)cc2)cccc1C(=O)c1ccc(Br)cc1
REMARK SMILES IDX 10 1 9 2 8 3 7 4 5 5 6 6 4 8 3 9 2 10 83 11 80 12 82 13
REMARK SMILES IDX 81 14 1 15 84 18 85 19 86 20 87 21 92 22 88 23 91 24 89 25
REMARK SMILES IDX 90 26 11 27 12 28 13 29 14 30 15 31 16 33 17 34 18 35 79 36
REMARK SMILES IDX 19 37 78 38 20 39 21 40 22 41 72 42 23 43 77 44 71 45 73 46
REMARK SMILES IDX 24 47 76 48 70 49 69 50 25 52 57 53 37 54 56 55 38 56 41 57
REMARK SMILES IDX 55 58 74 59 39 60 40 61 54 63 75 64 42 65 26 66 27 67 35 68
REMARK SMILES IDX 28 69 34 70 36 71 33 72 29 73 30 74 31 75 32 76 58 77 59 78
REMARK SMILES IDX 67 79 60 80 66 81 68 82 65 83 61 84 62 85 63 86 64 87 43 88
REMARK SMILES IDX 44 89 52 90 45 91 51 92 53 93 50 94 46 95 47 96 48 97 49 98
REMARK H PARENT 7 7 1 16 1 17 14 32 73 51 41 62
REMARK Flexibility Score: inf
ROOT
ATOM      1  C   UNL A   1      33.648  29.943  26.957  1.00  0.00     0.002 C 
ENDROOT
BRANCH   1   2
ATOM      2  C   UNL A   1      32.157  29.589  26.985  1.00  0.00     0.021 C 
BRANCH   2   3
ATOM      3  C   UNL A   1      31.473  29.779  25.632  1.00  0.00     0.116 C 
BRANCH   3   4
ATOM      4  N   UNL A   1      32.437  29.743  24.550  1.00  0.00    -0.356 N 
ATOM      5  C   UNL A   1      32.740  28.719  23.703  1.00  0.00     0.224 C 
ATOM      6  O   UNL A   1      33.686  28.866  22.924  1.00  0.00    -0.275 OA
ATOM      7  H   UNL A   1      32.943  30.576  24.408  1.00  0.00     0.163 HD
BRANCH   5   8
ATOM      8  C   UNL A   1      31.878  27.467  23.658  1.00  0.00     0.137 C 
BRANCH   8   9
ATOM      9  C   UNL A   1      32.436  26.267  24.404  1.00  0.00    -0.015 A 
ATOM     10  C   UNL A   1      33.349  25.348  23.812  1.00  0.00     0.046 A 
ATOM     11  C   UNL A   1      33.756  24.210  24.559  1.00  0.00     0.046 A 
ATOM     12  C   UNL A   1      31.978  26.058  25.718  1.00  0.00     0.006 A 
ATOM     13  C   UNL A   1      33.259  24.032  25.866  1.00  0.00     0.014 A 
ATOM     14  C   UNL A   1      32.384  24.947  26.442  1.00  0.00     0.001 A 
BRANCH  10  15
ATOM     15  N   UNL A   1      33.766  25.576  22.506  1.00  0.00    -0.398 N 
ATOM     16  H   UNL A   1      34.016  24.818  21.930  1.00  0.00     0.156 HD
ATOM     17  H   UNL A   1      33.810  26.496  22.156  1.00  0.00     0.156 HD
ENDBRANCH  10  15
BRANCH  11  18
ATOM     18  C   UNL A   1      34.662  23.107  24.080  1.00  0.00     0.195 C 
ATOM     19  O   UNL A   1      34.316  22.386  23.146  1.00  0.00    -0.289 OA
BRANCH  18  20
ATOM     20  C   UNL A   1      36.009  22.864  24.629  1.00  0.00     0.023 A 
ATOM     21  C   UNL A   1      36.616  23.887  25.366  1.00  0.00     0.013 A 
ATOM     22  C   UNL A   1      36.652  21.632  24.463  1.00  0.00     0.013 A 
ATOM     23  C   UNL A   1      37.832  23.652  26.011  1.00  0.00     0.016 A 
ATOM     24  C   UNL A   1      37.861  21.394  25.122  1.00  0.00     0.016 A 
ATOM     25  C   UNL A   1      38.437  22.399  25.902  1.00  0.00     0.018 A 
ATOM     26  Br  UNL A   1      40.036  22.046  26.846  1.00  0.00    -0.051 Br
ENDBRANCH  18  20
ENDBRANCH  11  18
ENDBRANCH   8   9
ENDBRANCH   5   8
ENDBRANCH   3   4
ENDBRANCH   2   3
ENDBRANCH   1   2
BRANCH   1  27
ATOM     27  C   UNL A   1      34.002  31.269  27.640  1.00  0.00     0.002 C 
BRANCH  27  28
ATOM     28  C   UNL A   1      32.886  32.316  27.624  1.00  0.00     0.021 C 
BRANCH  28  29
ATOM     29  C   UNL A   1      33.370  33.738  27.358  1.00  0.00     0.116 C 
BRANCH  29  30
ATOM     30  N   UNL A   1      32.850  34.674  28.343  1.00  0.00    -0.352 N 
ATOM     31  C   UNL A   1      33.163  34.801  29.672  1.00  0.00     0.251 C 
ATOM     32  H   UNL A   1      32.174  35.308  28.007  1.00  0.00     0.163 HD
ATOM     33  O   UNL A   1      32.443  35.478  30.405  1.00  0.00    -0.269 OA
BRANCH  31  34
ATOM     34  C   UNL A   1      34.350  34.112  30.216  1.00  0.00     0.039 A 
ATOM     35  C   UNL A   1      35.621  34.600  29.905  1.00  0.00     0.014 A 
ATOM     36  C   UNL A   1      34.210  32.981  31.025  1.00  0.00     0.014 A 
ATOM     37  C   UNL A   1      36.750  33.988  30.455  1.00  0.00     0.010 A 
ATOM     38  C   UNL A   1      35.330  32.421  31.634  1.00  0.00     0.010 A 
ATOM     39  C   UNL A   1      36.612  32.914  31.350  1.00  0.00    -0.014 A 
BRANCH  39  40
ATOM     40  C   UNL A   1      37.798  32.290  31.993  1.00  0.00     0.031 A 
ATOM     41  C   UNL A   1      38.526  31.168  31.304  1.00  0.00     0.074 A 
ATOM     42  C   UNL A   1      38.185  32.698  33.219  1.00  0.00     0.049 A 
ATOM     43  N   UNL A   1      39.534  30.449  31.729  1.00  0.00    -0.248 NA
ATOM     44  C   UNL A   1      38.036  30.785  29.972  1.00  0.00     0.031 C 
ATOM     45  C   UNL A   1      37.540  33.756  33.999  1.00  0.00     0.029 A 
ATOM     46  N   UNL A   1      39.209  32.270  34.026  1.00  0.00    -0.354 N 
ATOM     47  C   UNL A   1      39.792  29.525  30.722  1.00  0.00     0.074 A 
ATOM     48  C   UNL A   1      38.791  29.732  29.698  1.00  0.00     0.031 C 
ATOM     49  C   UNL A   1      38.201  33.914  35.156  1.00  0.00     0.029 A 
ATOM     50  C   UNL A   1      39.282  32.936  35.229  1.00  0.00     0.049 A 
ATOM     51  H   UNL A   1      39.835  31.556  33.769  1.00  0.00     0.167 HD
ATOM     52  C   UNL A   1      40.787  28.607  30.648  1.00  0.00     0.034 A 
ATOM     53  C   UNL A   1      40.113  32.767  36.276  1.00  0.00     0.034 A 
ATOM     54  C   UNL A   1      41.780  28.417  31.679  1.00  0.00     0.049 A 
ATOM     55  C   UNL A   1      41.183  31.706  36.191  1.00  0.00     0.074 A 
ATOM     56  C   UNL A   1      42.857  27.549  31.689  1.00  0.00     0.029 A 
ATOM     57  N   UNL A   1      41.810  29.097  32.891  1.00  0.00    -0.354 N 
ATOM     58  N   UNL A   1      41.443  30.872  35.210  1.00  0.00    -0.248 NA
ATOM     59  C   UNL A   1      42.074  31.572  37.349  1.00  0.00     0.031 C 
ATOM     60  C   UNL A   1      43.489  27.647  32.932  1.00  0.00     0.029 A 
ATOM     61  C   UNL A   1      42.865  28.642  33.668  1.00  0.00     0.049 A 
ATOM     62  H   UNL A   1      41.176  29.801  33.159  1.00  0.00     0.167 HD
ATOM     63  C   UNL A   1      42.553  30.138  35.623  1.00  0.00     0.074 A 
ATOM     64  C   UNL A   1      42.919  30.641  36.931  1.00  0.00     0.031 C 
ATOM     65  C   UNL A   1      43.213  29.143  34.977  1.00  0.00     0.034 A 
BRANCH  52  66
ATOM     66  C   UNL A   1      40.828  27.721  29.424  1.00  0.00     0.023 A 
ATOM     67  C   UNL A   1      41.739  27.951  28.376  1.00  0.00     0.031 A 
ATOM     68  C   UNL A   1      39.930  26.650  29.287  1.00  0.00     0.131 A 
ATOM     69  C   UNL A   1      41.677  27.174  27.210  1.00  0.00     0.055 A 
ATOM     70  C   UNL A   1      39.932  25.823  28.161  1.00  0.00     0.041 A 
ATOM     71  F   UNL A   1      39.021  26.392  30.241  1.00  0.00    -0.206 F 
ATOM     72  C   UNL A   1      40.799  26.094  27.106  1.00  0.00     0.022 A 
BRANCH  69  73
ATOM     73  S   UNL A   1      42.653  27.694  25.772  1.00  0.00     0.124 S 
ATOM     74  O   UNL A   1      44.010  27.666  26.311  1.00  0.00    -0.237 OA
ATOM     75  O   UNL A   1      42.334  26.668  24.786  1.00  0.00    -0.237 OA
ATOM     76  O   UNL A   1      42.137  29.029  25.473  1.00  0.00    -0.744 OA
ENDBRANCH  69  73
ENDBRANCH  52  66
BRANCH  53  77
ATOM     77  C   UNL A   1      39.968  33.606  37.501  1.00  0.00     0.023 A 
ATOM     78  C   UNL A   1      39.142  33.201  38.562  1.00  0.00     0.031 A 
ATOM     79  C   UNL A   1      40.615  34.850  37.610  1.00  0.00     0.131 A 
ATOM     80  C   UNL A   1      38.942  34.054  39.659  1.00  0.00     0.055 A 
ATOM     81  C   UNL A   1      40.461  35.668  38.731  1.00  0.00     0.041 A 
ATOM     82  F   UNL A   1      41.419  35.287  36.626  1.00  0.00    -0.206 F 
ATOM     83  C   UNL A   1      39.608  35.277  39.758  1.00  0.00     0.022 A 
BRANCH  80  84
ATOM     84  S   UNL A   1      37.719  33.582  40.913  1.00  0.00     0.124 S 
ATOM     85  O   UNL A   1      38.429  32.533  41.637  1.00  0.00    -0.237 OA
ATOM     86  O   UNL A   1      37.523  34.837  41.631  1.00  0.00    -0.237 OA
ATOM     87  O   UNL A   1      36.577  33.133  40.122  1.00  0.00    -0.744 OA
ENDBRANCH  80  84
ENDBRANCH  53  77
BRANCH  65  88
ATOM     88  C   UNL A   1      44.432  28.567  35.661  1.00  0.00     0.023 A 
ATOM     89  C   UNL A   1      44.333  27.537  36.612  1.00  0.00     0.031 A 
ATOM     90  C   UNL A   1      45.712  29.067  35.360  1.00  0.00     0.131 A 
ATOM     91  C   UNL A   1      45.485  27.082  37.272  1.00  0.00     0.055 A 
ATOM     92  C   UNL A   1      46.861  28.562  35.969  1.00  0.00     0.041 A 
ATOM     93  F   UNL A   1      45.867  30.054  34.463  1.00  0.00    -0.206 F 
ATOM     94  C   UNL A   1      46.751  27.573  36.941  1.00  0.00     0.022 A 
BRANCH  91  95
ATOM     95  S   UNL A   1      45.297  25.909  38.643  1.00  0.00     0.124 S 
ATOM     96  O   UNL A   1      45.049  24.656  37.937  1.00  0.00    -0.237 OA
ATOM     97  O   UNL A   1      46.584  26.013  39.322  1.00  0.00    -0.237 OA
ATOM     98  O   UNL A   1      44.157  26.435  39.391  1.00  0.00    -0.744 OA
ENDBRANCH  91  95
ENDBRANCH  65  88
ENDBRANCH  39  40
ENDBRANCH  31  34
ENDBRANCH  29  30
ENDBRANCH  28  29
ENDBRANCH  27  28
ENDBRANCH   1  27
TORSDOF 20
ENDMDL
MODEL 2
REMARK VINA RESULT:     -10.5      5.919     10.309
REMARK SMILES Nc1c(CC(=O)NCCCCCCNC(=O)c2ccc(-c3c4nc(c(-c5cc(S(=O)(=O)[O-])ccc5F)c5ccc([nH]5)c(-c5cc(S(=O)(=O)[O-])ccc5F)c5nc(c(-c6cc(S(=O)(=O)[O-])ccc6F)c6ccc3[nH]6)C=C5)C=C4)cc2)cccc1C(=O)c1ccc(Br)cc1
REMARK SMILES IDX 10 1 9 2 8 3 7 4 5 5 6 6 4 8 3 9 2 10 83 11 80 12 82 13
REMARK SMILES IDX 81 14 1 15 84 18 85 19 86 20 87 21 92 22 88 23 91 24 89 25
REMARK SMILES IDX 90 26 11 27 12 28 13 29 14 30 15 31 16 33 17 34 18 35 79 36
REMARK SMILES IDX 19 37 78 38 20 39 21 40 22 41 72 42 23 43 77 44 71 45 73 46
REMARK SMILES IDX 24 47 76 48 70 49 69 50 25 52 57 53 37 54 56 55 38 56 41 57
REMARK SMILES IDX 55 58 74 59 39 60 40 61 54 63 75 64 42 65 26 66 27 67 35 68
REMARK SMILES IDX 28 69 34 70 36 71 33 72 29 73 30 74 31 75 32 76 58 77 59 78
REMARK SMILES IDX 67 79 60 80 66 81 68 82 65 83 61 84 62 85 63 86 64 87 43 88
REMARK SMILES IDX 44 89 52 90 45 91 51 92 53 93 50 94 46 95 47 96 48 97 49 98
REMARK H PARENT 7 7 1 16 1 17 14 32 73 51 41 62
REMARK Flexibility Score: inf
ROOT
ATOM      1  C   UNL A   1      39.732  22.533  26.344  1.00  0.00     0.002 C 
ENDROOT
BRANCH   1   2
ATOM      2  C   UNL A   1      38.930  23.823  26.550  1.00  0.00     0.021 C 
BRANCH   2   3
ATOM      3  C   UNL A   1      37.465  23.688  26.134  1.00  0.00     0.116 C 
BRANCH   3   4
ATOM      4  N   UNL A   1      37.332  23.666  24.691  1.00  0.00    -0.356 N 
ATOM      5  C   UNL A   1      36.457  22.961  23.920  1.00  0.00     0.224 C 
ATOM      6  O   UNL A   1      36.596  22.999  22.695  1.00  0.00    -0.275 OA
ATOM      7  H   UNL A   1      37.963  24.240  24.200  1.00  0.00     0.163 HD
BRANCH   5   8
ATOM      8  C   UNL A   1      35.286  22.223  24.551  1.00  0.00     0.137 C 
BRANCH   8   9
ATOM      9  C   UNL A   1      33.921  22.850  24.316  1.00  0.00    -0.015 A 
ATOM     10  C   UNL A   1      33.315  23.746  25.242  1.00  0.00     0.046 A 
ATOM     11  C   UNL A   1      32.002  24.220  24.976  1.00  0.00     0.046 A 
ATOM     12  C   UNL A   1      33.235  22.473  23.147  1.00  0.00     0.006 A 
ATOM     13  C   UNL A   1      31.346  23.803  23.801  1.00  0.00     0.014 A 
ATOM     14  C   UNL A   1      31.955  22.944  22.893  1.00  0.00     0.001 A 
BRANCH  10  15
ATOM     15  N   UNL A   1      34.015  24.082  26.395  1.00  0.00    -0.398 N 
ATOM     16  H   UNL A   1      33.541  24.150  27.255  1.00  0.00     0.156 HD
ATOM     17  H   UNL A   1      34.984  24.250  26.352  1.00  0.00     0.156 HD
ENDBRANCH  10  15
BRANCH  11  18
ATOM     18  C   UNL A   1      31.184  25.120  25.863  1.00  0.00     0.195 C 
ATOM     19  O   UNL A   1      30.282  24.650  26.555  1.00  0.00    -0.289 OA
BRANCH  18  20
ATOM     20  C   UNL A   1      31.437  26.565  26.013  1.00  0.00     0.023 A 
ATOM     21  C   UNL A   1      31.447  27.356  24.859  1.00  0.00     0.013 A 
ATOM     22  C   UNL A   1      31.617  27.146  27.273  1.00  0.00     0.013 A 
ATOM     23  C   UNL A   1      31.553  28.745  24.969  1.00  0.00     0.016 A 
ATOM     24  C   UNL A   1      31.707  28.536  27.381  1.00  0.00     0.016 A 
ATOM     25  C   UNL A   1      31.661  29.328  26.232  1.00  0.00     0.018 A 
ATOM     26  Br  UNL A   1      31.714  31.210  26.392  1.00  0.00    -0.051 Br
ENDBRANCH  18  20
ENDBRANCH  11  18
ENDBRANCH   8   9
ENDBRANCH   5   8
ENDBRANCH   3   4
ENDBRANCH   2   3
ENDBRANCH   1   2
BRANCH   1  27
ATOM     27  C   UNL A   1      40.429  22.007  27.603  1.00  0.00     0.002 C 
BRANCH  27  28
ATOM     28  C   UNL A   1      41.011  20.597  27.472  1.00  0.00     0.021 C 
BRANCH  28  29
ATOM     29  C   UNL A   1      40.972  20.036  26.054  1.00  0.00     0.116 C 
BRANCH  29  30
ATOM     30  N   UNL A   1      42.272  19.525  25.645  1.00  0.00    -0.352 N 
ATOM     31  C   UNL A   1      43.435  20.207  25.398  1.00  0.00     0.251 C 
ATOM     32  H   UNL A   1      42.322  18.548  25.528  1.00  0.00     0.163 HD
ATOM     33  O   UNL A   1      44.362  19.640  24.820  1.00  0.00    -0.269 OA
BRANCH  31  34
ATOM     34  C   UNL A   1      43.561  21.619  25.810  1.00  0.00     0.039 A 
ATOM     35  C   UNL A   1      44.046  21.914  27.086  1.00  0.00     0.014 A 
ATOM     36  C   UNL A   1      43.195  22.652  24.943  1.00  0.00     0.014 A 
ATOM     37  C   UNL A   1      44.218  23.245  27.470  1.00  0.00     0.010 A 
ATOM     38  C   UNL A   1      43.440  23.975  25.296  1.00  0.00     0.010 A 
ATOM     39  C   UNL A   1      43.948  24.287  26.566  1.00  0.00    -0.014 A 
BRANCH  39  40
ATOM     40  C   UNL A   1      44.185  25.707  26.935  1.00  0.00     0.031 A 
ATOM     41  C   UNL A   1      45.555  26.308  26.778  1.00  0.00     0.074 A 
ATOM     42  C   UNL A   1      43.180  26.437  27.462  1.00  0.00     0.049 A 
ATOM     43  N   UNL A   1      45.979  27.502  27.109  1.00  0.00    -0.248 NA
ATOM     44  C   UNL A   1      46.593  25.442  26.199  1.00  0.00     0.031 C 
ATOM     45  C   UNL A   1      41.817  25.954  27.690  1.00  0.00     0.029 A 
ATOM     46  N   UNL A   1      43.149  27.735  27.904  1.00  0.00    -0.354 N 
ATOM     47  C   UNL A   1      47.332  27.526  26.786  1.00  0.00     0.074 A 
ATOM     48  C   UNL A   1      47.670  26.206  26.299  1.00  0.00     0.031 C 
ATOM     49  C   UNL A   1      41.078  26.950  28.201  1.00  0.00     0.029 A 
ATOM     50  C   UNL A   1      41.922  28.126  28.389  1.00  0.00     0.049 A 
ATOM     51  H   UNL A   1      43.931  28.332  27.876  1.00  0.00     0.167 HD
ATOM     52  C   UNL A   1      48.205  28.561  26.866  1.00  0.00     0.034 A 
ATOM     53  C   UNL A   1      41.526  29.292  28.937  1.00  0.00     0.034 A 
ATOM     54  C   UNL A   1      47.849  29.873  27.352  1.00  0.00     0.049 A 
ATOM     55  C   UNL A   1      42.527  30.414  29.060  1.00  0.00     0.074 A 
ATOM     56  C   UNL A   1      48.640  31.005  27.434  1.00  0.00     0.029 A 
ATOM     57  N   UNL A   1      46.601  30.226  27.851  1.00  0.00    -0.354 N 
ATOM     58  N   UNL A   1      43.792  30.436  28.705  1.00  0.00    -0.248 NA
ATOM     59  C   UNL A   1      42.044  31.669  29.647  1.00  0.00     0.031 C 
ATOM     60  C   UNL A   1      47.897  32.016  28.053  1.00  0.00     0.029 A 
ATOM     61  C   UNL A   1      46.613  31.546  28.276  1.00  0.00     0.049 A 
ATOM     62  H   UNL A   1      45.821  29.626  27.897  1.00  0.00     0.167 HD
ATOM     63  C   UNL A   1      44.244  31.721  28.997  1.00  0.00     0.074 A 
ATOM     64  C   UNL A   1      43.113  32.445  29.538  1.00  0.00     0.031 C 
ATOM     65  C   UNL A   1      45.480  32.255  28.826  1.00  0.00     0.034 A 
BRANCH  52  66
ATOM     66  C   UNL A   1      49.633  28.301  26.445  1.00  0.00     0.023 A 
ATOM     67  C   UNL A   1      50.060  28.502  25.119  1.00  0.00     0.031 A 
ATOM     68  C   UNL A   1      50.575  27.823  27.371  1.00  0.00     0.131 A 
ATOM     69  C   UNL A   1      51.365  28.150  24.742  1.00  0.00     0.055 A 
ATOM     70  C   UNL A   1      51.899  27.559  27.009  1.00  0.00     0.041 A 
ATOM     71  F   UNL A   1      50.225  27.590  28.646  1.00  0.00    -0.206 F 
ATOM     72  C   UNL A   1      52.296  27.706  25.683  1.00  0.00     0.022 A 
BRANCH  69  73
ATOM     73  S   UNL A   1      51.779  28.133  22.976  1.00  0.00     0.124 S 
ATOM     74  O   UNL A   1      50.876  27.102  22.471  1.00  0.00    -0.237 OA
ATOM     75  O   UNL A   1      51.480  29.501  22.568  1.00  0.00    -0.237 OA
ATOM     76  O   UNL A   1      53.195  27.772  22.960  1.00  0.00    -0.744 OA
ENDBRANCH  69  73
ENDBRANCH  52  66
BRANCH  53  77
ATOM     77  C   UNL A   1      40.127  29.463  29.425  1.00  0.00     0.023 A 
ATOM     78  C   UNL A   1      39.838  29.498  30.799  1.00  0.00     0.031 A 
ATOM     79  C   UNL A   1      39.049  29.545  28.524  1.00  0.00     0.131 A 
ATOM     80  C   UNL A   1      38.504  29.558  31.233  1.00  0.00     0.055 A 
ATOM     81  C   UNL A   1      37.728  29.666  28.961  1.00  0.00     0.041 A 
ATOM     82  F   UNL A   1      39.266  29.518  27.199  1.00  0.00    -0.206 F 
ATOM     83  C   UNL A   1      37.449  29.658  30.324  1.00  0.00     0.022 A 
BRANCH  80  84
ATOM     84  S   UNL A   1      38.162  29.405  33.007  1.00  0.00     0.124 S 
ATOM     85  O   UNL A   1      37.380  28.173  33.051  1.00  0.00    -0.237 OA
ATOM     86  O   UNL A   1      39.506  29.333  33.570  1.00  0.00    -0.237 OA
ATOM     87  O   UNL A   1      37.422  30.625  33.317  1.00  0.00    -0.744 OA
ENDBRANCH  80  84
ENDBRANCH  53  77
BRANCH  65  88
ATOM     88  C   UNL A   1      45.657  33.712  29.186  1.00  0.00     0.023 A 
ATOM     89  C   UNL A   1      45.196  34.744  28.351  1.00  0.00     0.031 A 
ATOM     90  C   UNL A   1      46.307  34.070  30.381  1.00  0.00     0.131 A 
ATOM     91  C   UNL A   1      45.444  36.083  28.692  1.00  0.00     0.055 A 
ATOM     92  C   UNL A   1      46.489  35.404  30.749  1.00  0.00     0.041 A 
ATOM     93  F   UNL A   1      46.773  33.127  31.215  1.00  0.00    -0.206 F 
ATOM     94  C   UNL A   1      46.069  36.420  29.896  1.00  0.00     0.022 A 
BRANCH  91  95
ATOM     95  S   UNL A   1      45.029  37.379  27.493  1.00  0.00     0.124 S 
ATOM     96  O   UNL A   1      43.894  36.788  26.790  1.00  0.00    -0.237 OA
ATOM     97  O   UNL A   1      44.722  38.516  28.354  1.00  0.00    -0.237 OA
ATOM     98  O   UNL A   1      46.248  37.514  26.698  1.00  0.00    -0.744 OA
ENDBRANCH  91  95
ENDBRANCH  65  88
ENDBRANCH  39  40
ENDBRANCH  31  34
ENDBRANCH  29  30
ENDBRANCH  28  29
ENDBRANCH  27  28
ENDBRANCH   1  27
TORSDOF 20
ENDMDL
MODEL 3
REMARK VINA RESULT:     -10.4      2.060      2.637
REMARK SMILES Nc1c(CC(=O)NCCCCCCNC(=O)c2ccc(-c3c4nc(c(-c5cc(S(=O)(=O)[O-])ccc5F)c5ccc([nH]5)c(-c5cc(S(=O)(=O)[O-])ccc5F)c5nc(c(-c6cc(S(=O)(=O)[O-])ccc6F)c6ccc3[nH]6)C=C5)C=C4)cc2)cccc1C(=O)c1ccc(Br)cc1
REMARK SMILES IDX 10 1 9 2 8 3 7 4 5 5 6 6 4 8 3 9 2 10 83 11 80 12 82 13
REMARK SMILES IDX 81 14 1 15 84 18 85 19 86 20 87 21 92 22 88 23 91 24 89 25
REMARK SMILES IDX 90 26 11 27 12 28 13 29 14 30 15 31 16 33 17 34 18 35 79 36
REMARK SMILES IDX 19 37 78 38 20 39 21 40 22 41 72 42 23 43 77 44 71 45 73 46
REMARK SMILES IDX 24 47 76 48 70 49 69 50 25 52 57 53 37 54 56 55 38 56 41 57
REMARK SMILES IDX 55 58 74 59 39 60 40 61 54 63 75 64 42 65 26 66 27 67 35 68
REMARK SMILES IDX 28 69 34 70 36 71 33 72 29 73 30 74 31 75 32 76 58 77 59 78
REMARK SMILES IDX 67 79 60 80 66 81 68 82 65 83 61 84 62 85 63 86 64 87 43 88
REMARK SMILES IDX 44 89 52 90 45 91 51 92 53 93 50 94 46 95 47 96 48 97 49 98
REMARK H PARENT 7 7 1 16 1 17 14 32 73 51 41 62
REMARK Flexibility Score: inf
ROOT
ATOM      1  C   UNL A   1      31.711  29.653  25.361  1.00  0.00     0.002 C 
ENDROOT
BRANCH   1   2
ATOM      2  C   UNL A   1      33.207  29.527  25.049  1.00  0.00     0.021 C 
BRANCH   2   3
ATOM      3  C   UNL A   1      33.742  28.110  25.254  1.00  0.00     0.116 C 
BRANCH   3   4
ATOM      4  N   UNL A   1      33.968  27.449  23.984  1.00  0.00    -0.356 N 
ATOM      5  C   UNL A   1      33.618  26.189  23.598  1.00  0.00     0.224 C 
ATOM      6  O   UNL A   1      34.017  25.783  22.503  1.00  0.00    -0.275 OA
ATOM      7  H   UNL A   1      34.440  27.985  23.307  1.00  0.00     0.163 HD
BRANCH   5   8
ATOM      8  C   UNL A   1      32.687  25.345  24.453  1.00  0.00     0.137 C 
BRANCH   8   9
ATOM      9  C   UNL A   1      32.650  23.866  24.108  1.00  0.00    -0.015 A 
ATOM     10  C   UNL A   1      33.522  22.913  24.705  1.00  0.00     0.046 A 
ATOM     11  C   UNL A   1      33.469  21.564  24.262  1.00  0.00     0.046 A 
ATOM     12  C   UNL A   1      31.733  23.460  23.120  1.00  0.00     0.006 A 
ATOM     13  C   UNL A   1      32.547  21.205  23.258  1.00  0.00     0.014 A 
ATOM     14  C   UNL A   1      31.684  22.140  22.696  1.00  0.00     0.001 A 
BRANCH  10  15
ATOM     15  N   UNL A   1      34.427  23.352  25.665  1.00  0.00    -0.398 N 
ATOM     16  H   UNL A   1      34.878  22.701  26.249  1.00  0.00     0.156 HD
ATOM     17  H   UNL A   1      34.617  24.313  25.759  1.00  0.00     0.156 HD
ENDBRANCH  10  15
BRANCH  11  18
ATOM     18  C   UNL A   1      34.349  20.436  24.732  1.00  0.00     0.195 C 
ATOM     19  O   UNL A   1      35.498  20.665  25.106  1.00  0.00    -0.289 OA
BRANCH  18  20
ATOM     20  C   UNL A   1      33.893  19.038  24.841  1.00  0.00     0.023 A 
ATOM     21  C   UNL A   1      34.666  18.043  24.231  1.00  0.00     0.013 A 
ATOM     22  C   UNL A   1      32.748  18.699  25.571  1.00  0.00     0.013 A 
ATOM     23  C   UNL A   1      34.341  16.697  24.419  1.00  0.00     0.016 A 
ATOM     24  C   UNL A   1      32.436  17.352  25.771  1.00  0.00     0.016 A 
ATOM     25  C   UNL A   1      33.240  16.360  25.207  1.00  0.00     0.018 A 
ATOM     26  Br  UNL A   1      32.850  14.541  25.539  1.00  0.00    -0.051 Br
ENDBRANCH  18  20
ENDBRANCH  11  18
ENDBRANCH   8   9
ENDBRANCH   5   8
ENDBRANCH   3   4
ENDBRANCH   2   3
ENDBRANCH   1   2
BRANCH   1  27
ATOM     27  C   UNL A   1      31.264  31.057  25.784  1.00  0.00     0.002 C 
BRANCH  27  28
ATOM     28  C   UNL A   1      31.707  31.475  27.188  1.00  0.00     0.021 C 
BRANCH  28  29
ATOM     29  C   UNL A   1      33.008  32.270  27.220  1.00  0.00     0.116 C 
BRANCH  29  30
ATOM     30  N   UNL A   1      32.775  33.666  27.559  1.00  0.00    -0.352 N 
ATOM     31  C   UNL A   1      33.294  34.409  28.587  1.00  0.00     0.251 C 
ATOM     32  H   UNL A   1      32.154  34.146  26.963  1.00  0.00     0.163 HD
ATOM     33  O   UNL A   1      32.792  35.498  28.865  1.00  0.00    -0.269 OA
BRANCH  31  34
ATOM     34  C   UNL A   1      34.439  33.892  29.363  1.00  0.00     0.039 A 
ATOM     35  C   UNL A   1      34.215  32.911  30.332  1.00  0.00     0.014 A 
ATOM     36  C   UNL A   1      35.730  34.379  29.142  1.00  0.00     0.014 A 
ATOM     37  C   UNL A   1      35.296  32.378  31.037  1.00  0.00     0.010 A 
ATOM     38  C   UNL A   1      36.814  33.792  29.788  1.00  0.00     0.010 A 
ATOM     39  C   UNL A   1      36.608  32.789  30.748  1.00  0.00    -0.014 A 
BRANCH  39  40
ATOM     40  C   UNL A   1      37.775  32.187  31.444  1.00  0.00     0.031 A 
ATOM     41  C   UNL A   1      38.552  31.077  30.791  1.00  0.00     0.074 A 
ATOM     42  C   UNL A   1      38.099  32.603  32.685  1.00  0.00     0.049 A 
ATOM     43  N   UNL A   1      39.552  30.376  31.262  1.00  0.00    -0.248 NA
ATOM     44  C   UNL A   1      38.128  30.683  29.439  1.00  0.00     0.031 C 
ATOM     45  C   UNL A   1      37.402  33.651  33.434  1.00  0.00     0.029 A 
ATOM     46  N   UNL A   1      39.093  32.194  33.538  1.00  0.00    -0.354 N 
ATOM     47  C   UNL A   1      39.871  29.455  30.270  1.00  0.00     0.074 A 
ATOM     48  C   UNL A   1      38.913  29.643  29.201  1.00  0.00     0.031 C 
ATOM     49  C   UNL A   1      38.007  33.821  34.619  1.00  0.00     0.029 A 
ATOM     50  C   UNL A   1      39.100  32.863  34.742  1.00  0.00     0.049 A 
ATOM     51  H   UNL A   1      39.742  31.490  33.311  1.00  0.00     0.167 HD
ATOM     52  C   UNL A   1      40.884  28.554  30.242  1.00  0.00     0.034 A 
ATOM     53  C   UNL A   1      39.887  32.710  35.826  1.00  0.00     0.034 A 
ATOM     54  C   UNL A   1      41.832  28.383  31.317  1.00  0.00     0.049 A 
ATOM     55  C   UNL A   1      40.977  31.668  35.790  1.00  0.00     0.074 A 
ATOM     56  C   UNL A   1      42.923  27.534  31.377  1.00  0.00     0.029 A 
ATOM     57  N   UNL A   1      41.797  29.066  32.527  1.00  0.00    -0.354 N 
ATOM     58  N   UNL A   1      41.296  30.837  34.825  1.00  0.00    -0.248 NA
ATOM     59  C   UNL A   1      41.818  31.551  36.987  1.00  0.00     0.031 C 
ATOM     60  C   UNL A   1      43.497  27.644  32.647  1.00  0.00     0.029 A 
ATOM     61  C   UNL A   1      42.823  28.629  33.352  1.00  0.00     0.049 A 
ATOM     62  H   UNL A   1      41.139  29.759  32.765  1.00  0.00     0.167 HD
ATOM     63  C   UNL A   1      42.399  30.123  35.288  1.00  0.00     0.074 A 
ATOM     64  C   UNL A   1      42.697  30.633  36.610  1.00  0.00     0.031 C 
ATOM     65  C   UNL A   1      43.104  29.138  34.674  1.00  0.00     0.034 A 
BRANCH  52  66
ATOM     66  C   UNL A   1      40.995  27.668  29.023  1.00  0.00     0.023 A 
ATOM     67  C   UNL A   1      41.989  27.873  28.049  1.00  0.00     0.031 A 
ATOM     68  C   UNL A   1      40.081  26.621  28.816  1.00  0.00     0.131 A 
ATOM     69  C   UNL A   1      41.996  27.099  26.879  1.00  0.00     0.055 A 
ATOM     70  C   UNL A   1      40.148  25.795  27.691  1.00  0.00     0.041 A 
ATOM     71  F   UNL A   1      39.095  26.388  29.697  1.00  0.00    -0.206 F 
ATOM     72  C   UNL A   1      41.099  26.042  26.706  1.00  0.00     0.022 A 
BRANCH  69  73
ATOM     73  S   UNL A   1      43.092  27.593  25.521  1.00  0.00     0.124 S 
ATOM     74  O   UNL A   1      42.163  28.282  24.629  1.00  0.00    -0.237 OA
ATOM     75  O   UNL A   1      44.073  28.434  26.197  1.00  0.00    -0.237 OA
ATOM     76  O   UNL A   1      43.603  26.321  25.014  1.00  0.00    -0.744 OA
ENDBRANCH  69  73
ENDBRANCH  52  66
BRANCH  53  77
ATOM     77  C   UNL A   1      39.672  33.547  37.041  1.00  0.00     0.023 A 
ATOM     78  C   UNL A   1      38.957  33.053  38.144  1.00  0.00     0.031 A 
ATOM     79  C   UNL A   1      40.138  34.874  37.100  1.00  0.00     0.131 A 
ATOM     80  C   UNL A   1      38.681  33.894  39.233  1.00  0.00     0.055 A 
ATOM     81  C   UNL A   1      39.914  35.687  38.212  1.00  0.00     0.041 A 
ATOM     82  F   UNL A   1      40.830  35.398  36.075  1.00  0.00    -0.206 F 
ATOM     83  C   UNL A   1      39.168  35.202  39.282  1.00  0.00     0.022 A 
BRANCH  80  84
ATOM     84  S   UNL A   1      37.592  33.282  40.548  1.00  0.00     0.124 S 
ATOM     85  O   UNL A   1      37.269  34.514  41.260  1.00  0.00    -0.237 OA
ATOM     86  O   UNL A   1      36.505  32.679  39.784  1.00  0.00    -0.237 OA
ATOM     87  O   UNL A   1      38.436  32.341  41.278  1.00  0.00    -0.744 OA
ENDBRANCH  80  84
ENDBRANCH  53  77
BRANCH  65  88
ATOM     88  C   UNL A   1      44.301  28.585  35.413  1.00  0.00     0.023 A 
ATOM     89  C   UNL A   1      44.174  27.566  36.373  1.00  0.00     0.031 A 
ATOM     90  C   UNL A   1      45.586  29.094  35.156  1.00  0.00     0.131 A 
ATOM     91  C   UNL A   1      45.304  27.132  37.084  1.00  0.00     0.055 A 
ATOM     92  C   UNL A   1      46.716  28.609  35.816  1.00  0.00     0.041 A 
ATOM     93  F   UNL A   1      45.767  30.071  34.253  1.00  0.00    -0.206 F 
ATOM     94  C   UNL A   1      46.577  27.632  36.797  1.00  0.00     0.022 A 
BRANCH  91  95
ATOM     95  S   UNL A   1      45.075  25.975  38.462  1.00  0.00     0.124 S 
ATOM     96  O   UNL A   1      43.916  26.543  39.144  1.00  0.00    -0.237 OA
ATOM     97  O   UNL A   1      44.851  24.708  37.774  1.00  0.00    -0.237 OA
ATOM     98  O   UNL A   1      46.333  26.066  39.200  1.00  0.00    -0.744 OA
ENDBRANCH  91  95
ENDBRANCH  65  88
ENDBRANCH  39  40
ENDBRANCH  31  34
ENDBRANCH  29  30
ENDBRANCH  28  29
ENDBRANCH  27  28
ENDBRANCH   1  27
TORSDOF 20
ENDMDL
