MODEL 1
REMARK VINA RESULT:     -11.5      0.000      0.000
REMARK SMILES Cc1ccc(S(=O)(=O)Nc2cc(C(=O)NCCCCCCNC(=O)c3ccc(-c4c5nc(c(-c6cc(S(=O)(=O)[O-])ccc6F)c6ccc([nH]6)c(-c6cc(S(=O)(=O)[O-])ccc6F)c6nc(c(-c7cc(S(=O)(=O)[O-])ccc7F)c7ccc4[nH]7)C=C6)C=C5)cc3)cnc2N2CCCC2)c(C)c1
REMARK SMILES IDX 18 1 17 2 16 3 15 4 13 5 14 6 12 8 10 9 11 10 90 11 89 12
REMARK SMILES IDX 88 13 9 14 6 16 7 17 8 18 5 19 1 20 2 21 3 22 98 23 4 24
REMARK SMILES IDX 96 25 97 26 91 27 92 28 95 29 93 30 94 31 19 32 20 33 21 34
REMARK SMILES IDX 22 35 23 36 24 38 25 39 26 40 87 41 27 42 86 43 28 44 29 45
REMARK SMILES IDX 30 46 80 47 31 48 85 49 79 50 81 51 32 52 84 53 78 54 77 55
REMARK SMILES IDX 33 57 65 58 45 59 64 60 46 61 49 62 63 63 82 64 47 65 48 66
REMARK SMILES IDX 62 68 83 69 50 70 34 71 35 72 43 73 36 74 42 75 44 76 41 77
REMARK SMILES IDX 37 78 38 79 39 80 40 81 66 82 67 83 75 84 68 85 74 86 76 87
REMARK SMILES IDX 73 88 69 89 70 90 71 91 72 92 51 93 52 94 60 95 53 96 59 97
REMARK SMILES IDX 61 98 58 99 54 100 55 101 56 102 57 103
REMARK H PARENT 15 7 9 15 22 37 81 56 49 67
REMARK Flexibility Score: inf
ROOT
ATOM      1  C   UNL A   1      35.375  32.814  28.985  1.00  0.00     0.002 C 
ENDROOT
BRANCH   1   2
ATOM      2  C   UNL A   1      35.687  31.686  27.994  1.00  0.00     0.021 C 
BRANCH   2   3
ATOM      3  C   UNL A   1      34.551  30.669  27.879  1.00  0.00     0.116 C 
BRANCH   3   4
ATOM      4  N   UNL A   1      33.345  31.312  27.382  1.00  0.00    -0.352 N 
ATOM      5  C   UNL A   1      32.215  30.831  26.776  1.00  0.00     0.252 C 
ATOM      6  O   UNL A   1      31.335  31.641  26.481  1.00  0.00    -0.269 OA
ATOM      7  H   UNL A   1      33.340  32.289  27.506  1.00  0.00     0.163 HD
BRANCH   5   8
ATOM      8  C   UNL A   1      31.964  29.392  26.526  1.00  0.00     0.060 A 
ATOM      9  C   UNL A   1      32.002  27.357  25.263  1.00  0.00     0.092 A 
ATOM     10  C   UNL A   1      32.060  28.748  25.299  1.00  0.00     0.046 A 
ATOM     11  C   UNL A   1      31.625  26.634  26.419  1.00  0.00     0.153 A 
ATOM     12  N   UNL A   1      31.408  27.265  27.588  1.00  0.00    -0.236 NA
ATOM     13  C   UNL A   1      31.620  28.608  27.626  1.00  0.00     0.127 A 
BRANCH   9  14
ATOM     14  N   UNL A   1      32.331  26.624  24.090  1.00  0.00    -0.276 N 
ATOM     15  H   UNL A   1      32.835  25.787  24.208  1.00  0.00     0.180 HD
BRANCH  14  16
ATOM     16  S   UNL A   1      31.931  27.060  22.529  1.00  0.00     0.262 S 
ATOM     17  O   UNL A   1      31.477  25.844  21.879  1.00  0.00    -0.201 OA
ATOM     18  O   UNL A   1      33.081  27.797  22.056  1.00  0.00    -0.201 OA
BRANCH  16  19
ATOM     19  C   UNL A   1      30.537  28.192  22.466  1.00  0.00     0.090 A 
ATOM     20  C   UNL A   1      27.651  31.203  23.567  1.00  0.00     0.044 C 
ATOM     21  C   UNL A   1      28.617  30.149  23.111  1.00  0.00    -0.051 A 
ATOM     22  C   UNL A   1      29.710  30.470  22.304  1.00  0.00     0.005 A 
ATOM     23  C   UNL A   1      28.408  28.812  23.453  1.00  0.00     0.008 A 
ATOM     24  C   UNL A   1      30.654  29.492  21.963  1.00  0.00     0.023 A 
ATOM     25  C   UNL A   1      29.349  27.818  23.128  1.00  0.00    -0.030 A 
ATOM     26  C   UNL A   1      28.998  26.400  23.501  1.00  0.00     0.046 C 
ENDBRANCH  16  19
ENDBRANCH  14  16
ENDBRANCH   9  14
BRANCH  11  27
ATOM     27  N   UNL A   1      31.408  25.284  26.371  1.00  0.00    -0.355 N 
ATOM     28  C   UNL A   1      30.155  24.586  26.166  1.00  0.00     0.118 C 
ATOM     29  C   UNL A   1      32.537  24.378  26.502  1.00  0.00     0.118 C 
ATOM     30  C   UNL A   1      30.429  23.263  26.876  1.00  0.00     0.023 C 
ATOM     31  C   UNL A   1      31.888  22.990  26.526  1.00  0.00     0.023 C 
ENDBRANCH  11  27
ENDBRANCH   5   8
ENDBRANCH   3   4
ENDBRANCH   2   3
ENDBRANCH   1   2
BRANCH   1  32
ATOM     32  C   UNL A   1      35.617  34.228  28.440  1.00  0.00     0.002 C 
BRANCH  32  33
ATOM     33  C   UNL A   1      34.397  35.155  28.460  1.00  0.00     0.021 C 
BRANCH  33  34
ATOM     34  C   UNL A   1      33.172  34.585  29.172  1.00  0.00     0.116 C 
BRANCH  34  35
ATOM     35  N   UNL A   1      32.715  35.460  30.240  1.00  0.00    -0.352 N 
ATOM     36  C   UNL A   1      33.111  35.508  31.554  1.00  0.00     0.251 C 
ATOM     37  H   UNL A   1      32.023  36.112  29.984  1.00  0.00     0.163 HD
ATOM     38  O   UNL A   1      32.462  36.170  32.359  1.00  0.00    -0.269 OA
BRANCH  36  39
ATOM     39  C   UNL A   1      34.300  34.748  31.998  1.00  0.00     0.039 A 
ATOM     40  C   UNL A   1      34.130  33.445  32.473  1.00  0.00     0.014 A 
ATOM     41  C   UNL A   1      35.573  35.328  31.972  1.00  0.00     0.014 A 
ATOM     42  C   UNL A   1      35.243  32.703  32.877  1.00  0.00     0.010 A 
ATOM     43  C   UNL A   1      36.686  34.569  32.325  1.00  0.00     0.010 A 
ATOM     44  C   UNL A   1      36.531  33.253  32.785  1.00  0.00    -0.014 A 
BRANCH  44  45
ATOM     45  C   UNL A   1      37.729  32.472  33.181  1.00  0.00     0.031 A 
ATOM     46  C   UNL A   1      38.422  32.763  34.482  1.00  0.00     0.074 A 
ATOM     47  C   UNL A   1      38.237  31.556  32.334  1.00  0.00     0.049 A 
ATOM     48  N   UNL A   1      39.525  32.254  34.968  1.00  0.00    -0.248 NA
ATOM     49  C   UNL A   1      37.807  33.793  35.331  1.00  0.00     0.031 C 
ATOM     50  C   UNL A   1      37.685  31.227  31.019  1.00  0.00     0.029 A 
ATOM     51  N   UNL A   1      39.343  30.754  32.442  1.00  0.00    -0.354 N 
ATOM     52  C   UNL A   1      39.747  32.914  36.172  1.00  0.00     0.074 A 
ATOM     53  C   UNL A   1      38.693  33.899  36.308  1.00  0.00     0.031 C 
ATOM     54  C   UNL A   1      38.457  30.292  30.441  1.00  0.00     0.029 A 
ATOM     55  C   UNL A   1      39.570  29.978  31.332  1.00  0.00     0.049 A 
ATOM     56  H   UNL A   1      39.920  30.737  33.240  1.00  0.00     0.167 HD
ATOM     57  C   UNL A   1      40.728  32.705  37.087  1.00  0.00     0.034 A 
ATOM     58  C   UNL A   1      40.570  29.119  31.055  1.00  0.00     0.034 A 
ATOM     59  C   UNL A   1      41.766  31.713  36.938  1.00  0.00     0.049 A 
ATOM     60  C   UNL A   1      41.643  28.890  32.084  1.00  0.00     0.074 A 
ATOM     61  C   UNL A   1      42.765  31.362  37.830  1.00  0.00     0.029 A 
ATOM     62  N   UNL A   1      41.947  30.919  35.811  1.00  0.00    -0.354 N 
ATOM     63  N   UNL A   1      41.807  29.473  33.248  1.00  0.00    -0.248 NA
ATOM     64  C   UNL A   1      42.656  27.876  31.767  1.00  0.00     0.031 C 
ATOM     65  C   UNL A   1      43.579  30.399  37.222  1.00  0.00     0.029 A 
ATOM     66  C   UNL A   1      43.056  30.102  35.974  1.00  0.00     0.049 A 
ATOM     67  H   UNL A   1      41.372  30.935  35.013  1.00  0.00     0.167 HD
ATOM     68  C   UNL A   1      42.935  28.885  33.811  1.00  0.00     0.074 A 
ATOM     69  C   UNL A   1      43.402  27.893  32.862  1.00  0.00     0.031 C 
ATOM     70  C   UNL A   1      43.526  29.137  35.007  1.00  0.00     0.034 A 
BRANCH  57  71
ATOM     71  C   UNL A   1      40.727  33.596  38.308  1.00  0.00     0.023 A 
ATOM     72  C   UNL A   1      39.971  33.278  39.451  1.00  0.00     0.031 A 
ATOM     73  C   UNL A   1      41.435  34.810  38.307  1.00  0.00     0.131 A 
ATOM     74  C   UNL A   1      39.857  34.205  40.498  1.00  0.00     0.055 A 
ATOM     75  C   UNL A   1      41.389  35.691  39.391  1.00  0.00     0.041 A 
ATOM     76  F   UNL A   1      42.162  35.177  37.241  1.00  0.00    -0.206 F 
ATOM     77  C   UNL A   1      40.580  35.400  40.486  1.00  0.00     0.022 A 
BRANCH  74  78
ATOM     78  S   UNL A   1      38.616  33.905  41.785  1.00  0.00     0.124 S 
ATOM     79  O   UNL A   1      38.224  32.525  41.505  1.00  0.00    -0.237 OA
ATOM     80  O   UNL A   1      39.375  34.118  43.012  1.00  0.00    -0.237 OA
ATOM     81  O   UNL A   1      37.585  34.904  41.506  1.00  0.00    -0.744 OA
ENDBRANCH  74  78
ENDBRANCH  57  71
BRANCH  58  82
ATOM     82  C   UNL A   1      40.606  28.426  29.740  1.00  0.00     0.023 A 
ATOM     83  C   UNL A   1      41.528  28.796  28.751  1.00  0.00     0.031 A 
ATOM     84  C   UNL A   1      39.716  27.374  29.462  1.00  0.00     0.131 A 
ATOM     85  C   UNL A   1      41.527  28.131  27.515  1.00  0.00     0.055 A 
ATOM     86  C   UNL A   1      39.740  26.694  28.244  1.00  0.00     0.041 A 
ATOM     87  F   UNL A   1      38.827  26.976  30.386  1.00  0.00    -0.206 F 
ATOM     88  C   UNL A   1      40.646  27.077  27.259  1.00  0.00     0.022 A 
BRANCH  85  89
ATOM     89  S   UNL A   1      42.686  28.679  26.232  1.00  0.00     0.124 S 
ATOM     90  O   UNL A   1      42.988  30.038  26.663  1.00  0.00    -0.237 OA
ATOM     91  O   UNL A   1      43.767  27.708  26.363  1.00  0.00    -0.237 OA
ATOM     92  O   UNL A   1      41.904  28.571  25.001  1.00  0.00    -0.744 OA
ENDBRANCH  85  89
ENDBRANCH  58  82
BRANCH  70  93
ATOM     93  C   UNL A   1      44.730  28.300  35.357  1.00  0.00     0.023 A 
ATOM     94  C   UNL A   1      44.603  27.070  36.026  1.00  0.00     0.031 A 
ATOM     95  C   UNL A   1      46.021  28.748  35.029  1.00  0.00     0.131 A 
ATOM     96  C   UNL A   1      45.752  26.353  36.390  1.00  0.00     0.055 A 
ATOM     97  C   UNL A   1      47.158  28.006  35.350  1.00  0.00     0.041 A 
ATOM     98  F   UNL A   1      46.197  29.916  34.392  1.00  0.00    -0.206 F 
ATOM     99  C   UNL A   1      47.028  26.806  36.044  1.00  0.00     0.022 A 
BRANCH  96 100
ATOM    100  S   UNL A   1      45.563  24.852  37.393  1.00  0.00     0.124 S 
ATOM    101  O   UNL A   1      44.703  24.030  36.549  1.00  0.00    -0.237 OA
ATOM    102  O   UNL A   1      46.942  24.396  37.536  1.00  0.00    -0.237 OA
ATOM    103  O   UNL A   1      44.941  25.339  38.624  1.00  0.00    -0.744 OA
ENDBRANCH  96 100
ENDBRANCH  70  93
ENDBRANCH  44  45
ENDBRANCH  36  39
ENDBRANCH  34  35
ENDBRANCH  33  34
ENDBRANCH  32  33
ENDBRANCH   1  32
TORSDOF 20
ENDMDL
MODEL 2
REMARK VINA RESULT:     -10.6      1.681      2.055
REMARK SMILES Cc1ccc(S(=O)(=O)Nc2cc(C(=O)NCCCCCCNC(=O)c3ccc(-c4c5nc(c(-c6cc(S(=O)(=O)[O-])ccc6F)c6ccc([nH]6)c(-c6cc(S(=O)(=O)[O-])ccc6F)c6nc(c(-c7cc(S(=O)(=O)[O-])ccc7F)c7ccc4[nH]7)C=C6)C=C5)cc3)cnc2N2CCCC2)c(C)c1
REMARK SMILES IDX 18 1 17 2 16 3 15 4 13 5 14 6 12 8 10 9 11 10 90 11 89 12
REMARK SMILES IDX 88 13 9 14 6 16 7 17 8 18 5 19 1 20 2 21 3 22 98 23 4 24
REMARK SMILES IDX 96 25 97 26 91 27 92 28 95 29 93 30 94 31 19 32 20 33 21 34
REMARK SMILES IDX 22 35 23 36 24 38 25 39 26 40 87 41 27 42 86 43 28 44 29 45
REMARK SMILES IDX 30 46 80 47 31 48 85 49 79 50 81 51 32 52 84 53 78 54 77 55
REMARK SMILES IDX 33 57 65 58 45 59 64 60 46 61 49 62 63 63 82 64 47 65 48 66
REMARK SMILES IDX 62 68 83 69 50 70 34 71 35 72 43 73 36 74 42 75 44 76 41 77
REMARK SMILES IDX 37 78 38 79 39 80 40 81 66 82 67 83 75 84 68 85 74 86 76 87
REMARK SMILES IDX 73 88 69 89 70 90 71 91 72 92 51 93 52 94 60 95 53 96 59 97
REMARK SMILES IDX 61 98 58 99 54 100 55 101 56 102 57 103
REMARK H PARENT 15 7 9 15 22 37 81 56 49 67
REMARK Flexibility Score: inf
ROOT
ATOM      1  C   UNL A   1      35.874  32.516  29.063  1.00  0.00     0.002 C 
ENDROOT
BRANCH   1   2
ATOM      2  C   UNL A   1      35.829  31.641  27.804  1.00  0.00     0.021 C 
BRANCH   2   3
ATOM      3  C   UNL A   1      34.675  30.639  27.822  1.00  0.00     0.116 C 
BRANCH   3   4
ATOM      4  N   UNL A   1      33.447  31.276  27.373  1.00  0.00    -0.352 N 
ATOM      5  C   UNL A   1      32.301  30.790  26.800  1.00  0.00     0.252 C 
ATOM      6  O   UNL A   1      31.404  31.594  26.545  1.00  0.00    -0.269 OA
ATOM      7  H   UNL A   1      33.436  32.251  27.508  1.00  0.00     0.163 HD
BRANCH   5   8
ATOM      8  C   UNL A   1      32.055  29.351  26.543  1.00  0.00     0.060 A 
ATOM      9  C   UNL A   1      32.151  27.310  25.293  1.00  0.00     0.092 A 
ATOM     10  C   UNL A   1      32.216  28.701  25.326  1.00  0.00     0.046 A 
ATOM     11  C   UNL A   1      31.705  26.595  26.429  1.00  0.00     0.153 A 
ATOM     12  N   UNL A   1      31.428  27.233  27.582  1.00  0.00    -0.236 NA
ATOM     13  C   UNL A   1      31.646  28.575  27.626  1.00  0.00     0.127 A 
BRANCH   9  14
ATOM     14  N   UNL A   1      32.540  26.570  24.143  1.00  0.00    -0.276 N 
ATOM     15  H   UNL A   1      33.361  26.032  24.210  1.00  0.00     0.180 HD
BRANCH  14  16
ATOM     16  S   UNL A   1      31.721  26.533  22.689  1.00  0.00     0.262 S 
ATOM     17  O   UNL A   1      30.991  25.279  22.675  1.00  0.00    -0.201 OA
ATOM     18  O   UNL A   1      32.730  26.843  21.701  1.00  0.00    -0.201 OA
BRANCH  16  19
ATOM     19  C   UNL A   1      30.474  27.822  22.568  1.00  0.00     0.090 A 
ATOM     20  C   UNL A   1      28.013  31.241  23.494  1.00  0.00     0.044 C 
ATOM     21  C   UNL A   1      28.828  30.044  23.100  1.00  0.00    -0.051 A 
ATOM     22  C   UNL A   1      29.926  30.165  22.247  1.00  0.00     0.005 A 
ATOM     23  C   UNL A   1      28.469  28.772  23.551  1.00  0.00     0.008 A 
ATOM     24  C   UNL A   1      30.733  29.055  21.963  1.00  0.00     0.023 A 
ATOM     25  C   UNL A   1      29.271  27.648  23.284  1.00  0.00    -0.030 A 
ATOM     26  C   UNL A   1      28.762  26.317  23.775  1.00  0.00     0.046 C 
ENDBRANCH  16  19
ENDBRANCH  14  16
ENDBRANCH   9  14
BRANCH  11  27
ATOM     27  N   UNL A   1      31.484  25.246  26.375  1.00  0.00    -0.355 N 
ATOM     28  C   UNL A   1      30.235  24.555  26.127  1.00  0.00     0.118 C 
ATOM     29  C   UNL A   1      32.602  24.334  26.546  1.00  0.00     0.118 C 
ATOM     30  C   UNL A   1      30.476  23.231  26.848  1.00  0.00     0.023 C 
ATOM     31  C   UNL A   1      31.945  22.949  26.549  1.00  0.00     0.023 C 
ENDBRANCH  11  27
ENDBRANCH   5   8
ENDBRANCH   3   4
ENDBRANCH   2   3
ENDBRANCH   1   2
BRANCH   1  32
ATOM     32  C   UNL A   1      36.088  34.011  28.794  1.00  0.00     0.002 C 
BRANCH  32  33
ATOM     33  C   UNL A   1      34.813  34.816  28.521  1.00  0.00     0.021 C 
BRANCH  33  34
ATOM     34  C   UNL A   1      33.522  34.146  28.986  1.00  0.00     0.116 C 
BRANCH  34  35
ATOM     35  N   UNL A   1      32.798  34.974  29.937  1.00  0.00    -0.352 N 
ATOM     36  C   UNL A   1      32.998  35.126  31.287  1.00  0.00     0.251 C 
ATOM     37  H   UNL A   1      32.059  35.503  29.558  1.00  0.00     0.163 HD
ATOM     38  O   UNL A   1      32.155  35.707  31.963  1.00  0.00    -0.269 OA
BRANCH  36  39
ATOM     39  C   UNL A   1      34.215  34.574  31.922  1.00  0.00     0.039 A 
ATOM     40  C   UNL A   1      34.220  33.234  32.319  1.00  0.00     0.014 A 
ATOM     41  C   UNL A   1      35.334  35.381  32.151  1.00  0.00     0.014 A 
ATOM     42  C   UNL A   1      35.367  32.687  32.901  1.00  0.00     0.010 A 
ATOM     43  C   UNL A   1      36.494  34.821  32.682  1.00  0.00     0.010 A 
ATOM     44  C   UNL A   1      36.519  33.472  33.067  1.00  0.00    -0.014 A 
BRANCH  44  45
ATOM     45  C   UNL A   1      37.757  32.904  33.656  1.00  0.00     0.031 A 
ATOM     46  C   UNL A   1      38.109  33.190  35.089  1.00  0.00     0.074 A 
ATOM     47  C   UNL A   1      38.600  32.197  32.879  1.00  0.00     0.049 A 
ATOM     48  N   UNL A   1      39.181  32.859  35.762  1.00  0.00    -0.248 NA
ATOM     49  C   UNL A   1      37.139  33.987  35.851  1.00  0.00     0.031 C 
ATOM     50  C   UNL A   1      38.393  31.903  31.460  1.00  0.00     0.029 A 
ATOM     51  N   UNL A   1      39.809  31.620  33.168  1.00  0.00    -0.354 N 
ATOM     52  C   UNL A   1      39.023  33.422  37.024  1.00  0.00     0.074 A 
ATOM     53  C   UNL A   1      37.778  34.162  36.996  1.00  0.00     0.031 C 
ATOM     54  C   UNL A   1      39.442  31.202  31.001  1.00  0.00     0.029 A 
ATOM     55  C   UNL A   1      40.404  31.021  32.084  1.00  0.00     0.049 A 
ATOM     56  H   UNL A   1      40.212  31.634  34.065  1.00  0.00     0.167 HD
ATOM     57  C   UNL A   1      39.831  33.315  38.109  1.00  0.00     0.034 A 
ATOM     58  C   UNL A   1      41.598  30.408  31.970  1.00  0.00     0.034 A 
ATOM     59  C   UNL A   1      41.065  32.566  38.120  1.00  0.00     0.049 A 
ATOM     60  C   UNL A   1      42.478  30.288  33.184  1.00  0.00     0.074 A 
ATOM     61  C   UNL A   1      41.925  32.328  39.178  1.00  0.00     0.029 A 
ATOM     62  N   UNL A   1      41.623  31.943  37.010  1.00  0.00    -0.354 N 
ATOM     63  N   UNL A   1      42.287  30.769  34.391  1.00  0.00    -0.248 NA
ATOM     64  C   UNL A   1      43.724  29.529  33.025  1.00  0.00     0.031 C 
ATOM     65  C   UNL A   1      43.027  31.610  38.696  1.00  0.00     0.029 A 
ATOM     66  C   UNL A   1      42.828  31.346  37.350  1.00  0.00     0.049 A 
ATOM     67  H   UNL A   1      41.222  31.928  36.111  1.00  0.00     0.167 HD
ATOM     68  C   UNL A   1      43.385  30.358  35.140  1.00  0.00     0.074 A 
ATOM     69  C   UNL A   1      44.225  29.579  34.250  1.00  0.00     0.031 C 
ATOM     70  C   UNL A   1      43.669  30.596  36.446  1.00  0.00     0.034 A 
BRANCH  57  71
ATOM     71  C   UNL A   1      39.407  34.058  39.355  1.00  0.00     0.023 A 
ATOM     72  C   UNL A   1      39.827  35.377  39.605  1.00  0.00     0.031 A 
ATOM     73  C   UNL A   1      38.631  33.420  40.339  1.00  0.00     0.131 A 
ATOM     74  C   UNL A   1      39.559  35.977  40.844  1.00  0.00     0.055 A 
ATOM     75  C   UNL A   1      38.291  34.055  41.536  1.00  0.00     0.041 A 
ATOM     76  F   UNL A   1      38.212  32.157  40.166  1.00  0.00    -0.206 F 
ATOM     77  C   UNL A   1      38.773  35.334  41.803  1.00  0.00     0.022 A 
BRANCH  74  78
ATOM     78  S   UNL A   1      40.399  37.532  41.251  1.00  0.00     0.124 S 
ATOM     79  O   UNL A   1      39.279  38.468  41.311  1.00  0.00    -0.237 OA
ATOM     80  O   UNL A   1      41.040  37.220  42.524  1.00  0.00    -0.237 OA
ATOM     81  O   UNL A   1      41.310  37.734  40.126  1.00  0.00    -0.744 OA
ENDBRANCH  74  78
ENDBRANCH  57  71
BRANCH  58  82
ATOM     82  C   UNL A   1      42.032  29.874  30.652  1.00  0.00     0.023 A 
ATOM     83  C   UNL A   1      42.849  30.628  29.798  1.00  0.00     0.031 A 
ATOM     84  C   UNL A   1      41.636  28.591  30.235  1.00  0.00     0.131 A 
ATOM     85  C   UNL A   1      43.230  30.101  28.554  1.00  0.00     0.055 A 
ATOM     86  C   UNL A   1      42.044  28.058  29.012  1.00  0.00     0.041 A 
ATOM     87  F   UNL A   1      40.867  27.828  31.027  1.00  0.00    -0.206 F 
ATOM     88  C   UNL A   1      42.841  28.819  28.160  1.00  0.00     0.022 A 
BRANCH  85  89
ATOM     89  S   UNL A   1      44.230  31.129  27.444  1.00  0.00     0.124 S 
ATOM     90  O   UNL A   1      43.990  32.465  27.976  1.00  0.00    -0.237 OA
ATOM     91  O   UNL A   1      45.568  30.587  27.649  1.00  0.00    -0.237 OA
ATOM     92  O   UNL A   1      43.652  30.866  26.126  1.00  0.00    -0.744 OA
ENDBRANCH  85  89
ENDBRANCH  58  82
BRANCH  70  93
ATOM     93  C   UNL A   1      44.932  29.979  36.988  1.00  0.00     0.023 A 
ATOM     94  C   UNL A   1      44.937  28.698  37.568  1.00  0.00     0.031 A 
ATOM     95  C   UNL A   1      46.144  30.690  36.937  1.00  0.00     0.131 A 
ATOM     96  C   UNL A   1      46.122  28.187  38.118  1.00  0.00     0.055 A 
ATOM     97  C   UNL A   1      47.330  30.155  37.441  1.00  0.00     0.041 A 
ATOM     98  F   UNL A   1      46.193  31.917  36.396  1.00  0.00    -0.206 F 
ATOM     99  C   UNL A   1      47.321  28.901  38.046  1.00  0.00     0.022 A 
BRANCH  96 100
ATOM    100  S   UNL A   1      46.062  26.603  39.001  1.00  0.00     0.124 S 
ATOM    101  O   UNL A   1      45.075  26.872  40.041  1.00  0.00    -0.237 OA
ATOM    102  O   UNL A   1      45.648  25.676  37.952  1.00  0.00    -0.237 OA
ATOM    103  O   UNL A   1      47.433  26.424  39.478  1.00  0.00    -0.744 OA
ENDBRANCH  96 100
ENDBRANCH  70  93
ENDBRANCH  44  45
ENDBRANCH  36  39
ENDBRANCH  34  35
ENDBRANCH  33  34
ENDBRANCH  32  33
ENDBRANCH   1  32
TORSDOF 20
ENDMDL
MODEL 3
REMARK VINA RESULT:     -10.5      5.964     10.144
REMARK SMILES Cc1ccc(S(=O)(=O)Nc2cc(C(=O)NCCCCCCNC(=O)c3ccc(-c4c5nc(c(-c6cc(S(=O)(=O)[O-])ccc6F)c6ccc([nH]6)c(-c6cc(S(=O)(=O)[O-])ccc6F)c6nc(c(-c7cc(S(=O)(=O)[O-])ccc7F)c7ccc4[nH]7)C=C6)C=C5)cc3)cnc2N2CCCC2)c(C)c1
REMARK SMILES IDX 18 1 17 2 16 3 15 4 13 5 14 6 12 8 10 9 11 10 90 11 89 12
REMARK SMILES IDX 88 13 9 14 6 16 7 17 8 18 5 19 1 20 2 21 3 22 98 23 4 24
REMARK SMILES IDX 96 25 97 26 91 27 92 28 95 29 93 30 94 31 19 32 20 33 21 34
REMARK SMILES IDX 22 35 23 36 24 38 25 39 26 40 87 41 27 42 86 43 28 44 29 45
REMARK SMILES IDX 30 46 80 47 31 48 85 49 79 50 81 51 32 52 84 53 78 54 77 55
REMARK SMILES IDX 33 57 65 58 45 59 64 60 46 61 49 62 63 63 82 64 47 65 48 66
REMARK SMILES IDX 62 68 83 69 50 70 34 71 35 72 43 73 36 74 42 75 44 76 41 77
REMARK SMILES IDX 37 78 38 79 39 80 40 81 66 82 67 83 75 84 68 85 74 86 76 87
REMARK SMILES IDX 73 88 69 89 70 90 71 91 72 92 51 93 52 94 60 95 53 96 59 97
REMARK SMILES IDX 61 98 58 99 54 100 55 101 56 102 57 103
REMARK H PARENT 15 7 9 15 22 37 81 56 49 67
REMARK Flexibility Score: inf
ROOT
ATOM      1  C   UNL A   1      39.969  24.420  26.805  1.00  0.00     0.002 C 
ENDROOT
BRANCH   1   2
ATOM      2  C   UNL A   1      39.056  23.221  26.524  1.00  0.00     0.021 C 
BRANCH   2   3
ATOM      3  C   UNL A   1      37.678  23.635  26.009  1.00  0.00     0.116 C 
BRANCH   3   4
ATOM      4  N   UNL A   1      37.531  23.273  24.609  1.00  0.00    -0.352 N 
ATOM      5  C   UNL A   1      36.471  23.310  23.743  1.00  0.00     0.252 C 
ATOM      6  O   UNL A   1      36.666  22.948  22.582  1.00  0.00    -0.269 OA
ATOM      7  H   UNL A   1      38.360  22.933  24.201  1.00  0.00     0.163 HD
BRANCH   5   8
ATOM      8  C   UNL A   1      35.130  23.829  24.105  1.00  0.00     0.060 A 
ATOM      9  C   UNL A   1      33.483  25.519  24.515  1.00  0.00     0.092 A 
ATOM     10  C   UNL A   1      34.821  25.150  24.403  1.00  0.00     0.046 A 
ATOM     11  C   UNL A   1      32.476  24.527  24.551  1.00  0.00     0.153 A 
ATOM     12  N   UNL A   1      32.781  23.226  24.385  1.00  0.00    -0.236 NA
ATOM     13  C   UNL A   1      34.080  22.914  24.127  1.00  0.00     0.127 A 
BRANCH   9  14
ATOM     14  N   UNL A   1      33.084  26.883  24.579  1.00  0.00    -0.276 N 
ATOM     15  H   UNL A   1      32.987  27.282  25.473  1.00  0.00     0.180 HD
BRANCH  14  16
ATOM     16  S   UNL A   1      32.771  27.865  23.267  1.00  0.00     0.262 S 
ATOM     17  O   UNL A   1      32.688  26.981  22.118  1.00  0.00    -0.201 OA
ATOM     18  O   UNL A   1      33.763  28.912  23.357  1.00  0.00    -0.201 OA
BRANCH  16  19
ATOM     19  C   UNL A   1      31.168  28.669  23.376  1.00  0.00     0.090 A 
ATOM     20  C   UNL A   1      28.022  31.600  23.025  1.00  0.00     0.044 C 
ATOM     21  C   UNL A   1      29.061  30.529  23.183  1.00  0.00    -0.051 A 
ATOM     22  C   UNL A   1      29.165  29.481  22.267  1.00  0.00     0.005 A 
ATOM     23  C   UNL A   1      29.920  30.543  24.284  1.00  0.00     0.008 A 
ATOM     24  C   UNL A   1      30.199  28.541  22.375  1.00  0.00     0.023 A 
ATOM     25  C   UNL A   1      30.969  29.614  24.405  1.00  0.00    -0.030 A 
ATOM     26  C   UNL A   1      31.804  29.688  25.658  1.00  0.00     0.046 C 
ENDBRANCH  16  19
ENDBRANCH  14  16
ENDBRANCH   9  14
BRANCH  11  27
ATOM     27  N   UNL A   1      31.173  24.848  24.816  1.00  0.00    -0.355 N 
ATOM     28  C   UNL A   1      30.094  25.058  23.872  1.00  0.00     0.118 C 
ATOM     29  C   UNL A   1      30.740  24.980  26.198  1.00  0.00     0.118 C 
ATOM     30  C   UNL A   1      29.188  26.004  24.657  1.00  0.00     0.023 C 
ATOM     31  C   UNL A   1      29.289  25.461  26.080  1.00  0.00     0.023 C 
ENDBRANCH  11  27
ENDBRANCH   5   8
ENDBRANCH   3   4
ENDBRANCH   2   3
ENDBRANCH   1   2
BRANCH   1  32
ATOM     32  C   UNL A   1      41.457  24.071  26.943  1.00  0.00     0.002 C 
BRANCH  32  33
ATOM     33  C   UNL A   1      41.876  22.734  26.324  1.00  0.00     0.021 C 
BRANCH  33  34
ATOM     34  C   UNL A   1      42.826  21.902  27.182  1.00  0.00     0.116 C 
BRANCH  34  35
ATOM     35  N   UNL A   1      44.101  21.683  26.518  1.00  0.00    -0.352 N 
ATOM     36  C   UNL A   1      45.077  22.591  26.190  1.00  0.00     0.251 C 
ATOM     37  H   UNL A   1      44.291  20.750  26.269  1.00  0.00     0.163 HD
ATOM     38  O   UNL A   1      45.992  22.254  25.443  1.00  0.00    -0.269 OA
BRANCH  36  39
ATOM     39  C   UNL A   1      45.014  23.970  26.719  1.00  0.00     0.039 A 
ATOM     40  C   UNL A   1      44.729  25.018  25.839  1.00  0.00     0.014 A 
ATOM     41  C   UNL A   1      45.263  24.234  28.070  1.00  0.00     0.014 A 
ATOM     42  C   UNL A   1      44.644  26.327  26.323  1.00  0.00     0.010 A 
ATOM     43  C   UNL A   1      45.126  25.530  28.560  1.00  0.00     0.010 A 
ATOM     44  C   UNL A   1      44.821  26.589  27.691  1.00  0.00    -0.014 A 
BRANCH  44  45
ATOM     45  C   UNL A   1      44.705  27.966  28.230  1.00  0.00     0.031 A 
ATOM     46  C   UNL A   1      43.375  28.481  28.702  1.00  0.00     0.074 A 
ATOM     47  C   UNL A   1      45.780  28.777  28.219  1.00  0.00     0.049 A 
ATOM     48  N   UNL A   1      43.049  29.675  29.125  1.00  0.00    -0.248 NA
ATOM     49  C   UNL A   1      42.255  27.530  28.656  1.00  0.00     0.031 C 
ATOM     50  C   UNL A   1      47.110  28.409  27.732  1.00  0.00     0.029 A 
ATOM     51  N   UNL A   1      45.917  30.085  28.608  1.00  0.00    -0.354 N 
ATOM     52  C   UNL A   1      41.683  29.626  29.380  1.00  0.00     0.074 A 
ATOM     53  C   UNL A   1      41.237  28.299  29.006  1.00  0.00     0.031 C 
ATOM     54  C   UNL A   1      47.928  29.467  27.848  1.00  0.00     0.029 A 
ATOM     55  C   UNL A   1      47.176  30.593  28.392  1.00  0.00     0.049 A 
ATOM     56  H   UNL A   1      45.184  30.609  29.003  1.00  0.00     0.167 HD
ATOM     57  C   UNL A   1      40.879  30.591  29.895  1.00  0.00     0.034 A 
ATOM     58  C   UNL A   1      47.664  31.831  28.596  1.00  0.00     0.034 A 
ATOM     59  C   UNL A   1      41.344  31.906  30.269  1.00  0.00     0.049 A 
ATOM     60  C   UNL A   1      46.765  32.887  29.177  1.00  0.00     0.074 A 
ATOM     61  C   UNL A   1      40.639  32.937  30.867  1.00  0.00     0.029 A 
ATOM     62  N   UNL A   1      42.636  32.378  30.066  1.00  0.00    -0.354 N 
ATOM     63  N   UNL A   1      45.489  32.809  29.475  1.00  0.00    -0.248 NA
ATOM     64  C   UNL A   1      47.376  34.190  29.464  1.00  0.00     0.031 C 
ATOM     65  C   UNL A   1      41.487  34.046  30.975  1.00  0.00     0.029 A 
ATOM     66  C   UNL A   1      42.740  33.691  30.500  1.00  0.00     0.049 A 
ATOM     67  H   UNL A   1      43.370  31.855  29.671  1.00  0.00     0.167 HD
ATOM     68  C   UNL A   1      45.147  34.052  30.000  1.00  0.00     0.074 A 
ATOM     69  C   UNL A   1      46.355  34.853  29.988  1.00  0.00     0.031 C 
ATOM     70  C   UNL A   1      43.944  34.487  30.457  1.00  0.00     0.034 A 
BRANCH  57  71
ATOM     71  C   UNL A   1      39.414  30.255  30.047  1.00  0.00     0.023 A 
ATOM     72  C   UNL A   1      38.446  30.758  29.159  1.00  0.00     0.031 A 
ATOM     73  C   UNL A   1      38.967  29.477  31.130  1.00  0.00     0.131 A 
ATOM     74  C   UNL A   1      37.082  30.568  29.424  1.00  0.00     0.055 A 
ATOM     75  C   UNL A   1      37.611  29.216  31.340  1.00  0.00     0.041 A 
ATOM     76  F   UNL A   1      39.840  28.981  32.020  1.00  0.00    -0.206 F 
ATOM     77  C   UNL A   1      36.658  29.781  30.496  1.00  0.00     0.022 A 
BRANCH  74  78
ATOM     78  S   UNL A   1      35.874  31.511  28.454  1.00  0.00     0.124 S 
ATOM     79  O   UNL A   1      36.610  32.743  28.180  1.00  0.00    -0.237 OA
ATOM     80  O   UNL A   1      35.639  30.638  27.309  1.00  0.00    -0.237 OA
ATOM     81  O   UNL A   1      34.743  31.662  29.368  1.00  0.00    -0.744 OA
ENDBRANCH  74  78
ENDBRANCH  57  71
BRANCH  58  82
ATOM     82  C   UNL A   1      49.073  32.137  28.232  1.00  0.00     0.023 A 
ATOM     83  C   UNL A   1      49.387  32.781  27.026  1.00  0.00     0.031 A 
ATOM     84  C   UNL A   1      50.126  31.795  29.098  1.00  0.00     0.131 A 
ATOM     85  C   UNL A   1      50.728  33.044  26.706  1.00  0.00     0.055 A 
ATOM     86  C   UNL A   1      51.455  32.088  28.791  1.00  0.00     0.041 A 
ATOM     87  F   UNL A   1      49.871  31.193  30.271  1.00  0.00    -0.206 F 
ATOM     88  C   UNL A   1      51.762  32.710  27.584  1.00  0.00     0.022 A 
BRANCH  85  89
ATOM     89  S   UNL A   1      51.106  33.813  25.108  1.00  0.00     0.124 S 
ATOM     90  O   UNL A   1      51.291  32.647  24.252  1.00  0.00    -0.237 OA
ATOM     91  O   UNL A   1      49.907  34.607  24.861  1.00  0.00    -0.237 OA
ATOM     92  O   UNL A   1      52.315  34.588  25.382  1.00  0.00    -0.744 OA
ENDBRANCH  85  89
ENDBRANCH  58  82
BRANCH  70  93
ATOM     93  C   UNL A   1      43.897  35.890  31.004  1.00  0.00     0.023 A 
ATOM     94  C   UNL A   1      43.759  37.007  30.161  1.00  0.00     0.031 A 
ATOM     95  C   UNL A   1      44.006  36.112  32.388  1.00  0.00     0.131 A 
ATOM     96  C   UNL A   1      43.784  38.299  30.707  1.00  0.00     0.055 A 
ATOM     97  C   UNL A   1      43.981  37.398  32.929  1.00  0.00     0.041 A 
ATOM     98  F   UNL A   1      44.142  35.080  33.237  1.00  0.00    -0.206 F 
ATOM     99  C   UNL A   1      43.880  38.501  32.086  1.00  0.00     0.022 A 
BRANCH  96 100
ATOM    100  S   UNL A   1      43.766  39.722  29.580  1.00  0.00     0.124 S 
ATOM    101  O   UNL A   1      43.797  40.846  30.510  1.00  0.00    -0.237 OA
ATOM    102  O   UNL A   1      44.975  39.511  28.791  1.00  0.00    -0.237 OA
ATOM    103  O   UNL A   1      42.512  39.560  28.845  1.00  0.00    -0.744 OA
ENDBRANCH  96 100
ENDBRANCH  70  93
ENDBRANCH  44  45
ENDBRANCH  36  39
ENDBRANCH  34  35
ENDBRANCH  33  34
ENDBRANCH  32  33
ENDBRANCH   1  32
TORSDOF 20
ENDMDL
