MODEL 1
REMARK VINA RESULT:     -12.2      0.000      0.000
REMARK SMILES CC1(C)[C@H](C(=O)NCCCCCCNC(=O)c2ccc(-c3c4nc(c(-c5cc(S(=O)(=O)[O-])ccc5F)c5ccc([nH]5)c(-c5cc(S(=O)(=O)[O-])ccc5F)c5nc(c(-c6cc(S(=O)(=O)[O-])ccc6F)c6ccc3[nH]6)C=C5)C=C4)cc2)[C@@H]1c1nc2ccc(F)cc2s1
REMARK SMILES IDX 11 1 10 2 9 3 8 4 7 5 5 6 6 7 4 9 1 10 2 11 3 12 80 13 81 14
REMARK SMILES IDX 82 15 90 16 83 17 89 18 84 19 88 20 85 21 86 22 87 23 12 24
REMARK SMILES IDX 13 25 14 26 15 27 16 29 17 30 18 31 79 32 19 33 78 34 20 35
REMARK SMILES IDX 21 36 22 37 72 38 23 39 77 40 71 41 73 42 24 43 76 44 70 45
REMARK SMILES IDX 69 46 25 48 57 49 37 50 56 51 38 52 41 53 55 54 74 55 39 56
REMARK SMILES IDX 40 57 54 59 75 60 42 61 26 62 27 63 35 64 28 65 34 66 36 67
REMARK SMILES IDX 33 68 29 69 30 70 31 71 32 72 58 73 59 74 67 75 60 76 66 77
REMARK SMILES IDX 68 78 65 79 61 80 62 81 63 82 64 83 43 84 44 85 52 86 45 87
REMARK SMILES IDX 51 88 53 89 50 90 46 91 47 92 48 93 49 94
REMARK H PARENT 7 8 14 28 73 47 41 58
REMARK Flexibility Score: inf
ROOT
ATOM      1  C   UNL A   1      31.588  30.806  26.502  1.00  0.00     0.002 C 
ENDROOT
BRANCH   1   2
ATOM      2  C   UNL A   1      32.747  30.068  27.180  1.00  0.00     0.002 C 
BRANCH   2   3
ATOM      3  C   UNL A   1      32.711  28.543  27.076  1.00  0.00     0.021 C 
BRANCH   3   4
ATOM      4  C   UNL A   1      31.378  27.966  26.611  1.00  0.00     0.116 C 
BRANCH   4   5
ATOM      5  N   UNL A   1      31.224  26.575  26.941  1.00  0.00    -0.356 N 
ATOM      6  C   UNL A   1      31.677  25.418  26.378  1.00  0.00     0.224 C 
ATOM      7  O   UNL A   1      31.330  24.386  26.961  1.00  0.00    -0.275 OA
ATOM      8  H   UNL A   1      30.672  26.427  27.742  1.00  0.00     0.163 HD
BRANCH   6   9
ATOM      9  C   UNL A   1      32.520  25.232  25.165  1.00  0.00     0.095 C 
ATOM     10  C   UNL A   1      33.450  23.471  23.533  1.00  0.00     0.013 C 
ATOM     11  C   UNL A   1      32.274  24.343  23.936  1.00  0.00    -0.013 C 
ATOM     12  C   UNL A   1      30.965  23.619  23.755  1.00  0.00     0.013 C 
ATOM     13  C   UNL A   1      32.461  25.849  23.804  1.00  0.00     0.068 C 
BRANCH  13  14
ATOM     14  C   UNL A   1      31.505  26.971  23.441  1.00  0.00     0.098 A 
ATOM     15  N   UNL A   1      30.236  26.830  23.752  1.00  0.00    -0.241 NA
ATOM     16  S   UNL A   1      31.942  28.507  22.823  1.00  0.00    -0.118 S 
ATOM     17  C   UNL A   1      29.512  27.897  23.253  1.00  0.00     0.082 A 
ATOM     18  C   UNL A   1      30.270  28.891  22.631  1.00  0.00     0.057 A 
ATOM     19  C   UNL A   1      28.110  28.031  23.298  1.00  0.00     0.033 A 
ATOM     20  C   UNL A   1      29.671  29.987  21.990  1.00  0.00     0.060 A 
ATOM     21  C   UNL A   1      27.501  29.118  22.664  1.00  0.00     0.041 A 
ATOM     22  C   UNL A   1      28.279  30.062  22.009  1.00  0.00     0.124 A 
ATOM     23  F   UNL A   1      27.674  31.074  21.375  1.00  0.00    -0.207 F 
ENDBRANCH  13  14
ENDBRANCH   6   9
ENDBRANCH   4   5
ENDBRANCH   3   4
ENDBRANCH   2   3
ENDBRANCH   1   2
BRANCH   1  24
ATOM     24  C   UNL A   1      31.486  32.307  26.791  1.00  0.00     0.021 C 
BRANCH  24  25
ATOM     25  C   UNL A   1      32.799  32.999  27.151  1.00  0.00     0.116 C 
BRANCH  25  26
ATOM     26  N   UNL A   1      32.590  34.314  27.731  1.00  0.00    -0.352 N 
ATOM     27  C   UNL A   1      33.153  34.886  28.843  1.00  0.00     0.251 C 
ATOM     28  H   UNL A   1      31.943  34.883  27.251  1.00  0.00     0.163 HD
ATOM     29  O   UNL A   1      32.703  35.946  29.267  1.00  0.00    -0.269 OA
BRANCH  27  30
ATOM     30  C   UNL A   1      34.280  34.225  29.541  1.00  0.00     0.039 A 
ATOM     31  C   UNL A   1      35.582  34.465  29.087  1.00  0.00     0.014 A 
ATOM     32  C   UNL A   1      34.065  33.345  30.605  1.00  0.00     0.014 A 
ATOM     33  C   UNL A   1      36.665  33.862  29.729  1.00  0.00     0.010 A 
ATOM     34  C   UNL A   1      35.151  32.792  31.284  1.00  0.00     0.010 A 
ATOM     35  C   UNL A   1      36.463  33.039  30.849  1.00  0.00    -0.014 A 
BRANCH  35  36
ATOM     36  C   UNL A   1      37.610  32.419  31.562  1.00  0.00     0.031 A 
ATOM     37  C   UNL A   1      38.359  31.274  30.935  1.00  0.00     0.074 A 
ATOM     38  C   UNL A   1      37.944  32.852  32.794  1.00  0.00     0.049 A 
ATOM     39  N   UNL A   1      39.341  30.559  31.423  1.00  0.00    -0.248 NA
ATOM     40  C   UNL A   1      37.926  30.862  29.593  1.00  0.00     0.031 C 
ATOM     41  C   UNL A   1      37.268  33.929  33.522  1.00  0.00     0.029 A 
ATOM     42  N   UNL A   1      38.927  32.437  33.657  1.00  0.00    -0.354 N 
ATOM     43  C   UNL A   1      39.633  29.603  30.455  1.00  0.00     0.074 A 
ATOM     44  C   UNL A   1      38.685  29.797  29.379  1.00  0.00     0.031 C 
ATOM     45  C   UNL A   1      37.869  34.100  34.711  1.00  0.00     0.029 A 
ATOM     46  C   UNL A   1      38.944  33.123  34.849  1.00  0.00     0.049 A 
ATOM     47  H   UNL A   1      39.561  31.715  33.442  1.00  0.00     0.167 HD
ATOM     48  C   UNL A   1      40.612  28.664  30.456  1.00  0.00     0.034 A 
ATOM     49  C   UNL A   1      39.731  32.977  35.934  1.00  0.00     0.034 A 
ATOM     50  C   UNL A   1      41.560  28.493  31.533  1.00  0.00     0.049 A 
ATOM     51  C   UNL A   1      40.812  31.926  35.912  1.00  0.00     0.074 A 
ATOM     52  C   UNL A   1      42.623  27.610  31.615  1.00  0.00     0.029 A 
ATOM     53  N   UNL A   1      41.558  29.220  32.717  1.00  0.00    -0.354 N 
ATOM     54  N   UNL A   1      41.104  31.060  34.969  1.00  0.00    -0.248 NA
ATOM     55  C   UNL A   1      41.679  31.846  37.093  1.00  0.00     0.031 C 
ATOM     56  C   UNL A   1      43.225  27.761  32.870  1.00  0.00     0.029 A 
ATOM     57  C   UNL A   1      42.584  28.788  33.544  1.00  0.00     0.049 A 
ATOM     58  H   UNL A   1      40.920  29.937  32.937  1.00  0.00     0.167 HD
ATOM     59  C   UNL A   1      42.210  30.353  35.433  1.00  0.00     0.074 A 
ATOM     60  C   UNL A   1      42.539  30.905  36.732  1.00  0.00     0.031 C 
ATOM     61  C   UNL A   1      42.895  29.343  34.840  1.00  0.00     0.034 A 
BRANCH  48  62
ATOM     62  C   UNL A   1      40.684  27.734  29.268  1.00  0.00     0.023 A 
ATOM     63  C   UNL A   1      41.617  27.927  28.234  1.00  0.00     0.031 A 
ATOM     64  C   UNL A   1      39.792  26.654  29.153  1.00  0.00     0.131 A 
ATOM     65  C   UNL A   1      41.585  27.104  27.097  1.00  0.00     0.055 A 
ATOM     66  C   UNL A   1      39.819  25.788  28.057  1.00  0.00     0.041 A 
ATOM     67  F   UNL A   1      38.865  26.428  30.098  1.00  0.00    -0.206 F 
ATOM     68  C   UNL A   1      40.709  26.021  27.013  1.00  0.00     0.022 A 
BRANCH  65  69
ATOM     69  S   UNL A   1      42.608  27.559  25.670  1.00  0.00     0.124 S 
ATOM     70  O   UNL A   1      43.955  27.454  26.228  1.00  0.00    -0.237 OA
ATOM     71  O   UNL A   1      42.243  26.548  24.685  1.00  0.00    -0.237 OA
ATOM     72  O   UNL A   1      42.175  28.920  25.358  1.00  0.00    -0.744 OA
ENDBRANCH  65  69
ENDBRANCH  48  62
BRANCH  49  73
ATOM     73  C   UNL A   1      39.529  33.836  37.134  1.00  0.00     0.023 A 
ATOM     74  C   UNL A   1      38.865  33.347  38.270  1.00  0.00     0.031 A 
ATOM     75  C   UNL A   1      39.958  35.175  37.146  1.00  0.00     0.131 A 
ATOM     76  C   UNL A   1      38.607  34.203  39.352  1.00  0.00     0.055 A 
ATOM     77  C   UNL A   1      39.743  36.008  38.245  1.00  0.00     0.041 A 
ATOM     78  F   UNL A   1      40.603  35.690  36.087  1.00  0.00    -0.206 F 
ATOM     79  C   UNL A   1      39.052  35.527  39.352  1.00  0.00     0.022 A 
BRANCH  76  80
ATOM     80  S   UNL A   1      37.603  33.582  40.730  1.00  0.00     0.124 S 
ATOM     81  O   UNL A   1      36.500  32.937  40.026  1.00  0.00    -0.237 OA
ATOM     82  O   UNL A   1      38.539  32.691  41.408  1.00  0.00    -0.237 OA
ATOM     83  O   UNL A   1      37.251  34.792  41.468  1.00  0.00    -0.744 OA
ENDBRANCH  76  80
ENDBRANCH  49  73
BRANCH  61  84
ATOM     84  C   UNL A   1      44.097  28.808  35.579  1.00  0.00     0.023 A 
ATOM     85  C   UNL A   1      43.998  27.727  36.472  1.00  0.00     0.031 A 
ATOM     86  C   UNL A   1      45.357  29.406  35.401  1.00  0.00     0.131 A 
ATOM     87  C   UNL A   1      45.125  27.317  37.199  1.00  0.00     0.055 A 
ATOM     88  C   UNL A   1      46.488  28.956  36.083  1.00  0.00     0.041 A 
ATOM     89  F   UNL A   1      45.510  30.442  34.560  1.00  0.00    -0.206 F 
ATOM     90  C   UNL A   1      46.372  27.914  36.999  1.00  0.00     0.022 A 
BRANCH  87  91
ATOM     91  S   UNL A   1      44.919  26.053  38.485  1.00  0.00     0.124 S 
ATOM     92  O   UNL A   1      46.301  25.697  38.786  1.00  0.00    -0.237 OA
ATOM     93  O   UNL A   1      44.207  26.783  39.528  1.00  0.00    -0.237 OA
ATOM     94  O   UNL A   1      44.140  25.010  37.819  1.00  0.00    -0.744 OA
ENDBRANCH  87  91
ENDBRANCH  61  84
ENDBRANCH  35  36
ENDBRANCH  27  30
ENDBRANCH  25  26
ENDBRANCH  24  25
ENDBRANCH   1  24
TORSDOF 17
ENDMDL
MODEL 2
REMARK VINA RESULT:     -12.1      4.290      9.519
REMARK SMILES CC1(C)[C@H](C(=O)NCCCCCCNC(=O)c2ccc(-c3c4nc(c(-c5cc(S(=O)(=O)[O-])ccc5F)c5ccc([nH]5)c(-c5cc(S(=O)(=O)[O-])ccc5F)c5nc(c(-c6cc(S(=O)(=O)[O-])ccc6F)c6ccc3[nH]6)C=C5)C=C4)cc2)[C@@H]1c1nc2ccc(F)cc2s1
REMARK SMILES IDX 11 1 10 2 9 3 8 4 7 5 5 6 6 7 4 9 1 10 2 11 3 12 80 13 81 14
REMARK SMILES IDX 82 15 90 16 83 17 89 18 84 19 88 20 85 21 86 22 87 23 12 24
REMARK SMILES IDX 13 25 14 26 15 27 16 29 17 30 18 31 79 32 19 33 78 34 20 35
REMARK SMILES IDX 21 36 22 37 72 38 23 39 77 40 71 41 73 42 24 43 76 44 70 45
REMARK SMILES IDX 69 46 25 48 57 49 37 50 56 51 38 52 41 53 55 54 74 55 39 56
REMARK SMILES IDX 40 57 54 59 75 60 42 61 26 62 27 63 35 64 28 65 34 66 36 67
REMARK SMILES IDX 33 68 29 69 30 70 31 71 32 72 58 73 59 74 67 75 60 76 66 77
REMARK SMILES IDX 68 78 65 79 61 80 62 81 63 82 64 83 43 84 44 85 52 86 45 87
REMARK SMILES IDX 51 88 53 89 50 90 46 91 47 92 48 93 49 94
REMARK H PARENT 7 8 14 28 73 47 41 58
REMARK Flexibility Score: inf
ROOT
ATOM      1  C   UNL A   1      33.409  28.962  24.683  1.00  0.00     0.002 C 
ENDROOT
BRANCH   1   2
ATOM      2  C   UNL A   1      32.355  28.316  23.777  1.00  0.00     0.002 C 
BRANCH   2   3
ATOM      3  C   UNL A   1      32.861  27.826  22.420  1.00  0.00     0.021 C 
BRANCH   3   4
ATOM      4  C   UNL A   1      32.394  26.427  22.033  1.00  0.00     0.116 C 
BRANCH   4   5
ATOM      5  N   UNL A   1      33.440  25.443  22.121  1.00  0.00    -0.356 N 
ATOM      6  C   UNL A   1      33.888  24.631  23.121  1.00  0.00     0.224 C 
ATOM      7  O   UNL A   1      34.832  23.898  22.813  1.00  0.00    -0.275 OA
ATOM      8  H   UNL A   1      33.940  25.335  21.280  1.00  0.00     0.163 HD
BRANCH   6   9
ATOM      9  C   UNL A   1      33.401  24.515  24.523  1.00  0.00     0.095 C 
ATOM     10  C   UNL A   1      31.510  25.206  26.128  1.00  0.00     0.013 C 
ATOM     11  C   UNL A   1      31.977  24.255  25.041  1.00  0.00    -0.013 C 
ATOM     12  C   UNL A   1      30.859  23.914  24.090  1.00  0.00     0.013 C 
ATOM     13  C   UNL A   1      33.133  23.328  25.393  1.00  0.00     0.068 C 
BRANCH  13  14
ATOM     14  C   UNL A   1      33.467  21.906  24.982  1.00  0.00     0.098 A 
ATOM     15  N   UNL A   1      32.634  21.280  24.180  1.00  0.00    -0.241 NA
ATOM     16  S   UNL A   1      34.929  21.077  25.310  1.00  0.00    -0.118 S 
ATOM     17  C   UNL A   1      33.048  19.973  24.004  1.00  0.00     0.082 A 
ATOM     18  C   UNL A   1      34.258  19.644  24.621  1.00  0.00     0.057 A 
ATOM     19  C   UNL A   1      32.345  18.976  23.299  1.00  0.00     0.033 A 
ATOM     20  C   UNL A   1      34.759  18.333  24.616  1.00  0.00     0.060 A 
ATOM     21  C   UNL A   1      32.835  17.667  23.285  1.00  0.00     0.041 A 
ATOM     22  C   UNL A   1      34.013  17.361  23.952  1.00  0.00     0.124 A 
ATOM     23  F   UNL A   1      34.443  16.093  23.959  1.00  0.00    -0.207 F 
ENDBRANCH  13  14
ENDBRANCH   6   9
ENDBRANCH   4   5
ENDBRANCH   3   4
ENDBRANCH   2   3
ENDBRANCH   1   2
BRANCH   1  24
ATOM     24  C   UNL A   1      33.839  28.143  25.905  1.00  0.00     0.021 C 
BRANCH  24  25
ATOM     25  C   UNL A   1      33.327  28.651  27.251  1.00  0.00     0.116 C 
BRANCH  25  26
ATOM     26  N   UNL A   1      33.367  30.098  27.347  1.00  0.00    -0.352 N 
ATOM     27  C   UNL A   1      34.310  30.918  27.913  1.00  0.00     0.251 C 
ATOM     28  H   UNL A   1      32.598  30.564  26.944  1.00  0.00     0.163 HD
ATOM     29  O   UNL A   1      34.065  32.113  28.049  1.00  0.00    -0.269 OA
BRANCH  27  30
ATOM     30  C   UNL A   1      35.605  30.369  28.376  1.00  0.00     0.039 A 
ATOM     31  C   UNL A   1      36.714  30.463  27.529  1.00  0.00     0.014 A 
ATOM     32  C   UNL A   1      35.726  29.728  29.613  1.00  0.00     0.014 A 
ATOM     33  C   UNL A   1      37.950  29.961  27.940  1.00  0.00     0.010 A 
ATOM     34  C   UNL A   1      36.974  29.282  30.048  1.00  0.00     0.010 A 
ATOM     35  C   UNL A   1      38.099  29.387  29.214  1.00  0.00    -0.014 A 
BRANCH  35  36
ATOM     36  C   UNL A   1      39.417  28.880  29.677  1.00  0.00     0.031 A 
ATOM     37  C   UNL A   1      40.149  29.583  30.788  1.00  0.00     0.074 A 
ATOM     38  C   UNL A   1      39.976  27.818  29.063  1.00  0.00     0.049 A 
ATOM     39  N   UNL A   1      41.333  29.336  31.287  1.00  0.00    -0.248 NA
ATOM     40  C   UNL A   1      39.469  30.734  31.398  1.00  0.00     0.031 C 
ATOM     41  C   UNL A   1      39.381  27.077  27.950  1.00  0.00     0.029 A 
ATOM     42  N   UNL A   1      41.173  27.182  29.281  1.00  0.00    -0.354 N 
ATOM     43  C   UNL A   1      41.548  30.309  32.258  1.00  0.00     0.074 A 
ATOM     44  C   UNL A   1      40.393  31.181  32.236  1.00  0.00     0.031 C 
ATOM     45  C   UNL A   1      40.206  26.078  27.595  1.00  0.00     0.029 A 
ATOM     46  C   UNL A   1      41.405  26.130  28.426  1.00  0.00     0.049 A 
ATOM     47  H   UNL A   1      41.807  27.455  29.983  1.00  0.00     0.167 HD
ATOM     48  C   UNL A   1      42.601  30.449  33.103  1.00  0.00     0.034 A 
ATOM     49  C   UNL A   1      42.465  25.306  28.317  1.00  0.00     0.034 A 
ATOM     50  C   UNL A   1      43.738  29.560  33.124  1.00  0.00     0.049 A 
ATOM     51  C   UNL A   1      43.623  25.482  29.267  1.00  0.00     0.074 A 
ATOM     52  C   UNL A   1      44.833  29.578  33.970  1.00  0.00     0.029 A 
ATOM     53  N   UNL A   1      43.929  28.493  32.255  1.00  0.00    -0.354 N 
ATOM     54  N   UNL A   1      43.790  26.379  30.210  1.00  0.00    -0.248 NA
ATOM     55  C   UNL A   1      44.728  24.522  29.147  1.00  0.00     0.031 C 
ATOM     56  C   UNL A   1      45.712  28.563  33.576  1.00  0.00     0.029 A 
ATOM     57  C   UNL A   1      45.134  27.863  32.529  1.00  0.00     0.049 A 
ATOM     58  H   UNL A   1      43.300  28.223  31.546  1.00  0.00     0.167 HD
ATOM     59  C   UNL A   1      45.005  26.071  30.817  1.00  0.00     0.074 A 
ATOM     60  C   UNL A   1      45.519  24.897  30.141  1.00  0.00     0.031 C 
ATOM     61  C   UNL A   1      45.637  26.698  31.841  1.00  0.00     0.034 A 
BRANCH  48  62
ATOM     62  C   UNL A   1      42.577  31.625  34.052  1.00  0.00     0.023 A 
ATOM     63  C   UNL A   1      41.977  31.538  35.321  1.00  0.00     0.031 A 
ATOM     64  C   UNL A   1      43.140  32.856  33.675  1.00  0.00     0.131 A 
ATOM     65  C   UNL A   1      41.885  32.680  36.132  1.00  0.00     0.055 A 
ATOM     66  C   UNL A   1      43.116  33.968  34.521  1.00  0.00     0.041 A 
ATOM     67  F   UNL A   1      43.710  33.008  32.469  1.00  0.00    -0.206 F 
ATOM     68  C   UNL A   1      42.472  33.888  35.752  1.00  0.00     0.022 A 
BRANCH  65  69
ATOM     69  S   UNL A   1      40.861  32.598  37.627  1.00  0.00     0.124 S 
ATOM     70  O   UNL A   1      41.716  31.830  38.528  1.00  0.00    -0.237 OA
ATOM     71  O   UNL A   1      40.680  34.006  37.962  1.00  0.00    -0.237 OA
ATOM     72  O   UNL A   1      39.655  31.903  37.179  1.00  0.00    -0.744 OA
ENDBRANCH  65  69
ENDBRANCH  48  62
BRANCH  49  73
ATOM     73  C   UNL A   1      42.493  24.244  27.273  1.00  0.00     0.023 A 
ATOM     74  C   UNL A   1      41.786  23.043  27.442  1.00  0.00     0.031 A 
ATOM     75  C   UNL A   1      43.263  24.397  26.105  1.00  0.00     0.131 A 
ATOM     76  C   UNL A   1      41.901  22.022  26.487  1.00  0.00     0.055 A 
ATOM     77  C   UNL A   1      43.334  23.398  25.133  1.00  0.00     0.041 A 
ATOM     78  F   UNL A   1      43.953  25.529  25.891  1.00  0.00    -0.206 F 
ATOM     79  C   UNL A   1      42.660  22.196  25.327  1.00  0.00     0.022 A 
BRANCH  76  80
ATOM     80  S   UNL A   1      41.108  20.426  26.822  1.00  0.00     0.124 S 
ATOM     81  O   UNL A   1      39.896  20.521  26.015  1.00  0.00    -0.237 OA
ATOM     82  O   UNL A   1      42.117  19.482  26.354  1.00  0.00    -0.237 OA
ATOM     83  O   UNL A   1      40.899  20.446  28.268  1.00  0.00    -0.744 OA
ENDBRANCH  76  80
ENDBRANCH  49  73
BRANCH  61  84
ATOM     84  C   UNL A   1      46.933  26.089  32.317  1.00  0.00     0.023 A 
ATOM     85  C   UNL A   1      48.156  26.354  31.678  1.00  0.00     0.031 A 
ATOM     86  C   UNL A   1      46.937  25.210  33.415  1.00  0.00     0.131 A 
ATOM     87  C   UNL A   1      49.322  25.701  32.103  1.00  0.00     0.055 A 
ATOM     88  C   UNL A   1      48.110  24.609  33.872  1.00  0.00     0.041 A 
ATOM     89  F   UNL A   1      45.797  24.921  34.064  1.00  0.00    -0.206 F 
ATOM     90  C   UNL A   1      49.310  24.842  33.205  1.00  0.00     0.022 A 
BRANCH  87  91
ATOM     91  S   UNL A   1      50.842  25.914  31.134  1.00  0.00     0.124 S 
ATOM     92  O   UNL A   1      50.532  25.172  29.916  1.00  0.00    -0.237 OA
ATOM     93  O   UNL A   1      50.922  27.363  30.995  1.00  0.00    -0.237 OA
ATOM     94  O   UNL A   1      51.874  25.315  31.979  1.00  0.00    -0.744 OA
ENDBRANCH  87  91
ENDBRANCH  61  84
ENDBRANCH  35  36
ENDBRANCH  27  30
ENDBRANCH  25  26
ENDBRANCH  24  25
ENDBRANCH   1  24
TORSDOF 17
ENDMDL
MODEL 3
REMARK VINA RESULT:     -12.0      3.828      9.207
REMARK SMILES CC1(C)[C@H](C(=O)NCCCCCCNC(=O)c2ccc(-c3c4nc(c(-c5cc(S(=O)(=O)[O-])ccc5F)c5ccc([nH]5)c(-c5cc(S(=O)(=O)[O-])ccc5F)c5nc(c(-c6cc(S(=O)(=O)[O-])ccc6F)c6ccc3[nH]6)C=C5)C=C4)cc2)[C@@H]1c1nc2ccc(F)cc2s1
REMARK SMILES IDX 11 1 10 2 9 3 8 4 7 5 5 6 6 7 4 9 1 10 2 11 3 12 80 13 81 14
REMARK SMILES IDX 82 15 90 16 83 17 89 18 84 19 88 20 85 21 86 22 87 23 12 24
REMARK SMILES IDX 13 25 14 26 15 27 16 29 17 30 18 31 79 32 19 33 78 34 20 35
REMARK SMILES IDX 21 36 22 37 72 38 23 39 77 40 71 41 73 42 24 43 76 44 70 45
REMARK SMILES IDX 69 46 25 48 57 49 37 50 56 51 38 52 41 53 55 54 74 55 39 56
REMARK SMILES IDX 40 57 54 59 75 60 42 61 26 62 27 63 35 64 28 65 34 66 36 67
REMARK SMILES IDX 33 68 29 69 30 70 31 71 32 72 58 73 59 74 67 75 60 76 66 77
REMARK SMILES IDX 68 78 65 79 61 80 62 81 63 82 64 83 43 84 44 85 52 86 45 87
REMARK SMILES IDX 51 88 53 89 50 90 46 91 47 92 48 93 49 94
REMARK H PARENT 7 8 14 28 73 47 41 58
REMARK Flexibility Score: inf
ROOT
ATOM      1  C   UNL A   1      32.345  28.556  24.740  1.00  0.00     0.002 C 
ENDROOT
BRANCH   1   2
ATOM      2  C   UNL A   1      33.641  28.607  23.923  1.00  0.00     0.002 C 
BRANCH   2   3
ATOM      3  C   UNL A   1      33.541  28.078  22.492  1.00  0.00     0.021 C 
BRANCH   3   4
ATOM      4  C   UNL A   1      32.781  26.765  22.348  1.00  0.00     0.116 C 
BRANCH   4   5
ATOM      5  N   UNL A   1      33.647  25.617  22.310  1.00  0.00    -0.356 N 
ATOM      6  C   UNL A   1      33.980  24.658  23.220  1.00  0.00     0.224 C 
ATOM      7  O   UNL A   1      34.777  23.808  22.812  1.00  0.00    -0.275 OA
ATOM      8  H   UNL A   1      34.097  25.501  21.442  1.00  0.00     0.163 HD
BRANCH   6   9
ATOM      9  C   UNL A   1      33.522  24.502  24.629  1.00  0.00     0.095 C 
ATOM     10  C   UNL A   1      31.709  25.213  26.313  1.00  0.00     0.013 C 
ATOM     11  C   UNL A   1      32.100  24.290  25.172  1.00  0.00    -0.013 C 
ATOM     12  C   UNL A   1      30.943  24.050  24.237  1.00  0.00     0.013 C 
ATOM     13  C   UNL A   1      33.215  23.291  25.451  1.00  0.00     0.068 C 
BRANCH  13  14
ATOM     14  C   UNL A   1      33.464  21.874  24.968  1.00  0.00     0.098 A 
ATOM     15  N   UNL A   1      32.632  21.363  24.089  1.00  0.00    -0.241 NA
ATOM     16  S   UNL A   1      34.842  20.918  25.315  1.00  0.00    -0.118 S 
ATOM     17  C   UNL A   1      32.958  20.041  23.852  1.00  0.00     0.082 A 
ATOM     18  C   UNL A   1      34.106  19.584  24.505  1.00  0.00     0.057 A 
ATOM     19  C   UNL A   1      32.223  19.143  23.051  1.00  0.00     0.033 A 
ATOM     20  C   UNL A   1      34.509  18.241  24.442  1.00  0.00     0.060 A 
ATOM     21  C   UNL A   1      32.615  17.804  22.979  1.00  0.00     0.041 A 
ATOM     22  C   UNL A   1      33.730  17.370  23.683  1.00  0.00     0.124 A 
ATOM     23  F   UNL A   1      34.065  16.075  23.631  1.00  0.00    -0.207 F 
ENDBRANCH  13  14
ENDBRANCH   6   9
ENDBRANCH   4   5
ENDBRANCH   3   4
ENDBRANCH   2   3
ENDBRANCH   1   2
BRANCH   1  24
ATOM     24  C   UNL A   1      32.477  28.883  26.231  1.00  0.00     0.021 C 
BRANCH  24  25
ATOM     25  C   UNL A   1      33.802  29.513  26.653  1.00  0.00     0.116 C 
BRANCH  25  26
ATOM     26  N   UNL A   1      33.634  30.861  27.165  1.00  0.00    -0.352 N 
ATOM     27  C   UNL A   1      34.375  31.550  28.092  1.00  0.00     0.251 C 
ATOM     28  H   UNL A   1      32.871  31.358  26.788  1.00  0.00     0.163 HD
ATOM     29  O   UNL A   1      33.957  32.621  28.520  1.00  0.00    -0.269 OA
BRANCH  27  30
ATOM     30  C   UNL A   1      35.659  31.002  28.588  1.00  0.00     0.039 A 
ATOM     31  C   UNL A   1      35.627  29.908  29.460  1.00  0.00     0.014 A 
ATOM     32  C   UNL A   1      36.883  31.577  28.236  1.00  0.00     0.014 A 
ATOM     33  C   UNL A   1      36.821  29.365  29.939  1.00  0.00     0.010 A 
ATOM     34  C   UNL A   1      38.076  30.996  28.667  1.00  0.00     0.010 A 
ATOM     35  C   UNL A   1      38.058  29.887  29.527  1.00  0.00    -0.014 A 
BRANCH  35  36
ATOM     36  C   UNL A   1      39.336  29.296  30.003  1.00  0.00     0.031 A 
ATOM     37  C   UNL A   1      40.049  29.891  31.188  1.00  0.00     0.074 A 
ATOM     38  C   UNL A   1      39.880  28.258  29.337  1.00  0.00     0.049 A 
ATOM     39  N   UNL A   1      41.201  29.563  31.713  1.00  0.00    -0.248 NA
ATOM     40  C   UNL A   1      39.388  31.024  31.851  1.00  0.00     0.031 C 
ATOM     41  C   UNL A   1      39.303  27.620  28.152  1.00  0.00     0.029 A 
ATOM     42  N   UNL A   1      41.043  27.561  29.555  1.00  0.00    -0.354 N 
ATOM     43  C   UNL A   1      41.413  30.457  32.758  1.00  0.00     0.074 A 
ATOM     44  C   UNL A   1      40.293  31.375  32.753  1.00  0.00     0.031 C 
ATOM     45  C   UNL A   1      40.105  26.616  27.760  1.00  0.00     0.029 A 
ATOM     46  C   UNL A   1      41.269  26.562  28.637  1.00  0.00     0.049 A 
ATOM     47  H   UNL A   1      41.658  27.760  30.298  1.00  0.00     0.167 HD
ATOM     48  C   UNL A   1      42.434  30.496  33.650  1.00  0.00     0.034 A 
ATOM     49  C   UNL A   1      42.302  25.705  28.511  1.00  0.00     0.034 A 
ATOM     50  C   UNL A   1      43.536  29.563  33.651  1.00  0.00     0.049 A 
ATOM     51  C   UNL A   1      43.426  25.769  29.514  1.00  0.00     0.074 A 
ATOM     52  C   UNL A   1      44.596  29.479  34.537  1.00  0.00     0.029 A 
ATOM     53  N   UNL A   1      43.722  28.551  32.717  1.00  0.00    -0.354 N 
ATOM     54  N   UNL A   1      43.587  26.591  30.524  1.00  0.00    -0.248 NA
ATOM     55  C   UNL A   1      44.498  24.776  29.369  1.00  0.00     0.031 C 
ATOM     56  C   UNL A   1      45.452  28.458  34.106  1.00  0.00     0.029 A 
ATOM     57  C   UNL A   1      44.890  27.857  32.991  1.00  0.00     0.049 A 
ATOM     58  H   UNL A   1      43.113  28.356  31.967  1.00  0.00     0.167 HD
ATOM     59  C   UNL A   1      44.764  26.194  31.153  1.00  0.00     0.074 A 
ATOM     60  C   UNL A   1      45.261  25.049  30.416  1.00  0.00     0.031 C 
ATOM     61  C   UNL A   1      45.378  26.722  32.242  1.00  0.00     0.034 A 
BRANCH  48  62
ATOM     62  C   UNL A   1      42.417  31.604  34.678  1.00  0.00     0.023 A 
ATOM     63  C   UNL A   1      41.532  31.583  35.771  1.00  0.00     0.031 A 
ATOM     64  C   UNL A   1      43.278  32.707  34.551  1.00  0.00     0.131 A 
ATOM     65  C   UNL A   1      41.473  32.678  36.646  1.00  0.00     0.055 A 
ATOM     66  C   UNL A   1      43.271  33.757  35.473  1.00  0.00     0.041 A 
ATOM     67  F   UNL A   1      44.132  32.794  33.519  1.00  0.00    -0.206 F 
ATOM     68  C   UNL A   1      42.354  33.753  36.520  1.00  0.00     0.022 A 
BRANCH  65  69
ATOM     69  S   UNL A   1      40.133  32.740  37.866  1.00  0.00     0.124 S 
ATOM     70  O   UNL A   1      39.193  31.762  37.322  1.00  0.00    -0.237 OA
ATOM     71  O   UNL A   1      40.810  32.357  39.099  1.00  0.00    -0.237 OA
ATOM     72  O   UNL A   1      39.680  34.128  37.808  1.00  0.00    -0.744 OA
ENDBRANCH  65  69
ENDBRANCH  48  62
BRANCH  49  73
ATOM     73  C   UNL A   1      42.332  24.718  27.396  1.00  0.00     0.023 A 
ATOM     74  C   UNL A   1      41.561  23.546  27.445  1.00  0.00     0.031 A 
ATOM     75  C   UNL A   1      43.167  24.911  26.281  1.00  0.00     0.131 A 
ATOM     76  C   UNL A   1      41.676  22.589  26.426  1.00  0.00     0.055 A 
ATOM     77  C   UNL A   1      43.240  23.979  25.244  1.00  0.00     0.041 A 
ATOM     78  F   UNL A   1      43.921  26.018  26.181  1.00  0.00    -0.206 F 
ATOM     79  C   UNL A   1      42.501  22.803  25.320  1.00  0.00     0.022 A 
BRANCH  76  80
ATOM     80  S   UNL A   1      40.791  21.016  26.608  1.00  0.00     0.124 S 
ATOM     81  O   UNL A   1      41.636  20.109  25.838  1.00  0.00    -0.237 OA
ATOM     82  O   UNL A   1      40.801  20.829  28.055  1.00  0.00    -0.237 OA
ATOM     83  O   UNL A   1      39.480  21.293  26.027  1.00  0.00    -0.744 OA
ENDBRANCH  76  80
ENDBRANCH  49  73
BRANCH  61  84
ATOM     84  C   UNL A   1      46.629  26.030  32.723  1.00  0.00     0.023 A 
ATOM     85  C   UNL A   1      46.580  24.947  33.618  1.00  0.00     0.031 A 
ATOM     86  C   UNL A   1      47.891  26.477  32.294  1.00  0.00     0.131 A 
ATOM     87  C   UNL A   1      47.771  24.388  34.103  1.00  0.00     0.055 A 
ATOM     88  C   UNL A   1      49.072  25.878  32.734  1.00  0.00     0.041 A 
ATOM     89  F   UNL A   1      47.997  27.507  31.440  1.00  0.00    -0.206 F 
ATOM     90  C   UNL A   1      49.016  24.836  33.655  1.00  0.00     0.022 A 
BRANCH  87  91
ATOM     91  S   UNL A   1      47.674  23.127  35.405  1.00  0.00     0.124 S 
ATOM     92  O   UNL A   1      46.916  22.068  34.746  1.00  0.00    -0.237 OA
ATOM     93  O   UNL A   1      49.080  22.838  35.665  1.00  0.00    -0.237 OA
ATOM     94  O   UNL A   1      46.971  23.809  36.491  1.00  0.00    -0.744 OA
ENDBRANCH  87  91
ENDBRANCH  61  84
ENDBRANCH  35  36
ENDBRANCH  27  30
ENDBRANCH  25  26
ENDBRANCH  24  25
ENDBRANCH   1  24
TORSDOF 17
ENDMDL
