MODEL 1
REMARK VINA RESULT:     -11.5      0.000      0.000
REMARK SMILES CC[NH2+][C@@]1(C(=O)NCCCCCCNC(=O)c2ccc(-c3c4nc(c(-c5cc(S(=O)(=O)[O-])ccc5F)c5ccc([nH]5)c(-c5cc(S(=O)(=O)[O-])ccc5F)c5nc(c(-c6cc(S(=O)(=O)[O-])ccc6F)c6ccc3[nH]6)C=C5)C=C4)cc2)CC[C@H](Oc2ccc3c(c2)OCO3)C1
REMARK SMILES IDX 11 1 10 2 9 3 8 4 7 5 5 6 6 7 4 9 80 10 93 11 81 12 82 13
REMARK SMILES IDX 3 14 2 17 1 18 83 19 84 20 85 21 89 22 86 23 88 24 87 25
REMARK SMILES IDX 90 26 92 27 91 28 12 29 13 30 14 31 15 32 16 34 17 35 18 36
REMARK SMILES IDX 79 37 19 38 78 39 20 40 21 41 22 42 72 43 23 44 77 45 71 46
REMARK SMILES IDX 73 47 24 48 76 49 70 50 69 51 25 53 57 54 37 55 56 56 38 57
REMARK SMILES IDX 41 58 55 59 74 60 39 61 40 62 54 64 75 65 42 66 26 67 27 68
REMARK SMILES IDX 35 69 28 70 34 71 36 72 33 73 29 74 30 75 31 76 32 77 58 78
REMARK SMILES IDX 59 79 67 80 60 81 66 82 68 83 65 84 61 85 62 86 63 87 64 88
REMARK SMILES IDX 43 89 44 90 52 91 45 92 51 93 53 94 50 95 46 96 47 97 48 98
REMARK SMILES IDX 49 99
REMARK H PARENT 7 8 3 15 3 16 14 33 73 52 41 63
REMARK Flexibility Score: inf
ROOT
ATOM      1  C   UNL A   1      36.077  23.332  23.564  1.00  0.00     0.002 C 
ENDROOT
BRANCH   1   2
ATOM      2  C   UNL A   1      34.817  24.191  23.730  1.00  0.00     0.002 C 
BRANCH   2   3
ATOM      3  C   UNL A   1      34.611  24.833  25.099  1.00  0.00     0.021 C 
BRANCH   3   4
ATOM      4  C   UNL A   1      33.736  26.082  25.152  1.00  0.00     0.116 C 
BRANCH   4   5
ATOM      5  N   UNL A   1      34.024  27.022  24.099  1.00  0.00    -0.351 N 
ATOM      6  C   UNL A   1      33.233  27.598  23.152  1.00  0.00     0.281 C 
ATOM      7  O   UNL A   1      33.871  28.205  22.279  1.00  0.00    -0.268 OA
ATOM      8  H   UNL A   1      34.966  27.300  24.056  1.00  0.00     0.163 HD
BRANCH   6   9
ATOM      9  C   UNL A   1      31.643  27.481  23.104  1.00  0.00     0.179 C 
ATOM     10  C   UNL A   1      30.892  27.495  24.454  1.00  0.00     0.083 C 
ATOM     11  C   UNL A   1      31.261  26.137  22.437  1.00  0.00     0.124 C 
ATOM     12  C   UNL A   1      30.397  26.077  24.743  1.00  0.00     0.052 C 
ATOM     13  C   UNL A   1      30.298  25.402  23.379  1.00  0.00     0.180 C 
BRANCH   9  14
ATOM     14  N   UNL A   1      31.120  28.603  22.253  1.00  0.00    -0.334 N 
ATOM     15  H   UNL A   1      31.918  29.112  21.875  1.00  0.00     0.347 HD
ATOM     16  H   UNL A   1      30.539  28.167  21.537  1.00  0.00     0.347 HD
BRANCH  14  17
ATOM     17  C   UNL A   1      30.257  29.565  22.950  1.00  0.00     0.257 C 
ATOM     18  C   UNL A   1      28.834  29.459  22.416  1.00  0.00     0.071 C 
ENDBRANCH  14  17
ENDBRANCH   9  14
BRANCH  13  19
ATOM     19  O   UNL A   1      30.366  23.979  23.238  1.00  0.00    -0.490 OA
BRANCH  19  20
ATOM     20  C   UNL A   1      31.179  23.202  24.009  1.00  0.00     0.123 A 
ATOM     21  C   UNL A   1      31.225  23.329  25.409  1.00  0.00     0.050 A 
ATOM     22  C   UNL A   1      31.797  22.104  23.393  1.00  0.00     0.097 A 
ATOM     23  C   UNL A   1      31.938  22.413  26.195  1.00  0.00     0.054 A 
ATOM     24  C   UNL A   1      32.481  21.207  24.190  1.00  0.00     0.169 A 
ATOM     25  C   UNL A   1      32.551  21.361  25.553  1.00  0.00     0.166 A 
ATOM     26  O   UNL A   1      33.148  20.100  23.759  1.00  0.00    -0.453 OA
ATOM     27  O   UNL A   1      33.275  20.378  26.147  1.00  0.00    -0.454 OA
ATOM     28  C   UNL A   1      33.720  19.629  24.996  1.00  0.00     0.468 C 
ENDBRANCH  19  20
ENDBRANCH  13  19
ENDBRANCH   6   9
ENDBRANCH   4   5
ENDBRANCH   3   4
ENDBRANCH   2   3
ENDBRANCH   1   2
BRANCH   1  29
ATOM     29  C   UNL A   1      36.117  21.984  24.302  1.00  0.00     0.021 C 
BRANCH  29  30
ATOM     30  C   UNL A   1      36.801  21.962  25.673  1.00  0.00     0.116 C 
BRANCH  30  31
ATOM     31  N   UNL A   1      37.909  21.027  25.753  1.00  0.00    -0.352 N 
ATOM     32  C   UNL A   1      39.210  21.244  26.152  1.00  0.00     0.251 C 
ATOM     33  H   UNL A   1      37.700  20.103  25.484  1.00  0.00     0.163 HD
ATOM     34  O   UNL A   1      40.021  20.324  26.098  1.00  0.00    -0.269 OA
BRANCH  32  35
ATOM     35  C   UNL A   1      39.648  22.581  26.621  1.00  0.00     0.039 A 
ATOM     36  C   UNL A   1      40.601  22.672  27.636  1.00  0.00     0.014 A 
ATOM     37  C   UNL A   1      39.092  23.748  26.100  1.00  0.00     0.014 A 
ATOM     38  C   UNL A   1      41.040  23.930  28.073  1.00  0.00     0.010 A 
ATOM     39  C   UNL A   1      39.576  25.005  26.490  1.00  0.00     0.010 A 
ATOM     40  C   UNL A   1      40.568  25.116  27.477  1.00  0.00    -0.014 A 
BRANCH  40  41
ATOM     41  C   UNL A   1      41.150  26.446  27.850  1.00  0.00     0.031 A 
ATOM     42  C   UNL A   1      42.576  26.817  27.515  1.00  0.00     0.074 A 
ATOM     43  C   UNL A   1      40.395  27.331  28.536  1.00  0.00     0.049 A 
ATOM     44  N   UNL A   1      43.224  27.929  27.770  1.00  0.00    -0.248 NA
ATOM     45  C   UNL A   1      43.385  25.801  26.831  1.00  0.00     0.031 C 
ATOM     46  C   UNL A   1      39.022  27.097  28.986  1.00  0.00     0.029 A 
ATOM     47  N   UNL A   1      40.669  28.608  28.971  1.00  0.00    -0.354 N 
ATOM     48  C   UNL A   1      44.517  27.745  27.287  1.00  0.00     0.074 A 
ATOM     49  C   UNL A   1      44.572  26.389  26.777  1.00  0.00     0.031 C 
ATOM     50  C   UNL A   1      38.558  28.203  29.588  1.00  0.00     0.029 A 
ATOM     51  C   UNL A   1      39.612  29.213  29.616  1.00  0.00     0.049 A 
ATOM     52  H   UNL A   1      41.538  29.048  28.835  1.00  0.00     0.167 HD
ATOM     53  C   UNL A   1      45.552  28.624  27.247  1.00  0.00     0.034 A 
ATOM     54  C   UNL A   1      39.495  30.436  30.172  1.00  0.00     0.034 A 
ATOM     55  C   UNL A   1      45.491  29.983  27.737  1.00  0.00     0.049 A 
ATOM     56  C   UNL A   1      40.659  31.391  30.126  1.00  0.00     0.074 A 
ATOM     57  C   UNL A   1      46.465  30.968  27.667  1.00  0.00     0.029 A 
ATOM     58  N   UNL A   1      44.409  30.550  28.395  1.00  0.00    -0.354 N 
ATOM     59  N   UNL A   1      41.852  31.216  29.606  1.00  0.00    -0.248 NA
ATOM     60  C   UNL A   1      40.459  32.713  30.736  1.00  0.00     0.031 C 
ATOM     61  C   UNL A   1      45.999  32.103  28.341  1.00  0.00     0.029 A 
ATOM     62  C   UNL A   1      44.705  31.857  28.765  1.00  0.00     0.049 A 
ATOM     63  H   UNL A   1      43.556  30.093  28.574  1.00  0.00     0.167 HD
ATOM     64  C   UNL A   1      42.530  32.416  29.802  1.00  0.00     0.074 A 
ATOM     65  C   UNL A   1      41.611  33.311  30.473  1.00  0.00     0.031 C 
ATOM     66  C   UNL A   1      43.798  32.747  29.451  1.00  0.00     0.034 A 
BRANCH  53  67
ATOM     67  C   UNL A   1      46.859  28.140  26.657  1.00  0.00     0.023 A 
ATOM     68  C   UNL A   1      47.097  28.167  25.272  1.00  0.00     0.031 A 
ATOM     69  C   UNL A   1      47.882  27.651  27.489  1.00  0.00     0.131 A 
ATOM     70  C   UNL A   1      48.294  27.646  24.755  1.00  0.00     0.055 A 
ATOM     71  C   UNL A   1      49.104  27.211  26.975  1.00  0.00     0.041 A 
ATOM     72  F   UNL A   1      47.711  27.589  28.819  1.00  0.00    -0.206 F 
ATOM     73  C   UNL A   1      49.310  27.193  25.599  1.00  0.00     0.022 A 
BRANCH  70  74
ATOM     74  S   UNL A   1      48.444  27.445  22.959  1.00  0.00     0.124 S 
ATOM     75  O   UNL A   1      47.328  28.257  22.478  1.00  0.00    -0.237 OA
ATOM     76  O   UNL A   1      49.778  27.968  22.693  1.00  0.00    -0.237 OA
ATOM     77  O   UNL A   1      48.286  26.004  22.761  1.00  0.00    -0.744 OA
ENDBRANCH  70  74
ENDBRANCH  53  67
BRANCH  54  78
ATOM     78  C   UNL A   1      38.221  30.840  30.835  1.00  0.00     0.023 A 
ATOM     79  C   UNL A   1      37.231  31.542  30.129  1.00  0.00     0.031 A 
ATOM     80  C   UNL A   1      37.995  30.566  32.195  1.00  0.00     0.131 A 
ATOM     81  C   UNL A   1      36.081  31.989  30.798  1.00  0.00     0.055 A 
ATOM     82  C   UNL A   1      36.825  30.965  32.843  1.00  0.00     0.041 A 
ATOM     83  F   UNL A   1      38.908  29.892  32.913  1.00  0.00    -0.206 F 
ATOM     84  C   UNL A   1      35.864  31.693  32.146  1.00  0.00     0.022 A 
BRANCH  81  85
ATOM     85  S   UNL A   1      34.903  33.035  29.899  1.00  0.00     0.124 S 
ATOM     86  O   UNL A   1      34.304  32.079  28.974  1.00  0.00    -0.237 OA
ATOM     87  O   UNL A   1      34.042  33.515  30.973  1.00  0.00    -0.237 OA
ATOM     88  O   UNL A   1      35.754  34.051  29.282  1.00  0.00    -0.744 OA
ENDBRANCH  81  85
ENDBRANCH  54  78
BRANCH  66  89
ATOM     89  C   UNL A   1      44.253  34.156  29.750  1.00  0.00     0.023 A 
ATOM     90  C   UNL A   1      44.028  35.215  28.852  1.00  0.00     0.031 A 
ATOM     91  C   UNL A   1      44.939  34.439  30.945  1.00  0.00     0.131 A 
ATOM     92  C   UNL A   1      44.527  36.495  29.140  1.00  0.00     0.055 A 
ATOM     93  C   UNL A   1      45.384  35.726  31.251  1.00  0.00     0.041 A 
ATOM     94  F   UNL A   1      45.187  33.467  31.837  1.00  0.00    -0.206 F 
ATOM     95  C   UNL A   1      45.190  36.761  30.341  1.00  0.00     0.022 A 
BRANCH  92  96
ATOM     96  S   UNL A   1      44.373  37.797  27.884  1.00  0.00     0.124 S 
ATOM     97  O   UNL A   1      43.685  37.098  26.805  1.00  0.00    -0.237 OA
ATOM     98  O   UNL A   1      43.595  38.815  28.583  1.00  0.00    -0.237 OA
ATOM     99  O   UNL A   1      45.759  38.166  27.600  1.00  0.00    -0.744 OA
ENDBRANCH  92  96
ENDBRANCH  66  89
ENDBRANCH  40  41
ENDBRANCH  32  35
ENDBRANCH  30  31
ENDBRANCH  29  30
ENDBRANCH   1  29
TORSDOF 20
ENDMDL
MODEL 2
REMARK VINA RESULT:     -11.2      5.613      8.809
REMARK SMILES CC[NH2+][C@@]1(C(=O)NCCCCCCNC(=O)c2ccc(-c3c4nc(c(-c5cc(S(=O)(=O)[O-])ccc5F)c5ccc([nH]5)c(-c5cc(S(=O)(=O)[O-])ccc5F)c5nc(c(-c6cc(S(=O)(=O)[O-])ccc6F)c6ccc3[nH]6)C=C5)C=C4)cc2)CC[C@H](Oc2ccc3c(c2)OCO3)C1
REMARK SMILES IDX 11 1 10 2 9 3 8 4 7 5 5 6 6 7 4 9 80 10 93 11 81 12 82 13
REMARK SMILES IDX 3 14 2 17 1 18 83 19 84 20 85 21 89 22 86 23 88 24 87 25
REMARK SMILES IDX 90 26 92 27 91 28 12 29 13 30 14 31 15 32 16 34 17 35 18 36
REMARK SMILES IDX 79 37 19 38 78 39 20 40 21 41 22 42 72 43 23 44 77 45 71 46
REMARK SMILES IDX 73 47 24 48 76 49 70 50 69 51 25 53 57 54 37 55 56 56 38 57
REMARK SMILES IDX 41 58 55 59 74 60 39 61 40 62 54 64 75 65 42 66 26 67 27 68
REMARK SMILES IDX 35 69 28 70 34 71 36 72 33 73 29 74 30 75 31 76 32 77 58 78
REMARK SMILES IDX 59 79 67 80 60 81 66 82 68 83 65 84 61 85 62 86 63 87 64 88
REMARK SMILES IDX 43 89 44 90 52 91 45 92 51 93 53 94 50 95 46 96 47 97 48 98
REMARK SMILES IDX 49 99
REMARK H PARENT 7 8 3 15 3 16 14 33 73 52 41 63
REMARK Flexibility Score: inf
ROOT
ATOM      1  C   UNL A   1      31.570  30.517  26.535  1.00  0.00     0.002 C 
ENDROOT
BRANCH   1   2
ATOM      2  C   UNL A   1      32.874  29.844  26.090  1.00  0.00     0.002 C 
BRANCH   2   3
ATOM      3  C   UNL A   1      32.908  29.308  24.662  1.00  0.00     0.021 C 
BRANCH   3   4
ATOM      4  C   UNL A   1      33.952  28.242  24.347  1.00  0.00     0.116 C 
BRANCH   4   5
ATOM      5  N   UNL A   1      33.838  27.711  23.013  1.00  0.00    -0.351 N 
ATOM      6  C   UNL A   1      33.496  26.477  22.550  1.00  0.00     0.281 C 
ATOM      7  O   UNL A   1      33.706  26.328  21.337  1.00  0.00    -0.268 OA
ATOM      8  H   UNL A   1      34.045  28.360  22.304  1.00  0.00     0.163 HD
BRANCH   6   9
ATOM      9  C   UNL A   1      32.930  25.293  23.457  1.00  0.00     0.179 C 
ATOM     10  C   UNL A   1      32.129  24.179  22.746  1.00  0.00     0.083 C 
ATOM     11  C   UNL A   1      31.959  25.888  24.507  1.00  0.00     0.124 C 
ATOM     12  C   UNL A   1      30.650  24.356  23.090  1.00  0.00     0.052 C 
ATOM     13  C   UNL A   1      30.634  25.120  24.410  1.00  0.00     0.180 C 
BRANCH   9  14
ATOM     14  N   UNL A   1      34.088  24.666  24.179  1.00  0.00    -0.334 N 
ATOM     15  H   UNL A   1      34.850  25.342  24.202  1.00  0.00     0.347 HD
ATOM     16  H   UNL A   1      33.741  24.412  25.104  1.00  0.00     0.347 HD
BRANCH  14  17
ATOM     17  C   UNL A   1      34.598  23.426  23.580  1.00  0.00     0.257 C 
ATOM     18  C   UNL A   1      35.396  22.645  24.618  1.00  0.00     0.071 C 
ENDBRANCH  14  17
ENDBRANCH   9  14
BRANCH  13  19
ATOM     19  O   UNL A   1      29.508  25.909  24.809  1.00  0.00    -0.490 OA
BRANCH  19  20
ATOM     20  C   UNL A   1      28.967  26.873  24.011  1.00  0.00     0.123 A 
ATOM     21  C   UNL A   1      27.583  27.125  23.978  1.00  0.00     0.050 A 
ATOM     22  C   UNL A   1      29.849  27.774  23.397  1.00  0.00     0.097 A 
ATOM     23  C   UNL A   1      27.065  28.225  23.281  1.00  0.00     0.054 A 
ATOM     24  C   UNL A   1      29.316  28.859  22.729  1.00  0.00     0.169 A 
ATOM     25  C   UNL A   1      27.960  29.075  22.671  1.00  0.00     0.166 A 
ATOM     26  O   UNL A   1      30.021  29.819  22.069  1.00  0.00    -0.453 OA
ATOM     27  O   UNL A   1      27.645  30.189  21.962  1.00  0.00    -0.454 OA
ATOM     28  C   UNL A   1      28.951  30.609  21.513  1.00  0.00     0.468 C 
ENDBRANCH  19  20
ENDBRANCH  13  19
ENDBRANCH   6   9
ENDBRANCH   4   5
ENDBRANCH   3   4
ENDBRANCH   2   3
ENDBRANCH   1   2
BRANCH   1  29
ATOM     29  C   UNL A   1      31.535  32.053  26.548  1.00  0.00     0.021 C 
BRANCH  29  30
ATOM     30  C   UNL A   1      32.724  32.771  27.194  1.00  0.00     0.116 C 
BRANCH  30  31
ATOM     31  N   UNL A   1      32.412  34.112  27.656  1.00  0.00    -0.352 N 
ATOM     32  C   UNL A   1      33.016  34.861  28.641  1.00  0.00     0.251 C 
ATOM     33  H   UNL A   1      31.658  34.550  27.196  1.00  0.00     0.163 HD
ATOM     34  O   UNL A   1      32.565  35.968  28.922  1.00  0.00    -0.269 OA
BRANCH  32  35
ATOM     35  C   UNL A   1      34.188  34.337  29.383  1.00  0.00     0.039 A 
ATOM     36  C   UNL A   1      34.018  33.861  30.684  1.00  0.00     0.014 A 
ATOM     37  C   UNL A   1      35.465  34.354  28.824  1.00  0.00     0.014 A 
ATOM     38  C   UNL A   1      35.114  33.342  31.388  1.00  0.00     0.010 A 
ATOM     39  C   UNL A   1      36.548  33.776  29.501  1.00  0.00     0.010 A 
ATOM     40  C   UNL A   1      36.388  33.249  30.792  1.00  0.00    -0.014 A 
BRANCH  40  41
ATOM     41  C   UNL A   1      37.516  32.561  31.498  1.00  0.00     0.031 A 
ATOM     42  C   UNL A   1      38.261  31.403  30.877  1.00  0.00     0.074 A 
ATOM     43  C   UNL A   1      37.862  32.960  32.742  1.00  0.00     0.049 A 
ATOM     44  N   UNL A   1      39.260  30.705  31.363  1.00  0.00    -0.248 NA
ATOM     45  C   UNL A   1      37.810  30.955  29.554  1.00  0.00     0.031 C 
ATOM     46  C   UNL A   1      37.199  34.022  33.501  1.00  0.00     0.029 A 
ATOM     47  N   UNL A   1      38.858  32.527  33.587  1.00  0.00    -0.354 N 
ATOM     48  C   UNL A   1      39.553  29.731  30.411  1.00  0.00     0.074 A 
ATOM     49  C   UNL A   1      38.581  29.896  29.347  1.00  0.00     0.031 C 
ATOM     50  C   UNL A   1      37.831  34.191  34.673  1.00  0.00     0.029 A 
ATOM     51  C   UNL A   1      38.915  33.218  34.778  1.00  0.00     0.049 A 
ATOM     52  H   UNL A   1      39.472  31.792  33.363  1.00  0.00     0.167 HD
ATOM     53  C   UNL A   1      40.546  28.804  30.407  1.00  0.00     0.034 A 
ATOM     54  C   UNL A   1      39.737  33.090  35.840  1.00  0.00     0.034 A 
ATOM     55  C   UNL A   1      41.526  28.652  31.458  1.00  0.00     0.049 A 
ATOM     56  C   UNL A   1      40.825  32.047  35.819  1.00  0.00     0.074 A 
ATOM     57  C   UNL A   1      42.614  27.793  31.503  1.00  0.00     0.029 A 
ATOM     58  N   UNL A   1      41.539  29.360  32.651  1.00  0.00    -0.354 N 
ATOM     59  N   UNL A   1      41.121  31.180  34.879  1.00  0.00    -0.248 NA
ATOM     60  C   UNL A   1      41.695  31.973  37.001  1.00  0.00     0.031 C 
ATOM     61  C   UNL A   1      43.241  27.933  32.747  1.00  0.00     0.029 A 
ATOM     62  C   UNL A   1      42.594  28.934  33.450  1.00  0.00     0.049 A 
ATOM     63  H   UNL A   1      40.896  30.063  32.897  1.00  0.00     0.167 HD
ATOM     64  C   UNL A   1      42.229  30.478  35.348  1.00  0.00     0.074 A 
ATOM     65  C   UNL A   1      42.557  31.032  36.643  1.00  0.00     0.031 C 
ATOM     66  C   UNL A   1      42.914  29.470  34.751  1.00  0.00     0.034 A 
BRANCH  53  67
ATOM     67  C   UNL A   1      40.620  27.863  29.224  1.00  0.00     0.023 A 
ATOM     68  C   UNL A   1      41.528  28.071  28.173  1.00  0.00     0.031 A 
ATOM     69  C   UNL A   1      39.776  26.739  29.150  1.00  0.00     0.131 A 
ATOM     70  C   UNL A   1      41.522  27.216  27.060  1.00  0.00     0.055 A 
ATOM     71  C   UNL A   1      39.832  25.844  28.079  1.00  0.00     0.041 A 
ATOM     72  F   UNL A   1      38.879  26.492  30.118  1.00  0.00    -0.206 F 
ATOM     73  C   UNL A   1      40.699  26.089  27.018  1.00  0.00     0.022 A 
BRANCH  70  74
ATOM     74  S   UNL A   1      42.509  27.677  25.610  1.00  0.00     0.124 S 
ATOM     75  O   UNL A   1      43.854  27.737  26.177  1.00  0.00    -0.237 OA
ATOM     76  O   UNL A   1      42.249  26.577  24.689  1.00  0.00    -0.237 OA
ATOM     77  O   UNL A   1      41.950  28.970  25.213  1.00  0.00    -0.744 OA
ENDBRANCH  70  74
ENDBRANCH  53  67
BRANCH  54  78
ATOM     78  C   UNL A   1      39.567  33.972  37.031  1.00  0.00     0.023 A 
ATOM     79  C   UNL A   1      38.975  33.488  38.208  1.00  0.00     0.031 A 
ATOM     80  C   UNL A   1      39.952  35.322  36.991  1.00  0.00     0.131 A 
ATOM     81  C   UNL A   1      38.744  34.360  39.283  1.00  0.00     0.055 A 
ATOM     82  C   UNL A   1      39.771  36.173  38.083  1.00  0.00     0.041 A 
ATOM     83  F   UNL A   1      40.528  35.833  35.890  1.00  0.00    -0.206 F 
ATOM     84  C   UNL A   1      39.150  35.696  39.233  1.00  0.00     0.022 A 
BRANCH  81  85
ATOM     85  S   UNL A   1      37.829  33.743  40.722  1.00  0.00     0.124 S 
ATOM     86  O   UNL A   1      38.835  32.919  41.383  1.00  0.00    -0.237 OA
ATOM     87  O   UNL A   1      37.463  34.980  41.403  1.00  0.00    -0.237 OA
ATOM     88  O   UNL A   1      36.714  33.009  40.127  1.00  0.00    -0.744 OA
ENDBRANCH  81  85
ENDBRANCH  54  78
BRANCH  66  89
ATOM     89  C   UNL A   1      44.120  28.928  35.482  1.00  0.00     0.023 A 
ATOM     90  C   UNL A   1      44.023  27.842  36.371  1.00  0.00     0.031 A 
ATOM     91  C   UNL A   1      45.383  29.519  35.298  1.00  0.00     0.131 A 
ATOM     92  C   UNL A   1      45.157  27.414  37.080  1.00  0.00     0.055 A 
ATOM     93  C   UNL A   1      46.518  29.052  35.964  1.00  0.00     0.041 A 
ATOM     94  F   UNL A   1      45.536  30.561  34.466  1.00  0.00    -0.206 F 
ATOM     95  C   UNL A   1      46.407  28.002  36.870  1.00  0.00     0.022 A 
BRANCH  92  96
ATOM     96  S   UNL A   1      44.963  26.129  38.347  1.00  0.00     0.124 S 
ATOM     97  O   UNL A   1      46.293  26.087  38.943  1.00  0.00    -0.237 OA
ATOM     98  O   UNL A   1      43.905  26.678  39.190  1.00  0.00    -0.237 OA
ATOM     99  O   UNL A   1      44.589  24.942  37.580  1.00  0.00    -0.744 OA
ENDBRANCH  92  96
ENDBRANCH  66  89
ENDBRANCH  40  41
ENDBRANCH  32  35
ENDBRANCH  30  31
ENDBRANCH  29  30
ENDBRANCH   1  29
TORSDOF 20
ENDMDL
MODEL 3
REMARK VINA RESULT:     -11.0      5.112      9.038
REMARK SMILES CC[NH2+][C@@]1(C(=O)NCCCCCCNC(=O)c2ccc(-c3c4nc(c(-c5cc(S(=O)(=O)[O-])ccc5F)c5ccc([nH]5)c(-c5cc(S(=O)(=O)[O-])ccc5F)c5nc(c(-c6cc(S(=O)(=O)[O-])ccc6F)c6ccc3[nH]6)C=C5)C=C4)cc2)CC[C@H](Oc2ccc3c(c2)OCO3)C1
REMARK SMILES IDX 11 1 10 2 9 3 8 4 7 5 5 6 6 7 4 9 80 10 93 11 81 12 82 13
REMARK SMILES IDX 3 14 2 17 1 18 83 19 84 20 85 21 89 22 86 23 88 24 87 25
REMARK SMILES IDX 90 26 92 27 91 28 12 29 13 30 14 31 15 32 16 34 17 35 18 36
REMARK SMILES IDX 79 37 19 38 78 39 20 40 21 41 22 42 72 43 23 44 77 45 71 46
REMARK SMILES IDX 73 47 24 48 76 49 70 50 69 51 25 53 57 54 37 55 56 56 38 57
REMARK SMILES IDX 41 58 55 59 74 60 39 61 40 62 54 64 75 65 42 66 26 67 27 68
REMARK SMILES IDX 35 69 28 70 34 71 36 72 33 73 29 74 30 75 31 76 32 77 58 78
REMARK SMILES IDX 59 79 67 80 60 81 66 82 68 83 65 84 61 85 62 86 63 87 64 88
REMARK SMILES IDX 43 89 44 90 52 91 45 92 51 93 53 94 50 95 46 96 47 97 48 98
REMARK SMILES IDX 49 99
REMARK H PARENT 7 8 3 15 3 16 14 33 73 52 41 63
REMARK Flexibility Score: inf
ROOT
ATOM      1  C   UNL A   1      39.463  21.738  26.256  1.00  0.00     0.002 C 
ENDROOT
BRANCH   1   2
ATOM      2  C   UNL A   1      38.112  21.432  25.598  1.00  0.00     0.002 C 
BRANCH   2   3
ATOM      3  C   UNL A   1      37.518  22.536  24.727  1.00  0.00     0.021 C 
BRANCH   3   4
ATOM      4  C   UNL A   1      36.038  22.852  24.926  1.00  0.00     0.116 C 
BRANCH   4   5
ATOM      5  N   UNL A   1      35.441  22.117  26.011  1.00  0.00    -0.351 N 
ATOM      6  C   UNL A   1      34.143  21.883  26.347  1.00  0.00     0.281 C 
ATOM      7  O   UNL A   1      34.006  21.378  27.471  1.00  0.00    -0.268 OA
ATOM      8  H   UNL A   1      36.092  21.707  26.625  1.00  0.00     0.163 HD
BRANCH   6   9
ATOM      9  C   UNL A   1      32.889  22.259  25.437  1.00  0.00     0.179 C 
ATOM     10  C   UNL A   1      32.794  21.584  24.050  1.00  0.00     0.083 C 
ATOM     11  C   UNL A   1      32.917  23.781  25.149  1.00  0.00     0.124 C 
ATOM     12  C   UNL A   1      33.132  22.627  22.984  1.00  0.00     0.052 C 
ATOM     13  C   UNL A   1      32.826  23.974  23.630  1.00  0.00     0.180 C 
BRANCH   9  14
ATOM     14  N   UNL A   1      31.640  21.943  26.210  1.00  0.00    -0.334 N 
ATOM     15  H   UNL A   1      31.037  21.374  25.618  1.00  0.00     0.347 HD
ATOM     16  H   UNL A   1      31.946  21.466  27.058  1.00  0.00     0.347 HD
BRANCH  14  17
ATOM     17  C   UNL A   1      30.869  23.112  26.654  1.00  0.00     0.257 C 
ATOM     18  C   UNL A   1      29.523  22.659  27.205  1.00  0.00     0.071 C 
ENDBRANCH  14  17
ENDBRANCH   9  14
BRANCH  13  19
ATOM     19  O   UNL A   1      33.457  25.181  23.188  1.00  0.00    -0.490 OA
BRANCH  19  20
ATOM     20  C   UNL A   1      32.804  26.377  23.138  1.00  0.00     0.123 A 
ATOM     21  C   UNL A   1      33.473  27.581  22.849  1.00  0.00     0.050 A 
ATOM     22  C   UNL A   1      31.403  26.348  23.147  1.00  0.00     0.097 A 
ATOM     23  C   UNL A   1      32.761  28.770  22.638  1.00  0.00     0.054 A 
ATOM     24  C   UNL A   1      30.723  27.529  22.922  1.00  0.00     0.169 A 
ATOM     25  C   UNL A   1      31.385  28.708  22.678  1.00  0.00     0.166 A 
ATOM     26  O   UNL A   1      29.370  27.685  22.911  1.00  0.00    -0.453 OA
ATOM     27  O   UNL A   1      30.535  29.749  22.492  1.00  0.00    -0.454 OA
ATOM     28  C   UNL A   1      29.262  29.111  22.723  1.00  0.00     0.468 C 
ENDBRANCH  19  20
ENDBRANCH  13  19
ENDBRANCH   6   9
ENDBRANCH   4   5
ENDBRANCH   3   4
ENDBRANCH   2   3
ENDBRANCH   1   2
BRANCH   1  29
ATOM     29  C   UNL A   1      40.681  20.929  25.782  1.00  0.00     0.021 C 
BRANCH  29  30
ATOM     30  C   UNL A   1      42.048  21.337  26.341  1.00  0.00     0.116 C 
BRANCH  30  31
ATOM     31  N   UNL A   1      42.901  21.993  25.365  1.00  0.00    -0.352 N 
ATOM     32  C   UNL A   1      43.226  23.326  25.243  1.00  0.00     0.251 C 
ATOM     33  H   UNL A   1      43.307  21.397  24.694  1.00  0.00     0.163 HD
ATOM     34  O   UNL A   1      43.931  23.694  24.308  1.00  0.00    -0.269 OA
BRANCH  32  35
ATOM     35  C   UNL A   1      42.717  24.325  26.214  1.00  0.00     0.039 A 
ATOM     36  C   UNL A   1      41.656  23.984  27.054  1.00  0.00     0.014 A 
ATOM     37  C   UNL A   1      43.246  25.613  26.271  1.00  0.00     0.014 A 
ATOM     38  C   UNL A   1      41.179  24.911  27.992  1.00  0.00     0.010 A 
ATOM     39  C   UNL A   1      42.814  26.519  27.251  1.00  0.00     0.010 A 
ATOM     40  C   UNL A   1      41.779  26.178  28.136  1.00  0.00    -0.014 A 
BRANCH  40  41
ATOM     41  C   UNL A   1      41.359  27.104  29.236  1.00  0.00     0.031 A 
ATOM     42  C   UNL A   1      40.115  27.956  29.133  1.00  0.00     0.074 A 
ATOM     43  C   UNL A   1      42.126  27.212  30.343  1.00  0.00     0.049 A 
ATOM     44  N   UNL A   1      39.619  28.805  30.002  1.00  0.00    -0.248 NA
ATOM     45  C   UNL A   1      39.346  27.862  27.886  1.00  0.00     0.031 C 
ATOM     46  C   UNL A   1      43.387  26.502  30.566  1.00  0.00     0.029 A 
ATOM     47  N   UNL A   1      41.960  27.951  31.491  1.00  0.00    -0.354 N 
ATOM     48  C   UNL A   1      38.486  29.353  29.405  1.00  0.00     0.074 A 
ATOM     49  C   UNL A   1      38.407  28.779  28.075  1.00  0.00     0.031 C 
ATOM     50  C   UNL A   1      43.855  26.801  31.787  1.00  0.00     0.029 A 
ATOM     51  C   UNL A   1      42.958  27.763  32.422  1.00  0.00     0.049 A 
ATOM     52  H   UNL A   1      41.200  28.559  31.634  1.00  0.00     0.167 HD
ATOM     53  C   UNL A   1      37.583  30.229  29.918  1.00  0.00     0.034 A 
ATOM     54  C   UNL A   1      43.142  28.298  33.647  1.00  0.00     0.034 A 
ATOM     55  C   UNL A   1      37.650  30.786  31.250  1.00  0.00     0.049 A 
ATOM     56  C   UNL A   1      42.134  29.277  34.191  1.00  0.00     0.074 A 
ATOM     57  C   UNL A   1      36.740  31.620  31.882  1.00  0.00     0.029 A 
ATOM     58  N   UNL A   1      38.684  30.581  32.154  1.00  0.00    -0.354 N 
ATOM     59  N   UNL A   1      41.037  29.730  33.632  1.00  0.00    -0.248 NA
ATOM     60  C   UNL A   1      42.388  29.810  35.538  1.00  0.00     0.031 C 
ATOM     61  C   UNL A   1      37.254  31.972  33.135  1.00  0.00     0.029 A 
ATOM     62  C   UNL A   1      38.448  31.299  33.321  1.00  0.00     0.049 A 
ATOM     63  H   UNL A   1      39.469  30.011  31.992  1.00  0.00     0.167 HD
ATOM     64  C   UNL A   1      40.457  30.579  34.573  1.00  0.00     0.074 A 
ATOM     65  C   UNL A   1      41.315  30.562  35.737  1.00  0.00     0.031 C 
ATOM     66  C   UNL A   1      39.311  31.300  34.478  1.00  0.00     0.034 A 
BRANCH  53  67
ATOM     67  C   UNL A   1      36.437  30.655  29.026  1.00  0.00     0.023 A 
ATOM     68  C   UNL A   1      35.467  29.739  28.584  1.00  0.00     0.031 A 
ATOM     69  C   UNL A   1      36.307  31.995  28.619  1.00  0.00     0.131 A 
ATOM     70  C   UNL A   1      34.457  30.156  27.704  1.00  0.00     0.055 A 
ATOM     71  C   UNL A   1      35.251  32.421  27.809  1.00  0.00     0.041 A 
ATOM     72  F   UNL A   1      37.208  32.916  28.998  1.00  0.00    -0.206 F 
ATOM     73  C   UNL A   1      34.327  31.496  27.334  1.00  0.00     0.022 A 
BRANCH  70  74
ATOM     74  S   UNL A   1      33.400  28.894  26.942  1.00  0.00     0.124 S 
ATOM     75  O   UNL A   1      32.639  29.690  25.982  1.00  0.00    -0.237 OA
ATOM     76  O   UNL A   1      34.372  27.967  26.377  1.00  0.00    -0.237 OA
ATOM     77  O   UNL A   1      32.621  28.376  28.066  1.00  0.00    -0.744 OA
ENDBRANCH  70  74
ENDBRANCH  53  67
BRANCH  54  78
ATOM     78  C   UNL A   1      44.341  27.929  34.454  1.00  0.00     0.023 A 
ATOM     79  C   UNL A   1      44.317  26.821  35.316  1.00  0.00     0.031 A 
ATOM     80  C   UNL A   1      45.511  28.706  34.408  1.00  0.00     0.131 A 
ATOM     81  C   UNL A   1      45.426  26.546  36.131  1.00  0.00     0.055 A 
ATOM     82  C   UNL A   1      46.632  28.397  35.181  1.00  0.00     0.041 A 
ATOM     83  F   UNL A   1      45.587  29.773  33.596  1.00  0.00    -0.206 F 
ATOM     84  C   UNL A   1      46.588  27.319  36.060  1.00  0.00     0.022 A 
BRANCH  81  85
ATOM     85  S   UNL A   1      45.298  25.210  37.351  1.00  0.00     0.124 S 
ATOM     86  O   UNL A   1      46.425  25.502  38.230  1.00  0.00    -0.237 OA
ATOM     87  O   UNL A   1      43.971  25.436  37.911  1.00  0.00    -0.237 OA
ATOM     88  O   UNL A   1      45.434  23.999  36.543  1.00  0.00    -0.744 OA
ENDBRANCH  81  85
ENDBRANCH  54  78
BRANCH  66  89
ATOM     89  C   UNL A   1      38.898  32.102  35.690  1.00  0.00     0.023 A 
ATOM     90  C   UNL A   1      38.267  31.503  36.797  1.00  0.00     0.031 A 
ATOM     91  C   UNL A   1      39.123  33.490  35.731  1.00  0.00     0.131 A 
ATOM     92  C   UNL A   1      37.839  32.297  37.872  1.00  0.00     0.055 A 
ATOM     93  C   UNL A   1      38.746  34.265  36.828  1.00  0.00     0.041 A 
ATOM     94  F   UNL A   1      39.717  34.116  34.702  1.00  0.00    -0.206 F 
ATOM     95  C   UNL A   1      38.089  33.672  37.903  1.00  0.00     0.022 A 
BRANCH  92  96
ATOM     96  S   UNL A   1      36.874  31.523  39.200  1.00  0.00     0.124 S 
ATOM     97  O   UNL A   1      36.669  30.175  38.682  1.00  0.00    -0.237 OA
ATOM     98  O   UNL A   1      37.773  31.636  40.345  1.00  0.00    -0.237 OA
ATOM     99  O   UNL A   1      35.670  32.349  39.276  1.00  0.00    -0.744 OA
ENDBRANCH  92  96
ENDBRANCH  66  89
ENDBRANCH  40  41
ENDBRANCH  32  35
ENDBRANCH  30  31
ENDBRANCH  29  30
ENDBRANCH   1  29
TORSDOF 20
ENDMDL
