MODEL 1
REMARK VINA RESULT:     -11.7      0.000      0.000
REMARK SMILES Cc1noc(C)c1CCC(=O)N1CCC2(CC1)NC(=O)C[C@@H]2C(=O)NCCCCCCNC(=O)c1ccc(-c2c3nc(c(-c4cc(S(=O)(=O)[O-])ccc4F)c4ccc([nH]4)c(-c4cc(S(=O)(=O)[O-])ccc4F)c4nc(c(-c5cc(S(=O)(=O)[O-])ccc5F)c5ccc2[nH]5)C=C4)C=C3)cc1
REMARK SMILES IDX 28 1 27 2 26 3 25 4 23 5 24 6 22 8 10 9 11 10 12 11 13 12
REMARK SMILES IDX 17 13 14 14 16 15 15 16 18 17 19 18 21 20 20 21 9 22 8 23
REMARK SMILES IDX 7 24 1 25 2 26 3 27 4 28 5 29 6 30 29 31 30 32 31 33 32 34
REMARK SMILES IDX 33 35 34 37 35 38 36 39 97 40 37 41 96 42 38 43 39 44 40 45
REMARK SMILES IDX 90 46 41 47 95 48 89 49 91 50 42 51 94 52 88 53 87 54 43 56
REMARK SMILES IDX 75 57 55 58 74 59 56 60 59 61 73 62 92 63 57 64 58 65 72 67
REMARK SMILES IDX 93 68 60 69 44 70 45 71 53 72 46 73 52 74 54 75 51 76 47 77
REMARK SMILES IDX 48 78 49 79 50 80 76 81 77 82 85 83 78 84 84 85 86 86 83 87
REMARK SMILES IDX 79 88 80 89 81 90 82 91 61 92 62 93 70 94 63 95 69 96 71 97
REMARK SMILES IDX 68 98 64 99 65 100 66 101 67 102
REMARK H PARENT 25 7 18 19 32 36 91 55 59 66
REMARK Flexibility Score: inf
ROOT
ATOM      1  C   UNL A   1      38.594  22.512  25.898  1.00  0.00     0.002 C 
ENDROOT
BRANCH   1   2
ATOM      2  C   UNL A   1      37.804  23.774  26.243  1.00  0.00     0.021 C 
BRANCH   2   3
ATOM      3  C   UNL A   1      36.596  23.992  25.355  1.00  0.00     0.116 C 
BRANCH   3   4
ATOM      4  N   UNL A   1      35.299  24.008  25.981  1.00  0.00    -0.356 N 
ATOM      5  C   UNL A   1      34.608  22.837  26.118  1.00  0.00     0.226 C 
ATOM      6  O   UNL A   1      34.565  22.363  27.262  1.00  0.00    -0.275 OA
ATOM      7  H   UNL A   1      34.914  24.854  26.306  1.00  0.00     0.163 HD
BRANCH   5   8
ATOM      8  C   UNL A   1      33.670  22.254  25.044  1.00  0.00     0.113 C 
ATOM      9  C   UNL A   1      30.352  25.903  25.275  1.00  0.00     0.222 C 
ATOM     10  O   UNL A   1      30.646  26.497  26.315  1.00  0.00    -0.275 OA
ATOM     11  N   UNL A   1      30.617  24.533  25.104  1.00  0.00    -0.343 N 
ATOM     12  C   UNL A   1      31.035  23.867  26.306  1.00  0.00     0.122 C 
ATOM     13  C   UNL A   1      31.196  24.044  23.867  1.00  0.00     0.122 C 
ATOM     14  C   UNL A   1      31.216  22.356  26.187  1.00  0.00     0.051 C 
ATOM     15  C   UNL A   1      31.448  22.547  23.774  1.00  0.00     0.051 C 
ATOM     16  C   UNL A   1      32.132  21.952  25.035  1.00  0.00     0.055 C 
ATOM     17  N   UNL A   1      32.070  20.508  24.868  1.00  0.00    -0.350 N 
ATOM     18  C   UNL A   1      33.248  19.923  24.495  1.00  0.00     0.221 C 
ATOM     19  H   UNL A   1      31.244  19.993  25.013  1.00  0.00     0.164 HD
ATOM     20  C   UNL A   1      34.350  20.916  24.650  1.00  0.00     0.116 C 
ATOM     21  O   UNL A   1      33.363  18.776  24.108  1.00  0.00    -0.275 OA
BRANCH   9  22
ATOM     22  C   UNL A   1      29.645  26.640  24.160  1.00  0.00     0.105 C 
BRANCH  22  23
ATOM     23  C   UNL A   1      30.518  27.650  23.421  1.00  0.00     0.051 C 
BRANCH  23  24
ATOM     24  C   UNL A   1      30.215  29.081  23.724  1.00  0.00     0.018 A 
ATOM     25  C   UNL A   1      28.003  29.481  22.362  1.00  0.00     0.071 C 
ATOM     26  C   UNL A   1      29.134  29.876  23.239  1.00  0.00     0.084 A 
ATOM     27  N   UNL A   1      29.152  31.103  23.775  1.00  0.00    -0.085 NA
ATOM     28  O   UNL A   1      30.232  31.127  24.631  1.00  0.00    -0.361 OA
ATOM     29  C   UNL A   1      30.856  29.920  24.615  1.00  0.00     0.137 A 
ATOM     30  C   UNL A   1      31.954  29.755  25.593  1.00  0.00     0.091 C 
ENDBRANCH  23  24
ENDBRANCH  22  23
ENDBRANCH   9  22
ENDBRANCH   5   8
ENDBRANCH   3   4
ENDBRANCH   2   3
ENDBRANCH   1   2
BRANCH   1  31
ATOM     31  C   UNL A   1      37.911  21.434  25.038  1.00  0.00     0.002 C 
BRANCH  31  32
ATOM     32  C   UNL A   1      38.563  20.051  24.964  1.00  0.00     0.021 C 
BRANCH  32  33
ATOM     33  C   UNL A   1      39.239  19.547  26.235  1.00  0.00     0.116 C 
BRANCH  33  34
ATOM     34  N   UNL A   1      40.522  18.913  25.982  1.00  0.00    -0.352 N 
ATOM     35  C   UNL A   1      41.789  19.434  25.943  1.00  0.00     0.251 C 
ATOM     36  H   UNL A   1      40.471  17.945  25.810  1.00  0.00     0.163 HD
ATOM     37  O   UNL A   1      42.719  18.723  25.570  1.00  0.00    -0.269 OA
BRANCH  35  38
ATOM     38  C   UNL A   1      42.037  20.843  26.315  1.00  0.00     0.039 A 
ATOM     39  C   UNL A   1      42.235  21.153  27.663  1.00  0.00     0.014 A 
ATOM     40  C   UNL A   1      42.060  21.856  25.353  1.00  0.00     0.014 A 
ATOM     41  C   UNL A   1      42.536  22.464  28.040  1.00  0.00     0.010 A 
ATOM     42  C   UNL A   1      42.420  23.151  25.721  1.00  0.00     0.010 A 
ATOM     43  C   UNL A   1      42.676  23.465  27.065  1.00  0.00    -0.014 A 
BRANCH  43  44
ATOM     44  C   UNL A   1      43.124  24.836  27.423  1.00  0.00     0.031 A 
ATOM     45  C   UNL A   1      42.169  25.799  28.070  1.00  0.00     0.074 A 
ATOM     46  C   UNL A   1      44.366  25.234  27.084  1.00  0.00     0.049 A 
ATOM     47  N   UNL A   1      42.329  27.069  28.336  1.00  0.00    -0.248 NA
ATOM     48  C   UNL A   1      40.850  25.266  28.441  1.00  0.00     0.031 C 
ATOM     49  C   UNL A   1      45.373  24.393  26.431  1.00  0.00     0.029 A 
ATOM     50  N   UNL A   1      44.991  26.450  27.220  1.00  0.00    -0.354 N 
ATOM     51  C   UNL A   1      41.128  27.494  28.896  1.00  0.00     0.074 A 
ATOM     52  C   UNL A   1      40.235  26.354  28.881  1.00  0.00     0.031 C 
ATOM     53  C   UNL A   1      46.487  25.113  26.234  1.00  0.00     0.029 A 
ATOM     54  C   UNL A   1      46.261  26.481  26.689  1.00  0.00     0.049 A 
ATOM     55  H   UNL A   1      44.570  27.226  27.656  1.00  0.00     0.167 HD
ATOM     56  C   UNL A   1      40.810  28.718  29.387  1.00  0.00     0.034 A 
ATOM     57  C   UNL A   1      47.132  27.501  26.556  1.00  0.00     0.034 A 
ATOM     58  C   UNL A   1      41.720  29.838  29.396  1.00  0.00     0.049 A 
ATOM     59  C   UNL A   1      46.734  28.866  27.059  1.00  0.00     0.074 A 
ATOM     60  C   UNL A   1      41.523  31.102  29.925  1.00  0.00     0.029 A 
ATOM     61  N   UNL A   1      42.991  29.837  28.837  1.00  0.00    -0.354 N 
ATOM     62  N   UNL A   1      45.611  29.239  27.631  1.00  0.00    -0.248 NA
ATOM     63  C   UNL A   1      47.717  29.944  26.901  1.00  0.00     0.031 C 
ATOM     64  C   UNL A   1      42.640  31.885  29.618  1.00  0.00     0.029 A 
ATOM     65  C   UNL A   1      43.571  31.090  28.968  1.00  0.00     0.049 A 
ATOM     66  H   UNL A   1      43.419  29.060  28.410  1.00  0.00     0.167 HD
ATOM     67  C   UNL A   1      45.766  30.591  27.921  1.00  0.00     0.074 A 
ATOM     68  C   UNL A   1      47.094  30.963  27.478  1.00  0.00     0.031 C 
ATOM     69  C   UNL A   1      44.890  31.449  28.504  1.00  0.00     0.034 A 
BRANCH  56  70
ATOM     70  C   UNL A   1      39.411  28.914  29.921  1.00  0.00     0.023 A 
ATOM     71  C   UNL A   1      38.401  29.516  29.150  1.00  0.00     0.031 A 
ATOM     72  C   UNL A   1      39.084  28.507  31.227  1.00  0.00     0.131 A 
ATOM     73  C   UNL A   1      37.139  29.758  29.713  1.00  0.00     0.055 A 
ATOM     74  C   UNL A   1      37.803  28.677  31.754  1.00  0.00     0.041 A 
ATOM     75  F   UNL A   1      40.011  27.946  32.020  1.00  0.00    -0.206 F 
ATOM     76  C   UNL A   1      36.824  29.320  31.001  1.00  0.00     0.022 A 
BRANCH  73  77
ATOM     77  S   UNL A   1      35.961  30.781  28.788  1.00  0.00     0.124 S 
ATOM     78  O   UNL A   1      35.220  29.771  28.036  1.00  0.00    -0.237 OA
ATOM     79  O   UNL A   1      35.226  31.456  29.850  1.00  0.00    -0.237 OA
ATOM     80  O   UNL A   1      36.820  31.643  27.977  1.00  0.00    -0.744 OA
ENDBRANCH  73  77
ENDBRANCH  56  70
BRANCH  57  81
ATOM     81  C   UNL A   1      48.449  27.287  25.889  1.00  0.00     0.023 A 
ATOM     82  C   UNL A   1      48.602  27.482  24.508  1.00  0.00     0.031 A 
ATOM     83  C   UNL A   1      49.568  26.843  26.618  1.00  0.00     0.131 A 
ATOM     84  C   UNL A   1      49.828  27.190  23.891  1.00  0.00     0.055 A 
ATOM     85  C   UNL A   1      50.802  26.610  26.010  1.00  0.00     0.041 A 
ATOM     86  F   UNL A   1      49.479  26.640  27.943  1.00  0.00    -0.206 F 
ATOM     87  C   UNL A   1      50.933  26.770  24.634  1.00  0.00     0.022 A 
BRANCH  84  88
ATOM     88  S   UNL A   1      49.933  27.276  22.082  1.00  0.00     0.124 S 
ATOM     89  O   UNL A   1      51.285  26.788  21.840  1.00  0.00    -0.237 OA
ATOM     90  O   UNL A   1      48.848  26.390  21.675  1.00  0.00    -0.237 OA
ATOM     91  O   UNL A   1      49.718  28.693  21.797  1.00  0.00    -0.744 OA
ENDBRANCH  84  88
ENDBRANCH  57  81
BRANCH  69  92
ATOM     92  C   UNL A   1      45.359  32.866  28.721  1.00  0.00     0.023 A 
ATOM     93  C   UNL A   1      46.091  33.234  29.863  1.00  0.00     0.031 A 
ATOM     94  C   UNL A   1      45.078  33.860  27.766  1.00  0.00     0.131 A 
ATOM     95  C   UNL A   1      46.477  34.571  30.045  1.00  0.00     0.055 A 
ATOM     96  C   UNL A   1      45.516  35.175  27.923  1.00  0.00     0.041 A 
ATOM     97  F   UNL A   1      44.379  33.565  26.659  1.00  0.00    -0.206 F 
ATOM     98  C   UNL A   1      46.211  35.540  29.073  1.00  0.00     0.022 A 
BRANCH  95  99
ATOM     99  S   UNL A   1      47.272  35.045  31.605  1.00  0.00     0.124 S 
ATOM    100  O   UNL A   1      46.903  33.937  32.481  1.00  0.00    -0.237 OA
ATOM    101  O   UNL A   1      48.680  35.119  31.231  1.00  0.00    -0.237 OA
ATOM    102  O   UNL A   1      46.650  36.327  31.931  1.00  0.00    -0.744 OA
ENDBRANCH  95  99
ENDBRANCH  69  92
ENDBRANCH  43  44
ENDBRANCH  35  38
ENDBRANCH  33  34
ENDBRANCH  32  33
ENDBRANCH  31  32
ENDBRANCH   1  31
TORSDOF 19
ENDMDL
MODEL 2
REMARK VINA RESULT:     -11.2      2.037      7.446
REMARK SMILES Cc1noc(C)c1CCC(=O)N1CCC2(CC1)NC(=O)C[C@@H]2C(=O)NCCCCCCNC(=O)c1ccc(-c2c3nc(c(-c4cc(S(=O)(=O)[O-])ccc4F)c4ccc([nH]4)c(-c4cc(S(=O)(=O)[O-])ccc4F)c4nc(c(-c5cc(S(=O)(=O)[O-])ccc5F)c5ccc2[nH]5)C=C4)C=C3)cc1
REMARK SMILES IDX 28 1 27 2 26 3 25 4 23 5 24 6 22 8 10 9 11 10 12 11 13 12
REMARK SMILES IDX 17 13 14 14 16 15 15 16 18 17 19 18 21 20 20 21 9 22 8 23
REMARK SMILES IDX 7 24 1 25 2 26 3 27 4 28 5 29 6 30 29 31 30 32 31 33 32 34
REMARK SMILES IDX 33 35 34 37 35 38 36 39 97 40 37 41 96 42 38 43 39 44 40 45
REMARK SMILES IDX 90 46 41 47 95 48 89 49 91 50 42 51 94 52 88 53 87 54 43 56
REMARK SMILES IDX 75 57 55 58 74 59 56 60 59 61 73 62 92 63 57 64 58 65 72 67
REMARK SMILES IDX 93 68 60 69 44 70 45 71 53 72 46 73 52 74 54 75 51 76 47 77
REMARK SMILES IDX 48 78 49 79 50 80 76 81 77 82 85 83 78 84 84 85 86 86 83 87
REMARK SMILES IDX 79 88 80 89 81 90 82 91 61 92 62 93 70 94 63 95 69 96 71 97
REMARK SMILES IDX 68 98 64 99 65 100 66 101 67 102
REMARK H PARENT 25 7 18 19 32 36 91 55 59 66
REMARK Flexibility Score: inf
ROOT
ATOM      1  C   UNL A   1      38.791  22.396  25.822  1.00  0.00     0.002 C 
ENDROOT
BRANCH   1   2
ATOM      2  C   UNL A   1      37.844  23.423  26.444  1.00  0.00     0.021 C 
BRANCH   2   3
ATOM      3  C   UNL A   1      36.632  23.724  25.587  1.00  0.00     0.116 C 
BRANCH   3   4
ATOM      4  N   UNL A   1      35.332  23.493  26.161  1.00  0.00    -0.356 N 
ATOM      5  C   UNL A   1      34.825  22.223  26.180  1.00  0.00     0.226 C 
ATOM      6  O   UNL A   1      34.825  21.655  27.281  1.00  0.00    -0.275 OA
ATOM      7  H   UNL A   1      34.813  24.241  26.535  1.00  0.00     0.163 HD
BRANCH   5   8
ATOM      8  C   UNL A   1      34.018  21.596  25.029  1.00  0.00     0.113 C 
ATOM      9  C   UNL A   1      30.611  25.165  24.834  1.00  0.00     0.222 C 
ATOM     10  O   UNL A   1      30.782  25.787  25.886  1.00  0.00    -0.275 OA
ATOM     11  N   UNL A   1      30.923  23.798  24.722  1.00  0.00    -0.343 N 
ATOM     12  C   UNL A   1      31.230  23.167  25.976  1.00  0.00     0.122 C 
ATOM     13  C   UNL A   1      31.638  23.299  23.563  1.00  0.00     0.122 C 
ATOM     14  C   UNL A   1      31.457  21.659  25.910  1.00  0.00     0.051 C 
ATOM     15  C   UNL A   1      31.933  21.808  23.530  1.00  0.00     0.051 C 
ATOM     16  C   UNL A   1      32.495  21.255  24.868  1.00  0.00     0.055 C 
ATOM     17  N   UNL A   1      32.485  19.807  24.727  1.00  0.00    -0.350 N 
ATOM     18  C   UNL A   1      33.708  19.244  24.492  1.00  0.00     0.221 C 
ATOM     19  H   UNL A   1      31.660  19.274  24.798  1.00  0.00     0.164 HD
ATOM     20  C   UNL A   1      34.765  20.268  24.737  1.00  0.00     0.116 C 
ATOM     21  O   UNL A   1      33.889  18.093  24.144  1.00  0.00    -0.275 OA
BRANCH   9  22
ATOM     22  C   UNL A   1      30.006  25.861  23.636  1.00  0.00     0.105 C 
BRANCH  22  23
ATOM     23  C   UNL A   1      29.278  27.161  23.967  1.00  0.00     0.051 C 
BRANCH  23  24
ATOM     24  C   UNL A   1      29.456  28.252  22.964  1.00  0.00     0.018 A 
ATOM     25  C   UNL A   1      27.030  29.248  22.789  1.00  0.00     0.071 C 
ATOM     26  C   UNL A   1      28.468  29.138  22.438  1.00  0.00     0.084 A 
ATOM     27  N   UNL A   1      29.010  30.030  21.600  1.00  0.00    -0.085 NA
ATOM     28  O   UNL A   1      30.360  29.756  21.575  1.00  0.00    -0.361 OA
ATOM     29  C   UNL A   1      30.631  28.710  22.398  1.00  0.00     0.137 A 
ATOM     30  C   UNL A   1      32.064  28.392  22.578  1.00  0.00     0.091 C 
ENDBRANCH  23  24
ENDBRANCH  22  23
ENDBRANCH   9  22
ENDBRANCH   5   8
ENDBRANCH   3   4
ENDBRANCH   2   3
ENDBRANCH   1   2
BRANCH   1  31
ATOM     31  C   UNL A   1      38.179  21.197  25.076  1.00  0.00     0.002 C 
BRANCH  31  32
ATOM     32  C   UNL A   1      38.928  19.863  25.120  1.00  0.00     0.021 C 
BRANCH  32  33
ATOM     33  C   UNL A   1      39.632  19.520  26.429  1.00  0.00     0.116 C 
BRANCH  33  34
ATOM     34  N   UNL A   1      40.974  18.997  26.232  1.00  0.00    -0.352 N 
ATOM     35  C   UNL A   1      42.184  19.637  26.156  1.00  0.00     0.251 C 
ATOM     36  H   UNL A   1      41.021  18.019  26.135  1.00  0.00     0.163 HD
ATOM     37  O   UNL A   1      43.184  18.995  25.844  1.00  0.00    -0.269 OA
BRANCH  35  38
ATOM     38  C   UNL A   1      42.289  21.088  26.417  1.00  0.00     0.039 A 
ATOM     39  C   UNL A   1      42.368  21.525  27.743  1.00  0.00     0.014 A 
ATOM     40  C   UNL A   1      42.292  22.017  25.374  1.00  0.00     0.014 A 
ATOM     41  C   UNL A   1      42.533  22.884  28.020  1.00  0.00     0.010 A 
ATOM     42  C   UNL A   1      42.516  23.365  25.647  1.00  0.00     0.010 A 
ATOM     43  C   UNL A   1      42.654  23.809  26.972  1.00  0.00    -0.014 A 
BRANCH  43  44
ATOM     44  C   UNL A   1      42.961  25.240  27.235  1.00  0.00     0.031 A 
ATOM     45  C   UNL A   1      44.349  25.769  27.013  1.00  0.00     0.074 A 
ATOM     46  C   UNL A   1      42.004  26.035  27.754  1.00  0.00     0.049 A 
ATOM     47  N   UNL A   1      44.842  26.944  27.305  1.00  0.00    -0.248 NA
ATOM     48  C   UNL A   1      45.315  24.843  26.404  1.00  0.00     0.031 C 
ATOM     49  C   UNL A   1      40.626  25.624  28.035  1.00  0.00     0.029 A 
ATOM     50  N   UNL A   1      42.045  27.346  28.160  1.00  0.00    -0.354 N 
ATOM     51  C   UNL A   1      46.181  26.898  26.929  1.00  0.00     0.074 A 
ATOM     52  C   UNL A   1      46.429  25.560  26.434  1.00  0.00     0.031 C 
ATOM     53  C   UNL A   1      39.954  26.662  28.555  1.00  0.00     0.029 A 
ATOM     54  C   UNL A   1      40.862  27.795  28.702  1.00  0.00     0.049 A 
ATOM     55  H   UNL A   1      42.846  27.912  28.071  1.00  0.00     0.167 HD
ATOM     56  C   UNL A   1      47.109  27.886  26.981  1.00  0.00     0.034 A 
ATOM     57  C   UNL A   1      40.552  28.972  29.281  1.00  0.00     0.034 A 
ATOM     58  C   UNL A   1      46.837  29.215  27.472  1.00  0.00     0.049 A 
ATOM     59  C   UNL A   1      41.616  30.037  29.377  1.00  0.00     0.074 A 
ATOM     60  C   UNL A   1      47.684  30.309  27.510  1.00  0.00     0.029 A 
ATOM     61  N   UNL A   1      45.632  29.629  28.027  1.00  0.00    -0.354 N 
ATOM     62  N   UNL A   1      42.865  29.992  28.971  1.00  0.00    -0.248 NA
ATOM     63  C   UNL A   1      41.232  31.306  30.006  1.00  0.00     0.031 C 
ATOM     64  C   UNL A   1      47.019  31.356  28.157  1.00  0.00     0.029 A 
ATOM     65  C   UNL A   1      45.729  30.946  28.451  1.00  0.00     0.049 A 
ATOM     66  H   UNL A   1      44.826  29.069  28.107  1.00  0.00     0.167 HD
ATOM     67  C   UNL A   1      43.406  31.238  29.277  1.00  0.00     0.074 A 
ATOM     68  C   UNL A   1      42.344  32.015  29.883  1.00  0.00     0.031 C 
ATOM     69  C   UNL A   1      44.666  31.700  29.071  1.00  0.00     0.034 A 
BRANCH  56  70
ATOM     70  C   UNL A   1      48.510  27.554  26.525  1.00  0.00     0.023 A 
ATOM     71  C   UNL A   1      49.521  27.199  27.436  1.00  0.00     0.031 A 
ATOM     72  C   UNL A   1      48.846  27.606  25.160  1.00  0.00     0.131 A 
ATOM     73  C   UNL A   1      50.830  26.982  26.980  1.00  0.00     0.055 A 
ATOM     74  C   UNL A   1      50.131  27.309  24.705  1.00  0.00     0.041 A 
ATOM     75  F   UNL A   1      47.930  27.959  24.244  1.00  0.00    -0.206 F 
ATOM     76  C   UNL A   1      51.137  27.009  25.619  1.00  0.00     0.022 A 
BRANCH  73  77
ATOM     77  S   UNL A   1      52.154  26.804  28.208  1.00  0.00     0.124 S 
ATOM     78  O   UNL A   1      53.035  25.840  27.554  1.00  0.00    -0.237 OA
ATOM     79  O   UNL A   1      52.665  28.165  28.320  1.00  0.00    -0.237 OA
ATOM     80  O   UNL A   1      51.458  26.299  29.390  1.00  0.00    -0.744 OA
ENDBRANCH  73  77
ENDBRANCH  56  70
BRANCH  57  81
ATOM     81  C   UNL A   1      39.191  29.201  29.847  1.00  0.00     0.023 A 
ATOM     82  C   UNL A   1      38.231  29.945  29.146  1.00  0.00     0.031 A 
ATOM     83  C   UNL A   1      38.844  28.713  31.120  1.00  0.00     0.131 A 
ATOM     84  C   UNL A   1      36.988  30.220  29.738  1.00  0.00     0.055 A 
ATOM     85  C   UNL A   1      37.586  28.939  31.681  1.00  0.00     0.041 A 
ATOM     86  F   UNL A   1      39.723  27.994  31.836  1.00  0.00    -0.206 F 
ATOM     87  C   UNL A   1      36.654  29.710  30.994  1.00  0.00     0.022 A 
BRANCH  84  88
ATOM     88  S   UNL A   1      35.846  31.338  28.881  1.00  0.00     0.124 S 
ATOM     89  O   UNL A   1      35.001  31.796  29.978  1.00  0.00    -0.237 OA
ATOM     90  O   UNL A   1      36.758  32.327  28.317  1.00  0.00    -0.237 OA
ATOM     91  O   UNL A   1      35.189  30.471  27.906  1.00  0.00    -0.744 OA
ENDBRANCH  84  88
ENDBRANCH  57  81
BRANCH  69  92
ATOM     92  C   UNL A   1      44.950  33.124  29.482  1.00  0.00     0.023 A 
ATOM     93  C   UNL A   1      44.758  34.199  28.597  1.00  0.00     0.031 A 
ATOM     94  C   UNL A   1      45.410  33.409  30.779  1.00  0.00     0.131 A 
ATOM     95  C   UNL A   1      45.069  35.505  29.005  1.00  0.00     0.055 A 
ATOM     96  C   UNL A   1      45.661  34.716  31.200  1.00  0.00     0.041 A 
ATOM     97  F   UNL A   1      45.615  32.420  31.664  1.00  0.00    -0.206 F 
ATOM     98  C   UNL A   1      45.501  35.771  30.308  1.00  0.00     0.022 A 
BRANCH  95  99
ATOM     99  S   UNL A   1      44.971  36.846  27.788  1.00  0.00     0.124 S 
ATOM    100  O   UNL A   1      45.343  38.008  28.589  1.00  0.00    -0.237 OA
ATOM    101  O   UNL A   1      45.940  36.429  26.781  1.00  0.00    -0.237 OA
ATOM    102  O   UNL A   1      43.575  36.813  27.355  1.00  0.00    -0.744 OA
ENDBRANCH  95  99
ENDBRANCH  69  92
ENDBRANCH  43  44
ENDBRANCH  35  38
ENDBRANCH  33  34
ENDBRANCH  32  33
ENDBRANCH  31  32
ENDBRANCH   1  31
TORSDOF 19
ENDMDL
MODEL 3
REMARK VINA RESULT:     -11.1      2.464      2.890
REMARK SMILES Cc1noc(C)c1CCC(=O)N1CCC2(CC1)NC(=O)C[C@@H]2C(=O)NCCCCCCNC(=O)c1ccc(-c2c3nc(c(-c4cc(S(=O)(=O)[O-])ccc4F)c4ccc([nH]4)c(-c4cc(S(=O)(=O)[O-])ccc4F)c4nc(c(-c5cc(S(=O)(=O)[O-])ccc5F)c5ccc2[nH]5)C=C4)C=C3)cc1
REMARK SMILES IDX 28 1 27 2 26 3 25 4 23 5 24 6 22 8 10 9 11 10 12 11 13 12
REMARK SMILES IDX 17 13 14 14 16 15 15 16 18 17 19 18 21 20 20 21 9 22 8 23
REMARK SMILES IDX 7 24 1 25 2 26 3 27 4 28 5 29 6 30 29 31 30 32 31 33 32 34
REMARK SMILES IDX 33 35 34 37 35 38 36 39 97 40 37 41 96 42 38 43 39 44 40 45
REMARK SMILES IDX 90 46 41 47 95 48 89 49 91 50 42 51 94 52 88 53 87 54 43 56
REMARK SMILES IDX 75 57 55 58 74 59 56 60 59 61 73 62 92 63 57 64 58 65 72 67
REMARK SMILES IDX 93 68 60 69 44 70 45 71 53 72 46 73 52 74 54 75 51 76 47 77
REMARK SMILES IDX 48 78 49 79 50 80 76 81 77 82 85 83 78 84 84 85 86 86 83 87
REMARK SMILES IDX 79 88 80 89 81 90 82 91 61 92 62 93 70 94 63 95 69 96 71 97
REMARK SMILES IDX 68 98 64 99 65 100 66 101 67 102
REMARK H PARENT 25 7 18 19 32 36 91 55 59 66
REMARK Flexibility Score: inf
ROOT
ATOM      1  C   UNL A   1      37.722  22.536  24.681  1.00  0.00     0.002 C 
ENDROOT
BRANCH   1   2
ATOM      2  C   UNL A   1      37.385  23.389  25.906  1.00  0.00     0.021 C 
BRANCH   2   3
ATOM      3  C   UNL A   1      36.127  24.215  25.738  1.00  0.00     0.116 C 
BRANCH   3   4
ATOM      4  N   UNL A   1      34.978  23.855  26.527  1.00  0.00    -0.356 N 
ATOM      5  C   UNL A   1      34.477  22.586  26.440  1.00  0.00     0.226 C 
ATOM      6  O   UNL A   1      34.709  21.843  27.405  1.00  0.00    -0.275 OA
ATOM      7  H   UNL A   1      34.557  24.516  27.123  1.00  0.00     0.163 HD
BRANCH   5   8
ATOM      8  C   UNL A   1      33.438  22.134  25.397  1.00  0.00     0.113 C 
ATOM      9  C   UNL A   1      31.266  26.546  24.950  1.00  0.00     0.222 C 
ATOM     10  O   UNL A   1      31.692  27.179  25.919  1.00  0.00    -0.275 OA
ATOM     11  N   UNL A   1      31.141  25.146  24.976  1.00  0.00    -0.343 N 
ATOM     12  C   UNL A   1      31.331  24.569  26.278  1.00  0.00     0.122 C 
ATOM     13  C   UNL A   1      31.587  24.346  23.850  1.00  0.00     0.122 C 
ATOM     14  C   UNL A   1      31.086  23.065  26.368  1.00  0.00     0.051 C 
ATOM     15  C   UNL A   1      31.413  22.841  23.969  1.00  0.00     0.051 C 
ATOM     16  C   UNL A   1      31.876  22.267  25.336  1.00  0.00     0.055 C 
ATOM     17  N   UNL A   1      31.418  20.885  25.355  1.00  0.00    -0.350 N 
ATOM     18  C   UNL A   1      32.393  19.954  25.134  1.00  0.00     0.221 C 
ATOM     19  H   UNL A   1      30.478  20.642  25.516  1.00  0.00     0.164 HD
ATOM     20  C   UNL A   1      33.725  20.620  25.223  1.00  0.00     0.116 C 
ATOM     21  O   UNL A   1      32.192  18.776  24.907  1.00  0.00    -0.275 OA
BRANCH   9  22
ATOM     22  C   UNL A   1      30.816  27.282  23.708  1.00  0.00     0.105 C 
BRANCH  22  23
ATOM     23  C   UNL A   1      29.343  27.085  23.361  1.00  0.00     0.051 C 
BRANCH  23  24
ATOM     24  C   UNL A   1      28.573  28.347  23.154  1.00  0.00     0.018 A 
ATOM     25  C   UNL A   1      30.319  29.867  21.909  1.00  0.00     0.071 C 
ATOM     26  C   UNL A   1      29.013  29.560  22.545  1.00  0.00     0.084 A 
ATOM     27  N   UNL A   1      28.024  30.461  22.482  1.00  0.00    -0.085 NA
ATOM     28  O   UNL A   1      26.918  29.849  23.031  1.00  0.00    -0.361 OA
ATOM     29  C   UNL A   1      27.237  28.586  23.417  1.00  0.00     0.137 A 
ATOM     30  C   UNL A   1      26.108  27.760  23.899  1.00  0.00     0.091 C 
ENDBRANCH  23  24
ENDBRANCH  22  23
ENDBRANCH   9  22
ENDBRANCH   5   8
ENDBRANCH   3   4
ENDBRANCH   2   3
ENDBRANCH   1   2
BRANCH   1  31
ATOM     31  C   UNL A   1      37.196  21.091  24.630  1.00  0.00     0.002 C 
BRANCH  31  32
ATOM     32  C   UNL A   1      38.113  19.973  25.130  1.00  0.00     0.021 C 
BRANCH  32  33
ATOM     33  C   UNL A   1      39.379  20.406  25.862  1.00  0.00     0.116 C 
BRANCH  33  34
ATOM     34  N   UNL A   1      40.376  19.351  25.945  1.00  0.00    -0.352 N 
ATOM     35  C   UNL A   1      41.727  19.408  26.172  1.00  0.00     0.251 C 
ATOM     36  H   UNL A   1      40.021  18.443  25.814  1.00  0.00     0.163 HD
ATOM     37  O   UNL A   1      42.399  18.386  26.060  1.00  0.00    -0.269 OA
BRANCH  35  38
ATOM     38  C   UNL A   1      42.381  20.688  26.519  1.00  0.00     0.039 A 
ATOM     39  C   UNL A   1      42.891  21.479  25.485  1.00  0.00     0.014 A 
ATOM     40  C   UNL A   1      42.510  21.103  27.847  1.00  0.00     0.014 A 
ATOM     41  C   UNL A   1      43.455  22.724  25.775  1.00  0.00     0.010 A 
ATOM     42  C   UNL A   1      43.018  22.369  28.130  1.00  0.00     0.010 A 
ATOM     43  C   UNL A   1      43.482  23.198  27.096  1.00  0.00    -0.014 A 
BRANCH  43  44
ATOM     44  C   UNL A   1      43.957  24.570  27.416  1.00  0.00     0.031 A 
ATOM     45  C   UNL A   1      42.986  25.614  27.891  1.00  0.00     0.074 A 
ATOM     46  C   UNL A   1      45.247  24.890  27.194  1.00  0.00     0.049 A 
ATOM     47  N   UNL A   1      43.181  26.891  28.096  1.00  0.00    -0.248 NA
ATOM     48  C   UNL A   1      41.610  25.164  28.145  1.00  0.00     0.031 C 
ATOM     49  C   UNL A   1      46.275  23.964  26.710  1.00  0.00     0.029 A 
ATOM     50  N   UNL A   1      45.914  26.084  27.324  1.00  0.00    -0.354 N 
ATOM     51  C   UNL A   1      41.949  27.404  28.490  1.00  0.00     0.074 A 
ATOM     52  C   UNL A   1      41.006  26.305  28.446  1.00  0.00     0.031 C 
ATOM     53  C   UNL A   1      47.439  24.621  26.595  1.00  0.00     0.029 A 
ATOM     54  C   UNL A   1      47.234  26.024  26.938  1.00  0.00     0.049 A 
ATOM     55  H   UNL A   1      45.487  26.905  27.662  1.00  0.00     0.167 HD
ATOM     56  C   UNL A   1      41.641  28.670  28.866  1.00  0.00     0.034 A 
ATOM     57  C   UNL A   1      48.164  26.995  26.839  1.00  0.00     0.034 A 
ATOM     58  C   UNL A   1      42.599  29.748  28.908  1.00  0.00     0.049 A 
ATOM     59  C   UNL A   1      47.783  28.406  27.210  1.00  0.00     0.074 A 
ATOM     60  C   UNL A   1      42.410  31.052  29.333  1.00  0.00     0.029 A 
ATOM     61  N   UNL A   1      43.922  29.655  28.496  1.00  0.00    -0.354 N 
ATOM     62  N   UNL A   1      46.625  28.864  27.628  1.00  0.00    -0.248 NA
ATOM     63  C   UNL A   1      48.830  29.428  27.097  1.00  0.00     0.031 C 
ATOM     64  C   UNL A   1      43.592  31.763  29.105  1.00  0.00     0.029 A 
ATOM     65  C   UNL A   1      44.547  30.887  28.613  1.00  0.00     0.049 A 
ATOM     66  H   UNL A   1      44.355  28.833  28.168  1.00  0.00     0.167 HD
ATOM     67  C   UNL A   1      46.815  30.226  27.850  1.00  0.00     0.074 A 
ATOM     68  C   UNL A   1      48.200  30.509  27.536  1.00  0.00     0.031 C 
ATOM     69  C   UNL A   1      45.925  31.157  28.278  1.00  0.00     0.034 A 
BRANCH  56  70
ATOM     70  C   UNL A   1      40.204  28.962  29.228  1.00  0.00     0.023 A 
ATOM     71  C   UNL A   1      39.778  29.043  30.565  1.00  0.00     0.031 A 
ATOM     72  C   UNL A   1      39.240  29.147  28.220  1.00  0.00     0.131 A 
ATOM     73  C   UNL A   1      38.418  29.230  30.858  1.00  0.00     0.055 A 
ATOM     74  C   UNL A   1      37.903  29.414  28.518  1.00  0.00     0.041 A 
ATOM     75  F   UNL A   1      39.581  29.060  26.924  1.00  0.00    -0.206 F 
ATOM     76  C   UNL A   1      37.482  29.442  29.844  1.00  0.00     0.022 A 
BRANCH  73  77
ATOM     77  S   UNL A   1      37.872  29.050  32.578  1.00  0.00     0.124 S 
ATOM     78  O   UNL A   1      38.859  29.861  33.287  1.00  0.00    -0.237 OA
ATOM     79  O   UNL A   1      36.516  29.583  32.537  1.00  0.00    -0.237 OA
ATOM     80  O   UNL A   1      37.971  27.611  32.819  1.00  0.00    -0.744 OA
ENDBRANCH  73  77
ENDBRANCH  56  70
BRANCH  57  81
ATOM     81  C   UNL A   1      49.534  26.681  26.338  1.00  0.00     0.023 A 
ATOM     82  C   UNL A   1      50.624  26.593  27.216  1.00  0.00     0.031 A 
ATOM     83  C   UNL A   1      49.780  26.506  24.964  1.00  0.00     0.131 A 
ATOM     84  C   UNL A   1      51.916  26.383  26.711  1.00  0.00     0.055 A 
ATOM     85  C   UNL A   1      51.059  26.240  24.470  1.00  0.00     0.041 A 
ATOM     86  F   UNL A   1      48.775  26.580  24.077  1.00  0.00    -0.206 F 
ATOM     87  C   UNL A   1      52.139  26.191  25.345  1.00  0.00     0.022 A 
BRANCH  84  88
ATOM     88  S   UNL A   1      53.321  26.460  27.855  1.00  0.00     0.124 S 
ATOM     89  O   UNL A   1      53.793  27.825  27.654  1.00  0.00    -0.237 OA
ATOM     90  O   UNL A   1      52.680  26.184  29.137  1.00  0.00    -0.237 OA
ATOM     91  O   UNL A   1      54.213  25.411  27.368  1.00  0.00    -0.744 OA
ENDBRANCH  84  88
ENDBRANCH  57  81
BRANCH  69  92
ATOM     92  C   UNL A   1      46.439  32.565  28.458  1.00  0.00     0.023 A 
ATOM     93  C   UNL A   1      46.578  33.444  27.370  1.00  0.00     0.031 A 
ATOM     94  C   UNL A   1      46.784  33.034  29.737  1.00  0.00     0.131 A 
ATOM     95  C   UNL A   1      47.094  34.732  27.574  1.00  0.00     0.055 A 
ATOM     96  C   UNL A   1      47.240  34.337  29.943  1.00  0.00     0.041 A 
ATOM     97  F   UNL A   1      46.675  32.236  30.811  1.00  0.00    -0.206 F 
ATOM     98  C   UNL A   1      47.407  35.191  28.857  1.00  0.00     0.022 A 
BRANCH  95  99
ATOM     99  S   UNL A   1      47.418  35.781  26.130  1.00  0.00     0.124 S 
ATOM    100  O   UNL A   1      46.268  36.679  26.145  1.00  0.00    -0.237 OA
ATOM    101  O   UNL A   1      48.703  36.386  26.464  1.00  0.00    -0.237 OA
ATOM    102  O   UNL A   1      47.451  34.833  25.019  1.00  0.00    -0.744 OA
ENDBRANCH  95  99
ENDBRANCH  69  92
ENDBRANCH  43  44
ENDBRANCH  35  38
ENDBRANCH  33  34
ENDBRANCH  32  33
ENDBRANCH  31  32
ENDBRANCH   1  31
TORSDOF 19
ENDMDL
