MODEL 1
REMARK VINA RESULT:     -11.5      0.000      0.000
REMARK SMILES C[C@@H](C(=O)NCCCCCCNC(=O)c1ccc(-c2c3nc(c(-c4cc(S(=O)(=O)[O-])ccc4F)c4ccc([nH]4)c(-c4cc(S(=O)(=O)[O-])ccc4F)c4nc(c(-c5cc(S(=O)(=O)[O-])ccc5F)c5ccc2[nH]5)C=C4)C=C3)cc1)c1ccc(C[C@H]2CCC[C@H]2O)cc1-c1ccc(O)cc1
REMARK SMILES IDX 8 1 7 2 6 3 5 4 3 5 4 6 2 8 1 9 78 10 79 11 90 12 80 13
REMARK SMILES IDX 89 14 81 15 91 16 92 17 97 18 93 19 96 20 94 21 95 22 82 24
REMARK SMILES IDX 83 25 84 26 87 27 85 28 86 29 88 30 9 32 10 33 11 34 12 35
REMARK SMILES IDX 13 36 14 38 15 39 16 40 77 41 17 42 76 43 18 44 19 45 20 46
REMARK SMILES IDX 70 47 21 48 75 49 69 50 71 51 22 52 74 53 68 54 67 55 23 57
REMARK SMILES IDX 55 58 35 59 54 60 36 61 39 62 53 63 72 64 37 65 38 66 52 68
REMARK SMILES IDX 73 69 40 70 24 71 25 72 33 73 26 74 32 75 34 76 31 77 27 78
REMARK SMILES IDX 28 79 29 80 30 81 56 82 57 83 65 84 58 85 64 86 66 87 63 88
REMARK SMILES IDX 59 89 60 90 61 91 62 92 41 93 42 94 50 95 43 96 49 97 51 98
REMARK SMILES IDX 48 99 44 100 45 101 46 102 47 103
REMARK H PARENT 5 7 95 23 88 31 12 37 71 56 39 67
REMARK Flexibility Score: inf
ROOT
ATOM      1  C   UNL A   1      35.502  19.384  24.697  1.00  0.00     0.002 C 
ENDROOT
BRANCH   1   2
ATOM      2  C   UNL A   1      34.423  18.301  24.600  1.00  0.00     0.021 C 
BRANCH   2   3
ATOM      3  C   UNL A   1      32.985  18.826  24.631  1.00  0.00     0.116 C 
BRANCH   3   4
ATOM      4  N   UNL A   1      32.642  19.506  23.395  1.00  0.00    -0.356 N 
ATOM      5  C   UNL A   1      32.217  20.790  23.190  1.00  0.00     0.227 C 
ATOM      6  O   UNL A   1      31.678  21.027  22.106  1.00  0.00    -0.274 OA
ATOM      7  H   UNL A   1      32.729  18.960  22.580  1.00  0.00     0.163 HD
BRANCH   5   8
ATOM      8  C   UNL A   1      32.384  21.838  24.312  1.00  0.00     0.106 C 
ATOM      9  C   UNL A   1      31.390  21.416  25.400  1.00  0.00     0.023 C 
BRANCH   8  10
ATOM     10  C   UNL A   1      32.306  23.320  23.871  1.00  0.00    -0.028 A 
ATOM     11  C   UNL A   1      31.083  23.811  23.367  1.00  0.00     0.005 A 
ATOM     12  C   UNL A   1      33.410  24.219  23.876  1.00  0.00    -0.014 A 
ATOM     13  C   UNL A   1      30.916  25.137  22.970  1.00  0.00     0.004 A 
ATOM     14  C   UNL A   1      33.230  25.544  23.406  1.00  0.00     0.012 A 
ATOM     15  C   UNL A   1      31.993  26.013  22.947  1.00  0.00    -0.047 A 
BRANCH  12  16
ATOM     16  C   UNL A   1      34.745  23.871  24.392  1.00  0.00    -0.018 A 
ATOM     17  C   UNL A   1      35.695  23.296  23.527  1.00  0.00     0.012 A 
ATOM     18  C   UNL A   1      35.129  24.165  25.709  1.00  0.00     0.012 A 
ATOM     19  C   UNL A   1      37.017  23.117  23.934  1.00  0.00     0.047 A 
ATOM     20  C   UNL A   1      36.454  23.983  26.121  1.00  0.00     0.047 A 
ATOM     21  C   UNL A   1      37.392  23.489  25.218  1.00  0.00     0.115 A 
BRANCH  21  22
ATOM     22  O   UNL A   1      38.709  23.376  25.548  1.00  0.00    -0.508 OA
ATOM     23  H   UNL A   1      39.207  22.642  25.246  1.00  0.00     0.293 HD
ENDBRANCH  21  22
ENDBRANCH  12  16
BRANCH  15  24
ATOM     24  C   UNL A   1      31.822  27.424  22.446  1.00  0.00     0.041 C 
BRANCH  24  25
ATOM     25  C   UNL A   1      30.719  28.285  23.086  1.00  0.00     0.022 C 
ATOM     26  C   UNL A   1      31.157  29.177  24.259  1.00  0.00     0.007 C 
ATOM     27  C   UNL A   1      29.892  29.210  22.180  1.00  0.00     0.117 C 
ATOM     28  C   UNL A   1      30.214  30.384  24.249  1.00  0.00     0.003 C 
ATOM     29  C   UNL A   1      29.158  30.088  23.187  1.00  0.00     0.032 C 
BRANCH  27  30
ATOM     30  O   UNL A   1      30.649  30.047  21.326  1.00  0.00    -0.393 OA
ATOM     31  H   UNL A   1      31.492  29.617  21.115  1.00  0.00     0.210 HD
ENDBRANCH  27  30
ENDBRANCH  24  25
ENDBRANCH  15  24
ENDBRANCH   8  10
ENDBRANCH   5   8
ENDBRANCH   3   4
ENDBRANCH   2   3
ENDBRANCH   1   2
BRANCH   1  32
ATOM     32  C   UNL A   1      36.904  18.864  25.014  1.00  0.00     0.002 C 
BRANCH  32  33
ATOM     33  C   UNL A   1      38.040  19.851  24.731  1.00  0.00     0.021 C 
BRANCH  33  34
ATOM     34  C   UNL A   1      38.974  20.124  25.910  1.00  0.00     0.116 C 
BRANCH  34  35
ATOM     35  N   UNL A   1      40.129  19.244  25.909  1.00  0.00    -0.352 N 
ATOM     36  C   UNL A   1      41.455  19.549  26.068  1.00  0.00     0.251 C 
ATOM     37  H   UNL A   1      39.931  18.289  25.773  1.00  0.00     0.163 HD
ATOM     38  O   UNL A   1      42.305  18.685  25.837  1.00  0.00    -0.269 OA
BRANCH  36  39
ATOM     39  C   UNL A   1      41.870  20.903  26.491  1.00  0.00     0.039 A 
ATOM     40  C   UNL A   1      42.088  21.873  25.509  1.00  0.00     0.014 A 
ATOM     41  C   UNL A   1      42.073  21.216  27.840  1.00  0.00     0.014 A 
ATOM     42  C   UNL A   1      42.461  23.166  25.881  1.00  0.00     0.010 A 
ATOM     43  C   UNL A   1      42.384  22.524  28.213  1.00  0.00     0.010 A 
ATOM     44  C   UNL A   1      42.585  23.511  27.237  1.00  0.00    -0.014 A 
BRANCH  44  45
ATOM     45  C   UNL A   1      42.927  24.904  27.631  1.00  0.00     0.031 A 
ATOM     46  C   UNL A   1      44.337  25.411  27.494  1.00  0.00     0.074 A 
ATOM     47  C   UNL A   1      41.965  25.702  28.132  1.00  0.00     0.049 A 
ATOM     48  N   UNL A   1      44.822  26.591  27.786  1.00  0.00    -0.248 NA
ATOM     49  C   UNL A   1      45.336  24.460  26.985  1.00  0.00     0.031 C 
ATOM     50  C   UNL A   1      40.573  25.305  28.359  1.00  0.00     0.029 A 
ATOM     51  N   UNL A   1      42.005  27.011  28.541  1.00  0.00    -0.354 N 
ATOM     52  C   UNL A   1      46.180  26.529  27.489  1.00  0.00     0.074 A 
ATOM     53  C   UNL A   1      46.451  25.172  27.062  1.00  0.00     0.031 C 
ATOM     54  C   UNL A   1      39.889  26.354  28.844  1.00  0.00     0.029 A 
ATOM     55  C   UNL A   1      40.796  27.488  28.994  1.00  0.00     0.049 A 
ATOM     56  H   UNL A   1      42.823  27.559  28.513  1.00  0.00     0.167 HD
ATOM     57  C   UNL A   1      47.108  27.517  27.541  1.00  0.00     0.034 A 
ATOM     58  C   UNL A   1      40.456  28.699  29.476  1.00  0.00     0.034 A 
ATOM     59  C   UNL A   1      46.824  28.866  27.971  1.00  0.00     0.049 A 
ATOM     60  C   UNL A   1      41.505  29.780  29.526  1.00  0.00     0.074 A 
ATOM     61  C   UNL A   1      47.683  29.949  28.041  1.00  0.00     0.029 A 
ATOM     62  N   UNL A   1      45.584  29.317  28.407  1.00  0.00    -0.354 N 
ATOM     63  N   UNL A   1      42.776  29.715  29.196  1.00  0.00    -0.248 NA
ATOM     64  C   UNL A   1      41.071  31.102  29.992  1.00  0.00     0.031 C 
ATOM     65  C   UNL A   1      46.977  31.037  28.569  1.00  0.00     0.029 A 
ATOM     66  C   UNL A   1      45.661  30.655  28.765  1.00  0.00     0.049 A 
ATOM     67  H   UNL A   1      44.770  28.766  28.455  1.00  0.00     0.167 HD
ATOM     68  C   UNL A   1      43.284  30.995  29.395  1.00  0.00     0.074 A 
ATOM     69  C   UNL A   1      42.177  31.815  29.843  1.00  0.00     0.031 C 
ATOM     70  C   UNL A   1      44.551  31.454  29.228  1.00  0.00     0.034 A 
BRANCH  57  71
ATOM     71  C   UNL A   1      48.518  27.165  27.133  1.00  0.00     0.023 A 
ATOM     72  C   UNL A   1      49.028  27.522  25.872  1.00  0.00     0.031 A 
ATOM     73  C   UNL A   1      49.362  26.452  28.004  1.00  0.00     0.131 A 
ATOM     74  C   UNL A   1      50.314  27.109  25.491  1.00  0.00     0.055 A 
ATOM     75  C   UNL A   1      50.668  26.111  27.648  1.00  0.00     0.041 A 
ATOM     76  F   UNL A   1      48.926  26.065  29.213  1.00  0.00    -0.206 F 
ATOM     77  C   UNL A   1      51.147  26.428  26.380  1.00  0.00     0.022 A 
BRANCH  74  78
ATOM     78  S   UNL A   1      50.835  27.369  23.773  1.00  0.00     0.124 S 
ATOM     79  O   UNL A   1      49.681  26.856  23.037  1.00  0.00    -0.237 OA
ATOM     80  O   UNL A   1      51.038  28.811  23.718  1.00  0.00    -0.237 OA
ATOM     81  O   UNL A   1      52.047  26.563  23.658  1.00  0.00    -0.744 OA
ENDBRANCH  74  78
ENDBRANCH  57  71
BRANCH  58  82
ATOM     82  C   UNL A   1      39.070  28.960  29.960  1.00  0.00     0.023 A 
ATOM     83  C   UNL A   1      38.109  29.557  29.128  1.00  0.00     0.031 A 
ATOM     84  C   UNL A   1      38.703  28.663  31.285  1.00  0.00     0.131 A 
ATOM     85  C   UNL A   1      36.848  29.890  29.645  1.00  0.00     0.055 A 
ATOM     86  C   UNL A   1      37.427  28.945  31.778  1.00  0.00     0.041 A 
ATOM     87  F   UNL A   1      39.581  28.083  32.119  1.00  0.00    -0.206 F 
ATOM     88  C   UNL A   1      36.497  29.577  30.960  1.00  0.00     0.022 A 
BRANCH  85  89
ATOM     89  S   UNL A   1      35.703  30.832  28.599  1.00  0.00     0.124 S 
ATOM     90  O   UNL A   1      36.609  31.419  27.618  1.00  0.00    -0.237 OA
ATOM     91  O   UNL A   1      34.814  29.784  28.107  1.00  0.00    -0.237 OA
ATOM     92  O   UNL A   1      35.092  31.778  29.531  1.00  0.00    -0.744 OA
ENDBRANCH  85  89
ENDBRANCH  58  82
BRANCH  70  93
ATOM     93  C   UNL A   1      44.784  32.918  29.509  1.00  0.00     0.023 A 
ATOM     94  C   UNL A   1      44.464  33.908  28.563  1.00  0.00     0.031 A 
ATOM     95  C   UNL A   1      45.371  33.325  30.719  1.00  0.00     0.131 A 
ATOM     96  C   UNL A   1      44.798  35.248  28.812  1.00  0.00     0.055 A 
ATOM     97  C   UNL A   1      45.642  34.667  30.989  1.00  0.00     0.041 A 
ATOM     98  F   UNL A   1      45.698  32.422  31.658  1.00  0.00    -0.206 F 
ATOM     99  C   UNL A   1      45.372  35.636  30.026  1.00  0.00     0.022 A 
BRANCH  96 100
ATOM    100  S   UNL A   1      44.574  36.461  27.483  1.00  0.00     0.124 S 
ATOM    101  O   UNL A   1      45.886  36.458  26.845  1.00  0.00    -0.237 OA
ATOM    102  O   UNL A   1      43.487  35.874  26.706  1.00  0.00    -0.237 OA
ATOM    103  O   UNL A   1      44.233  37.691  28.195  1.00  0.00    -0.744 OA
ENDBRANCH  96 100
ENDBRANCH  70  93
ENDBRANCH  44  45
ENDBRANCH  36  39
ENDBRANCH  34  35
ENDBRANCH  33  34
ENDBRANCH  32  33
ENDBRANCH   1  32
TORSDOF 22
ENDMDL
MODEL 2
REMARK VINA RESULT:     -11.2      5.455     10.820
REMARK SMILES C[C@@H](C(=O)NCCCCCCNC(=O)c1ccc(-c2c3nc(c(-c4cc(S(=O)(=O)[O-])ccc4F)c4ccc([nH]4)c(-c4cc(S(=O)(=O)[O-])ccc4F)c4nc(c(-c5cc(S(=O)(=O)[O-])ccc5F)c5ccc2[nH]5)C=C4)C=C3)cc1)c1ccc(C[C@H]2CCC[C@H]2O)cc1-c1ccc(O)cc1
REMARK SMILES IDX 8 1 7 2 6 3 5 4 3 5 4 6 2 8 1 9 78 10 79 11 90 12 80 13
REMARK SMILES IDX 89 14 81 15 91 16 92 17 97 18 93 19 96 20 94 21 95 22 82 24
REMARK SMILES IDX 83 25 84 26 87 27 85 28 86 29 88 30 9 32 10 33 11 34 12 35
REMARK SMILES IDX 13 36 14 38 15 39 16 40 77 41 17 42 76 43 18 44 19 45 20 46
REMARK SMILES IDX 70 47 21 48 75 49 69 50 71 51 22 52 74 53 68 54 67 55 23 57
REMARK SMILES IDX 55 58 35 59 54 60 36 61 39 62 53 63 72 64 37 65 38 66 52 68
REMARK SMILES IDX 73 69 40 70 24 71 25 72 33 73 26 74 32 75 34 76 31 77 27 78
REMARK SMILES IDX 28 79 29 80 30 81 56 82 57 83 65 84 58 85 64 86 66 87 63 88
REMARK SMILES IDX 59 89 60 90 61 91 62 92 41 93 42 94 50 95 43 96 49 97 51 98
REMARK SMILES IDX 48 99 44 100 45 101 46 102 47 103
REMARK H PARENT 5 7 95 23 88 31 12 37 71 56 39 67
REMARK Flexibility Score: inf
ROOT
ATOM      1  C   UNL A   1      34.882  30.398  28.252  1.00  0.00     0.002 C 
ENDROOT
BRANCH   1   2
ATOM      2  C   UNL A   1      35.421  29.370  27.252  1.00  0.00     0.021 C 
BRANCH   2   3
ATOM      3  C   UNL A   1      34.399  28.886  26.219  1.00  0.00     0.116 C 
BRANCH   3   4
ATOM      4  N   UNL A   1      33.365  29.879  25.991  1.00  0.00    -0.356 N 
ATOM      5  C   UNL A   1      32.014  29.719  25.843  1.00  0.00     0.227 C 
ATOM      6  O   UNL A   1      31.400  30.659  25.334  1.00  0.00    -0.274 OA
ATOM      7  H   UNL A   1      33.684  30.809  25.934  1.00  0.00     0.163 HD
BRANCH   5   8
ATOM      8  C   UNL A   1      31.352  28.389  26.264  1.00  0.00     0.106 C 
ATOM      9  C   UNL A   1      31.744  28.199  27.733  1.00  0.00     0.023 C 
BRANCH   8  10
ATOM     10  C   UNL A   1      31.618  27.178  25.336  1.00  0.00    -0.028 A 
ATOM     11  C   UNL A   1      32.466  26.148  25.796  1.00  0.00     0.005 A 
ATOM     12  C   UNL A   1      31.114  27.055  24.010  1.00  0.00    -0.014 A 
ATOM     13  C   UNL A   1      32.740  25.010  25.039  1.00  0.00     0.004 A 
ATOM     14  C   UNL A   1      31.461  25.919  23.237  1.00  0.00     0.012 A 
ATOM     15  C   UNL A   1      32.276  24.895  23.736  1.00  0.00    -0.047 A 
BRANCH  12  16
ATOM     16  C   UNL A   1      30.199  28.028  23.391  1.00  0.00    -0.018 A 
ATOM     17  C   UNL A   1      30.720  29.051  22.577  1.00  0.00     0.012 A 
ATOM     18  C   UNL A   1      28.805  27.923  23.526  1.00  0.00     0.012 A 
ATOM     19  C   UNL A   1      29.874  29.878  21.838  1.00  0.00     0.047 A 
ATOM     20  C   UNL A   1      27.955  28.755  22.788  1.00  0.00     0.047 A 
ATOM     21  C   UNL A   1      28.500  29.704  21.928  1.00  0.00     0.115 A 
BRANCH  21  22
ATOM     22  O   UNL A   1      27.713  30.475  21.126  1.00  0.00    -0.508 OA
ATOM     23  H   UNL A   1      27.941  31.370  20.966  1.00  0.00     0.293 HD
ENDBRANCH  21  22
ENDBRANCH  12  16
BRANCH  15  24
ATOM     24  C   UNL A   1      32.638  23.696  22.897  1.00  0.00     0.041 C 
BRANCH  24  25
ATOM     25  C   UNL A   1      32.171  22.313  23.381  1.00  0.00     0.022 C 
ATOM     26  C   UNL A   1      32.010  21.238  22.294  1.00  0.00     0.007 C 
ATOM     27  C   UNL A   1      32.966  21.621  24.499  1.00  0.00     0.117 C 
ATOM     28  C   UNL A   1      32.267  19.896  22.983  1.00  0.00     0.003 C 
ATOM     29  C   UNL A   1      32.407  20.203  24.472  1.00  0.00     0.032 C 
BRANCH  27  30
ATOM     30  O   UNL A   1      34.363  21.553  24.288  1.00  0.00    -0.393 OA
ATOM     31  H   UNL A   1      34.695  20.692  24.588  1.00  0.00     0.210 HD
ENDBRANCH  27  30
ENDBRANCH  24  25
ENDBRANCH  15  24
ENDBRANCH   8  10
ENDBRANCH   5   8
ENDBRANCH   3   4
ENDBRANCH   2   3
ENDBRANCH   1   2
BRANCH   1  32
ATOM     32  C   UNL A   1      34.940  31.848  27.773  1.00  0.00     0.002 C 
BRANCH  32  33
ATOM     33  C   UNL A   1      33.656  32.653  27.990  1.00  0.00     0.021 C 
BRANCH  33  34
ATOM     34  C   UNL A   1      33.836  34.171  28.012  1.00  0.00     0.116 C 
BRANCH  34  35
ATOM     35  N   UNL A   1      33.378  34.759  29.258  1.00  0.00    -0.352 N 
ATOM     36  C   UNL A   1      33.809  34.531  30.538  1.00  0.00     0.251 C 
ATOM     37  H   UNL A   1      32.652  35.418  29.170  1.00  0.00     0.163 HD
ATOM     38  O   UNL A   1      33.157  34.982  31.484  1.00  0.00    -0.269 OA
BRANCH  36  39
ATOM     39  C   UNL A   1      35.027  33.733  30.791  1.00  0.00     0.039 A 
ATOM     40  C   UNL A   1      36.251  34.213  30.316  1.00  0.00     0.014 A 
ATOM     41  C   UNL A   1      34.971  32.509  31.467  1.00  0.00     0.014 A 
ATOM     42  C   UNL A   1      37.421  33.491  30.559  1.00  0.00     0.010 A 
ATOM     43  C   UNL A   1      36.148  31.821  31.763  1.00  0.00     0.010 A 
ATOM     44  C   UNL A   1      37.385  32.303  31.308  1.00  0.00    -0.014 A 
BRANCH  44  45
ATOM     45  C   UNL A   1      38.640  31.567  31.613  1.00  0.00     0.031 A 
ATOM     46  C   UNL A   1      39.425  31.880  32.858  1.00  0.00     0.074 A 
ATOM     47  C   UNL A   1      39.080  30.629  30.752  1.00  0.00     0.049 A 
ATOM     48  N   UNL A   1      40.539  31.345  33.288  1.00  0.00    -0.248 NA
ATOM     49  C   UNL A   1      38.901  32.950  33.719  1.00  0.00     0.031 C 
ATOM     50  C   UNL A   1      38.432  30.274  29.486  1.00  0.00     0.029 A 
ATOM     51  N   UNL A   1      40.174  29.802  30.804  1.00  0.00    -0.354 N 
ATOM     52  C   UNL A   1      40.847  32.006  34.473  1.00  0.00     0.074 A 
ATOM     53  C   UNL A   1      39.838  33.028  34.653  1.00  0.00     0.031 C 
ATOM     54  C   UNL A   1      39.126  29.288  28.897  1.00  0.00     0.029 A 
ATOM     55  C   UNL A   1      40.285  28.961  29.721  1.00  0.00     0.049 A 
ATOM     56  H   UNL A   1      40.819  29.810  31.549  1.00  0.00     0.167 HD
ATOM     57  C   UNL A   1      41.860  31.765  35.343  1.00  0.00     0.034 A 
ATOM     58  C   UNL A   1      41.215  28.033  29.423  1.00  0.00     0.034 A 
ATOM     59  C   UNL A   1      42.860  30.743  35.149  1.00  0.00     0.049 A 
ATOM     60  C   UNL A   1      42.333  27.785  30.404  1.00  0.00     0.074 A 
ATOM     61  C   UNL A   1      43.915  30.399  35.978  1.00  0.00     0.029 A 
ATOM     62  N   UNL A   1      42.933  29.899  34.048  1.00  0.00    -0.354 N 
ATOM     63  N   UNL A   1      42.580  28.390  31.545  1.00  0.00    -0.248 NA
ATOM     64  C   UNL A   1      43.281  26.716  30.071  1.00  0.00     0.031 C 
ATOM     65  C   UNL A   1      44.654  29.387  35.353  1.00  0.00     0.029 A 
ATOM     66  C   UNL A   1      44.023  29.050  34.167  1.00  0.00     0.049 A 
ATOM     67  H   UNL A   1      42.301  29.903  33.293  1.00  0.00     0.167 HD
ATOM     68  C   UNL A   1      43.701  27.757  32.072  1.00  0.00     0.074 A 
ATOM     69  C   UNL A   1      44.060  26.706  31.142  1.00  0.00     0.031 C 
ATOM     70  C   UNL A   1      44.379  28.020  33.220  1.00  0.00     0.034 A 
BRANCH  57  71
ATOM     71  C   UNL A   1      41.936  32.635  36.575  1.00  0.00     0.023 A 
ATOM     72  C   UNL A   1      41.174  32.349  37.722  1.00  0.00     0.031 A 
ATOM     73  C   UNL A   1      42.766  33.769  36.604  1.00  0.00     0.131 A 
ATOM     74  C   UNL A   1      41.204  33.222  38.820  1.00  0.00     0.055 A 
ATOM     75  C   UNL A   1      42.850  34.592  37.729  1.00  0.00     0.041 A 
ATOM     76  F   UNL A   1      43.501  34.105  35.532  1.00  0.00    -0.206 F 
ATOM     77  C   UNL A   1      42.056  34.328  38.842  1.00  0.00     0.022 A 
BRANCH  74  78
ATOM     78  S   UNL A   1      40.021  32.959  40.170  1.00  0.00     0.124 S 
ATOM     79  O   UNL A   1      40.754  32.027  41.024  1.00  0.00    -0.237 OA
ATOM     80  O   UNL A   1      39.841  34.305  40.701  1.00  0.00    -0.237 OA
ATOM     81  O   UNL A   1      38.855  32.392  39.498  1.00  0.00    -0.744 OA
ENDBRANCH  74  78
ENDBRANCH  57  71
BRANCH  58  82
ATOM     82  C   UNL A   1      41.146  27.274  28.142  1.00  0.00     0.023 A 
ATOM     83  C   UNL A   1      40.744  25.928  28.114  1.00  0.00     0.031 A 
ATOM     84  C   UNL A   1      41.533  27.872  26.929  1.00  0.00     0.131 A 
ATOM     85  C   UNL A   1      40.793  25.209  26.910  1.00  0.00     0.055 A 
ATOM     86  C   UNL A   1      41.525  27.167  25.723  1.00  0.00     0.041 A 
ATOM     87  F   UNL A   1      41.917  29.158  26.898  1.00  0.00    -0.206 F 
ATOM     88  C   UNL A   1      41.170  25.823  25.713  1.00  0.00     0.022 A 
BRANCH  85  89
ATOM     89  S   UNL A   1      40.452  23.428  26.949  1.00  0.00     0.124 S 
ATOM     90  O   UNL A   1      39.056  23.383  26.530  1.00  0.00    -0.237 OA
ATOM     91  O   UNL A   1      41.427  22.914  25.992  1.00  0.00    -0.237 OA
ATOM     92  O   UNL A   1      40.699  23.065  28.343  1.00  0.00    -0.744 OA
ENDBRANCH  85  89
ENDBRANCH  58  82
BRANCH  70  93
ATOM     93  C   UNL A   1      45.557  27.130  33.531  1.00  0.00     0.023 A 
ATOM     94  C   UNL A   1      45.399  25.918  34.226  1.00  0.00     0.031 A 
ATOM     95  C   UNL A   1      46.857  27.517  33.163  1.00  0.00     0.131 A 
ATOM     96  C   UNL A   1      46.529  25.172  34.596  1.00  0.00     0.055 A 
ATOM     97  C   UNL A   1      47.972  26.739  33.477  1.00  0.00     0.041 A 
ATOM     98  F   UNL A   1      47.066  28.665  32.497  1.00  0.00    -0.206 F 
ATOM     99  C   UNL A   1      47.814  25.568  34.213  1.00  0.00     0.022 A 
BRANCH  96 100
ATOM    100  S   UNL A   1      46.305  23.736  35.680  1.00  0.00     0.124 S 
ATOM    101  O   UNL A   1      47.573  23.700  36.403  1.00  0.00    -0.237 OA
ATOM    102  O   UNL A   1      45.136  24.118  36.466  1.00  0.00    -0.237 OA
ATOM    103  O   UNL A   1      46.090  22.631  34.748  1.00  0.00    -0.744 OA
ENDBRANCH  96 100
ENDBRANCH  70  93
ENDBRANCH  44  45
ENDBRANCH  36  39
ENDBRANCH  34  35
ENDBRANCH  33  34
ENDBRANCH  32  33
ENDBRANCH   1  32
TORSDOF 22
ENDMDL
MODEL 3
REMARK VINA RESULT:     -11.2      1.846      2.253
REMARK SMILES C[C@@H](C(=O)NCCCCCCNC(=O)c1ccc(-c2c3nc(c(-c4cc(S(=O)(=O)[O-])ccc4F)c4ccc([nH]4)c(-c4cc(S(=O)(=O)[O-])ccc4F)c4nc(c(-c5cc(S(=O)(=O)[O-])ccc5F)c5ccc2[nH]5)C=C4)C=C3)cc1)c1ccc(C[C@H]2CCC[C@H]2O)cc1-c1ccc(O)cc1
REMARK SMILES IDX 8 1 7 2 6 3 5 4 3 5 4 6 2 8 1 9 78 10 79 11 90 12 80 13
REMARK SMILES IDX 89 14 81 15 91 16 92 17 97 18 93 19 96 20 94 21 95 22 82 24
REMARK SMILES IDX 83 25 84 26 87 27 85 28 86 29 88 30 9 32 10 33 11 34 12 35
REMARK SMILES IDX 13 36 14 38 15 39 16 40 77 41 17 42 76 43 18 44 19 45 20 46
REMARK SMILES IDX 70 47 21 48 75 49 69 50 71 51 22 52 74 53 68 54 67 55 23 57
REMARK SMILES IDX 55 58 35 59 54 60 36 61 39 62 53 63 72 64 37 65 38 66 52 68
REMARK SMILES IDX 73 69 40 70 24 71 25 72 33 73 26 74 32 75 34 76 31 77 27 78
REMARK SMILES IDX 28 79 29 80 30 81 56 82 57 83 65 84 58 85 64 86 66 87 63 88
REMARK SMILES IDX 59 89 60 90 61 91 62 92 41 93 42 94 50 95 43 96 49 97 51 98
REMARK SMILES IDX 48 99 44 100 45 101 46 102 47 103
REMARK H PARENT 5 7 95 23 88 31 12 37 71 56 39 67
REMARK Flexibility Score: inf
ROOT
ATOM      1  C   UNL A   1      35.836  20.185  25.002  1.00  0.00     0.002 C 
ENDROOT
BRANCH   1   2
ATOM      2  C   UNL A   1      34.421  19.616  24.864  1.00  0.00     0.021 C 
BRANCH   2   3
ATOM      3  C   UNL A   1      33.304  20.564  25.311  1.00  0.00     0.116 C 
BRANCH   3   4
ATOM      4  N   UNL A   1      32.653  21.190  24.174  1.00  0.00    -0.356 N 
ATOM      5  C   UNL A   1      31.788  22.248  24.134  1.00  0.00     0.227 C 
ATOM      6  O   UNL A   1      31.122  22.378  23.104  1.00  0.00    -0.274 OA
ATOM      7  H   UNL A   1      32.868  20.792  23.299  1.00  0.00     0.163 HD
BRANCH   5   8
ATOM      8  C   UNL A   1      31.655  23.173  25.363  1.00  0.00     0.106 C 
ATOM      9  C   UNL A   1      30.456  22.626  26.144  1.00  0.00     0.023 C 
BRANCH   8  10
ATOM     10  C   UNL A   1      31.626  24.693  25.067  1.00  0.00    -0.028 A 
ATOM     11  C   UNL A   1      30.387  25.366  25.116  1.00  0.00     0.005 A 
ATOM     12  C   UNL A   1      32.762  25.459  24.679  1.00  0.00    -0.014 A 
ATOM     13  C   UNL A   1      30.271  26.737  24.888  1.00  0.00     0.004 A 
ATOM     14  C   UNL A   1      32.606  26.837  24.389  1.00  0.00     0.012 A 
ATOM     15  C   UNL A   1      31.368  27.485  24.484  1.00  0.00    -0.047 A 
BRANCH  12  16
ATOM     16  C   UNL A   1      34.128  24.913  24.604  1.00  0.00    -0.018 A 
ATOM     17  C   UNL A   1      34.949  24.937  25.747  1.00  0.00     0.012 A 
ATOM     18  C   UNL A   1      34.615  24.296  23.441  1.00  0.00     0.012 A 
ATOM     19  C   UNL A   1      36.176  24.274  25.759  1.00  0.00     0.047 A 
ATOM     20  C   UNL A   1      35.848  23.633  23.450  1.00  0.00     0.047 A 
ATOM     21  C   UNL A   1      36.602  23.604  24.620  1.00  0.00     0.115 A 
BRANCH  21  22
ATOM     22  O   UNL A   1      37.766  22.899  24.701  1.00  0.00    -0.508 OA
ATOM     23  H   UNL A   1      38.582  23.351  24.790  1.00  0.00     0.293 HD
ENDBRANCH  21  22
ENDBRANCH  12  16
BRANCH  15  24
ATOM     24  C   UNL A   1      31.220  28.951  24.166  1.00  0.00     0.041 C 
BRANCH  24  25
ATOM     25  C   UNL A   1      29.901  29.419  23.528  1.00  0.00     0.022 C 
ATOM     26  C   UNL A   1      29.396  30.804  23.963  1.00  0.00     0.007 C 
ATOM     27  C   UNL A   1      29.791  29.426  21.995  1.00  0.00     0.117 C 
ATOM     28  C   UNL A   1      28.593  31.353  22.780  1.00  0.00     0.003 C 
ATOM     29  C   UNL A   1      28.511  30.219  21.761  1.00  0.00     0.032 C 
BRANCH  27  30
ATOM     30  O   UNL A   1      30.850  30.080  21.321  1.00  0.00    -0.393 OA
ATOM     31  H   UNL A   1      31.090  29.574  20.528  1.00  0.00     0.210 HD
ENDBRANCH  27  30
ENDBRANCH  24  25
ENDBRANCH  15  24
ENDBRANCH   8  10
ENDBRANCH   5   8
ENDBRANCH   3   4
ENDBRANCH   2   3
ENDBRANCH   1   2
BRANCH   1  32
ATOM     32  C   UNL A   1      36.950  19.138  25.001  1.00  0.00     0.002 C 
BRANCH  32  33
ATOM     33  C   UNL A   1      38.363  19.696  24.807  1.00  0.00     0.021 C 
BRANCH  33  34
ATOM     34  C   UNL A   1      39.152  19.929  26.095  1.00  0.00     0.116 C 
BRANCH  34  35
ATOM     35  N   UNL A   1      40.401  19.189  26.115  1.00  0.00    -0.352 N 
ATOM     36  C   UNL A   1      41.686  19.653  26.212  1.00  0.00     0.251 C 
ATOM     37  H   UNL A   1      40.311  18.211  26.048  1.00  0.00     0.163 HD
ATOM     38  O   UNL A   1      42.625  18.877  26.010  1.00  0.00    -0.269 OA
BRANCH  36  39
ATOM     39  C   UNL A   1      41.952  21.071  26.532  1.00  0.00     0.039 A 
ATOM     40  C   UNL A   1      42.111  21.436  27.871  1.00  0.00     0.014 A 
ATOM     41  C   UNL A   1      42.021  22.045  25.530  1.00  0.00     0.014 A 
ATOM     42  C   UNL A   1      42.384  22.765  28.201  1.00  0.00     0.010 A 
ATOM     43  C   UNL A   1      42.355  23.360  25.855  1.00  0.00     0.010 A 
ATOM     44  C   UNL A   1      42.536  23.734  27.195  1.00  0.00    -0.014 A 
BRANCH  44  45
ATOM     45  C   UNL A   1      42.883  25.136  27.547  1.00  0.00     0.031 A 
ATOM     46  C   UNL A   1      44.282  25.651  27.341  1.00  0.00     0.074 A 
ATOM     47  C   UNL A   1      41.936  25.938  28.073  1.00  0.00     0.049 A 
ATOM     48  N   UNL A   1      44.769  26.840  27.590  1.00  0.00    -0.248 NA
ATOM     49  C   UNL A   1      45.266  24.697  26.809  1.00  0.00     0.031 C 
ATOM     50  C   UNL A   1      40.558  25.535  28.366  1.00  0.00     0.029 A 
ATOM     51  N   UNL A   1      41.983  27.255  28.455  1.00  0.00    -0.354 N 
ATOM     52  C   UNL A   1      46.114  26.781  27.238  1.00  0.00     0.074 A 
ATOM     53  C   UNL A   1      46.378  25.419  26.825  1.00  0.00     0.031 C 
ATOM     54  C   UNL A   1      39.887  26.588  28.859  1.00  0.00     0.029 A 
ATOM     55  C   UNL A   1      40.791  27.731  28.949  1.00  0.00     0.049 A 
ATOM     56  H   UNL A   1      42.795  27.807  28.382  1.00  0.00     0.167 HD
ATOM     57  C   UNL A   1      47.036  27.777  27.232  1.00  0.00     0.034 A 
ATOM     58  C   UNL A   1      40.461  28.949  29.421  1.00  0.00     0.034 A 
ATOM     59  C   UNL A   1      46.759  29.132  27.647  1.00  0.00     0.049 A 
ATOM     60  C   UNL A   1      41.503  30.038  29.407  1.00  0.00     0.074 A 
ATOM     61  C   UNL A   1      47.611  30.223  27.660  1.00  0.00     0.029 A 
ATOM     62  N   UNL A   1      45.535  29.582  28.126  1.00  0.00    -0.354 N 
ATOM     63  N   UNL A   1      42.759  29.975  29.024  1.00  0.00    -0.248 NA
ATOM     64  C   UNL A   1      41.079  31.366  29.865  1.00  0.00     0.031 C 
ATOM     65  C   UNL A   1      46.920  31.316  28.196  1.00  0.00     0.029 A 
ATOM     66  C   UNL A   1      45.616  30.927  28.455  1.00  0.00     0.049 A 
ATOM     67  H   UNL A   1      44.728  29.027  28.219  1.00  0.00     0.167 HD
ATOM     68  C   UNL A   1      43.265  31.263  29.178  1.00  0.00     0.074 A 
ATOM     69  C   UNL A   1      42.171  32.084  29.656  1.00  0.00     0.031 C 
ATOM     70  C   UNL A   1      44.521  31.728  28.949  1.00  0.00     0.034 A 
BRANCH  57  71
ATOM     71  C   UNL A   1      48.430  27.427  26.772  1.00  0.00     0.023 A 
ATOM     72  C   UNL A   1      49.458  27.152  27.692  1.00  0.00     0.031 A 
ATOM     73  C   UNL A   1      48.745  27.379  25.402  1.00  0.00     0.131 A 
ATOM     74  C   UNL A   1      50.763  26.911  27.235  1.00  0.00     0.055 A 
ATOM     75  C   UNL A   1      50.028  27.061  24.952  1.00  0.00     0.041 A 
ATOM     76  F   UNL A   1      47.811  27.651  24.477  1.00  0.00    -0.206 F 
ATOM     77  C   UNL A   1      51.050  26.838  25.871  1.00  0.00     0.022 A 
BRANCH  74  78
ATOM     78  S   UNL A   1      52.104  26.815  28.453  1.00  0.00     0.124 S 
ATOM     79  O   UNL A   1      51.512  25.952  29.473  1.00  0.00    -0.237 OA
ATOM     80  O   UNL A   1      53.194  26.232  27.679  1.00  0.00    -0.237 OA
ATOM     81  O   UNL A   1      52.300  28.204  28.857  1.00  0.00    -0.744 OA
ENDBRANCH  74  78
ENDBRANCH  57  71
BRANCH  58  82
ATOM     82  C   UNL A   1      39.095  29.210  29.958  1.00  0.00     0.023 A 
ATOM     83  C   UNL A   1      38.156  29.956  29.228  1.00  0.00     0.031 A 
ATOM     84  C   UNL A   1      38.727  28.758  31.238  1.00  0.00     0.131 A 
ATOM     85  C   UNL A   1      36.918  30.278  29.804  1.00  0.00     0.055 A 
ATOM     86  C   UNL A   1      37.471  29.033  31.785  1.00  0.00     0.041 A 
ATOM     87  F   UNL A   1      39.583  28.032  31.975  1.00  0.00    -0.206 F 
ATOM     88  C   UNL A   1      36.565  29.811  31.073  1.00  0.00     0.022 A 
BRANCH  85  89
ATOM     89  S   UNL A   1      35.811  31.403  28.910  1.00  0.00     0.124 S 
ATOM     90  O   UNL A   1      36.747  32.390  28.388  1.00  0.00    -0.237 OA
ATOM     91  O   UNL A   1      35.204  30.510  27.928  1.00  0.00    -0.237 OA
ATOM     92  O   UNL A   1      34.906  31.887  29.951  1.00  0.00    -0.744 OA
ENDBRANCH  85  89
ENDBRANCH  58  82
BRANCH  70  93
ATOM     93  C   UNL A   1      44.754  33.199  29.191  1.00  0.00     0.023 A 
ATOM     94  C   UNL A   1      45.169  33.679  30.446  1.00  0.00     0.031 A 
ATOM     95  C   UNL A   1      44.519  34.134  28.169  1.00  0.00     0.131 A 
ATOM     96  C   UNL A   1      45.267  35.062  30.668  1.00  0.00     0.055 A 
ATOM     97  C   UNL A   1      44.680  35.505  28.377  1.00  0.00     0.041 A 
ATOM     98  F   UNL A   1      44.120  33.730  26.952  1.00  0.00    -0.206 F 
ATOM     99  C   UNL A   1      45.039  35.977  29.636  1.00  0.00     0.022 A 
BRANCH  96 100
ATOM    100  S   UNL A   1      45.588  35.651  32.352  1.00  0.00     0.124 S 
ATOM    101  O   UNL A   1      45.552  34.411  33.120  1.00  0.00    -0.237 OA
ATOM    102  O   UNL A   1      46.899  36.279  32.218  1.00  0.00    -0.237 OA
ATOM    103  O   UNL A   1      44.483  36.573  32.609  1.00  0.00    -0.744 OA
ENDBRANCH  96 100
ENDBRANCH  70  93
ENDBRANCH  44  45
ENDBRANCH  36  39
ENDBRANCH  34  35
ENDBRANCH  33  34
ENDBRANCH  32  33
ENDBRANCH   1  32
TORSDOF 22
ENDMDL
