MODEL 1
REMARK VINA RESULT:     -12.2      0.000      0.000
REMARK SMILES Cc1cc(N2CCCC2)nc2sc3c(=O)n(CC(=O)NCCCCCCNC(=O)c4ccc(-c5c6nc(c(-c7cc(S(=O)(=O)[O-])ccc7F)c7ccc([nH]7)c(-c7cc(S(=O)(=O)[O-])ccc7F)c7nc(c(-c8cc(S(=O)(=O)[O-])ccc8F)c8ccc5[nH]8)C=C7)C=C6)cc4)cnc3c12
REMARK SMILES IDX 24 1 23 2 22 3 21 4 20 5 18 6 19 7 17 9 16 10 1 11 2 12 3 13
REMARK SMILES IDX 96 14 4 15 11 16 95 17 10 18 12 19 13 20 94 21 14 22 93 23
REMARK SMILES IDX 15 24 5 25 6 26 9 27 7 28 8 29 25 30 26 31 27 32 28 33 29 35
REMARK SMILES IDX 30 36 31 37 92 38 32 39 91 40 33 41 34 42 35 43 85 44 36 45
REMARK SMILES IDX 90 46 84 47 86 48 37 49 89 50 83 51 82 52 38 54 70 55 50 56
REMARK SMILES IDX 69 57 51 58 54 59 68 60 87 61 52 62 53 63 67 65 88 66 55 67
REMARK SMILES IDX 39 68 40 69 48 70 41 71 47 72 49 73 46 74 42 75 43 76 44 77
REMARK SMILES IDX 45 78 71 79 72 80 80 81 73 82 79 83 81 84 78 85 74 86 75 87
REMARK SMILES IDX 76 88 77 89 56 90 57 91 65 92 58 93 64 94 66 95 63 96 59 97
REMARK SMILES IDX 60 98 61 99 62 100
REMARK H PARENT 20 8 27 34 86 53 54 64
REMARK Flexibility Score: inf
ROOT
ATOM      1  C   UNL A   1      38.887  23.142  26.489  1.00  0.00     0.002 C 
ENDROOT
BRANCH   1   2
ATOM      2  C   UNL A   1      37.595  23.508  25.749  1.00  0.00     0.002 C 
BRANCH   2   3
ATOM      3  C   UNL A   1      37.010  22.399  24.862  1.00  0.00     0.021 C 
BRANCH   3   4
ATOM      4  C   UNL A   1      36.088  22.905  23.750  1.00  0.00     0.116 C 
BRANCH   4   5
ATOM      5  N   UNL A   1      34.939  22.038  23.567  1.00  0.00    -0.355 N 
ATOM      6  C   UNL A   1      33.725  22.060  24.181  1.00  0.00     0.240 C 
ATOM      7  O   UNL A   1      32.868  21.254  23.806  1.00  0.00    -0.273 OA
ATOM      8  H   UNL A   1      35.055  21.326  22.896  1.00  0.00     0.163 HD
BRANCH   6   9
ATOM      9  C   UNL A   1      33.385  23.095  25.256  1.00  0.00     0.226 C 
BRANCH   9  10
ATOM     10  N   UNL A   1      32.569  24.191  24.758  1.00  0.00    -0.288 N 
ATOM     11  C   UNL A   1      27.642  26.675  23.962  1.00  0.00     0.045 C 
ATOM     12  C   UNL A   1      28.742  27.565  23.462  1.00  0.00    -0.035 A 
ATOM     13  C   UNL A   1      28.389  28.817  22.933  1.00  0.00     0.051 A 
ATOM     14  C   UNL A   1      30.115  27.234  23.424  1.00  0.00     0.041 A 
ATOM     15  C   UNL A   1      29.330  29.669  22.357  1.00  0.00     0.130 A 
ATOM     16  C   UNL A   1      30.970  28.163  22.831  1.00  0.00     0.128 A 
ATOM     17  C   UNL A   1      30.873  26.105  23.861  1.00  0.00     0.098 A 
ATOM     18  N   UNL A   1      30.625  29.334  22.263  1.00  0.00    -0.220 NA
ATOM     19  S   UNL A   1      32.614  27.676  22.867  1.00  0.00    -0.108 S 
ATOM     20  C   UNL A   1      32.218  26.232  23.652  1.00  0.00     0.121 A 
ATOM     21  N   UNL A   1      30.320  24.963  24.463  1.00  0.00    -0.236 NA
ATOM     22  C   UNL A   1      33.163  25.239  24.064  1.00  0.00     0.271 A 
ATOM     23  C   UNL A   1      31.191  24.097  24.865  1.00  0.00     0.203 A 
ATOM     24  O   UNL A   1      34.377  25.277  23.833  1.00  0.00    -0.268 OA
BRANCH  15  25
ATOM     25  N   UNL A   1      28.880  30.851  21.813  1.00  0.00    -0.357 N 
ATOM     26  C   UNL A   1      27.991  30.843  20.661  1.00  0.00     0.118 C 
ATOM     27  C   UNL A   1      28.563  32.005  22.646  1.00  0.00     0.118 C 
ATOM     28  C   UNL A   1      27.960  32.318  20.298  1.00  0.00     0.023 C 
ATOM     29  C   UNL A   1      27.987  33.024  21.651  1.00  0.00     0.023 C 
ENDBRANCH  15  25
ENDBRANCH   9  10
ENDBRANCH   6   9
ENDBRANCH   4   5
ENDBRANCH   3   4
ENDBRANCH   2   3
ENDBRANCH   1   2
BRANCH   1  30
ATOM     30  C   UNL A   1      39.468  21.751  26.172  1.00  0.00     0.021 C 
BRANCH  30  31
ATOM     31  C   UNL A   1      40.427  21.182  27.231  1.00  0.00     0.116 C 
BRANCH  31  32
ATOM     32  N   UNL A   1      41.758  21.025  26.667  1.00  0.00    -0.352 N 
ATOM     33  C   UNL A   1      42.593  21.941  26.088  1.00  0.00     0.251 C 
ATOM     34  H   UNL A   1      42.117  20.108  26.709  1.00  0.00     0.163 HD
ATOM     35  O   UNL A   1      43.401  21.538  25.251  1.00  0.00    -0.269 OA
BRANCH  33  36
ATOM     36  C   UNL A   1      42.584  23.374  26.461  1.00  0.00     0.039 A 
ATOM     37  C   UNL A   1      42.990  24.302  25.494  1.00  0.00     0.014 A 
ATOM     38  C   UNL A   1      42.367  23.799  27.775  1.00  0.00     0.014 A 
ATOM     39  C   UNL A   1      43.163  25.645  25.832  1.00  0.00     0.010 A 
ATOM     40  C   UNL A   1      42.545  25.146  28.112  1.00  0.00     0.010 A 
ATOM     41  C   UNL A   1      42.941  26.083  27.146  1.00  0.00    -0.014 A 
BRANCH  41  42
ATOM     42  C   UNL A   1      43.037  27.534  27.425  1.00  0.00     0.031 A 
ATOM     43  C   UNL A   1      41.757  28.304  27.369  1.00  0.00     0.074 A 
ATOM     44  C   UNL A   1      44.049  28.065  28.145  1.00  0.00     0.049 A 
ATOM     45  N   UNL A   1      40.903  28.320  28.351  1.00  0.00    -0.248 NA
ATOM     46  C   UNL A   1      41.247  28.898  26.135  1.00  0.00     0.031 C 
ATOM     47  C   UNL A   1      44.699  27.365  29.262  1.00  0.00     0.029 A 
ATOM     48  N   UNL A   1      44.524  29.355  28.230  1.00  0.00    -0.354 N 
ATOM     49  C   UNL A   1      39.733  28.881  27.872  1.00  0.00     0.074 A 
ATOM     50  C   UNL A   1      39.996  29.228  26.492  1.00  0.00     0.031 C 
ATOM     51  C   UNL A   1      45.345  28.274  30.022  1.00  0.00     0.029 A 
ATOM     52  C   UNL A   1      45.296  29.580  29.369  1.00  0.00     0.049 A 
ATOM     53  H   UNL A   1      44.337  30.047  27.556  1.00  0.00     0.167 HD
ATOM     54  C   UNL A   1      38.617  29.031  28.634  1.00  0.00     0.034 A 
ATOM     55  C   UNL A   1      45.401  30.777  30.013  1.00  0.00     0.034 A 
ATOM     56  C   UNL A   1      38.751  28.633  30.006  1.00  0.00     0.049 A 
ATOM     57  C   UNL A   1      44.023  30.884  30.628  1.00  0.00     0.074 A 
ATOM     58  C   UNL A   1      38.488  27.524  30.777  1.00  0.00     0.029 A 
ATOM     59  N   UNL A   1      39.364  29.515  30.867  1.00  0.00    -0.354 N 
ATOM     60  N   UNL A   1      43.598  30.252  31.693  1.00  0.00    -0.248 NA
ATOM     61  C   UNL A   1      42.964  31.457  29.797  1.00  0.00     0.031 C 
ATOM     62  C   UNL A   1      39.359  27.629  31.910  1.00  0.00     0.029 A 
ATOM     63  C   UNL A   1      40.136  28.774  31.727  1.00  0.00     0.049 A 
ATOM     64  H   UNL A   1      39.267  30.494  30.867  1.00  0.00     0.167 HD
ATOM     65  C   UNL A   1      42.219  30.097  31.506  1.00  0.00     0.074 A 
ATOM     66  C   UNL A   1      41.897  30.879  30.330  1.00  0.00     0.031 C 
ATOM     67  C   UNL A   1      41.443  29.204  32.189  1.00  0.00     0.034 A 
BRANCH  54  68
ATOM     68  C   UNL A   1      37.404  29.757  28.197  1.00  0.00     0.023 A 
ATOM     69  C   UNL A   1      36.294  29.120  27.624  1.00  0.00     0.031 A 
ATOM     70  C   UNL A   1      37.302  31.118  28.539  1.00  0.00     0.131 A 
ATOM     71  C   UNL A   1      35.114  29.858  27.429  1.00  0.00     0.055 A 
ATOM     72  C   UNL A   1      36.126  31.838  28.357  1.00  0.00     0.041 A 
ATOM     73  F   UNL A   1      38.345  31.749  29.106  1.00  0.00    -0.206 F 
ATOM     74  C   UNL A   1      35.021  31.203  27.807  1.00  0.00     0.022 A 
BRANCH  71  75
ATOM     75  S   UNL A   1      33.615  29.086  26.759  1.00  0.00     0.124 S 
ATOM     76  O   UNL A   1      33.076  30.142  25.904  1.00  0.00    -0.237 OA
ATOM     77  O   UNL A   1      34.161  27.931  26.052  1.00  0.00    -0.237 OA
ATOM     78  O   UNL A   1      32.821  28.785  27.944  1.00  0.00    -0.744 OA
ENDBRANCH  71  75
ENDBRANCH  54  68
BRANCH  55  79
ATOM     79  C   UNL A   1      46.041  31.869  29.202  1.00  0.00     0.023 A 
ATOM     80  C   UNL A   1      45.408  32.610  28.194  1.00  0.00     0.031 A 
ATOM     81  C   UNL A   1      47.406  32.159  29.433  1.00  0.00     0.131 A 
ATOM     82  C   UNL A   1      46.160  33.441  27.344  1.00  0.00     0.055 A 
ATOM     83  C   UNL A   1      48.140  33.035  28.627  1.00  0.00     0.041 A 
ATOM     84  F   UNL A   1      48.061  31.579  30.453  1.00  0.00    -0.206 F 
ATOM     85  C   UNL A   1      47.523  33.655  27.551  1.00  0.00     0.022 A 
BRANCH  82  86
ATOM     86  S   UNL A   1      45.386  34.211  25.893  1.00  0.00     0.124 S 
ATOM     87  O   UNL A   1      44.227  34.886  26.472  1.00  0.00    -0.237 OA
ATOM     88  O   UNL A   1      46.458  35.085  25.428  1.00  0.00    -0.237 OA
ATOM     89  O   UNL A   1      45.080  33.073  25.033  1.00  0.00    -0.744 OA
ENDBRANCH  82  86
ENDBRANCH  55  79
BRANCH  67  90
ATOM     90  C   UNL A   1      42.079  28.490  33.343  1.00  0.00     0.023 A 
ATOM     91  C   UNL A   1      43.034  27.478  33.134  1.00  0.00     0.031 A 
ATOM     92  C   UNL A   1      41.636  28.726  34.654  1.00  0.00     0.131 A 
ATOM     93  C   UNL A   1      43.457  26.682  34.208  1.00  0.00     0.055 A 
ATOM     94  C   UNL A   1      42.106  27.970  35.730  1.00  0.00     0.041 A 
ATOM     95  F   UNL A   1      40.698  29.654  34.903  1.00  0.00    -0.206 F 
ATOM     96  C   UNL A   1      43.008  26.933  35.507  1.00  0.00     0.022 A 
BRANCH  93  97
ATOM     97  S   UNL A   1      44.542  25.253  33.941  1.00  0.00     0.124 S 
ATOM     98  O   UNL A   1      44.144  24.346  35.017  1.00  0.00    -0.237 OA
ATOM     99  O   UNL A   1      44.155  24.829  32.598  1.00  0.00    -0.237 OA
ATOM    100  O   UNL A   1      45.889  25.801  34.060  1.00  0.00    -0.744 OA
ENDBRANCH  93  97
ENDBRANCH  67  90
ENDBRANCH  41  42
ENDBRANCH  33  36
ENDBRANCH  31  32
ENDBRANCH  30  31
ENDBRANCH   1  30
TORSDOF 18
ENDMDL
MODEL 2
REMARK VINA RESULT:     -11.8      4.191      9.578
REMARK SMILES Cc1cc(N2CCCC2)nc2sc3c(=O)n(CC(=O)NCCCCCCNC(=O)c4ccc(-c5c6nc(c(-c7cc(S(=O)(=O)[O-])ccc7F)c7ccc([nH]7)c(-c7cc(S(=O)(=O)[O-])ccc7F)c7nc(c(-c8cc(S(=O)(=O)[O-])ccc8F)c8ccc5[nH]8)C=C7)C=C6)cc4)cnc3c12
REMARK SMILES IDX 24 1 23 2 22 3 21 4 20 5 18 6 19 7 17 9 16 10 1 11 2 12 3 13
REMARK SMILES IDX 96 14 4 15 11 16 95 17 10 18 12 19 13 20 94 21 14 22 93 23
REMARK SMILES IDX 15 24 5 25 6 26 9 27 7 28 8 29 25 30 26 31 27 32 28 33 29 35
REMARK SMILES IDX 30 36 31 37 92 38 32 39 91 40 33 41 34 42 35 43 85 44 36 45
REMARK SMILES IDX 90 46 84 47 86 48 37 49 89 50 83 51 82 52 38 54 70 55 50 56
REMARK SMILES IDX 69 57 51 58 54 59 68 60 87 61 52 62 53 63 67 65 88 66 55 67
REMARK SMILES IDX 39 68 40 69 48 70 41 71 47 72 49 73 46 74 42 75 43 76 44 77
REMARK SMILES IDX 45 78 71 79 72 80 80 81 73 82 79 83 81 84 78 85 74 86 75 87
REMARK SMILES IDX 76 88 77 89 56 90 57 91 65 92 58 93 64 94 66 95 63 96 59 97
REMARK SMILES IDX 60 98 61 99 62 100
REMARK H PARENT 20 8 27 34 86 53 54 64
REMARK Flexibility Score: inf
ROOT
ATOM      1  C   UNL A   1      36.495  31.633  28.549  1.00  0.00     0.002 C 
ENDROOT
BRANCH   1   2
ATOM      2  C   UNL A   1      36.262  30.669  27.379  1.00  0.00     0.002 C 
BRANCH   2   3
ATOM      3  C   UNL A   1      35.268  29.531  27.654  1.00  0.00     0.021 C 
BRANCH   3   4
ATOM      4  C   UNL A   1      33.806  29.896  27.387  1.00  0.00     0.116 C 
BRANCH   4   5
ATOM      5  N   UNL A   1      33.442  29.680  25.998  1.00  0.00    -0.355 N 
ATOM      6  C   UNL A   1      32.590  28.769  25.454  1.00  0.00     0.240 C 
ATOM      7  O   UNL A   1      32.382  28.821  24.238  1.00  0.00    -0.273 OA
ATOM      8  H   UNL A   1      33.876  30.284  25.353  1.00  0.00     0.163 HD
BRANCH   6   9
ATOM      9  C   UNL A   1      31.841  27.750  26.317  1.00  0.00     0.226 C 
BRANCH   9  10
ATOM     10  N   UNL A   1      32.198  26.373  26.014  1.00  0.00    -0.288 N 
ATOM     11  C   UNL A   1      35.863  22.485  24.423  1.00  0.00     0.045 C 
ATOM     12  C   UNL A   1      34.558  21.834  24.777  1.00  0.00    -0.035 A 
ATOM     13  C   UNL A   1      34.474  20.435  24.688  1.00  0.00     0.051 A 
ATOM     14  C   UNL A   1      33.374  22.510  25.144  1.00  0.00     0.041 A 
ATOM     15  C   UNL A   1      33.278  19.750  24.903  1.00  0.00     0.130 A 
ATOM     16  C   UNL A   1      32.236  21.726  25.341  1.00  0.00     0.128 A 
ATOM     17  C   UNL A   1      33.045  23.883  25.360  1.00  0.00     0.098 A 
ATOM     18  N   UNL A   1      32.137  20.392  25.191  1.00  0.00    -0.220 NA
ATOM     19  S   UNL A   1      30.867  22.642  25.814  1.00  0.00    -0.108 S 
ATOM     20  C   UNL A   1      31.750  24.083  25.753  1.00  0.00     0.121 A 
ATOM     21  N   UNL A   1      33.945  24.949  25.203  1.00  0.00    -0.236 NA
ATOM     22  C   UNL A   1      31.229  25.376  26.073  1.00  0.00     0.271 A 
ATOM     23  C   UNL A   1      33.469  26.104  25.536  1.00  0.00     0.203 A 
ATOM     24  O   UNL A   1      30.051  25.614  26.362  1.00  0.00    -0.268 OA
BRANCH  15  25
ATOM     25  N   UNL A   1      33.282  18.383  24.737  1.00  0.00    -0.357 N 
ATOM     26  C   UNL A   1      34.442  17.710  24.172  1.00  0.00     0.118 C 
ATOM     27  C   UNL A   1      32.641  17.494  25.697  1.00  0.00     0.118 C 
ATOM     28  C   UNL A   1      33.904  16.302  23.977  1.00  0.00     0.023 C 
ATOM     29  C   UNL A   1      33.001  16.090  25.190  1.00  0.00     0.023 C 
ENDBRANCH  15  25
ENDBRANCH   9  10
ENDBRANCH   6   9
ENDBRANCH   4   5
ENDBRANCH   3   4
ENDBRANCH   2   3
ENDBRANCH   1   2
BRANCH   1  30
ATOM     30  C   UNL A   1      35.757  32.982  28.460  1.00  0.00     0.021 C 
BRANCH  30  31
ATOM     31  C   UNL A   1      34.336  32.995  29.051  1.00  0.00     0.116 C 
BRANCH  31  32
ATOM     32  N   UNL A   1      34.280  33.890  30.195  1.00  0.00    -0.352 N 
ATOM     33  C   UNL A   1      34.755  33.737  31.468  1.00  0.00     0.251 C 
ATOM     34  H   UNL A   1      33.826  34.747  30.023  1.00  0.00     0.163 HD
ATOM     35  O   UNL A   1      34.182  34.343  32.375  1.00  0.00    -0.269 OA
BRANCH  33  36
ATOM     36  C   UNL A   1      35.944  32.912  31.781  1.00  0.00     0.039 A 
ATOM     37  C   UNL A   1      37.205  33.506  31.639  1.00  0.00     0.014 A 
ATOM     38  C   UNL A   1      35.853  31.540  32.026  1.00  0.00     0.014 A 
ATOM     39  C   UNL A   1      38.365  32.739  31.757  1.00  0.00     0.010 A 
ATOM     40  C   UNL A   1      37.019  30.772  32.139  1.00  0.00     0.010 A 
ATOM     41  C   UNL A   1      38.284  31.361  32.009  1.00  0.00    -0.014 A 
BRANCH  41  42
ATOM     42  C   UNL A   1      39.545  30.616  32.228  1.00  0.00     0.031 A 
ATOM     43  C   UNL A   1      40.645  30.877  31.249  1.00  0.00     0.074 A 
ATOM     44  C   UNL A   1      39.895  30.130  33.438  1.00  0.00     0.049 A 
ATOM     45  N   UNL A   1      41.420  31.920  31.324  1.00  0.00    -0.248 NA
ATOM     46  C   UNL A   1      40.788  30.124  30.005  1.00  0.00     0.031 C 
ATOM     47  C   UNL A   1      39.560  30.796  34.705  1.00  0.00     0.029 A 
ATOM     48  N   UNL A   1      40.792  29.148  33.798  1.00  0.00    -0.354 N 
ATOM     49  C   UNL A   1      42.123  31.998  30.135  1.00  0.00     0.074 A 
ATOM     50  C   UNL A   1      41.700  30.859  29.350  1.00  0.00     0.031 C 
ATOM     51  C   UNL A   1      40.376  30.322  35.670  1.00  0.00     0.029 A 
ATOM     52  C   UNL A   1      41.170  29.217  35.139  1.00  0.00     0.049 A 
ATOM     53  H   UNL A   1      41.132  28.469  33.172  1.00  0.00     0.167 HD
ATOM     54  C   UNL A   1      43.012  32.991  29.864  1.00  0.00     0.034 A 
ATOM     55  C   UNL A   1      42.380  28.823  35.626  1.00  0.00     0.034 A 
ATOM     56  C   UNL A   1      43.235  33.924  30.930  1.00  0.00     0.049 A 
ATOM     57  C   UNL A   1      43.273  29.908  35.067  1.00  0.00     0.074 A 
ATOM     58  C   UNL A   1      42.774  35.163  31.314  1.00  0.00     0.029 A 
ATOM     59  N   UNL A   1      44.086  33.544  31.942  1.00  0.00    -0.354 N 
ATOM     60  N   UNL A   1      43.391  31.128  35.525  1.00  0.00    -0.248 NA
ATOM     61  C   UNL A   1      43.790  29.715  33.711  1.00  0.00     0.031 C 
ATOM     62  C   UNL A   1      43.013  35.241  32.725  1.00  0.00     0.029 A 
ATOM     63  C   UNL A   1      43.558  34.017  33.118  1.00  0.00     0.049 A 
ATOM     64  H   UNL A   1      44.918  33.027  31.843  1.00  0.00     0.167 HD
ATOM     65  C   UNL A   1      43.722  31.912  34.413  1.00  0.00     0.074 A 
ATOM     66  C   UNL A   1      43.969  30.973  33.337  1.00  0.00     0.031 C 
ATOM     67  C   UNL A   1      43.598  33.271  34.363  1.00  0.00     0.034 A 
BRANCH  54  68
ATOM     68  C   UNL A   1      43.884  33.021  28.669  1.00  0.00     0.023 A 
ATOM     69  C   UNL A   1      44.856  32.045  28.404  1.00  0.00     0.031 A 
ATOM     70  C   UNL A   1      43.595  33.976  27.677  1.00  0.00     0.131 A 
ATOM     71  C   UNL A   1      45.492  32.043  27.151  1.00  0.00     0.055 A 
ATOM     72  C   UNL A   1      44.218  33.960  26.434  1.00  0.00     0.041 A 
ATOM     73  F   UNL A   1      42.656  34.913  27.899  1.00  0.00    -0.206 F 
ATOM     74  C   UNL A   1      45.166  32.982  26.164  1.00  0.00     0.022 A 
BRANCH  71  75
ATOM     75  S   UNL A   1      46.707  30.771  26.708  1.00  0.00     0.124 S 
ATOM     76  O   UNL A   1      46.619  29.850  27.839  1.00  0.00    -0.237 OA
ATOM     77  O   UNL A   1      46.167  30.265  25.449  1.00  0.00    -0.237 OA
ATOM     78  O   UNL A   1      47.960  31.509  26.607  1.00  0.00    -0.744 OA
ENDBRANCH  71  75
ENDBRANCH  54  68
BRANCH  55  79
ATOM     79  C   UNL A   1      42.662  27.353  35.484  1.00  0.00     0.023 A 
ATOM     80  C   UNL A   1      43.610  26.787  34.619  1.00  0.00     0.031 A 
ATOM     81  C   UNL A   1      41.889  26.448  36.250  1.00  0.00     0.131 A 
ATOM     82  C   UNL A   1      43.629  25.398  34.397  1.00  0.00     0.055 A 
ATOM     83  C   UNL A   1      41.954  25.062  36.074  1.00  0.00     0.041 A 
ATOM     84  F   UNL A   1      41.038  26.903  37.184  1.00  0.00    -0.206 F 
ATOM     85  C   UNL A   1      42.804  24.532  35.115  1.00  0.00     0.022 A 
BRANCH  82  86
ATOM     86  S   UNL A   1      44.689  24.690  33.103  1.00  0.00     0.124 S 
ATOM     87  O   UNL A   1      44.331  23.274  33.139  1.00  0.00    -0.237 OA
ATOM     88  O   UNL A   1      44.234  25.426  31.929  1.00  0.00    -0.237 OA
ATOM     89  O   UNL A   1      46.037  25.005  33.565  1.00  0.00    -0.744 OA
ENDBRANCH  82  86
ENDBRANCH  55  79
BRANCH  67  90
ATOM     90  C   UNL A   1      43.274  33.976  35.645  1.00  0.00     0.023 A 
ATOM     91  C   UNL A   1      41.958  34.380  35.939  1.00  0.00     0.031 A 
ATOM     92  C   UNL A   1      44.300  34.364  36.520  1.00  0.00     0.131 A 
ATOM     93  C   UNL A   1      41.712  35.218  37.035  1.00  0.00     0.055 A 
ATOM     94  C   UNL A   1      44.041  35.149  37.645  1.00  0.00     0.041 A 
ATOM     95  F   UNL A   1      45.578  34.038  36.264  1.00  0.00    -0.206 F 
ATOM     96  C   UNL A   1      42.746  35.593  37.898  1.00  0.00     0.022 A 
BRANCH  93  97
ATOM     97  S   UNL A   1      40.061  35.907  37.333  1.00  0.00     0.124 S 
ATOM     98  O   UNL A   1      40.278  36.765  38.497  1.00  0.00    -0.237 OA
ATOM     99  O   UNL A   1      39.800  36.614  36.081  1.00  0.00    -0.237 OA
ATOM    100  O   UNL A   1      39.224  34.735  37.575  1.00  0.00    -0.744 OA
ENDBRANCH  93  97
ENDBRANCH  67  90
ENDBRANCH  41  42
ENDBRANCH  33  36
ENDBRANCH  31  32
ENDBRANCH  30  31
ENDBRANCH   1  30
TORSDOF 18
ENDMDL
MODEL 3
REMARK VINA RESULT:     -11.6      3.857      8.249
REMARK SMILES Cc1cc(N2CCCC2)nc2sc3c(=O)n(CC(=O)NCCCCCCNC(=O)c4ccc(-c5c6nc(c(-c7cc(S(=O)(=O)[O-])ccc7F)c7ccc([nH]7)c(-c7cc(S(=O)(=O)[O-])ccc7F)c7nc(c(-c8cc(S(=O)(=O)[O-])ccc8F)c8ccc5[nH]8)C=C7)C=C6)cc4)cnc3c12
REMARK SMILES IDX 24 1 23 2 22 3 21 4 20 5 18 6 19 7 17 9 16 10 1 11 2 12 3 13
REMARK SMILES IDX 96 14 4 15 11 16 95 17 10 18 12 19 13 20 94 21 14 22 93 23
REMARK SMILES IDX 15 24 5 25 6 26 9 27 7 28 8 29 25 30 26 31 27 32 28 33 29 35
REMARK SMILES IDX 30 36 31 37 92 38 32 39 91 40 33 41 34 42 35 43 85 44 36 45
REMARK SMILES IDX 90 46 84 47 86 48 37 49 89 50 83 51 82 52 38 54 70 55 50 56
REMARK SMILES IDX 69 57 51 58 54 59 68 60 87 61 52 62 53 63 67 65 88 66 55 67
REMARK SMILES IDX 39 68 40 69 48 70 41 71 47 72 49 73 46 74 42 75 43 76 44 77
REMARK SMILES IDX 45 78 71 79 72 80 80 81 73 82 79 83 81 84 78 85 74 86 75 87
REMARK SMILES IDX 76 88 77 89 56 90 57 91 65 92 58 93 64 94 66 95 63 96 59 97
REMARK SMILES IDX 60 98 61 99 62 100
REMARK H PARENT 20 8 27 34 86 53 54 64
REMARK Flexibility Score: inf
ROOT
ATOM      1  C   UNL A   1      33.335  26.011  25.894  1.00  0.00     0.002 C 
ENDROOT
BRANCH   1   2
ATOM      2  C   UNL A   1      34.325  24.877  25.601  1.00  0.00     0.002 C 
BRANCH   2   3
ATOM      3  C   UNL A   1      34.184  23.635  26.494  1.00  0.00     0.021 C 
BRANCH   3   4
ATOM      4  C   UNL A   1      34.712  22.345  25.863  1.00  0.00     0.116 C 
BRANCH   4   5
ATOM      5  N   UNL A   1      33.682  21.326  25.779  1.00  0.00    -0.355 N 
ATOM      6  C   UNL A   1      32.920  20.943  24.718  1.00  0.00     0.240 C 
ATOM      7  O   UNL A   1      32.147  19.993  24.869  1.00  0.00    -0.273 OA
ATOM      8  H   UNL A   1      33.508  20.836  26.616  1.00  0.00     0.163 HD
BRANCH   6   9
ATOM      9  C   UNL A   1      33.056  21.610  23.347  1.00  0.00     0.226 C 
BRANCH   9  10
ATOM     10  N   UNL A   1      32.347  22.876  23.254  1.00  0.00    -0.288 N 
ATOM     11  C   UNL A   1      28.023  26.184  24.457  1.00  0.00     0.045 C 
ATOM     12  C   UNL A   1      29.038  26.950  23.658  1.00  0.00    -0.035 A 
ATOM     13  C   UNL A   1      28.775  28.301  23.381  1.00  0.00     0.051 A 
ATOM     14  C   UNL A   1      30.224  26.416  23.107  1.00  0.00     0.041 A 
ATOM     15  C   UNL A   1      29.610  29.065  22.566  1.00  0.00     0.130 A 
ATOM     16  C   UNL A   1      30.989  27.272  22.312  1.00  0.00     0.128 A 
ATOM     17  C   UNL A   1      30.851  25.135  23.161  1.00  0.00     0.098 A 
ATOM     18  N   UNL A   1      30.704  28.547  21.990  1.00  0.00    -0.220 NA
ATOM     19  S   UNL A   1      32.419  26.534  21.722  1.00  0.00    -0.108 S 
ATOM     20  C   UNL A   1      32.043  25.077  22.493  1.00  0.00     0.121 A 
ATOM     21  N   UNL A   1      30.327  24.023  23.840  1.00  0.00    -0.236 NA
ATOM     22  C   UNL A   1      32.860  23.903  22.467  1.00  0.00     0.271 A 
ATOM     23  C   UNL A   1      31.098  22.985  23.841  1.00  0.00     0.203 A 
ATOM     24  O   UNL A   1      33.906  23.781  21.819  1.00  0.00    -0.268 OA
BRANCH  15  25
ATOM     25  N   UNL A   1      29.239  30.365  22.305  1.00  0.00    -0.357 N 
ATOM     26  C   UNL A   1      28.329  30.668  21.210  1.00  0.00     0.118 C 
ATOM     27  C   UNL A   1      29.027  31.331  23.376  1.00  0.00     0.118 C 
ATOM     28  C   UNL A   1      28.402  32.186  21.173  1.00  0.00     0.023 C 
ATOM     29  C   UNL A   1      28.509  32.578  22.645  1.00  0.00     0.023 C 
ENDBRANCH  15  25
ENDBRANCH   9  10
ENDBRANCH   6   9
ENDBRANCH   4   5
ENDBRANCH   3   4
ENDBRANCH   2   3
ENDBRANCH   1   2
BRANCH   1  30
ATOM     30  C   UNL A   1      33.846  27.435  25.606  1.00  0.00     0.021 C 
BRANCH  30  31
ATOM     31  C   UNL A   1      34.117  28.301  26.848  1.00  0.00     0.116 C 
BRANCH  31  32
ATOM     32  N   UNL A   1      34.124  29.708  26.483  1.00  0.00    -0.352 N 
ATOM     33  C   UNL A   1      34.433  30.817  27.222  1.00  0.00     0.251 C 
ATOM     34  H   UNL A   1      33.864  29.893  25.551  1.00  0.00     0.163 HD
ATOM     35  O   UNL A   1      33.902  31.884  26.912  1.00  0.00    -0.269 OA
BRANCH  33  36
ATOM     36  C   UNL A   1      35.403  30.784  28.340  1.00  0.00     0.039 A 
ATOM     37  C   UNL A   1      35.055  31.446  29.525  1.00  0.00     0.014 A 
ATOM     38  C   UNL A   1      36.698  30.284  28.186  1.00  0.00     0.014 A 
ATOM     39  C   UNL A   1      35.988  31.594  30.552  1.00  0.00     0.010 A 
ATOM     40  C   UNL A   1      37.634  30.438  29.217  1.00  0.00     0.010 A 
ATOM     41  C   UNL A   1      37.289  31.090  30.410  1.00  0.00    -0.014 A 
BRANCH  41  42
ATOM     42  C   UNL A   1      38.205  31.182  31.570  1.00  0.00     0.031 A 
ATOM     43  C   UNL A   1      39.261  30.128  31.664  1.00  0.00     0.074 A 
ATOM     44  C   UNL A   1      38.429  32.343  32.222  1.00  0.00     0.049 A 
ATOM     45  N   UNL A   1      40.364  30.175  30.975  1.00  0.00    -0.248 NA
ATOM     46  C   UNL A   1      39.042  28.852  32.341  1.00  0.00     0.031 C 
ATOM     47  C   UNL A   1      38.439  33.654  31.557  1.00  0.00     0.029 A 
ATOM     48  N   UNL A   1      38.931  32.597  33.480  1.00  0.00    -0.354 N 
ATOM     49  C   UNL A   1      40.971  28.936  31.082  1.00  0.00     0.074 A 
ATOM     50  C   UNL A   1      40.116  28.150  31.944  1.00  0.00     0.031 C 
ATOM     51  C   UNL A   1      39.086  34.534  32.349  1.00  0.00     0.029 A 
ATOM     52  C   UNL A   1      39.390  33.905  33.632  1.00  0.00     0.049 A 
ATOM     53  H   UNL A   1      38.961  31.924  34.197  1.00  0.00     0.167 HD
ATOM     54  C   UNL A   1      42.141  28.629  30.462  1.00  0.00     0.034 A 
ATOM     55  C   UNL A   1      40.403  34.280  34.463  1.00  0.00     0.034 A 
ATOM     56  C   UNL A   1      42.754  29.704  29.736  1.00  0.00     0.049 A 
ATOM     57  C   UNL A   1      41.592  33.687  33.740  1.00  0.00     0.074 A 
ATOM     58  C   UNL A   1      42.799  30.165  28.440  1.00  0.00     0.029 A 
ATOM     59  N   UNL A   1      43.471  30.631  30.457  1.00  0.00    -0.354 N 
ATOM     60  N   UNL A   1      42.173  34.175  32.673  1.00  0.00    -0.248 NA
ATOM     61  C   UNL A   1      41.918  32.289  34.023  1.00  0.00     0.031 C 
ATOM     62  C   UNL A   1      43.138  31.554  28.539  1.00  0.00     0.029 A 
ATOM     63  C   UNL A   1      43.225  31.860  29.898  1.00  0.00     0.049 A 
ATOM     64  H   UNL A   1      44.051  30.448  31.231  1.00  0.00     0.167 HD
ATOM     65  C   UNL A   1      42.695  33.067  31.995  1.00  0.00     0.074 A 
ATOM     66  C   UNL A   1      42.518  31.944  32.893  1.00  0.00     0.031 C 
ATOM     67  C   UNL A   1      43.070  33.072  30.681  1.00  0.00     0.034 A 
BRANCH  54  68
ATOM     68  C   UNL A   1      42.888  27.369  30.674  1.00  0.00     0.023 A 
ATOM     69  C   UNL A   1      43.026  26.383  29.687  1.00  0.00     0.031 A 
ATOM     70  C   UNL A   1      43.634  27.248  31.862  1.00  0.00     0.131 A 
ATOM     71  C   UNL A   1      43.918  25.320  29.909  1.00  0.00     0.055 A 
ATOM     72  C   UNL A   1      44.527  26.202  32.068  1.00  0.00     0.041 A 
ATOM     73  F   UNL A   1      43.534  28.188  32.818  1.00  0.00    -0.206 F 
ATOM     74  C   UNL A   1      44.678  25.236  31.082  1.00  0.00     0.022 A 
BRANCH  71  75
ATOM     75  S   UNL A   1      44.204  24.046  28.650  1.00  0.00     0.124 S 
ATOM     76  O   UNL A   1      45.247  24.651  27.825  1.00  0.00    -0.237 OA
ATOM     77  O   UNL A   1      44.633  22.911  29.462  1.00  0.00    -0.237 OA
ATOM     78  O   UNL A   1      42.906  23.904  28.000  1.00  0.00    -0.744 OA
ENDBRANCH  71  75
ENDBRANCH  54  68
BRANCH  55  79
ATOM     79  C   UNL A   1      40.124  34.067  35.925  1.00  0.00     0.023 A 
ATOM     80  C   UNL A   1      39.231  33.123  36.452  1.00  0.00     0.031 A 
ATOM     81  C   UNL A   1      40.777  34.906  36.858  1.00  0.00     0.131 A 
ATOM     82  C   UNL A   1      38.873  33.166  37.813  1.00  0.00     0.055 A 
ATOM     83  C   UNL A   1      40.466  34.905  38.222  1.00  0.00     0.041 A 
ATOM     84  F   UNL A   1      41.730  35.761  36.453  1.00  0.00    -0.206 F 
ATOM     85  C   UNL A   1      39.482  34.054  38.700  1.00  0.00     0.022 A 
BRANCH  82  86
ATOM     86  S   UNL A   1      37.542  32.105  38.445  1.00  0.00     0.124 S 
ATOM     87  O   UNL A   1      37.596  30.956  37.544  1.00  0.00    -0.237 OA
ATOM     88  O   UNL A   1      37.997  31.859  39.809  1.00  0.00    -0.237 OA
ATOM     89  O   UNL A   1      36.355  32.944  38.315  1.00  0.00    -0.744 OA
ENDBRANCH  82  86
ENDBRANCH  55  79
BRANCH  67  90
ATOM     90  C   UNL A   1      43.105  34.399  29.986  1.00  0.00     0.023 A 
ATOM     91  C   UNL A   1      44.252  35.214  30.032  1.00  0.00     0.031 A 
ATOM     92  C   UNL A   1      41.947  34.915  29.385  1.00  0.00     0.131 A 
ATOM     93  C   UNL A   1      44.193  36.533  29.560  1.00  0.00     0.055 A 
ATOM     94  C   UNL A   1      41.911  36.209  28.861  1.00  0.00     0.041 A 
ATOM     95  F   UNL A   1      40.814  34.193  29.349  1.00  0.00    -0.206 F 
ATOM     96  C   UNL A   1      43.032  37.029  28.962  1.00  0.00     0.022 A 
BRANCH  93  97
ATOM     97  S   UNL A   1      45.593  37.665  29.775  1.00  0.00     0.124 S 
ATOM     98  O   UNL A   1      44.937  38.969  29.868  1.00  0.00    -0.237 OA
ATOM     99  O   UNL A   1      46.185  37.179  31.019  1.00  0.00    -0.237 OA
ATOM    100  O   UNL A   1      46.402  37.463  28.577  1.00  0.00    -0.744 OA
ENDBRANCH  93  97
ENDBRANCH  67  90
ENDBRANCH  41  42
ENDBRANCH  33  36
ENDBRANCH  31  32
ENDBRANCH  30  31
ENDBRANCH   1  30
TORSDOF 18
ENDMDL
