MODEL 1
REMARK VINA RESULT:     -11.7      0.000      0.000
REMARK SMILES CN(C)c1ccc(-c2nnc([C@H]3CC[N@@H+](Cc4ccc(C(=O)NCCCCCCNC(=O)c5ccc(-c6c7nc(c(-c8cc(S(=O)(=O)[O-])ccc8F)c8ccc([nH]8)c(-c8cc(S(=O)(=O)[O-])ccc8F)c8nc(c(-c9cc(S(=O)(=O)[O-])ccc9F)c9ccc6[nH]9)C=C8)C=C7)cc5)cc4)C3)o2)cc1
REMARK SMILES IDX 25 1 24 2 23 3 21 4 22 5 20 7 17 8 18 9 97 10 19 11 96 12
REMARK SMILES IDX 16 13 15 14 12 15 13 16 98 17 14 18 11 20 8 21 9 22 99 23
REMARK SMILES IDX 10 24 7 25 4 26 5 27 101 28 6 29 100 30 2 31 1 32 3 33 26 34
REMARK SMILES IDX 27 35 28 36 29 37 30 38 31 39 32 41 33 42 34 43 95 44 35 45
REMARK SMILES IDX 94 46 36 47 37 48 38 49 88 50 39 51 93 52 87 53 89 54 40 55
REMARK SMILES IDX 92 56 86 57 85 58 41 60 73 61 53 62 72 63 54 64 57 65 71 66
REMARK SMILES IDX 90 67 55 68 56 69 70 71 91 72 58 73 42 74 43 75 51 76 44 77
REMARK SMILES IDX 50 78 52 79 49 80 45 81 46 82 47 83 48 84 74 85 75 86 83 87
REMARK SMILES IDX 76 88 82 89 84 90 81 91 77 92 78 93 79 94 80 95 59 96 60 97
REMARK SMILES IDX 68 98 61 99 67 100 69 101 66 102 62 103 63 104 64 105 65 106
REMARK H PARENT 23 6 15 19 30 40 89 59 57 70
REMARK Flexibility Score: inf
ROOT
ATOM      1  C   UNL A   1      37.629  22.776  25.419  1.00  0.00     0.021 C 
ENDROOT
BRANCH   1   2
ATOM      2  C   UNL A   1      36.311  23.550  25.488  1.00  0.00     0.116 C 
BRANCH   2   3
ATOM      3  N   UNL A   1      35.394  22.951  26.452  1.00  0.00    -0.352 N 
ATOM      4  C   UNL A   1      34.135  23.314  26.865  1.00  0.00     0.251 C 
ATOM      5  O   UNL A   1      33.499  22.539  27.580  1.00  0.00    -0.269 OA
ATOM      6  H   UNL A   1      35.741  22.137  26.884  1.00  0.00     0.163 HD
BRANCH   4   7
ATOM      7  C   UNL A   1      33.494  24.588  26.451  1.00  0.00     0.039 A 
ATOM      8  C   UNL A   1      32.164  26.928  25.593  1.00  0.00     0.006 A 
ATOM      9  C   UNL A   1      31.452  25.893  26.210  1.00  0.00     0.010 A 
ATOM     10  C   UNL A   1      33.555  26.823  25.532  1.00  0.00     0.010 A 
ATOM     11  C   UNL A   1      32.113  24.735  26.640  1.00  0.00     0.014 A 
ATOM     12  C   UNL A   1      34.220  25.665  25.950  1.00  0.00     0.014 A 
BRANCH   8  13
ATOM     13  C   UNL A   1      31.455  28.103  24.952  1.00  0.00     0.299 C 
BRANCH  13  14
ATOM     14  N   UNL A   1      31.096  27.970  23.528  1.00  0.00    -0.330 N 
ATOM     15  C   UNL A   1      31.576  26.002  22.174  1.00  0.00     0.138 C 
ATOM     16  C   UNL A   1      30.241  25.839  22.898  1.00  0.00     0.081 C 
ATOM     17  C   UNL A   1      32.123  27.345  22.676  1.00  0.00     0.276 C 
ATOM     18  C   UNL A   1      29.844  27.264  23.259  1.00  0.00     0.263 C 
ATOM     19  H   UNL A   1      30.995  28.955  23.282  1.00  0.00     0.348 HD
BRANCH  15  20
ATOM     20  C   UNL A   1      32.477  24.828  22.346  1.00  0.00     0.225 A 
ATOM     21  C   UNL A   1      33.108  22.883  22.975  1.00  0.00     0.247 A 
ATOM     22  N   UNL A   1      34.106  23.404  22.288  1.00  0.00    -0.108 NA
ATOM     23  O   UNL A   1      32.042  23.743  23.069  1.00  0.00    -0.420 OA
ATOM     24  N   UNL A   1      33.696  24.656  21.876  1.00  0.00    -0.112 NA
BRANCH  21  25
ATOM     25  C   UNL A   1      32.924  21.509  23.436  1.00  0.00     0.039 A 
ATOM     26  C   UNL A   1      33.019  18.706  23.930  1.00  0.00     0.036 A 
ATOM     27  C   UNL A   1      33.750  19.608  24.712  1.00  0.00     0.027 A 
ATOM     28  C   UNL A   1      32.153  19.244  22.978  1.00  0.00     0.027 A 
ATOM     29  C   UNL A   1      33.726  20.989  24.456  1.00  0.00     0.016 A 
ATOM     30  C   UNL A   1      32.075  20.625  22.766  1.00  0.00     0.016 A 
BRANCH  26  31
ATOM     31  N   UNL A   1      33.170  17.338  24.084  1.00  0.00    -0.378 N 
ATOM     32  C   UNL A   1      32.665  16.678  25.276  1.00  0.00     0.143 C 
ATOM     33  C   UNL A   1      34.133  16.652  23.238  1.00  0.00     0.143 C 
ENDBRANCH  26  31
ENDBRANCH  21  25
ENDBRANCH  15  20
ENDBRANCH  13  14
ENDBRANCH   8  13
ENDBRANCH   4   7
ENDBRANCH   2   3
ENDBRANCH   1   2
BRANCH   1  34
ATOM     34  C   UNL A   1      38.774  23.366  26.254  1.00  0.00     0.002 C 
BRANCH  34  35
ATOM     35  C   UNL A   1      39.719  22.337  26.890  1.00  0.00     0.002 C 
BRANCH  35  36
ATOM     36  C   UNL A   1      39.942  21.040  26.098  1.00  0.00     0.021 C 
BRANCH  36  37
ATOM     37  C   UNL A   1      40.837  19.999  26.770  1.00  0.00     0.116 C 
BRANCH  37  38
ATOM     38  N   UNL A   1      42.042  19.722  26.005  1.00  0.00    -0.352 N 
ATOM     39  C   UNL A   1      43.041  20.562  25.575  1.00  0.00     0.251 C 
ATOM     40  H   UNL A   1      42.161  18.778  25.754  1.00  0.00     0.163 HD
ATOM     41  O   UNL A   1      43.874  20.137  24.779  1.00  0.00    -0.269 OA
BRANCH  39  42
ATOM     42  C   UNL A   1      43.121  21.967  26.041  1.00  0.00     0.039 A 
ATOM     43  C   UNL A   1      43.317  22.210  27.405  1.00  0.00     0.014 A 
ATOM     44  C   UNL A   1      42.947  23.045  25.167  1.00  0.00     0.014 A 
ATOM     45  C   UNL A   1      43.397  23.523  27.881  1.00  0.00     0.010 A 
ATOM     46  C   UNL A   1      43.085  24.355  25.634  1.00  0.00     0.010 A 
ATOM     47  C   UNL A   1      43.312  24.609  26.996  1.00  0.00    -0.014 A 
BRANCH  47  48
ATOM     48  C   UNL A   1      43.459  26.010  27.482  1.00  0.00     0.031 A 
ATOM     49  C   UNL A   1      44.813  26.670  27.508  1.00  0.00     0.074 A 
ATOM     50  C   UNL A   1      42.382  26.672  27.948  1.00  0.00     0.049 A 
ATOM     51  N   UNL A   1      45.152  27.851  27.960  1.00  0.00    -0.248 NA
ATOM     52  C   UNL A   1      45.937  25.885  26.977  1.00  0.00     0.031 C 
ATOM     53  C   UNL A   1      41.021  26.134  28.004  1.00  0.00     0.029 A 
ATOM     54  N   UNL A   1      42.259  27.936  28.472  1.00  0.00    -0.354 N 
ATOM     55  C   UNL A   1      46.529  27.948  27.780  1.00  0.00     0.074 A 
ATOM     56  C   UNL A   1      46.965  26.681  27.229  1.00  0.00     0.031 C 
ATOM     57  C   UNL A   1      40.200  27.066  28.515  1.00  0.00     0.029 A 
ATOM     58  C   UNL A   1      40.978  28.251  28.863  1.00  0.00     0.049 A 
ATOM     59  H   UNL A   1      43.016  28.558  28.559  1.00  0.00     0.167 HD
ATOM     60  C   UNL A   1      47.348  29.000  28.033  1.00  0.00     0.034 A 
ATOM     61  C   UNL A   1      40.486  29.361  29.450  1.00  0.00     0.034 A 
ATOM     62  C   UNL A   1      46.897  30.261  28.574  1.00  0.00     0.049 A 
ATOM     63  C   UNL A   1      41.419  30.508  29.745  1.00  0.00     0.074 A 
ATOM     64  C   UNL A   1      47.635  31.407  28.822  1.00  0.00     0.029 A 
ATOM     65  N   UNL A   1      45.592  30.541  28.960  1.00  0.00    -0.354 N 
ATOM     66  N   UNL A   1      42.712  30.597  29.531  1.00  0.00    -0.248 NA
ATOM     67  C   UNL A   1      40.825  31.705  30.352  1.00  0.00     0.031 C 
ATOM     68  C   UNL A   1      46.792  32.354  29.416  1.00  0.00     0.029 A 
ATOM     69  C   UNL A   1      45.511  31.830  29.471  1.00  0.00     0.049 A 
ATOM     70  H   UNL A   1      44.835  29.918  28.883  1.00  0.00     0.167 HD
ATOM     71  C   UNL A   1      43.077  31.875  29.949  1.00  0.00     0.074 A 
ATOM     72  C   UNL A   1      41.867  32.521  30.413  1.00  0.00     0.031 C 
ATOM     73  C   UNL A   1      44.301  32.461  29.944  1.00  0.00     0.034 A 
BRANCH  60  74
ATOM     74  C   UNL A   1      48.822  28.816  27.751  1.00  0.00     0.023 A 
ATOM     75  C   UNL A   1      49.347  28.934  26.452  1.00  0.00     0.031 A 
ATOM     76  C   UNL A   1      49.712  28.494  28.791  1.00  0.00     0.131 A 
ATOM     77  C   UNL A   1      50.700  28.654  26.214  1.00  0.00     0.055 A 
ATOM     78  C   UNL A   1      51.077  28.299  28.560  1.00  0.00     0.041 A 
ATOM     79  F   UNL A   1      49.270  28.348  30.050  1.00  0.00    -0.206 F 
ATOM     80  C   UNL A   1      51.575  28.363  27.263  1.00  0.00     0.022 A 
BRANCH  77  81
ATOM     81  S   UNL A   1      51.271  28.531  24.497  1.00  0.00     0.124 S 
ATOM     82  O   UNL A   1      52.283  27.482  24.598  1.00  0.00    -0.237 OA
ATOM     83  O   UNL A   1      50.050  28.176  23.783  1.00  0.00    -0.237 OA
ATOM     84  O   UNL A   1      51.795  29.866  24.212  1.00  0.00    -0.744 OA
ENDBRANCH  77  81
ENDBRANCH  60  74
BRANCH  61  85
ATOM     85  C   UNL A   1      39.042  29.446  29.812  1.00  0.00     0.023 A 
ATOM     86  C   UNL A   1      38.132  30.143  29.000  1.00  0.00     0.031 A 
ATOM     87  C   UNL A   1      38.557  28.867  30.998  1.00  0.00     0.131 A 
ATOM     88  C   UNL A   1      36.797  30.284  29.406  1.00  0.00     0.055 A 
ATOM     89  C   UNL A   1      37.216  28.964  31.371  1.00  0.00     0.041 A 
ATOM     90  F   UNL A   1      39.383  28.187  31.808  1.00  0.00    -0.206 F 
ATOM     91  C   UNL A   1      36.329  29.687  30.580  1.00  0.00     0.022 A 
BRANCH  88  92
ATOM     92  S   UNL A   1      35.695  31.332  28.419  1.00  0.00     0.124 S 
ATOM     93  O   UNL A   1      34.862  31.944  29.450  1.00  0.00    -0.237 OA
ATOM     94  O   UNL A   1      36.640  32.219  27.749  1.00  0.00    -0.237 OA
ATOM     95  O   UNL A   1      35.010  30.381  27.547  1.00  0.00    -0.744 OA
ENDBRANCH  88  92
ENDBRANCH  61  85
BRANCH  73  96
ATOM     96  C   UNL A   1      44.376  33.893  30.416  1.00  0.00     0.023 A 
ATOM     97  C   UNL A   1      44.144  34.974  29.546  1.00  0.00     0.031 A 
ATOM     98  C   UNL A   1      44.704  34.179  31.753  1.00  0.00     0.131 A 
ATOM     99  C   UNL A   1      44.299  36.289  30.009  1.00  0.00     0.055 A 
ATOM    100  C   UNL A   1      44.799  35.491  32.222  1.00  0.00     0.041 A 
ATOM    101  F   UNL A   1      44.939  33.188  32.626  1.00  0.00    -0.206 F 
ATOM    102  C   UNL A   1      44.610  36.554  31.345  1.00  0.00     0.022 A 
BRANCH  99 103
ATOM    103  S   UNL A   1      44.181  37.653  28.817  1.00  0.00     0.124 S 
ATOM    104  O   UNL A   1      44.170  38.820  29.691  1.00  0.00    -0.237 OA
ATOM    105  O   UNL A   1      45.385  37.469  28.013  1.00  0.00    -0.237 OA
ATOM    106  O   UNL A   1      42.925  37.389  28.117  1.00  0.00    -0.744 OA
ENDBRANCH  99 103
ENDBRANCH  73  96
ENDBRANCH  47  48
ENDBRANCH  39  42
ENDBRANCH  37  38
ENDBRANCH  36  37
ENDBRANCH  35  36
ENDBRANCH  34  35
ENDBRANCH   1  34
TORSDOF 21
ENDMDL
MODEL 2
REMARK VINA RESULT:     -10.8      5.848     10.007
REMARK SMILES CN(C)c1ccc(-c2nnc([C@H]3CC[N@@H+](Cc4ccc(C(=O)NCCCCCCNC(=O)c5ccc(-c6c7nc(c(-c8cc(S(=O)(=O)[O-])ccc8F)c8ccc([nH]8)c(-c8cc(S(=O)(=O)[O-])ccc8F)c8nc(c(-c9cc(S(=O)(=O)[O-])ccc9F)c9ccc6[nH]9)C=C8)C=C7)cc5)cc4)C3)o2)cc1
REMARK SMILES IDX 25 1 24 2 23 3 21 4 22 5 20 7 17 8 18 9 97 10 19 11 96 12
REMARK SMILES IDX 16 13 15 14 12 15 13 16 98 17 14 18 11 20 8 21 9 22 99 23
REMARK SMILES IDX 10 24 7 25 4 26 5 27 101 28 6 29 100 30 2 31 1 32 3 33 26 34
REMARK SMILES IDX 27 35 28 36 29 37 30 38 31 39 32 41 33 42 34 43 95 44 35 45
REMARK SMILES IDX 94 46 36 47 37 48 38 49 88 50 39 51 93 52 87 53 89 54 40 55
REMARK SMILES IDX 92 56 86 57 85 58 41 60 73 61 53 62 72 63 54 64 57 65 71 66
REMARK SMILES IDX 90 67 55 68 56 69 70 71 91 72 58 73 42 74 43 75 51 76 44 77
REMARK SMILES IDX 50 78 52 79 49 80 45 81 46 82 47 83 48 84 74 85 75 86 83 87
REMARK SMILES IDX 76 88 82 89 84 90 81 91 77 92 78 93 79 94 80 95 59 96 60 97
REMARK SMILES IDX 68 98 61 99 67 100 69 101 66 102 62 103 63 104 64 105 65 106
REMARK H PARENT 23 6 15 19 30 40 89 59 57 70
REMARK Flexibility Score: inf
ROOT
ATOM      1  C   UNL A   1      39.447  27.856  28.978  1.00  0.00     0.021 C 
ENDROOT
BRANCH   1   2
ATOM      2  C   UNL A   1      39.586  27.050  27.685  1.00  0.00     0.116 C 
BRANCH   2   3
ATOM      3  N   UNL A   1      40.460  27.725  26.731  1.00  0.00    -0.352 N 
ATOM      4  C   UNL A   1      41.551  27.285  26.021  1.00  0.00     0.251 C 
ATOM      5  O   UNL A   1      42.022  28.014  25.148  1.00  0.00    -0.269 OA
ATOM      6  H   UNL A   1      40.225  28.666  26.566  1.00  0.00     0.163 HD
BRANCH   4   7
ATOM      7  C   UNL A   1      42.161  25.949  26.238  1.00  0.00     0.039 A 
ATOM      8  C   UNL A   1      43.216  23.347  26.554  1.00  0.00     0.006 A 
ATOM      9  C   UNL A   1      42.951  23.855  25.276  1.00  0.00     0.010 A 
ATOM     10  C   UNL A   1      43.064  24.203  27.646  1.00  0.00     0.010 A 
ATOM     11  C   UNL A   1      42.433  25.147  25.121  1.00  0.00     0.014 A 
ATOM     12  C   UNL A   1      42.538  25.491  27.498  1.00  0.00     0.014 A 
BRANCH   8  13
ATOM     13  C   UNL A   1      43.597  21.896  26.764  1.00  0.00     0.299 C 
BRANCH  13  14
ATOM     14  N   UNL A   1      42.609  21.039  27.446  1.00  0.00    -0.330 N 
ATOM     15  C   UNL A   1      40.197  21.236  27.160  1.00  0.00     0.138 C 
ATOM     16  C   UNL A   1      40.789  20.320  26.090  1.00  0.00     0.081 C 
ATOM     17  C   UNL A   1      41.413  21.737  27.950  1.00  0.00     0.276 C 
ATOM     18  C   UNL A   1      42.129  19.894  26.672  1.00  0.00     0.263 C 
ATOM     19  H   UNL A   1      43.175  20.712  28.229  1.00  0.00     0.348 HD
BRANCH  15  20
ATOM     20  C   UNL A   1      39.309  22.291  26.595  1.00  0.00     0.225 A 
ATOM     21  C   UNL A   1      37.632  23.138  25.573  1.00  0.00     0.247 A 
ATOM     22  N   UNL A   1      38.357  24.147  26.016  1.00  0.00    -0.108 NA
ATOM     23  O   UNL A   1      38.188  21.923  25.889  1.00  0.00    -0.420 OA
ATOM     24  N   UNL A   1      39.435  23.599  26.682  1.00  0.00    -0.112 NA
BRANCH  21  25
ATOM     25  C   UNL A   1      36.285  23.149  25.009  1.00  0.00     0.039 A 
ATOM     26  C   UNL A   1      33.759  23.781  23.852  1.00  0.00     0.036 A 
ATOM     27  C   UNL A   1      34.838  23.361  23.063  1.00  0.00     0.027 A 
ATOM     28  C   UNL A   1      33.938  23.762  25.236  1.00  0.00     0.027 A 
ATOM     29  C   UNL A   1      36.091  23.073  23.627  1.00  0.00     0.016 A 
ATOM     30  C   UNL A   1      35.166  23.410  25.806  1.00  0.00     0.016 A 
BRANCH  26  31
ATOM     31  N   UNL A   1      32.577  24.214  23.277  1.00  0.00    -0.378 N 
ATOM     32  C   UNL A   1      31.302  23.726  23.774  1.00  0.00     0.143 C 
ATOM     33  C   UNL A   1      32.642  24.858  21.975  1.00  0.00     0.143 C 
ENDBRANCH  26  31
ENDBRANCH  21  25
ENDBRANCH  15  20
ENDBRANCH  13  14
ENDBRANCH   8  13
ENDBRANCH   4   7
ENDBRANCH   2   3
ENDBRANCH   1   2
BRANCH   1  34
ATOM     34  C   UNL A   1      39.150  29.349  28.784  1.00  0.00     0.002 C 
BRANCH  34  35
ATOM     35  C   UNL A   1      37.895  29.666  27.956  1.00  0.00     0.002 C 
BRANCH  35  36
ATOM     36  C   UNL A   1      36.660  30.125  28.745  1.00  0.00     0.021 C 
BRANCH  36  37
ATOM     37  C   UNL A   1      36.405  29.394  30.062  1.00  0.00     0.116 C 
BRANCH  37  38
ATOM     38  N   UNL A   1      36.262  30.304  31.186  1.00  0.00    -0.352 N 
ATOM     39  C   UNL A   1      37.082  30.528  32.266  1.00  0.00     0.251 C 
ATOM     40  H   UNL A   1      35.443  30.850  31.171  1.00  0.00     0.163 HD
ATOM     41  O   UNL A   1      36.667  31.216  33.196  1.00  0.00    -0.269 OA
BRANCH  39  42
ATOM     42  C   UNL A   1      38.443  29.944  32.336  1.00  0.00     0.039 A 
ATOM     43  C   UNL A   1      39.544  30.794  32.189  1.00  0.00     0.014 A 
ATOM     44  C   UNL A   1      38.648  28.569  32.483  1.00  0.00     0.014 A 
ATOM     45  C   UNL A   1      40.843  30.279  32.248  1.00  0.00     0.010 A 
ATOM     46  C   UNL A   1      39.946  28.063  32.601  1.00  0.00     0.010 A 
ATOM     47  C   UNL A   1      41.058  28.912  32.485  1.00  0.00    -0.014 A 
BRANCH  47  48
ATOM     48  C   UNL A   1      42.437  28.362  32.614  1.00  0.00     0.031 A 
ATOM     49  C   UNL A   1      43.257  28.064  31.386  1.00  0.00     0.074 A 
ATOM     50  C   UNL A   1      42.933  28.081  33.835  1.00  0.00     0.049 A 
ATOM     51  N   UNL A   1      44.443  27.518  31.293  1.00  0.00    -0.248 NA
ATOM     52  C   UNL A   1      42.649  28.403  30.092  1.00  0.00     0.031 C 
ATOM     53  C   UNL A   1      42.228  28.295  35.101  1.00  0.00     0.029 A 
ATOM     54  N   UNL A   1      44.139  27.548  34.216  1.00  0.00    -0.354 N 
ATOM     55  C   UNL A   1      44.720  27.437  29.932  1.00  0.00     0.074 A 
ATOM     56  C   UNL A   1      43.550  27.939  29.240  1.00  0.00     0.031 C 
ATOM     57  C   UNL A   1      43.020  27.916  36.116  1.00  0.00     0.029 A 
ATOM     58  C   UNL A   1      44.271  27.390  35.577  1.00  0.00     0.049 A 
ATOM     59  H   UNL A   1      44.846  27.302  33.576  1.00  0.00     0.167 HD
ATOM     60  C   UNL A   1      45.849  27.002  29.317  1.00  0.00     0.034 A 
ATOM     61  C   UNL A   1      45.277  26.869  36.309  1.00  0.00     0.034 A 
ATOM     62  C   UNL A   1      47.013  26.513  30.020  1.00  0.00     0.049 A 
ATOM     63  C   UNL A   1      46.512  26.368  35.603  1.00  0.00     0.074 A 
ATOM     64  C   UNL A   1      48.226  26.096  29.497  1.00  0.00     0.029 A 
ATOM     65  N   UNL A   1      47.107  26.366  31.399  1.00  0.00    -0.354 N 
ATOM     66  N   UNL A   1      46.773  26.336  34.317  1.00  0.00    -0.248 NA
ATOM     67  C   UNL A   1      47.590  25.843  36.449  1.00  0.00     0.031 C 
ATOM     68  C   UNL A   1      49.026  25.637  30.550  1.00  0.00     0.029 A 
ATOM     69  C   UNL A   1      48.344  25.838  31.740  1.00  0.00     0.049 A 
ATOM     70  H   UNL A   1      46.399  26.603  32.041  1.00  0.00     0.167 HD
ATOM     71  C   UNL A   1      48.060  25.816  34.205  1.00  0.00     0.074 A 
ATOM     72  C   UNL A   1      48.524  25.563  35.553  1.00  0.00     0.031 C 
ATOM     73  C   UNL A   1      48.793  25.576  33.088  1.00  0.00     0.034 A 
BRANCH  60  74
ATOM     74  C   UNL A   1      45.867  27.013  27.805  1.00  0.00     0.023 A 
ATOM     75  C   UNL A   1      46.032  25.833  27.059  1.00  0.00     0.031 A 
ATOM     76  C   UNL A   1      45.742  28.223  27.100  1.00  0.00     0.131 A 
ATOM     77  C   UNL A   1      46.148  25.896  25.663  1.00  0.00     0.055 A 
ATOM     78  C   UNL A   1      45.773  28.269  25.703  1.00  0.00     0.041 A 
ATOM     79  F   UNL A   1      45.601  29.386  27.754  1.00  0.00    -0.206 F 
ATOM     80  C   UNL A   1      45.993  27.103  24.977  1.00  0.00     0.022 A 
BRANCH  77  81
ATOM     81  S   UNL A   1      46.650  24.401  24.767  1.00  0.00     0.124 S 
ATOM     82  O   UNL A   1      47.770  24.899  23.970  1.00  0.00    -0.237 OA
ATOM     83  O   UNL A   1      46.992  23.485  25.847  1.00  0.00    -0.237 OA
ATOM     84  O   UNL A   1      45.459  24.045  23.998  1.00  0.00    -0.744 OA
ENDBRANCH  77  81
ENDBRANCH  60  74
BRANCH  61  85
ATOM     85  C   UNL A   1      45.161  26.778  37.792  1.00  0.00     0.023 A 
ATOM     86  C   UNL A   1      45.399  27.897  38.607  1.00  0.00     0.031 A 
ATOM     87  C   UNL A   1      44.853  25.559  38.422  1.00  0.00     0.131 A 
ATOM     88  C   UNL A   1      45.371  27.765  40.003  1.00  0.00     0.055 A 
ATOM     89  C   UNL A   1      44.773  25.445  39.810  1.00  0.00     0.041 A 
ATOM     90  F   UNL A   1      44.614  24.459  37.690  1.00  0.00    -0.206 F 
ATOM     91  C   UNL A   1      45.046  26.550  40.611  1.00  0.00     0.022 A 
BRANCH  88  92
ATOM     92  S   UNL A   1      45.849  29.189  41.020  1.00  0.00     0.124 S 
ATOM     93  O   UNL A   1      46.937  29.763  40.236  1.00  0.00    -0.237 OA
ATOM     94  O   UNL A   1      44.611  29.960  41.061  1.00  0.00    -0.237 OA
ATOM     95  O   UNL A   1      46.245  28.583  42.289  1.00  0.00    -0.744 OA
ENDBRANCH  88  92
ENDBRANCH  61  85
BRANCH  73  96
ATOM     96  C   UNL A   1      50.195  25.052  33.289  1.00  0.00     0.023 A 
ATOM     97  C   UNL A   1      50.499  23.684  33.168  1.00  0.00     0.031 A 
ATOM     98  C   UNL A   1      51.236  25.934  33.626  1.00  0.00     0.131 A 
ATOM     99  C   UNL A   1      51.799  23.231  33.437  1.00  0.00     0.055 A 
ATOM    100  C   UNL A   1      52.541  25.484  33.835  1.00  0.00     0.041 A 
ATOM    101  F   UNL A   1      51.003  27.249  33.758  1.00  0.00    -0.206 F 
ATOM    102  C   UNL A   1      52.826  24.125  33.755  1.00  0.00     0.022 A 
BRANCH  99 103
ATOM    103  S   UNL A   1      52.113  21.444  33.459  1.00  0.00     0.124 S 
ATOM    104  O   UNL A   1      50.833  20.905  33.015  1.00  0.00    -0.237 OA
ATOM    105  O   UNL A   1      53.222  21.311  32.519  1.00  0.00    -0.237 OA
ATOM    106  O   UNL A   1      52.450  21.172  34.855  1.00  0.00    -0.744 OA
ENDBRANCH  99 103
ENDBRANCH  73  96
ENDBRANCH  47  48
ENDBRANCH  39  42
ENDBRANCH  37  38
ENDBRANCH  36  37
ENDBRANCH  35  36
ENDBRANCH  34  35
ENDBRANCH   1  34
TORSDOF 21
ENDMDL
MODEL 3
REMARK VINA RESULT:     -10.5      2.037      7.492
REMARK SMILES CN(C)c1ccc(-c2nnc([C@H]3CC[N@@H+](Cc4ccc(C(=O)NCCCCCCNC(=O)c5ccc(-c6c7nc(c(-c8cc(S(=O)(=O)[O-])ccc8F)c8ccc([nH]8)c(-c8cc(S(=O)(=O)[O-])ccc8F)c8nc(c(-c9cc(S(=O)(=O)[O-])ccc9F)c9ccc6[nH]9)C=C8)C=C7)cc5)cc4)C3)o2)cc1
REMARK SMILES IDX 25 1 24 2 23 3 21 4 22 5 20 7 17 8 18 9 97 10 19 11 96 12
REMARK SMILES IDX 16 13 15 14 12 15 13 16 98 17 14 18 11 20 8 21 9 22 99 23
REMARK SMILES IDX 10 24 7 25 4 26 5 27 101 28 6 29 100 30 2 31 1 32 3 33 26 34
REMARK SMILES IDX 27 35 28 36 29 37 30 38 31 39 32 41 33 42 34 43 95 44 35 45
REMARK SMILES IDX 94 46 36 47 37 48 38 49 88 50 39 51 93 52 87 53 89 54 40 55
REMARK SMILES IDX 92 56 86 57 85 58 41 60 73 61 53 62 72 63 54 64 57 65 71 66
REMARK SMILES IDX 90 67 55 68 56 69 70 71 91 72 58 73 42 74 43 75 51 76 44 77
REMARK SMILES IDX 50 78 52 79 49 80 45 81 46 82 47 83 48 84 74 85 75 86 83 87
REMARK SMILES IDX 76 88 82 89 84 90 81 91 77 92 78 93 79 94 80 95 59 96 60 97
REMARK SMILES IDX 68 98 61 99 67 100 69 101 66 102 62 103 63 104 64 105 65 106
REMARK H PARENT 23 6 15 19 30 40 89 59 57 70
REMARK Flexibility Score: inf
ROOT
ATOM      1  C   UNL A   1      39.443  23.498  26.480  1.00  0.00     0.021 C 
ENDROOT
BRANCH   1   2
ATOM      2  C   UNL A   1      37.957  23.865  26.500  1.00  0.00     0.116 C 
BRANCH   2   3
ATOM      3  N   UNL A   1      37.123  22.716  26.167  1.00  0.00    -0.352 N 
ATOM      4  C   UNL A   1      35.796  22.617  25.825  1.00  0.00     0.251 C 
ATOM      5  O   UNL A   1      35.365  21.534  25.428  1.00  0.00    -0.269 OA
ATOM      6  H   UNL A   1      37.598  21.854  26.192  1.00  0.00     0.163 HD
BRANCH   4   7
ATOM      7  C   UNL A   1      34.868  23.775  25.878  1.00  0.00     0.039 A 
ATOM      8  C   UNL A   1      32.988  25.882  25.940  1.00  0.00     0.006 A 
ATOM      9  C   UNL A   1      32.723  24.676  26.598  1.00  0.00     0.010 A 
ATOM     10  C   UNL A   1      34.248  26.056  25.366  1.00  0.00     0.010 A 
ATOM     11  C   UNL A   1      33.658  23.634  26.571  1.00  0.00     0.014 A 
ATOM     12  C   UNL A   1      35.183  25.015  25.328  1.00  0.00     0.014 A 
BRANCH   8  13
ATOM     13  C   UNL A   1      31.925  26.952  25.793  1.00  0.00     0.299 C 
BRANCH  13  14
ATOM     14  N   UNL A   1      30.976  26.801  24.674  1.00  0.00    -0.330 N 
ATOM     15  C   UNL A   1      30.787  24.796  23.302  1.00  0.00     0.138 C 
ATOM     16  C   UNL A   1      29.901  24.680  24.542  1.00  0.00     0.081 C 
ATOM     17  C   UNL A   1      31.517  26.134  23.476  1.00  0.00     0.276 C 
ATOM     18  C   UNL A   1      29.723  26.121  25.000  1.00  0.00     0.263 C 
ATOM     19  H   UNL A   1      30.792  27.783  24.470  1.00  0.00     0.348 HD
BRANCH  15  20
ATOM     20  C   UNL A   1      31.655  23.604  23.095  1.00  0.00     0.225 A 
ATOM     21  C   UNL A   1      32.440  21.639  23.409  1.00  0.00     0.247 A 
ATOM     22  N   UNL A   1      33.095  22.151  22.385  1.00  0.00    -0.108 NA
ATOM     23  O   UNL A   1      31.519  22.517  23.925  1.00  0.00    -0.420 OA
ATOM     24  N   UNL A   1      32.582  23.416  22.178  1.00  0.00    -0.112 NA
BRANCH  21  25
ATOM     25  C   UNL A   1      32.424  20.262  23.897  1.00  0.00     0.039 A 
ATOM     26  C   UNL A   1      33.011  17.634  24.826  1.00  0.00     0.036 A 
ATOM     27  C   UNL A   1      32.787  18.689  25.719  1.00  0.00     0.027 A 
ATOM     28  C   UNL A   1      32.818  17.897  23.469  1.00  0.00     0.027 A 
ATOM     29  C   UNL A   1      32.522  19.992  25.264  1.00  0.00     0.016 A 
ATOM     30  C   UNL A   1      32.487  19.179  23.017  1.00  0.00     0.016 A 
BRANCH  26  31
ATOM     31  N   UNL A   1      33.426  16.392  25.275  1.00  0.00    -0.378 N 
ATOM     32  C   UNL A   1      34.817  15.993  25.134  1.00  0.00     0.143 C 
ATOM     33  C   UNL A   1      32.413  15.384  25.544  1.00  0.00     0.143 C 
ENDBRANCH  26  31
ENDBRANCH  21  25
ENDBRANCH  15  20
ENDBRANCH  13  14
ENDBRANCH   8  13
ENDBRANCH   4   7
ENDBRANCH   2   3
ENDBRANCH   1   2
BRANCH   1  34
ATOM     34  C   UNL A   1      40.307  24.230  27.517  1.00  0.00     0.002 C 
BRANCH  34  35
ATOM     35  C   UNL A   1      41.219  23.329  28.362  1.00  0.00     0.002 C 
BRANCH  35  36
ATOM     36  C   UNL A   1      41.565  21.959  27.761  1.00  0.00     0.021 C 
BRANCH  36  37
ATOM     37  C   UNL A   1      43.033  21.749  27.392  1.00  0.00     0.116 C 
BRANCH  37  38
ATOM     38  N   UNL A   1      43.280  21.921  25.970  1.00  0.00    -0.352 N 
ATOM     39  C   UNL A   1      43.423  23.062  25.218  1.00  0.00     0.251 C 
ATOM     40  H   UNL A   1      43.359  21.081  25.462  1.00  0.00     0.163 HD
ATOM     41  O   UNL A   1      43.441  22.970  23.993  1.00  0.00    -0.269 OA
BRANCH  39  42
ATOM     42  C   UNL A   1      43.537  24.396  25.855  1.00  0.00     0.039 A 
ATOM     43  C   UNL A   1      42.945  25.494  25.221  1.00  0.00     0.014 A 
ATOM     44  C   UNL A   1      44.268  24.591  27.032  1.00  0.00     0.014 A 
ATOM     45  C   UNL A   1      43.033  26.768  25.792  1.00  0.00     0.010 A 
ATOM     46  C   UNL A   1      44.306  25.853  27.631  1.00  0.00     0.010 A 
ATOM     47  C   UNL A   1      43.689  26.956  27.019  1.00  0.00    -0.014 A 
BRANCH  47  48
ATOM     48  C   UNL A   1      43.735  28.296  27.669  1.00  0.00     0.031 A 
ATOM     49  C   UNL A   1      42.513  28.856  28.349  1.00  0.00     0.074 A 
ATOM     50  C   UNL A   1      44.861  29.032  27.602  1.00  0.00     0.049 A 
ATOM     51  N   UNL A   1      42.336  30.027  28.905  1.00  0.00    -0.248 NA
ATOM     52  C   UNL A   1      41.326  27.989  28.384  1.00  0.00     0.031 C 
ATOM     53  C   UNL A   1      46.103  28.616  26.946  1.00  0.00     0.029 A 
ATOM     54  N   UNL A   1      45.146  30.287  28.082  1.00  0.00    -0.354 N 
ATOM     55  C   UNL A   1      41.017  30.046  29.347  1.00  0.00     0.074 A 
ATOM     56  C   UNL A   1      40.427  28.787  28.941  1.00  0.00     0.031 C 
ATOM     57  C   UNL A   1      47.019  29.588  27.081  1.00  0.00     0.029 A 
ATOM     58  C   UNL A   1      46.422  30.714  27.793  1.00  0.00     0.049 A 
ATOM     59  H   UNL A   1      44.498  30.830  28.586  1.00  0.00     0.167 HD
ATOM     60  C   UNL A   1      40.365  31.013  30.041  1.00  0.00     0.034 A 
ATOM     61  C   UNL A   1      47.038  31.885  28.056  1.00  0.00     0.034 A 
ATOM     62  C   UNL A   1      40.970  32.260  30.448  1.00  0.00     0.049 A 
ATOM     63  C   UNL A   1      46.286  32.955  28.806  1.00  0.00     0.074 A 
ATOM     64  C   UNL A   1      40.415  33.285  31.197  1.00  0.00     0.029 A 
ATOM     65  N   UNL A   1      42.264  32.658  30.134  1.00  0.00    -0.354 N 
ATOM     66  N   UNL A   1      45.051  32.939  29.252  1.00  0.00    -0.248 NA
ATOM     67  C   UNL A   1      47.015  34.196  29.097  1.00  0.00     0.031 C 
ATOM     68  C   UNL A   1      41.347  34.326  31.279  1.00  0.00     0.029 A 
ATOM     69  C   UNL A   1      42.513  33.923  30.648  1.00  0.00     0.049 A 
ATOM     70  H   UNL A   1      42.911  32.120  29.623  1.00  0.00     0.167 HD
ATOM     71  C   UNL A   1      44.869  34.156  29.903  1.00  0.00     0.074 A 
ATOM     72  C   UNL A   1      46.123  34.873  29.804  1.00  0.00     0.031 C 
ATOM     73  C   UNL A   1      43.765  34.635  30.532  1.00  0.00     0.034 A 
BRANCH  60  74
ATOM     74  C   UNL A   1      38.912  30.766  30.380  1.00  0.00     0.023 A 
ATOM     75  C   UNL A   1      37.871  31.288  29.592  1.00  0.00     0.031 A 
ATOM     76  C   UNL A   1      38.563  30.021  31.520  1.00  0.00     0.131 A 
ATOM     77  C   UNL A   1      36.537  31.127  29.996  1.00  0.00     0.055 A 
ATOM     78  C   UNL A   1      37.229  29.792  31.871  1.00  0.00     0.041 A 
ATOM     79  F   UNL A   1      39.510  29.513  32.323  1.00  0.00    -0.206 F 
ATOM     80  C   UNL A   1      36.208  30.360  31.116  1.00  0.00     0.022 A 
BRANCH  77  81
ATOM     81  S   UNL A   1      35.248  32.056  29.122  1.00  0.00     0.124 S 
ATOM     82  O   UNL A   1      34.676  31.024  28.260  1.00  0.00    -0.237 OA
ATOM     83  O   UNL A   1      34.400  32.521  30.212  1.00  0.00    -0.237 OA
ATOM     84  O   UNL A   1      35.993  33.100  28.420  1.00  0.00    -0.744 OA
ENDBRANCH  77  81
ENDBRANCH  60  74
BRANCH  61  85
ATOM     85  C   UNL A   1      48.438  32.119  27.600  1.00  0.00     0.023 A 
ATOM     86  C   UNL A   1      49.522  31.503  28.245  1.00  0.00     0.031 A 
ATOM     87  C   UNL A   1      48.716  32.998  26.537  1.00  0.00     0.131 A 
ATOM     88  C   UNL A   1      50.835  31.808  27.853  1.00  0.00     0.055 A 
ATOM     89  C   UNL A   1      50.021  33.257  26.117  1.00  0.00     0.041 A 
ATOM     90  F   UNL A   1      47.716  33.612  25.885  1.00  0.00    -0.206 F 
ATOM     91  C   UNL A   1      51.091  32.671  26.785  1.00  0.00     0.022 A 
BRANCH  88  92
ATOM     92  S   UNL A   1      52.210  31.124  28.818  1.00  0.00     0.124 S 
ATOM     93  O   UNL A   1      52.927  30.351  27.811  1.00  0.00    -0.237 OA
ATOM     94  O   UNL A   1      52.875  32.333  29.294  1.00  0.00    -0.237 OA
ATOM     95  O   UNL A   1      51.542  30.337  29.852  1.00  0.00    -0.744 OA
ENDBRANCH  88  92
ENDBRANCH  61  85
BRANCH  73  96
ATOM     96  C   UNL A   1      43.888  35.983  31.200  1.00  0.00     0.023 A 
ATOM     97  C   UNL A   1      43.743  37.183  30.481  1.00  0.00     0.031 A 
ATOM     98  C   UNL A   1      44.174  36.067  32.574  1.00  0.00     0.131 A 
ATOM     99  C   UNL A   1      43.940  38.413  31.126  1.00  0.00     0.055 A 
ATOM    100  C   UNL A   1      44.311  37.295  33.223  1.00  0.00     0.041 A 
ATOM    101  F   UNL A   1      44.326  34.954  33.309  1.00  0.00    -0.206 F 
ATOM    102  C   UNL A   1      44.208  38.476  32.497  1.00  0.00     0.022 A 
BRANCH  99 103
ATOM    103  S   UNL A   1      43.935  39.931  30.132  1.00  0.00     0.124 S 
ATOM    104  O   UNL A   1      42.870  40.704  30.762  1.00  0.00    -0.237 OA
ATOM    105  O   UNL A   1      45.291  40.435  30.326  1.00  0.00    -0.237 OA
ATOM    106  O   UNL A   1      43.640  39.455  28.781  1.00  0.00    -0.744 OA
ENDBRANCH  99 103
ENDBRANCH  73  96
ENDBRANCH  47  48
ENDBRANCH  39  42
ENDBRANCH  37  38
ENDBRANCH  36  37
ENDBRANCH  35  36
ENDBRANCH  34  35
ENDBRANCH   1  34
TORSDOF 21
ENDMDL
