MODEL 1
REMARK VINA RESULT:     -11.5      0.000      0.000
REMARK SMILES COC(=O)[C@@H]1CCN(S(=O)(=O)N2CCC(C(=O)NCCCCCCNC(=O)c3ccc(-c4c5nc(c(-c6cc(S(=O)(=O)[O-])ccc6F)c6ccc([nH]6)c(-c6cc(S(=O)(=O)[O-])ccc6F)c6nc(c(-c7cc(S(=O)(=O)[O-])ccc7F)c7ccc4[nH]7)C=C6)C=C5)cc3)CC2)C1
REMARK SMILES IDX 21 1 20 2 19 3 18 4 16 5 17 6 15 8 12 9 13 10 92 11 14 12
REMARK SMILES IDX 91 13 9 14 10 15 11 16 8 17 5 18 6 19 93 20 7 21 3 22 4 23
REMARK SMILES IDX 2 24 1 25 22 26 23 27 24 28 25 29 26 30 27 32 28 33 29 34
REMARK SMILES IDX 90 35 30 36 89 37 31 38 32 39 33 40 83 41 34 42 88 43 82 44
REMARK SMILES IDX 84 45 35 46 87 47 81 48 80 49 36 51 68 52 48 53 67 54 49 55
REMARK SMILES IDX 52 56 66 57 85 58 50 59 51 60 65 62 86 63 53 64 37 65 38 66
REMARK SMILES IDX 46 67 39 68 45 69 47 70 44 71 40 72 41 73 42 74 43 75 69 76
REMARK SMILES IDX 70 77 78 78 71 79 77 80 79 81 76 82 72 83 73 84 74 85 75 86
REMARK SMILES IDX 54 87 55 88 63 89 56 90 62 91 64 92 61 93 57 94 58 95 59 96
REMARK SMILES IDX 60 97
REMARK H PARENT 18 7 25 31 84 50 52 61
REMARK Flexibility Score: inf
ROOT
ATOM      1  C   UNL A   1      30.550  29.082  23.994  1.00  0.00     0.002 C 
ENDROOT
BRANCH   1   2
ATOM      2  C   UNL A   1      31.194  29.052  22.606  1.00  0.00     0.021 C 
BRANCH   2   3
ATOM      3  C   UNL A   1      32.710  28.934  22.650  1.00  0.00     0.116 C 
BRANCH   3   4
ATOM      4  N   UNL A   1      33.162  27.838  21.812  1.00  0.00    -0.356 N 
ATOM      5  C   UNL A   1      33.128  26.499  22.020  1.00  0.00     0.223 C 
ATOM      6  O   UNL A   1      33.666  25.762  21.190  1.00  0.00    -0.275 OA
ATOM      7  H   UNL A   1      33.556  28.113  20.952  1.00  0.00     0.163 HD
BRANCH   5   8
ATOM      8  C   UNL A   1      32.400  25.911  23.209  1.00  0.00     0.081 C 
ATOM      9  N   UNL A   1      31.897  23.878  25.164  1.00  0.00    -0.189 NA
ATOM     10  C   UNL A   1      30.868  24.090  24.127  1.00  0.00     0.104 C 
ATOM     11  C   UNL A   1      32.635  25.095  25.531  1.00  0.00     0.104 C 
ATOM     12  C   UNL A   1      31.505  24.709  22.877  1.00  0.00     0.030 C 
ATOM     13  C   UNL A   1      33.382  25.655  24.352  1.00  0.00     0.030 C 
BRANCH   9  14
ATOM     14  S   UNL A   1      31.580  22.747  26.371  1.00  0.00     0.281 S 
ATOM     15  O   UNL A   1      30.220  22.296  26.209  1.00  0.00    -0.195 OA
ATOM     16  O   UNL A   1      32.025  23.295  27.633  1.00  0.00    -0.195 OA
BRANCH  14  17
ATOM     17  N   UNL A   1      32.614  21.430  26.012  1.00  0.00    -0.188 NA
ATOM     18  C   UNL A   1      34.795  22.201  25.227  1.00  0.00     0.116 C 
ATOM     19  C   UNL A   1      34.778  22.045  26.749  1.00  0.00     0.033 C 
ATOM     20  C   UNL A   1      33.424  21.677  24.750  1.00  0.00     0.118 C 
ATOM     21  C   UNL A   1      33.677  21.038  26.960  1.00  0.00     0.104 C 
BRANCH  18  22
ATOM     22  C   UNL A   1      35.983  21.420  24.710  1.00  0.00     0.310 C 
ATOM     23  O   UNL A   1      36.400  20.363  25.156  1.00  0.00    -0.252 OA
BRANCH  22  24
ATOM     24  O   UNL A   1      36.573  22.149  23.717  1.00  0.00    -0.469 OA
ATOM     25  C   UNL A   1      36.603  23.567  23.882  1.00  0.00     0.282 C 
ENDBRANCH  22  24
ENDBRANCH  18  22
ENDBRANCH  14  17
ENDBRANCH   9  14
ENDBRANCH   5   8
ENDBRANCH   3   4
ENDBRANCH   2   3
ENDBRANCH   1   2
BRANCH   1  26
ATOM     26  C   UNL A   1      31.411  29.738  25.078  1.00  0.00     0.002 C 
BRANCH  26  27
ATOM     27  C   UNL A   1      31.775  28.821  26.248  1.00  0.00     0.021 C 
BRANCH  27  28
ATOM     28  C   UNL A   1      32.786  29.418  27.221  1.00  0.00     0.116 C 
BRANCH  28  29
ATOM     29  N   UNL A   1      32.798  30.871  27.158  1.00  0.00    -0.352 N 
ATOM     30  C   UNL A   1      33.746  31.747  27.624  1.00  0.00     0.251 C 
ATOM     31  H   UNL A   1      32.018  31.283  26.721  1.00  0.00     0.163 HD
ATOM     32  O   UNL A   1      33.493  32.945  27.696  1.00  0.00    -0.269 OA
BRANCH  30  33
ATOM     33  C   UNL A   1      35.056  31.224  28.064  1.00  0.00     0.039 A 
ATOM     34  C   UNL A   1      36.169  32.065  28.025  1.00  0.00     0.014 A 
ATOM     35  C   UNL A   1      35.171  29.917  28.545  1.00  0.00     0.014 A 
ATOM     36  C   UNL A   1      37.385  31.619  28.543  1.00  0.00     0.010 A 
ATOM     37  C   UNL A   1      36.365  29.500  29.127  1.00  0.00     0.010 A 
ATOM     38  C   UNL A   1      37.481  30.351  29.142  1.00  0.00    -0.014 A 
BRANCH  38  39
ATOM     39  C   UNL A   1      38.726  29.910  29.824  1.00  0.00     0.031 A 
ATOM     40  C   UNL A   1      39.568  28.818  29.226  1.00  0.00     0.074 A 
ATOM     41  C   UNL A   1      39.048  30.444  31.019  1.00  0.00     0.049 A 
ATOM     42  N   UNL A   1      40.630  28.233  29.717  1.00  0.00    -0.248 NA
ATOM     43  C   UNL A   1      39.146  28.299  27.916  1.00  0.00     0.031 C 
ATOM     44  C   UNL A   1      38.293  31.492  31.708  1.00  0.00     0.029 A 
ATOM     45  N   UNL A   1      40.088  30.173  31.874  1.00  0.00    -0.354 N 
ATOM     46  C   UNL A   1      40.996  27.267  28.786  1.00  0.00     0.074 A 
ATOM     47  C   UNL A   1      40.014  27.315  27.724  1.00  0.00     0.031 C 
ATOM     48  C   UNL A   1      38.907  31.794  32.863  1.00  0.00     0.029 A 
ATOM     49  C   UNL A   1      40.063  30.919  33.032  1.00  0.00     0.049 A 
ATOM     50  H   UNL A   1      40.787  29.507  31.679  1.00  0.00     0.167 HD
ATOM     51  C   UNL A   1      42.062  26.430  28.812  1.00  0.00     0.034 A 
ATOM     52  C   UNL A   1      40.862  30.884  34.116  1.00  0.00     0.034 A 
ATOM     53  C   UNL A   1      43.035  26.406  29.876  1.00  0.00     0.049 A 
ATOM     54  C   UNL A   1      42.001  29.895  34.146  1.00  0.00     0.074 A 
ATOM     55  C   UNL A   1      44.193  25.653  29.964  1.00  0.00     0.029 A 
ATOM     56  N   UNL A   1      42.957  27.149  31.047  1.00  0.00    -0.354 N 
ATOM     57  N   UNL A   1      42.374  29.036  33.226  1.00  0.00    -0.248 NA
ATOM     58  C   UNL A   1      42.826  29.868  35.363  1.00  0.00     0.031 C 
ATOM     59  C   UNL A   1      44.763  25.870  31.221  1.00  0.00     0.029 A 
ATOM     60  C   UNL A   1      44.014  26.828  31.885  1.00  0.00     0.049 A 
ATOM     61  H   UNL A   1      42.254  27.807  31.252  1.00  0.00     0.167 HD
ATOM     62  C   UNL A   1      43.492  28.388  33.743  1.00  0.00     0.074 A 
ATOM     63  C   UNL A   1      43.744  28.967  35.046  1.00  0.00     0.031 C 
ATOM     64  C   UNL A   1      44.246  27.404  33.189  1.00  0.00     0.034 A 
BRANCH  51  65
ATOM     65  C   UNL A   1      42.213  25.447  27.677  1.00  0.00     0.023 A 
ATOM     66  C   UNL A   1      41.491  24.241  27.636  1.00  0.00     0.031 A 
ATOM     67  C   UNL A   1      43.091  25.723  26.614  1.00  0.00     0.131 A 
ATOM     68  C   UNL A   1      41.707  23.331  26.590  1.00  0.00     0.055 A 
ATOM     69  C   UNL A   1      43.241  24.851  25.534  1.00  0.00     0.041 A 
ATOM     70  F   UNL A   1      43.825  26.848  26.608  1.00  0.00    -0.206 F 
ATOM     71  C   UNL A   1      42.556  23.640  25.525  1.00  0.00     0.022 A 
BRANCH  68  72
ATOM     72  S   UNL A   1      40.962  21.682  26.710  1.00  0.00     0.124 S 
ATOM     73  O   UNL A   1      39.676  21.889  26.048  1.00  0.00    -0.237 OA
ATOM     74  O   UNL A   1      41.921  20.849  25.995  1.00  0.00    -0.237 OA
ATOM     75  O   UNL A   1      40.881  21.446  28.150  1.00  0.00    -0.744 OA
ENDBRANCH  68  72
ENDBRANCH  51  65
BRANCH  52  76
ATOM     76  C   UNL A   1      40.609  31.784  35.279  1.00  0.00     0.023 A 
ATOM     77  C   UNL A   1      39.516  31.565  36.134  1.00  0.00     0.031 A 
ATOM     78  C   UNL A   1      41.416  32.911  35.520  1.00  0.00     0.131 A 
ATOM     79  C   UNL A   1      39.228  32.486  37.152  1.00  0.00     0.055 A 
ATOM     80  C   UNL A   1      41.163  33.790  36.575  1.00  0.00     0.041 A 
ATOM     81  F   UNL A   1      42.472  33.173  34.733  1.00  0.00    -0.206 F 
ATOM     82  C   UNL A   1      40.052  33.589  37.389  1.00  0.00     0.022 A 
BRANCH  79  83
ATOM     83  S   UNL A   1      37.692  32.283  38.094  1.00  0.00     0.124 S 
ATOM     84  O   UNL A   1      36.800  33.214  37.409  1.00  0.00    -0.237 OA
ATOM     85  O   UNL A   1      37.406  30.864  37.907  1.00  0.00    -0.237 OA
ATOM     86  O   UNL A   1      38.071  32.668  39.452  1.00  0.00    -0.744 OA
ENDBRANCH  79  83
ENDBRANCH  52  76
BRANCH  64  87
ATOM     87  C   UNL A   1      45.434  26.915  33.980  1.00  0.00     0.023 A 
ATOM     88  C   UNL A   1      45.338  25.820  34.857  1.00  0.00     0.031 A 
ATOM     89  C   UNL A   1      46.684  27.543  33.842  1.00  0.00     0.131 A 
ATOM     90  C   UNL A   1      46.461  25.413  35.592  1.00  0.00     0.055 A 
ATOM     91  C   UNL A   1      47.813  27.094  34.527  1.00  0.00     0.041 A 
ATOM     92  F   UNL A   1      46.833  28.596  33.022  1.00  0.00    -0.206 F 
ATOM     93  C   UNL A   1      47.704  26.029  35.416  1.00  0.00     0.022 A 
BRANCH  90  94
ATOM     94  S   UNL A   1      46.263  24.112  36.840  1.00  0.00     0.124 S 
ATOM     95  O   UNL A   1      45.074  23.413  36.363  1.00  0.00    -0.237 OA
ATOM     96  O   UNL A   1      47.520  23.378  36.730  1.00  0.00    -0.237 OA
ATOM     97  O   UNL A   1      46.088  24.855  38.086  1.00  0.00    -0.744 OA
ENDBRANCH  90  94
ENDBRANCH  64  87
ENDBRANCH  38  39
ENDBRANCH  30  33
ENDBRANCH  28  29
ENDBRANCH  27  28
ENDBRANCH  26  27
ENDBRANCH   1  26
TORSDOF 20
ENDMDL
MODEL 2
REMARK VINA RESULT:     -11.1      1.815      2.306
REMARK SMILES COC(=O)[C@@H]1CCN(S(=O)(=O)N2CCC(C(=O)NCCCCCCNC(=O)c3ccc(-c4c5nc(c(-c6cc(S(=O)(=O)[O-])ccc6F)c6ccc([nH]6)c(-c6cc(S(=O)(=O)[O-])ccc6F)c6nc(c(-c7cc(S(=O)(=O)[O-])ccc7F)c7ccc4[nH]7)C=C6)C=C5)cc3)CC2)C1
REMARK SMILES IDX 21 1 20 2 19 3 18 4 16 5 17 6 15 8 12 9 13 10 92 11 14 12
REMARK SMILES IDX 91 13 9 14 10 15 11 16 8 17 5 18 6 19 93 20 7 21 3 22 4 23
REMARK SMILES IDX 2 24 1 25 22 26 23 27 24 28 25 29 26 30 27 32 28 33 29 34
REMARK SMILES IDX 90 35 30 36 89 37 31 38 32 39 33 40 83 41 34 42 88 43 82 44
REMARK SMILES IDX 84 45 35 46 87 47 81 48 80 49 36 51 68 52 48 53 67 54 49 55
REMARK SMILES IDX 52 56 66 57 85 58 50 59 51 60 65 62 86 63 53 64 37 65 38 66
REMARK SMILES IDX 46 67 39 68 45 69 47 70 44 71 40 72 41 73 42 74 43 75 69 76
REMARK SMILES IDX 70 77 78 78 71 79 77 80 79 81 76 82 72 83 73 84 74 85 75 86
REMARK SMILES IDX 54 87 55 88 63 89 56 90 62 91 64 92 61 93 57 94 58 95 59 96
REMARK SMILES IDX 60 97
REMARK H PARENT 18 7 25 31 84 50 52 61
REMARK Flexibility Score: inf
ROOT
ATOM      1  C   UNL A   1      30.976  29.671  24.457  1.00  0.00     0.002 C 
ENDROOT
BRANCH   1   2
ATOM      2  C   UNL A   1      31.383  28.872  23.217  1.00  0.00     0.021 C 
BRANCH   2   3
ATOM      3  C   UNL A   1      32.871  28.953  22.913  1.00  0.00     0.116 C 
BRANCH   3   4
ATOM      4  N   UNL A   1      33.264  27.895  21.999  1.00  0.00    -0.356 N 
ATOM      5  C   UNL A   1      33.154  26.549  22.113  1.00  0.00     0.223 C 
ATOM      6  O   UNL A   1      33.653  25.843  21.232  1.00  0.00    -0.275 OA
ATOM      7  H   UNL A   1      33.677  28.207  21.162  1.00  0.00     0.163 HD
BRANCH   5   8
ATOM      8  C   UNL A   1      32.388  25.921  23.256  1.00  0.00     0.081 C 
ATOM      9  N   UNL A   1      31.868  23.853  25.170  1.00  0.00    -0.189 NA
ATOM     10  C   UNL A   1      30.890  24.028  24.079  1.00  0.00     0.104 C 
ATOM     11  C   UNL A   1      32.530  25.098  25.584  1.00  0.00     0.104 C 
ATOM     12  C   UNL A   1      31.567  24.684  22.870  1.00  0.00     0.030 C 
ATOM     13  C   UNL A   1      33.316  25.699  24.450  1.00  0.00     0.030 C 
BRANCH   9  14
ATOM     14  S   UNL A   1      31.536  22.700  26.352  1.00  0.00     0.281 S 
ATOM     15  O   UNL A   1      30.199  22.207  26.125  1.00  0.00    -0.195 OA
ATOM     16  O   UNL A   1      31.905  23.250  27.637  1.00  0.00    -0.195 OA
BRANCH  14  17
ATOM     17  N   UNL A   1      32.626  21.421  26.029  1.00  0.00    -0.188 NA
ATOM     18  C   UNL A   1      34.818  22.271  25.362  1.00  0.00     0.116 C 
ATOM     19  C   UNL A   1      34.731  22.093  26.879  1.00  0.00     0.033 C 
ATOM     20  C   UNL A   1      33.490  21.711  24.811  1.00  0.00     0.118 C 
ATOM     21  C   UNL A   1      33.654  21.049  27.023  1.00  0.00     0.104 C 
BRANCH  18  22
ATOM     22  C   UNL A   1      36.054  21.534  24.894  1.00  0.00     0.310 C 
ATOM     23  O   UNL A   1      36.263  20.336  25.001  1.00  0.00    -0.252 OA
BRANCH  22  24
ATOM     24  O   UNL A   1      36.945  22.454  24.420  1.00  0.00    -0.469 OA
ATOM     25  C   UNL A   1      36.553  23.209  23.273  1.00  0.00     0.282 C 
ENDBRANCH  22  24
ENDBRANCH  18  22
ENDBRANCH  14  17
ENDBRANCH   9  14
ENDBRANCH   5   8
ENDBRANCH   3   4
ENDBRANCH   2   3
ENDBRANCH   1   2
BRANCH   1  26
ATOM     26  C   UNL A   1      32.057  29.757  25.539  1.00  0.00     0.002 C 
BRANCH  26  27
ATOM     27  C   UNL A   1      31.779  30.782  26.642  1.00  0.00     0.021 C 
BRANCH  27  28
ATOM     28  C   UNL A   1      33.015  31.533  27.124  1.00  0.00     0.116 C 
BRANCH  28  29
ATOM     29  N   UNL A   1      32.745  32.951  27.303  1.00  0.00    -0.352 N 
ATOM     30  C   UNL A   1      33.294  33.826  28.206  1.00  0.00     0.251 C 
ATOM     31  H   UNL A   1      32.076  33.336  26.693  1.00  0.00     0.163 HD
ATOM     32  O   UNL A   1      32.790  34.932  28.376  1.00  0.00    -0.269 OA
BRANCH  30  33
ATOM     33  C   UNL A   1      34.477  33.409  28.986  1.00  0.00     0.039 A 
ATOM     34  C   UNL A   1      34.307  32.532  30.058  1.00  0.00     0.014 A 
ATOM     35  C   UNL A   1      35.753  33.858  28.632  1.00  0.00     0.014 A 
ATOM     36  C   UNL A   1      35.429  32.043  30.730  1.00  0.00     0.010 A 
ATOM     37  C   UNL A   1      36.872  33.312  29.255  1.00  0.00     0.010 A 
ATOM     38  C   UNL A   1      36.722  32.391  30.303  1.00  0.00    -0.014 A 
BRANCH  38  39
ATOM     39  C   UNL A   1      37.929  31.775  30.912  1.00  0.00     0.031 A 
ATOM     40  C   UNL A   1      38.699  30.722  30.165  1.00  0.00     0.074 A 
ATOM     41  C   UNL A   1      38.280  32.112  32.169  1.00  0.00     0.049 A 
ATOM     42  N   UNL A   1      39.715  30.002  30.565  1.00  0.00    -0.248 NA
ATOM     43  C   UNL A   1      38.251  30.422  28.796  1.00  0.00     0.031 C 
ATOM     44  C   UNL A   1      37.593  33.104  33.001  1.00  0.00     0.029 A 
ATOM     45  N   UNL A   1      39.293  31.654  32.975  1.00  0.00    -0.354 N 
ATOM     46  C   UNL A   1      40.020  29.154  29.507  1.00  0.00     0.074 A 
ATOM     47  C   UNL A   1      39.050  29.417  28.465  1.00  0.00     0.031 C 
ATOM     48  C   UNL A   1      38.218  33.197  34.184  1.00  0.00     0.029 A 
ATOM     49  C   UNL A   1      39.311  32.230  34.225  1.00  0.00     0.049 A 
ATOM     50  H   UNL A   1      39.945  30.976  32.686  1.00  0.00     0.167 HD
ATOM     51  C   UNL A   1      41.026  28.250  29.412  1.00  0.00     0.034 A 
ATOM     52  C   UNL A   1      40.099  31.988  35.292  1.00  0.00     0.034 A 
ATOM     53  C   UNL A   1      41.988  28.010  30.459  1.00  0.00     0.049 A 
ATOM     54  C   UNL A   1      41.167  30.929  35.180  1.00  0.00     0.074 A 
ATOM     55  C   UNL A   1      43.091  27.175  30.437  1.00  0.00     0.029 A 
ATOM     56  N   UNL A   1      41.953  28.585  31.723  1.00  0.00    -0.354 N 
ATOM     57  N   UNL A   1      41.486  30.184  34.147  1.00  0.00    -0.248 NA
ATOM     58  C   UNL A   1      41.980  30.675  36.378  1.00  0.00     0.031 C 
ATOM     59  C   UNL A   1      43.666  27.173  31.711  1.00  0.00     0.029 A 
ATOM     60  C   UNL A   1      42.980  28.079  32.504  1.00  0.00     0.049 A 
ATOM     61  H   UNL A   1      41.295  29.255  32.020  1.00  0.00     0.167 HD
ATOM     62  C   UNL A   1      42.554  29.395  34.564  1.00  0.00     0.074 A 
ATOM     63  C   UNL A   1      42.837  29.767  35.935  1.00  0.00     0.031 C 
ATOM     64  C   UNL A   1      43.242  28.448  33.876  1.00  0.00     0.034 A 
BRANCH  51  65
ATOM     65  C   UNL A   1      41.116  27.427  28.149  1.00  0.00     0.023 A 
ATOM     66  C   UNL A   1      40.746  26.072  28.117  1.00  0.00     0.031 A 
ATOM     67  C   UNL A   1      41.577  28.011  26.956  1.00  0.00     0.131 A 
ATOM     68  C   UNL A   1      40.901  25.332  26.935  1.00  0.00     0.055 A 
ATOM     69  C   UNL A   1      41.653  27.291  25.763  1.00  0.00     0.041 A 
ATOM     70  F   UNL A   1      41.967  29.296  26.930  1.00  0.00    -0.206 F 
ATOM     71  C   UNL A   1      41.326  25.939  25.751  1.00  0.00     0.022 A 
BRANCH  68  72
ATOM     72  S   UNL A   1      40.666  23.535  27.001  1.00  0.00     0.124 S 
ATOM     73  O   UNL A   1      41.126  23.226  28.353  1.00  0.00    -0.237 OA
ATOM     74  O   UNL A   1      39.235  23.394  26.765  1.00  0.00    -0.237 OA
ATOM     75  O   UNL A   1      41.528  23.037  25.930  1.00  0.00    -0.744 OA
ENDBRANCH  68  72
ENDBRANCH  51  65
BRANCH  52  76
ATOM     76  C   UNL A   1      39.900  32.732  36.570  1.00  0.00     0.023 A 
ATOM     77  C   UNL A   1      38.951  32.303  37.512  1.00  0.00     0.031 A 
ATOM     78  C   UNL A   1      40.609  33.916  36.845  1.00  0.00     0.131 A 
ATOM     79  C   UNL A   1      38.698  33.077  38.655  1.00  0.00     0.055 A 
ATOM     80  C   UNL A   1      40.399  34.649  38.014  1.00  0.00     0.041 A 
ATOM     81  F   UNL A   1      41.526  34.377  35.979  1.00  0.00    -0.206 F 
ATOM     82  C   UNL A   1      39.426  34.239  38.921  1.00  0.00     0.022 A 
BRANCH  79  83
ATOM     83  S   UNL A   1      37.320  32.603  39.735  1.00  0.00     0.124 S 
ATOM     84  O   UNL A   1      36.210  32.546  38.789  1.00  0.00    -0.237 OA
ATOM     85  O   UNL A   1      37.778  31.323  40.265  1.00  0.00    -0.237 OA
ATOM     86  O   UNL A   1      37.258  33.694  40.705  1.00  0.00    -0.744 OA
ENDBRANCH  79  83
ENDBRANCH  52  76
BRANCH  64  87
ATOM     87  C   UNL A   1      44.389  27.773  34.587  1.00  0.00     0.023 A 
ATOM     88  C   UNL A   1      45.668  28.354  34.643  1.00  0.00     0.031 A 
ATOM     89  C   UNL A   1      44.194  26.538  35.231  1.00  0.00     0.131 A 
ATOM     90  C   UNL A   1      46.712  27.680  35.294  1.00  0.00     0.055 A 
ATOM     91  C   UNL A   1      45.221  25.904  35.931  1.00  0.00     0.041 A 
ATOM     92  F   UNL A   1      42.995  25.935  35.206  1.00  0.00    -0.206 F 
ATOM     93  C   UNL A   1      46.492  26.470  35.957  1.00  0.00     0.022 A 
BRANCH  90  94
ATOM     94  S   UNL A   1      48.387  28.372  35.200  1.00  0.00     0.124 S 
ATOM     95  O   UNL A   1      48.118  29.798  35.056  1.00  0.00    -0.237 OA
ATOM     96  O   UNL A   1      48.969  27.958  36.474  1.00  0.00    -0.237 OA
ATOM     97  O   UNL A   1      48.959  27.726  34.021  1.00  0.00    -0.744 OA
ENDBRANCH  90  94
ENDBRANCH  64  87
ENDBRANCH  38  39
ENDBRANCH  30  33
ENDBRANCH  28  29
ENDBRANCH  27  28
ENDBRANCH  26  27
ENDBRANCH   1  26
TORSDOF 20
ENDMDL
MODEL 3
REMARK VINA RESULT:     -11.1      2.490      7.904
REMARK SMILES COC(=O)[C@@H]1CCN(S(=O)(=O)N2CCC(C(=O)NCCCCCCNC(=O)c3ccc(-c4c5nc(c(-c6cc(S(=O)(=O)[O-])ccc6F)c6ccc([nH]6)c(-c6cc(S(=O)(=O)[O-])ccc6F)c6nc(c(-c7cc(S(=O)(=O)[O-])ccc7F)c7ccc4[nH]7)C=C6)C=C5)cc3)CC2)C1
REMARK SMILES IDX 21 1 20 2 19 3 18 4 16 5 17 6 15 8 12 9 13 10 92 11 14 12
REMARK SMILES IDX 91 13 9 14 10 15 11 16 8 17 5 18 6 19 93 20 7 21 3 22 4 23
REMARK SMILES IDX 2 24 1 25 22 26 23 27 24 28 25 29 26 30 27 32 28 33 29 34
REMARK SMILES IDX 90 35 30 36 89 37 31 38 32 39 33 40 83 41 34 42 88 43 82 44
REMARK SMILES IDX 84 45 35 46 87 47 81 48 80 49 36 51 68 52 48 53 67 54 49 55
REMARK SMILES IDX 52 56 66 57 85 58 50 59 51 60 65 62 86 63 53 64 37 65 38 66
REMARK SMILES IDX 46 67 39 68 45 69 47 70 44 71 40 72 41 73 42 74 43 75 69 76
REMARK SMILES IDX 70 77 78 78 71 79 77 80 79 81 76 82 72 83 73 84 74 85 75 86
REMARK SMILES IDX 54 87 55 88 63 89 56 90 62 91 64 92 61 93 57 94 58 95 59 96
REMARK SMILES IDX 60 97
REMARK H PARENT 18 7 25 31 84 50 52 61
REMARK Flexibility Score: inf
ROOT
ATOM      1  C   UNL A   1      31.067  30.062  24.821  1.00  0.00     0.002 C 
ENDROOT
BRANCH   1   2
ATOM      2  C   UNL A   1      31.248  28.626  24.322  1.00  0.00     0.021 C 
BRANCH   2   3
ATOM      3  C   UNL A   1      32.705  28.198  24.242  1.00  0.00     0.116 C 
BRANCH   3   4
ATOM      4  N   UNL A   1      32.991  27.598  22.952  1.00  0.00    -0.356 N 
ATOM      5  C   UNL A   1      33.411  26.348  22.636  1.00  0.00     0.223 C 
ATOM      6  O   UNL A   1      33.679  26.099  21.458  1.00  0.00    -0.275 OA
ATOM      7  H   UNL A   1      32.858  28.196  22.180  1.00  0.00     0.163 HD
BRANCH   5   8
ATOM      8  C   UNL A   1      33.494  25.263  23.688  1.00  0.00     0.081 C 
ATOM      9  N   UNL A   1      33.079  22.606  24.673  1.00  0.00    -0.189 NA
ATOM     10  C   UNL A   1      32.270  23.684  25.273  1.00  0.00     0.104 C 
ATOM     11  C   UNL A   1      34.415  23.034  24.233  1.00  0.00     0.104 C 
ATOM     12  C   UNL A   1      32.143  24.851  24.287  1.00  0.00     0.030 C 
ATOM     13  C   UNL A   1      34.323  24.090  23.165  1.00  0.00     0.030 C 
BRANCH   9  14
ATOM     14  S   UNL A   1      32.911  21.051  25.299  1.00  0.00     0.281 S 
ATOM     15  O   UNL A   1      31.502  20.789  25.459  1.00  0.00    -0.195 OA
ATOM     16  O   UNL A   1      33.813  20.914  26.420  1.00  0.00    -0.195 OA
BRANCH  14  17
ATOM     17  N   UNL A   1      33.498  20.021  24.064  1.00  0.00    -0.188 NA
ATOM     18  C   UNL A   1      33.576  17.696  24.810  1.00  0.00     0.116 C 
ATOM     19  C   UNL A   1      32.223  18.029  24.179  1.00  0.00     0.033 C 
ATOM     20  C   UNL A   1      34.439  18.960  24.614  1.00  0.00     0.118 C 
ATOM     21  C   UNL A   1      32.561  19.190  23.279  1.00  0.00     0.104 C 
BRANCH  18  22
ATOM     22  C   UNL A   1      34.103  16.460  24.114  1.00  0.00     0.310 C 
ATOM     23  O   UNL A   1      34.061  16.235  22.915  1.00  0.00    -0.252 OA
BRANCH  22  24
ATOM     24  O   UNL A   1      34.547  15.589  25.069  1.00  0.00    -0.469 OA
ATOM     25  C   UNL A   1      35.899  15.735  25.505  1.00  0.00     0.282 C 
ENDBRANCH  22  24
ENDBRANCH  18  22
ENDBRANCH  14  17
ENDBRANCH   9  14
ENDBRANCH   5   8
ENDBRANCH   3   4
ENDBRANCH   2   3
ENDBRANCH   1   2
BRANCH   1  26
ATOM     26  C   UNL A   1      31.806  30.379  26.125  1.00  0.00     0.002 C 
BRANCH  26  27
ATOM     27  C   UNL A   1      31.636  31.816  26.623  1.00  0.00     0.021 C 
BRANCH  27  28
ATOM     28  C   UNL A   1      32.889  32.410  27.257  1.00  0.00     0.116 C 
BRANCH  28  29
ATOM     29  N   UNL A   1      32.696  33.805  27.623  1.00  0.00    -0.352 N 
ATOM     30  C   UNL A   1      33.287  34.521  28.632  1.00  0.00     0.251 C 
ATOM     31  H   UNL A   1      32.051  34.303  27.071  1.00  0.00     0.163 HD
ATOM     32  O   UNL A   1      32.843  35.621  28.948  1.00  0.00    -0.269 OA
BRANCH  30  33
ATOM     33  C   UNL A   1      34.442  33.941  29.348  1.00  0.00     0.039 A 
ATOM     34  C   UNL A   1      34.212  33.115  30.449  1.00  0.00     0.014 A 
ATOM     35  C   UNL A   1      35.745  34.186  28.905  1.00  0.00     0.014 A 
ATOM     36  C   UNL A   1      35.288  32.471  31.062  1.00  0.00     0.010 A 
ATOM     37  C   UNL A   1      36.807  33.486  29.471  1.00  0.00     0.010 A 
ATOM     38  C   UNL A   1      36.588  32.613  30.547  1.00  0.00    -0.014 A 
BRANCH  38  39
ATOM     39  C   UNL A   1      37.725  31.830  31.095  1.00  0.00     0.031 A 
ATOM     40  C   UNL A   1      38.280  32.151  32.455  1.00  0.00     0.074 A 
ATOM     41  C   UNL A   1      38.304  30.883  30.330  1.00  0.00     0.049 A 
ATOM     42  N   UNL A   1      39.323  31.648  33.061  1.00  0.00    -0.248 NA
ATOM     43  C   UNL A   1      37.581  33.193  33.224  1.00  0.00     0.031 C 
ATOM     44  C   UNL A   1      37.869  30.501  28.984  1.00  0.00     0.029 A 
ATOM     45  N   UNL A   1      39.389  30.074  30.565  1.00  0.00    -0.354 N 
ATOM     46  C   UNL A   1      39.419  32.320  34.275  1.00  0.00     0.074 A 
ATOM     47  C   UNL A   1      38.353  33.299  34.297  1.00  0.00     0.031 C 
ATOM     48  C   UNL A   1      38.659  29.518  28.526  1.00  0.00     0.029 A 
ATOM     49  C   UNL A   1      39.698  29.241  29.513  1.00  0.00     0.049 A 
ATOM     50  H   UNL A   1      39.900  30.090  31.407  1.00  0.00     0.167 HD
ATOM     51  C   UNL A   1      40.306  32.125  35.281  1.00  0.00     0.034 A 
ATOM     52  C   UNL A   1      40.715  28.372  29.352  1.00  0.00     0.034 A 
ATOM     53  C   UNL A   1      41.355  31.136  35.243  1.00  0.00     0.049 A 
ATOM     54  C   UNL A   1      41.727  28.224  30.461  1.00  0.00     0.074 A 
ATOM     55  C   UNL A   1      42.258  30.802  36.237  1.00  0.00     0.029 A 
ATOM     56  N   UNL A   1      41.659  30.335  34.149  1.00  0.00    -0.354 N 
ATOM     57  N   UNL A   1      41.762  28.818  31.631  1.00  0.00    -0.248 NA
ATOM     58  C   UNL A   1      42.839  27.291  30.227  1.00  0.00     0.031 C 
ATOM     59  C   UNL A   1      43.162  29.872  35.715  1.00  0.00     0.029 A 
ATOM     60  C   UNL A   1      42.769  29.554  34.425  1.00  0.00     0.049 A 
ATOM     61  H   UNL A   1      41.158  30.325  33.301  1.00  0.00     0.167 HD
ATOM     62  C   UNL A   1      42.883  28.309  32.281  1.00  0.00     0.074 A 
ATOM     63  C   UNL A   1      43.485  27.347  31.383  1.00  0.00     0.031 C 
ATOM     64  C   UNL A   1      43.369  28.607  33.513  1.00  0.00     0.034 A 
BRANCH  51  65
ATOM     65  C   UNL A   1      40.206  33.021  36.491  1.00  0.00     0.023 A 
ATOM     66  C   UNL A   1      39.472  32.652  37.632  1.00  0.00     0.031 A 
ATOM     67  C   UNL A   1      40.862  34.264  36.506  1.00  0.00     0.131 A 
ATOM     68  C   UNL A   1      39.361  33.542  38.710  1.00  0.00     0.055 A 
ATOM     69  C   UNL A   1      40.815  35.111  37.614  1.00  0.00     0.041 A 
ATOM     70  F   UNL A   1      41.560  34.682  35.437  1.00  0.00    -0.206 F 
ATOM     71  C   UNL A   1      40.049  34.757  38.721  1.00  0.00     0.022 A 
BRANCH  68  72
ATOM     72  S   UNL A   1      38.195  33.147  40.043  1.00  0.00     0.124 S 
ATOM     73  O   UNL A   1      38.797  31.944  40.614  1.00  0.00    -0.237 OA
ATOM     74  O   UNL A   1      38.246  34.344  40.874  1.00  0.00    -0.237 OA
ATOM     75  O   UNL A   1      36.932  32.928  39.340  1.00  0.00    -0.744 OA
ENDBRANCH  68  72
ENDBRANCH  51  65
BRANCH  52  76
ATOM     76  C   UNL A   1      40.858  27.592  28.087  1.00  0.00     0.023 A 
ATOM     77  C   UNL A   1      40.449  26.250  28.020  1.00  0.00     0.031 A 
ATOM     78  C   UNL A   1      41.459  28.153  26.946  1.00  0.00     0.131 A 
ATOM     79  C   UNL A   1      40.695  25.499  26.860  1.00  0.00     0.055 A 
ATOM     80  C   UNL A   1      41.644  27.421  25.771  1.00  0.00     0.041 A 
ATOM     81  F   UNL A   1      41.873  29.430  26.953  1.00  0.00    -0.206 F 
ATOM     82  C   UNL A   1      41.275  26.080  25.729  1.00  0.00     0.022 A 
BRANCH  79  83
ATOM     83  S   UNL A   1      40.348  23.720  26.889  1.00  0.00     0.124 S 
ATOM     84  O   UNL A   1      40.435  23.425  28.315  1.00  0.00    -0.237 OA
ATOM     85  O   UNL A   1      39.013  23.662  26.302  1.00  0.00    -0.237 OA
ATOM     86  O   UNL A   1      41.415  23.151  26.068  1.00  0.00    -0.744 OA
ENDBRANCH  79  83
ENDBRANCH  52  76
BRANCH  64  87
ATOM     87  C   UNL A   1      44.597  27.859  33.971  1.00  0.00     0.023 A 
ATOM     88  C   UNL A   1      45.891  28.369  33.767  1.00  0.00     0.031 A 
ATOM     89  C   UNL A   1      44.469  26.628  34.636  1.00  0.00     0.131 A 
ATOM     90  C   UNL A   1      47.007  27.630  34.187  1.00  0.00     0.055 A 
ATOM     91  C   UNL A   1      45.580  25.928  35.108  1.00  0.00     0.041 A 
ATOM     92  F   UNL A   1      43.258  26.091  34.854  1.00  0.00    -0.206 F 
ATOM     93  C   UNL A   1      46.859  26.423  34.876  1.00  0.00     0.022 A 
BRANCH  90  94
ATOM     94  S   UNL A   1      48.664  28.231  33.756  1.00  0.00     0.124 S 
ATOM     95  O   UNL A   1      48.390  29.060  32.587  1.00  0.00    -0.237 OA
ATOM     96  O   UNL A   1      49.063  28.945  34.965  1.00  0.00    -0.237 OA
ATOM     97  O   UNL A   1      49.413  27.006  33.486  1.00  0.00    -0.744 OA
ENDBRANCH  90  94
ENDBRANCH  64  87
ENDBRANCH  38  39
ENDBRANCH  30  33
ENDBRANCH  28  29
ENDBRANCH  27  28
ENDBRANCH  26  27
ENDBRANCH   1  26
TORSDOF 20
ENDMDL
