MODEL 1
REMARK VINA RESULT:     -12.7      0.000      0.000
REMARK SMILES C[C@@H]1OCC[C@@H]1c1nnc(-c2cccc(C(=O)NCCCCCCNC(=O)c3ccc(-c4c5nc(c(-c6cc(S(=O)(=O)[O-])ccc6F)c6ccc([nH]6)c(-c6cc(S(=O)(=O)[O-])ccc6F)c6nc(c(-c7cc(S(=O)(=O)[O-])ccc7F)c7ccc4[nH]7)C=C6)C=C5)cc3)c2)o1
REMARK SMILES IDX 22 1 21 2 20 3 19 4 18 5 16 6 17 7 15 9 11 10 12 11 91 12
REMARK SMILES IDX 13 13 14 14 10 15 7 16 8 17 92 18 9 19 6 20 1 21 2 22 3 23
REMARK SMILES IDX 4 24 5 25 23 26 24 27 25 28 26 29 27 31 28 32 29 33 90 34
REMARK SMILES IDX 30 35 89 36 31 37 32 38 33 39 83 40 34 41 88 42 82 43 84 44
REMARK SMILES IDX 35 45 87 46 81 47 80 48 36 50 68 51 48 52 67 53 49 54 52 55
REMARK SMILES IDX 66 56 85 57 50 58 51 59 65 61 86 62 53 63 37 64 38 65 46 66
REMARK SMILES IDX 39 67 45 68 47 69 44 70 40 71 41 72 42 73 43 74 69 75 70 76
REMARK SMILES IDX 78 77 71 78 77 79 79 80 76 81 72 82 73 83 74 84 75 85 54 86
REMARK SMILES IDX 55 87 63 88 56 89 62 90 64 91 61 92 57 93 58 94 59 95 60 96
REMARK H PARENT 18 8 25 30 84 49 52 60
REMARK Flexibility Score: inf
ROOT
ATOM      1  C   UNL A   1      32.144  30.211  26.052  1.00  0.00     0.002 C 
ENDROOT
BRANCH   1   2
ATOM      2  C   UNL A   1      31.966  28.870  26.769  1.00  0.00     0.002 C 
BRANCH   2   3
ATOM      3  C   UNL A   1      33.237  28.139  27.200  1.00  0.00     0.021 C 
BRANCH   3   4
ATOM      4  C   UNL A   1      34.059  27.465  26.107  1.00  0.00     0.116 C 
BRANCH   4   5
ATOM      5  N   UNL A   1      33.968  26.015  26.085  1.00  0.00    -0.352 N 
ATOM      6  C   UNL A   1      33.541  25.150  25.103  1.00  0.00     0.251 C 
ATOM      7  O   UNL A   1      33.563  23.941  25.333  1.00  0.00    -0.269 OA
ATOM      8  H   UNL A   1      34.262  25.576  26.915  1.00  0.00     0.163 HD
BRANCH   6   9
ATOM      9  C   UNL A   1      32.985  25.627  23.806  1.00  0.00     0.040 A 
ATOM     10  C   UNL A   1      31.437  26.973  22.502  1.00  0.00     0.040 A 
ATOM     11  C   UNL A   1      31.744  26.210  21.367  1.00  0.00     0.014 A 
ATOM     12  C   UNL A   1      32.134  26.730  23.694  1.00  0.00     0.027 A 
ATOM     13  C   UNL A   1      32.705  25.202  21.431  1.00  0.00     0.002 A 
ATOM     14  C   UNL A   1      33.304  24.894  22.653  1.00  0.00     0.014 A 
BRANCH  10  15
ATOM     15  C   UNL A   1      30.303  27.882  22.483  1.00  0.00     0.247 A 
ATOM     16  C   UNL A   1      29.298  29.743  22.254  1.00  0.00     0.222 A 
ATOM     17  N   UNL A   1      28.455  28.930  22.857  1.00  0.00    -0.112 NA
ATOM     18  O   UNL A   1      30.497  29.138  21.970  1.00  0.00    -0.420 OA
ATOM     19  N   UNL A   1      29.102  27.722  22.996  1.00  0.00    -0.108 NA
BRANCH  16  20
ATOM     20  C   UNL A   1      29.059  31.117  21.765  1.00  0.00     0.109 C 
ATOM     21  C   UNL A   1      27.538  31.800  23.774  1.00  0.00     0.039 C 
ATOM     22  C   UNL A   1      28.633  32.175  22.776  1.00  0.00     0.127 C 
ATOM     23  O   UNL A   1      28.097  33.249  21.975  1.00  0.00    -0.378 OA
ATOM     24  C   UNL A   1      27.757  32.737  20.672  1.00  0.00     0.161 C 
ATOM     25  C   UNL A   1      27.969  31.235  20.719  1.00  0.00     0.044 C 
ENDBRANCH  16  20
ENDBRANCH  10  15
ENDBRANCH   6   9
ENDBRANCH   4   5
ENDBRANCH   3   4
ENDBRANCH   2   3
ENDBRANCH   1   2
BRANCH   1  26
ATOM     26  C   UNL A   1      31.777  31.468  26.841  1.00  0.00     0.021 C 
BRANCH  26  27
ATOM     27  C   UNL A   1      32.944  32.305  27.354  1.00  0.00     0.116 C 
BRANCH  27  28
ATOM     28  N   UNL A   1      32.586  33.690  27.603  1.00  0.00    -0.352 N 
ATOM     29  C   UNL A   1      33.133  34.579  28.504  1.00  0.00     0.251 C 
ATOM     30  H   UNL A   1      31.851  34.043  27.052  1.00  0.00     0.163 HD
ATOM     31  O   UNL A   1      32.621  35.675  28.670  1.00  0.00    -0.269 OA
BRANCH  29  32
ATOM     32  C   UNL A   1      34.323  34.179  29.292  1.00  0.00     0.039 A 
ATOM     33  C   UNL A   1      34.143  33.453  30.473  1.00  0.00     0.014 A 
ATOM     34  C   UNL A   1      35.611  34.500  28.855  1.00  0.00     0.014 A 
ATOM     35  C   UNL A   1      35.257  32.977  31.173  1.00  0.00     0.010 A 
ATOM     36  C   UNL A   1      36.716  33.975  29.520  1.00  0.00     0.010 A 
ATOM     37  C   UNL A   1      36.552  33.200  30.680  1.00  0.00    -0.014 A 
BRANCH  37  38
ATOM     38  C   UNL A   1      37.760  32.651  31.352  1.00  0.00     0.031 A 
ATOM     39  C   UNL A   1      38.496  31.499  30.723  1.00  0.00     0.074 A 
ATOM     40  C   UNL A   1      38.132  33.111  32.562  1.00  0.00     0.049 A 
ATOM     41  N   UNL A   1      39.434  30.740  31.226  1.00  0.00    -0.248 NA
ATOM     42  C   UNL A   1      38.094  31.138  29.356  1.00  0.00     0.031 C 
ATOM     43  C   UNL A   1      37.496  34.217  33.280  1.00  0.00     0.029 A 
ATOM     44  N   UNL A   1      39.122  32.688  33.417  1.00  0.00    -0.354 N 
ATOM     45  C   UNL A   1      39.718  29.793  30.248  1.00  0.00     0.074 A 
ATOM     46  C   UNL A   1      38.817  30.049  29.144  1.00  0.00     0.031 C 
ATOM     47  C   UNL A   1      38.112  34.386  34.461  1.00  0.00     0.029 A 
ATOM     48  C   UNL A   1      39.148  33.369  34.612  1.00  0.00     0.049 A 
ATOM     49  H   UNL A   1      39.753  31.967  33.194  1.00  0.00     0.167 HD
ATOM     50  C   UNL A   1      40.652  28.809  30.265  1.00  0.00     0.034 A 
ATOM     51  C   UNL A   1      39.898  33.176  35.716  1.00  0.00     0.034 A 
ATOM     52  C   UNL A   1      41.552  28.578  31.368  1.00  0.00     0.049 A 
ATOM     53  C   UNL A   1      40.906  32.053  35.730  1.00  0.00     0.074 A 
ATOM     54  C   UNL A   1      42.556  27.631  31.480  1.00  0.00     0.029 A 
ATOM     55  N   UNL A   1      41.560  29.303  32.553  1.00  0.00    -0.354 N 
ATOM     56  N   UNL A   1      41.163  31.166  34.798  1.00  0.00    -0.248 NA
ATOM     57  C   UNL A   1      41.723  31.905  36.943  1.00  0.00     0.031 C 
ATOM     58  C   UNL A   1      43.129  27.745  32.751  1.00  0.00     0.029 A 
ATOM     59  C   UNL A   1      42.535  28.811  33.405  1.00  0.00     0.049 A 
ATOM     60  H   UNL A   1      40.960  30.057  32.757  1.00  0.00     0.167 HD
ATOM     61  C   UNL A   1      42.203  30.385  35.295  1.00  0.00     0.074 A 
ATOM     62  C   UNL A   1      42.520  30.898  36.611  1.00  0.00     0.031 C 
ATOM     63  C   UNL A   1      42.846  29.344  34.710  1.00  0.00     0.034 A 
BRANCH  50  64
ATOM     64  C   UNL A   1      40.718  27.894  29.066  1.00  0.00     0.023 A 
ATOM     65  C   UNL A   1      41.657  28.093  28.039  1.00  0.00     0.031 A 
ATOM     66  C   UNL A   1      39.812  26.829  28.932  1.00  0.00     0.131 A 
ATOM     67  C   UNL A   1      41.615  27.292  26.888  1.00  0.00     0.055 A 
ATOM     68  C   UNL A   1      39.830  25.982  27.822  1.00  0.00     0.041 A 
ATOM     69  F   UNL A   1      38.879  26.601  29.871  1.00  0.00    -0.206 F 
ATOM     70  C   UNL A   1      40.725  26.221  26.783  1.00  0.00     0.022 A 
BRANCH  67  71
ATOM     71  S   UNL A   1      42.638  27.768  25.468  1.00  0.00     0.124 S 
ATOM     72  O   UNL A   1      43.849  28.250  26.127  1.00  0.00    -0.237 OA
ATOM     73  O   UNL A   1      42.764  26.514  24.736  1.00  0.00    -0.237 OA
ATOM     74  O   UNL A   1      41.844  28.801  24.805  1.00  0.00    -0.744 OA
ENDBRANCH  67  71
ENDBRANCH  50  64
BRANCH  51  75
ATOM     75  C   UNL A   1      39.716  34.044  36.915  1.00  0.00     0.023 A 
ATOM     76  C   UNL A   1      39.211  33.520  38.115  1.00  0.00     0.031 A 
ATOM     77  C   UNL A   1      40.003  35.419  36.863  1.00  0.00     0.131 A 
ATOM     78  C   UNL A   1      38.965  34.373  39.201  1.00  0.00     0.055 A 
ATOM     79  C   UNL A   1      39.810  36.255  37.966  1.00  0.00     0.041 A 
ATOM     80  F   UNL A   1      40.481  35.970  35.737  1.00  0.00    -0.206 F 
ATOM     81  C   UNL A   1      39.275  35.734  39.140  1.00  0.00     0.022 A 
BRANCH  78  82
ATOM     82  S   UNL A   1      38.146  33.691  40.670  1.00  0.00     0.124 S 
ATOM     83  O   UNL A   1      38.956  32.509  40.938  1.00  0.00    -0.237 OA
ATOM     84  O   UNL A   1      38.272  34.787  41.624  1.00  0.00    -0.237 OA
ATOM     85  O   UNL A   1      36.785  33.424  40.206  1.00  0.00    -0.744 OA
ENDBRANCH  78  82
ENDBRANCH  51  75
BRANCH  63  86
ATOM     86  C   UNL A   1      44.010  28.742  35.453  1.00  0.00     0.023 A 
ATOM     87  C   UNL A   1      43.847  27.697  36.377  1.00  0.00     0.031 A 
ATOM     88  C   UNL A   1      45.313  29.209  35.200  1.00  0.00     0.131 A 
ATOM     89  C   UNL A   1      44.968  27.172  37.039  1.00  0.00     0.055 A 
ATOM     90  C   UNL A   1      46.428  28.652  35.825  1.00  0.00     0.041 A 
ATOM     91  F   UNL A   1      45.522  30.206  34.324  1.00  0.00    -0.206 F 
ATOM     92  C   UNL A   1      46.257  27.631  36.756  1.00  0.00     0.022 A 
BRANCH  89  93
ATOM     93  S   UNL A   1      44.719  25.901  38.308  1.00  0.00     0.124 S 
ATOM     94  O   UNL A   1      43.998  24.870  37.568  1.00  0.00    -0.237 OA
ATOM     95  O   UNL A   1      46.088  25.568  38.693  1.00  0.00    -0.237 OA
ATOM     96  O   UNL A   1      43.939  26.588  39.335  1.00  0.00    -0.744 OA
ENDBRANCH  89  93
ENDBRANCH  63  86
ENDBRANCH  37  38
ENDBRANCH  29  32
ENDBRANCH  27  28
ENDBRANCH  26  27
ENDBRANCH   1  26
TORSDOF 18
ENDMDL
MODEL 2
REMARK VINA RESULT:     -12.4      2.288      4.497
REMARK SMILES C[C@@H]1OCC[C@@H]1c1nnc(-c2cccc(C(=O)NCCCCCCNC(=O)c3ccc(-c4c5nc(c(-c6cc(S(=O)(=O)[O-])ccc6F)c6ccc([nH]6)c(-c6cc(S(=O)(=O)[O-])ccc6F)c6nc(c(-c7cc(S(=O)(=O)[O-])ccc7F)c7ccc4[nH]7)C=C6)C=C5)cc3)c2)o1
REMARK SMILES IDX 22 1 21 2 20 3 19 4 18 5 16 6 17 7 15 9 11 10 12 11 91 12
REMARK SMILES IDX 13 13 14 14 10 15 7 16 8 17 92 18 9 19 6 20 1 21 2 22 3 23
REMARK SMILES IDX 4 24 5 25 23 26 24 27 25 28 26 29 27 31 28 32 29 33 90 34
REMARK SMILES IDX 30 35 89 36 31 37 32 38 33 39 83 40 34 41 88 42 82 43 84 44
REMARK SMILES IDX 35 45 87 46 81 47 80 48 36 50 68 51 48 52 67 53 49 54 52 55
REMARK SMILES IDX 66 56 85 57 50 58 51 59 65 61 86 62 53 63 37 64 38 65 46 66
REMARK SMILES IDX 39 67 45 68 47 69 44 70 40 71 41 72 42 73 43 74 69 75 70 76
REMARK SMILES IDX 78 77 71 78 77 79 79 80 76 81 72 82 73 83 74 84 75 85 54 86
REMARK SMILES IDX 55 87 63 88 56 89 62 90 64 91 61 92 57 93 58 94 59 95 60 96
REMARK H PARENT 18 8 25 30 84 49 52 60
REMARK Flexibility Score: inf
ROOT
ATOM      1  C   UNL A   1      33.891  28.612  25.785  1.00  0.00     0.002 C 
ENDROOT
BRANCH   1   2
ATOM      2  C   UNL A   1      34.113  27.781  24.519  1.00  0.00     0.002 C 
BRANCH   2   3
ATOM      3  C   UNL A   1      34.034  28.518  23.182  1.00  0.00     0.021 C 
BRANCH   3   4
ATOM      4  C   UNL A   1      32.865  28.176  22.265  1.00  0.00     0.116 C 
BRANCH   4   5
ATOM      5  N   UNL A   1      31.852  29.211  22.159  1.00  0.00    -0.352 N 
ATOM      6  C   UNL A   1      30.584  29.294  22.689  1.00  0.00     0.251 C 
ATOM      7  O   UNL A   1      29.910  30.296  22.449  1.00  0.00    -0.269 OA
ATOM      8  H   UNL A   1      32.118  29.987  21.614  1.00  0.00     0.163 HD
BRANCH   6   9
ATOM      9  C   UNL A   1      29.973  28.186  23.475  1.00  0.00     0.040 A 
ATOM     10  C   UNL A   1      30.129  26.305  25.006  1.00  0.00     0.040 A 
ATOM     11  C   UNL A   1      28.837  25.908  24.637  1.00  0.00     0.014 A 
ATOM     12  C   UNL A   1      30.650  27.498  24.487  1.00  0.00     0.027 A 
ATOM     13  C   UNL A   1      28.092  26.672  23.739  1.00  0.00     0.002 A 
ATOM     14  C   UNL A   1      28.669  27.793  23.139  1.00  0.00     0.014 A 
BRANCH  10  15
ATOM     15  C   UNL A   1      30.971  25.409  25.782  1.00  0.00     0.247 A 
ATOM     16  C   UNL A   1      32.575  24.058  26.136  1.00  0.00     0.222 A 
ATOM     17  N   UNL A   1      31.762  23.957  27.168  1.00  0.00    -0.112 NA
ATOM     18  O   UNL A   1      32.142  24.978  25.215  1.00  0.00    -0.420 OA
ATOM     19  N   UNL A   1      30.729  24.839  26.943  1.00  0.00    -0.108 NA
BRANCH  16  20
ATOM     20  C   UNL A   1      33.892  23.417  25.938  1.00  0.00     0.109 C 
ATOM     21  C   UNL A   1      33.209  22.194  23.735  1.00  0.00     0.039 C 
ATOM     22  C   UNL A   1      34.264  22.958  24.533  1.00  0.00     0.127 C 
ATOM     23  O   UNL A   1      35.364  22.043  24.727  1.00  0.00    -0.378 OA
ATOM     24  C   UNL A   1      35.357  21.589  26.094  1.00  0.00     0.161 C 
ATOM     25  C   UNL A   1      34.105  22.149  26.741  1.00  0.00     0.044 C 
ENDBRANCH  16  20
ENDBRANCH  10  15
ENDBRANCH   6   9
ENDBRANCH   4   5
ENDBRANCH   3   4
ENDBRANCH   2   3
ENDBRANCH   1   2
BRANCH   1  26
ATOM     26  C   UNL A   1      33.055  29.884  25.637  1.00  0.00     0.021 C 
BRANCH  26  27
ATOM     27  C   UNL A   1      32.368  30.387  26.902  1.00  0.00     0.116 C 
BRANCH  27  28
ATOM     28  N   UNL A   1      32.278  31.835  26.964  1.00  0.00    -0.352 N 
ATOM     29  C   UNL A   1      33.162  32.736  27.520  1.00  0.00     0.251 C 
ATOM     30  H   UNL A   1      31.475  32.228  26.551  1.00  0.00     0.163 HD
ATOM     31  O   UNL A   1      32.864  33.919  27.595  1.00  0.00    -0.269 OA
BRANCH  29  32
ATOM     32  C   UNL A   1      34.456  32.252  28.055  1.00  0.00     0.039 A 
ATOM     33  C   UNL A   1      35.582  33.074  27.954  1.00  0.00     0.014 A 
ATOM     34  C   UNL A   1      34.553  31.003  28.672  1.00  0.00     0.014 A 
ATOM     35  C   UNL A   1      36.787  32.679  28.546  1.00  0.00     0.010 A 
ATOM     36  C   UNL A   1      35.735  30.638  29.312  1.00  0.00     0.010 A 
ATOM     37  C   UNL A   1      36.862  31.476  29.264  1.00  0.00    -0.014 A 
BRANCH  37  38
ATOM     38  C   UNL A   1      38.099  31.051  29.970  1.00  0.00     0.031 A 
ATOM     39  C   UNL A   1      39.004  30.033  29.331  1.00  0.00     0.074 A 
ATOM     40  C   UNL A   1      38.356  31.495  31.216  1.00  0.00     0.049 A 
ATOM     41  N   UNL A   1      40.008  29.374  29.847  1.00  0.00    -0.248 NA
ATOM     42  C   UNL A   1      38.711  29.690  27.931  1.00  0.00     0.031 C 
ATOM     43  C   UNL A   1      37.554  32.477  31.948  1.00  0.00     0.029 A 
ATOM     44  N   UNL A   1      39.354  31.159  32.100  1.00  0.00    -0.354 N 
ATOM     45  C   UNL A   1      40.453  28.518  28.845  1.00  0.00     0.074 A 
ATOM     46  C   UNL A   1      39.576  28.712  27.709  1.00  0.00     0.031 C 
ATOM     47  C   UNL A   1      38.091  32.664  33.164  1.00  0.00     0.029 A 
ATOM     48  C   UNL A   1      39.241  31.779  33.323  1.00  0.00     0.049 A 
ATOM     49  H   UNL A   1      40.081  30.534  31.878  1.00  0.00     0.167 HD
ATOM     50  C   UNL A   1      41.504  27.660  28.866  1.00  0.00     0.034 A 
ATOM     51  C   UNL A   1      39.961  31.629  34.453  1.00  0.00     0.034 A 
ATOM     52  C   UNL A   1      42.377  27.491  30.002  1.00  0.00     0.049 A 
ATOM     53  C   UNL A   1      41.102  30.642  34.470  1.00  0.00     0.074 A 
ATOM     54  C   UNL A   1      43.488  26.673  30.122  1.00  0.00     0.029 A 
ATOM     55  N   UNL A   1      42.240  28.153  31.215  1.00  0.00    -0.354 N 
ATOM     56  N   UNL A   1      41.511  29.840  33.515  1.00  0.00    -0.248 NA
ATOM     57  C   UNL A   1      41.878  30.540  35.714  1.00  0.00     0.031 C 
ATOM     58  C   UNL A   1      43.986  26.797  31.423  1.00  0.00     0.029 A 
ATOM     59  C   UNL A   1      43.233  27.746  32.093  1.00  0.00     0.049 A 
ATOM     60  H   UNL A   1      41.541  28.815  31.421  1.00  0.00     0.167 HD
ATOM     61  C   UNL A   1      42.620  29.173  34.029  1.00  0.00     0.074 A 
ATOM     62  C   UNL A   1      42.810  29.658  35.379  1.00  0.00     0.031 C 
ATOM     63  C   UNL A   1      43.415  28.251  33.433  1.00  0.00     0.034 A 
BRANCH  50  64
ATOM     64  C   UNL A   1      41.738  26.820  27.634  1.00  0.00     0.023 A 
ATOM     65  C   UNL A   1      41.326  25.478  27.568  1.00  0.00     0.031 A 
ATOM     66  C   UNL A   1      42.410  27.357  26.523  1.00  0.00     0.131 A 
ATOM     67  C   UNL A   1      41.662  24.697  26.452  1.00  0.00     0.055 A 
ATOM     68  C   UNL A   1      42.666  26.598  25.379  1.00  0.00     0.041 A 
ATOM     69  F   UNL A   1      42.846  28.628  26.535  1.00  0.00    -0.206 F 
ATOM     70  C   UNL A   1      42.306  25.254  25.345  1.00  0.00     0.022 A 
BRANCH  67  71
ATOM     71  S   UNL A   1      41.378  22.908  26.534  1.00  0.00     0.124 S 
ATOM     72  O   UNL A   1      42.115  22.439  25.364  1.00  0.00    -0.237 OA
ATOM     73  O   UNL A   1      41.948  22.558  27.830  1.00  0.00    -0.237 OA
ATOM     74  O   UNL A   1      39.925  22.786  26.437  1.00  0.00    -0.744 OA
ENDBRANCH  67  71
ENDBRANCH  50  64
BRANCH  51  75
ATOM     75  C   UNL A   1      39.617  32.408  35.678  1.00  0.00     0.023 A 
ATOM     76  C   UNL A   1      38.769  31.874  36.659  1.00  0.00     0.031 A 
ATOM     77  C   UNL A   1      40.098  33.717  35.861  1.00  0.00     0.131 A 
ATOM     78  C   UNL A   1      38.389  32.658  37.758  1.00  0.00     0.055 A 
ATOM     79  C   UNL A   1      39.763  34.474  36.987  1.00  0.00     0.041 A 
ATOM     80  F   UNL A   1      40.907  34.276  34.948  1.00  0.00    -0.206 F 
ATOM     81  C   UNL A   1      38.892  33.950  37.936  1.00  0.00     0.022 A 
BRANCH  78  82
ATOM     82  S   UNL A   1      37.152  31.997  38.909  1.00  0.00     0.124 S 
ATOM     83  O   UNL A   1      37.054  30.609  38.472  1.00  0.00    -0.237 OA
ATOM     84  O   UNL A   1      37.789  32.220  40.202  1.00  0.00    -0.237 OA
ATOM     85  O   UNL A   1      35.971  32.818  38.647  1.00  0.00    -0.744 OA
ENDBRANCH  78  82
ENDBRANCH  51  75
BRANCH  63  86
ATOM     86  C   UNL A   1      44.614  27.765  34.206  1.00  0.00     0.023 A 
ATOM     87  C   UNL A   1      44.568  26.613  35.008  1.00  0.00     0.031 A 
ATOM     88  C   UNL A   1      45.834  28.459  34.106  1.00  0.00     0.131 A 
ATOM     89  C   UNL A   1      45.716  26.204  35.704  1.00  0.00     0.055 A 
ATOM     90  C   UNL A   1      46.984  28.022  34.764  1.00  0.00     0.041 A 
ATOM     91  F   UNL A   1      45.929  29.566  33.352  1.00  0.00    -0.206 F 
ATOM     92  C   UNL A   1      46.926  26.891  35.573  1.00  0.00     0.022 A 
BRANCH  89  93
ATOM     93  S   UNL A   1      45.602  24.778  36.820  1.00  0.00     0.124 S 
ATOM     94  O   UNL A   1      46.853  24.079  36.545  1.00  0.00    -0.237 OA
ATOM     95  O   UNL A   1      45.501  25.412  38.131  1.00  0.00    -0.237 OA
ATOM     96  O   UNL A   1      44.393  24.088  36.373  1.00  0.00    -0.744 OA
ENDBRANCH  89  93
ENDBRANCH  63  86
ENDBRANCH  37  38
ENDBRANCH  29  32
ENDBRANCH  27  28
ENDBRANCH  26  27
ENDBRANCH   1  26
TORSDOF 18
ENDMDL
MODEL 3
REMARK VINA RESULT:     -12.3      1.452      7.550
REMARK SMILES C[C@@H]1OCC[C@@H]1c1nnc(-c2cccc(C(=O)NCCCCCCNC(=O)c3ccc(-c4c5nc(c(-c6cc(S(=O)(=O)[O-])ccc6F)c6ccc([nH]6)c(-c6cc(S(=O)(=O)[O-])ccc6F)c6nc(c(-c7cc(S(=O)(=O)[O-])ccc7F)c7ccc4[nH]7)C=C6)C=C5)cc3)c2)o1
REMARK SMILES IDX 22 1 21 2 20 3 19 4 18 5 16 6 17 7 15 9 11 10 12 11 91 12
REMARK SMILES IDX 13 13 14 14 10 15 7 16 8 17 92 18 9 19 6 20 1 21 2 22 3 23
REMARK SMILES IDX 4 24 5 25 23 26 24 27 25 28 26 29 27 31 28 32 29 33 90 34
REMARK SMILES IDX 30 35 89 36 31 37 32 38 33 39 83 40 34 41 88 42 82 43 84 44
REMARK SMILES IDX 35 45 87 46 81 47 80 48 36 50 68 51 48 52 67 53 49 54 52 55
REMARK SMILES IDX 66 56 85 57 50 58 51 59 65 61 86 62 53 63 37 64 38 65 46 66
REMARK SMILES IDX 39 67 45 68 47 69 44 70 40 71 41 72 42 73 43 74 69 75 70 76
REMARK SMILES IDX 78 77 71 78 77 79 79 80 76 81 72 82 73 83 74 84 75 85 54 86
REMARK SMILES IDX 55 87 63 88 56 89 62 90 64 91 61 92 57 93 58 94 59 95 60 96
REMARK H PARENT 18 8 25 30 84 49 52 60
REMARK Flexibility Score: inf
ROOT
ATOM      1  C   UNL A   1      31.603  30.779  26.085  1.00  0.00     0.002 C 
ENDROOT
BRANCH   1   2
ATOM      2  C   UNL A   1      31.853  29.590  27.014  1.00  0.00     0.002 C 
BRANCH   2   3
ATOM      3  C   UNL A   1      33.310  29.208  27.277  1.00  0.00     0.021 C 
BRANCH   3   4
ATOM      4  C   UNL A   1      34.038  28.437  26.181  1.00  0.00     0.116 C 
BRANCH   4   5
ATOM      5  N   UNL A   1      34.016  26.993  26.336  1.00  0.00    -0.352 N 
ATOM      6  C   UNL A   1      33.531  26.001  25.513  1.00  0.00     0.251 C 
ATOM      7  O   UNL A   1      33.636  24.830  25.877  1.00  0.00    -0.269 OA
ATOM      8  H   UNL A   1      34.416  26.667  27.174  1.00  0.00     0.163 HD
BRANCH   6   9
ATOM      9  C   UNL A   1      32.821  26.299  24.238  1.00  0.00     0.040 A 
ATOM     10  C   UNL A   1      31.038  27.364  22.975  1.00  0.00     0.040 A 
ATOM     11  C   UNL A   1      31.322  26.530  21.886  1.00  0.00     0.014 A 
ATOM     12  C   UNL A   1      31.855  27.302  24.112  1.00  0.00     0.027 A 
ATOM     13  C   UNL A   1      32.384  25.627  21.945  1.00  0.00     0.002 A 
ATOM     14  C   UNL A   1      33.113  25.493  23.127  1.00  0.00     0.014 A 
BRANCH  10  15
ATOM     15  C   UNL A   1      29.819  28.157  22.985  1.00  0.00     0.247 A 
ATOM     16  C   UNL A   1      28.635  29.910  23.203  1.00  0.00     0.222 A 
ATOM     17  N   UNL A   1      27.802  28.890  23.197  1.00  0.00    -0.112 NA
ATOM     18  O   UNL A   1      29.942  29.520  23.058  1.00  0.00    -0.420 OA
ATOM     19  N   UNL A   1      28.568  27.756  23.046  1.00  0.00    -0.108 NA
BRANCH  16  20
ATOM     20  C   UNL A   1      28.319  31.354  23.221  1.00  0.00     0.109 C 
ATOM     21  C   UNL A   1      28.514  31.651  20.635  1.00  0.00     0.039 C 
ATOM     22  C   UNL A   1      27.794  31.991  21.940  1.00  0.00     0.127 C 
ATOM     23  O   UNL A   1      27.971  33.410  22.139  1.00  0.00    -0.378 OA
ATOM     24  C   UNL A   1      28.941  33.618  23.184  1.00  0.00     0.161 C 
ATOM     25  C   UNL A   1      29.492  32.254  23.554  1.00  0.00     0.044 C 
ENDBRANCH  16  20
ENDBRANCH  10  15
ENDBRANCH   6   9
ENDBRANCH   4   5
ENDBRANCH   3   4
ENDBRANCH   2   3
ENDBRANCH   1   2
BRANCH   1  26
ATOM     26  C   UNL A   1      31.495  32.156  26.742  1.00  0.00     0.021 C 
BRANCH  26  27
ATOM     27  C   UNL A   1      32.760  32.681  27.413  1.00  0.00     0.116 C 
BRANCH  27  28
ATOM     28  N   UNL A   1      32.698  34.100  27.713  1.00  0.00    -0.352 N 
ATOM     29  C   UNL A   1      33.398  34.819  28.659  1.00  0.00     0.251 C 
ATOM     30  H   UNL A   1      32.069  34.622  27.164  1.00  0.00     0.163 HD
ATOM     31  O   UNL A   1      33.126  35.992  28.862  1.00  0.00    -0.269 OA
BRANCH  29  32
ATOM     32  C   UNL A   1      34.456  34.145  29.450  1.00  0.00     0.039 A 
ATOM     33  C   UNL A   1      34.085  33.312  30.509  1.00  0.00     0.014 A 
ATOM     34  C   UNL A   1      35.805  34.319  29.133  1.00  0.00     0.014 A 
ATOM     35  C   UNL A   1      35.063  32.588  31.199  1.00  0.00     0.010 A 
ATOM     36  C   UNL A   1      36.771  33.552  29.780  1.00  0.00     0.010 A 
ATOM     37  C   UNL A   1      36.410  32.671  30.814  1.00  0.00    -0.014 A 
BRANCH  37  38
ATOM     38  C   UNL A   1      37.472  31.864  31.470  1.00  0.00     0.031 A 
ATOM     39  C   UNL A   1      37.914  32.216  32.864  1.00  0.00     0.074 A 
ATOM     40  C   UNL A   1      38.106  30.891  30.786  1.00  0.00     0.049 A 
ATOM     41  N   UNL A   1      38.948  31.789  33.540  1.00  0.00    -0.248 NA
ATOM     42  C   UNL A   1      37.096  33.210  33.575  1.00  0.00     0.031 C 
ATOM     43  C   UNL A   1      37.776  30.459  29.427  1.00  0.00     0.029 A 
ATOM     44  N   UNL A   1      39.178  30.105  31.132  1.00  0.00    -0.354 N 
ATOM     45  C   UNL A   1      38.922  32.480  34.747  1.00  0.00     0.074 A 
ATOM     46  C   UNL A   1      37.795  33.387  34.685  1.00  0.00     0.031 C 
ATOM     47  C   UNL A   1      38.625  29.487  29.056  1.00  0.00     0.029 A 
ATOM     48  C   UNL A   1      39.594  29.263  30.126  1.00  0.00     0.049 A 
ATOM     49  H   UNL A   1      39.609  30.140  32.016  1.00  0.00     0.167 HD
ATOM     50  C   UNL A   1      39.754  32.360  35.812  1.00  0.00     0.034 A 
ATOM     51  C   UNL A   1      40.652  28.430  30.059  1.00  0.00     0.034 A 
ATOM     52  C   UNL A   1      40.863  31.438  35.863  1.00  0.00     0.049 A 
ATOM     53  C   UNL A   1      41.587  28.337  31.239  1.00  0.00     0.074 A 
ATOM     54  C   UNL A   1      41.751  31.212  36.901  1.00  0.00     0.029 A 
ATOM     55  N   UNL A   1      41.238  30.588  34.830  1.00  0.00    -0.354 N 
ATOM     56  N   UNL A   1      41.550  28.996  32.373  1.00  0.00    -0.248 NA
ATOM     57  C   UNL A   1      42.706  27.390  31.131  1.00  0.00     0.031 C 
ATOM     58  C   UNL A   1      42.694  30.271  36.476  1.00  0.00     0.029 A 
ATOM     59  C   UNL A   1      42.353  29.854  35.200  1.00  0.00     0.049 A 
ATOM     60  H   UNL A   1      40.778  30.518  33.962  1.00  0.00     0.167 HD
ATOM     61  C   UNL A   1      42.612  28.509  33.130  1.00  0.00     0.074 A 
ATOM     62  C   UNL A   1      43.276  27.508  32.323  1.00  0.00     0.031 C 
ATOM     63  C   UNL A   1      42.995  28.850  34.385  1.00  0.00     0.034 A 
BRANCH  50  64
ATOM     64  C   UNL A   1      39.508  33.270  36.991  1.00  0.00     0.023 A 
ATOM     65  C   UNL A   1      40.183  34.495  37.129  1.00  0.00     0.031 A 
ATOM     66  C   UNL A   1      38.611  32.896  38.006  1.00  0.00     0.131 A 
ATOM     67  C   UNL A   1      40.014  35.260  38.292  1.00  0.00     0.055 A 
ATOM     68  C   UNL A   1      38.382  33.704  39.121  1.00  0.00     0.041 A 
ATOM     69  F   UNL A   1      37.951  31.728  37.939  1.00  0.00    -0.206 F 
ATOM     70  C   UNL A   1      39.098  34.887  39.277  1.00  0.00     0.022 A 
BRANCH  67  71
ATOM     71  S   UNL A   1      41.120  36.671  38.565  1.00  0.00     0.124 S 
ATOM     72  O   UNL A   1      41.808  36.758  37.280  1.00  0.00    -0.237 OA
ATOM     73  O   UNL A   1      40.186  37.750  38.864  1.00  0.00    -0.237 OA
ATOM     74  O   UNL A   1      41.956  36.240  39.684  1.00  0.00    -0.744 OA
ENDBRANCH  67  71
ENDBRANCH  50  64
BRANCH  51  75
ATOM     75  C   UNL A   1      40.909  27.631  28.826  1.00  0.00     0.023 A 
ATOM     76  C   UNL A   1      41.943  27.978  27.943  1.00  0.00     0.031 A 
ATOM     77  C   UNL A   1      40.095  26.535  28.491  1.00  0.00     0.131 A 
ATOM     78  C   UNL A   1      42.109  27.266  26.746  1.00  0.00     0.055 A 
ATOM     79  C   UNL A   1      40.300  25.792  27.326  1.00  0.00     0.041 A 
ATOM     80  F   UNL A   1      39.088  26.166  29.299  1.00  0.00    -0.206 F 
ATOM     81  C   UNL A   1      41.304  26.166  26.438  1.00  0.00     0.022 A 
BRANCH  78  82
ATOM     82  S   UNL A   1      43.338  27.858  25.549  1.00  0.00     0.124 S 
ATOM     83  O   UNL A   1      43.658  29.176  26.083  1.00  0.00    -0.237 OA
ATOM     84  O   UNL A   1      44.384  26.847  25.664  1.00  0.00    -0.237 OA
ATOM     85  O   UNL A   1      42.607  27.856  24.283  1.00  0.00    -0.744 OA
ENDBRANCH  78  82
ENDBRANCH  51  75
BRANCH  63  86
ATOM     86  C   UNL A   1      44.137  28.080  34.996  1.00  0.00     0.023 A 
ATOM     87  C   UNL A   1      43.965  26.798  35.544  1.00  0.00     0.031 A 
ATOM     88  C   UNL A   1      45.430  28.636  34.995  1.00  0.00     0.131 A 
ATOM     89  C   UNL A   1      45.066  26.125  36.098  1.00  0.00     0.055 A 
ATOM     90  C   UNL A   1      46.528  27.943  35.504  1.00  0.00     0.041 A 
ATOM     91  F   UNL A   1      45.645  29.858  34.482  1.00  0.00    -0.206 F 
ATOM     92  C   UNL A   1      46.347  26.682  36.065  1.00  0.00     0.022 A 
BRANCH  89  93
ATOM     93  S   UNL A   1      44.798  24.520  36.899  1.00  0.00     0.124 S 
ATOM     94  O   UNL A   1      46.118  23.908  36.800  1.00  0.00    -0.237 OA
ATOM     95  O   UNL A   1      44.373  24.906  38.241  1.00  0.00    -0.237 OA
ATOM     96  O   UNL A   1      43.761  23.895  36.079  1.00  0.00    -0.744 OA
ENDBRANCH  89  93
ENDBRANCH  63  86
ENDBRANCH  37  38
ENDBRANCH  29  32
ENDBRANCH  27  28
ENDBRANCH  26  27
ENDBRANCH   1  26
TORSDOF 18
ENDMDL
