MODEL 1
REMARK VINA RESULT:     -11.9      0.000      0.000
REMARK SMILES C[C@@H]1CCC[C@H](S[C@@H]2CCC[C@]([NH2+]C3CC3)(C(=O)NCCCCCCNC(=O)c3ccc(-c4c5nc(c(-c6cc(S(=O)(=O)[O-])ccc6F)c6ccc([nH]6)c(-c6cc(S(=O)(=O)[O-])ccc6F)c6nc(c(-c7cc(S(=O)(=O)[O-])ccc7F)c7ccc4[nH]7)C=C6)C=C5)cc3)C2)C1
REMARK SMILES IDX 23 1 22 2 21 3 20 4 19 5 17 6 18 7 12 9 8 10 9 11 92 12
REMARK SMILES IDX 10 13 11 14 7 15 6 16 1 17 2 18 3 19 93 20 4 21 5 22 13 23
REMARK SMILES IDX 14 26 15 27 16 28 24 29 25 30 26 31 27 32 28 34 29 35 30 36
REMARK SMILES IDX 91 37 31 38 90 39 32 40 33 41 34 42 84 43 35 44 89 45 83 46
REMARK SMILES IDX 85 47 36 48 88 49 82 50 81 51 37 53 69 54 49 55 68 56 50 57
REMARK SMILES IDX 53 58 67 59 86 60 51 61 52 62 66 64 87 65 54 66 38 67 39 68
REMARK SMILES IDX 47 69 40 70 46 71 48 72 45 73 41 74 42 75 43 76 44 77 70 78
REMARK SMILES IDX 71 79 79 80 72 81 78 82 80 83 77 84 73 85 74 86 75 87 76 88
REMARK SMILES IDX 55 89 56 90 64 91 57 92 63 93 65 94 62 95 58 96 59 97 60 98
REMARK SMILES IDX 61 99
REMARK H PARENT 19 8 13 24 13 25 26 33 85 52 53 63
REMARK Flexibility Score: inf
ROOT
ATOM      1  C   UNL A   1      31.744  30.327  26.087  1.00  0.00     0.002 C 
ENDROOT
BRANCH   1   2
ATOM      2  C   UNL A   1      31.797  29.305  27.226  1.00  0.00     0.002 C 
BRANCH   2   3
ATOM      3  C   UNL A   1      32.399  27.948  26.855  1.00  0.00     0.021 C 
BRANCH   3   4
ATOM      4  C   UNL A   1      31.494  27.050  26.019  1.00  0.00     0.116 C 
BRANCH   4   5
ATOM      5  N   UNL A   1      31.150  25.818  26.699  1.00  0.00    -0.351 N 
ATOM      6  C   UNL A   1      31.551  24.527  26.523  1.00  0.00     0.281 C 
ATOM      7  O   UNL A   1      31.058  23.711  27.311  1.00  0.00    -0.268 OA
ATOM      8  H   UNL A   1      30.501  25.936  27.429  1.00  0.00     0.163 HD
BRANCH   6   9
ATOM      9  C   UNL A   1      32.590  24.102  25.432  1.00  0.00     0.176 C 
ATOM     10  C   UNL A   1      34.228  22.149  24.837  1.00  0.00     0.053 C 
ATOM     11  C   UNL A   1      35.447  23.059  24.959  1.00  0.00     0.015 C 
ATOM     12  C   UNL A   1      32.988  22.611  25.594  1.00  0.00     0.093 C 
ATOM     13  C   UNL A   1      35.068  24.529  24.810  1.00  0.00     0.008 C 
ATOM     14  C   UNL A   1      33.890  24.919  25.698  1.00  0.00     0.079 C 
BRANCH  10  15
ATOM     15  S   UNL A   1      34.590  20.337  25.049  1.00  0.00    -0.155 SA
BRANCH  15  16
ATOM     16  C   UNL A   1      33.056  19.308  24.847  1.00  0.00     0.047 C 
ATOM     17  C   UNL A   1      34.923  16.339  25.155  1.00  0.00     0.007 C 
ATOM     18  C   UNL A   1      33.493  16.732  24.771  1.00  0.00    -0.013 C 
ATOM     19  C   UNL A   1      33.193  16.778  23.257  1.00  0.00     0.003 C 
ATOM     20  C   UNL A   1      33.043  17.955  25.574  1.00  0.00     0.017 C 
ATOM     21  C   UNL A   1      32.875  18.123  22.597  1.00  0.00     0.001 C 
ATOM     22  C   UNL A   1      32.336  19.202  23.514  1.00  0.00     0.014 C 
ENDBRANCH  15  16
ENDBRANCH  10  15
BRANCH   9  23
ATOM     23  N   UNL A   1      32.049  24.344  24.077  1.00  0.00    -0.331 N 
ATOM     24  H   UNL A   1      31.035  24.390  24.180  1.00  0.00     0.347 HD
ATOM     25  H   UNL A   1      32.466  23.580  23.546  1.00  0.00     0.347 HD
BRANCH  23  26
ATOM     26  C   UNL A   1      32.430  25.517  23.269  1.00  0.00     0.183 C 
ATOM     27  C   UNL A   1      32.747  25.561  21.800  1.00  0.00     0.071 C 
ATOM     28  C   UNL A   1      31.469  26.154  22.296  1.00  0.00     0.071 C 
ENDBRANCH  23  26
ENDBRANCH   9  23
ENDBRANCH   6   9
ENDBRANCH   4   5
ENDBRANCH   3   4
ENDBRANCH   2   3
ENDBRANCH   1   2
BRANCH   1  29
ATOM     29  C   UNL A   1      31.606  31.789  26.520  1.00  0.00     0.021 C 
BRANCH  29  30
ATOM     30  C   UNL A   1      32.787  32.346  27.304  1.00  0.00     0.116 C 
BRANCH  30  31
ATOM     31  N   UNL A   1      32.617  33.749  27.620  1.00  0.00    -0.352 N 
ATOM     32  C   UNL A   1      33.212  34.495  28.604  1.00  0.00     0.251 C 
ATOM     33  H   UNL A   1      31.983  34.237  27.045  1.00  0.00     0.163 HD
ATOM     34  O   UNL A   1      32.783  35.616  28.854  1.00  0.00    -0.269 OA
BRANCH  32  35
ATOM     35  C   UNL A   1      34.345  33.935  29.377  1.00  0.00     0.039 A 
ATOM     36  C   UNL A   1      34.066  33.025  30.399  1.00  0.00     0.014 A 
ATOM     37  C   UNL A   1      35.667  34.307  29.114  1.00  0.00     0.014 A 
ATOM     38  C   UNL A   1      35.114  32.459  31.124  1.00  0.00     0.010 A 
ATOM     39  C   UNL A   1      36.717  33.677  29.782  1.00  0.00     0.010 A 
ATOM     40  C   UNL A   1      36.450  32.755  30.803  1.00  0.00    -0.014 A 
BRANCH  40  41
ATOM     41  C   UNL A   1      37.558  32.087  31.536  1.00  0.00     0.031 A 
ATOM     42  C   UNL A   1      38.339  30.970  30.903  1.00  0.00     0.074 A 
ATOM     43  C   UNL A   1      37.852  32.494  32.786  1.00  0.00     0.049 A 
ATOM     44  N   UNL A   1      39.386  30.330  31.360  1.00  0.00    -0.248 NA
ATOM     45  C   UNL A   1      37.867  30.490  29.597  1.00  0.00     0.031 C 
ATOM     46  C   UNL A   1      37.124  33.526  33.528  1.00  0.00     0.029 A 
ATOM     47  N   UNL A   1      38.849  32.109  33.645  1.00  0.00    -0.354 N 
ATOM     48  C   UNL A   1      39.700  29.376  30.398  1.00  0.00     0.074 A 
ATOM     49  C   UNL A   1      38.680  29.470  29.375  1.00  0.00     0.031 C 
ATOM     50  C   UNL A   1      37.737  33.736  34.703  1.00  0.00     0.029 A 
ATOM     51  C   UNL A   1      38.874  32.829  34.817  1.00  0.00     0.049 A 
ATOM     52  H   UNL A   1      39.486  31.385  33.443  1.00  0.00     0.167 HD
ATOM     53  C   UNL A   1      40.757  28.525  30.356  1.00  0.00     0.034 A 
ATOM     54  C   UNL A   1      39.725  32.776  35.859  1.00  0.00     0.034 A 
ATOM     55  C   UNL A   1      41.756  28.438  31.396  1.00  0.00     0.049 A 
ATOM     56  C   UNL A   1      40.879  31.812  35.803  1.00  0.00     0.074 A 
ATOM     57  C   UNL A   1      42.892  27.648  31.441  1.00  0.00     0.029 A 
ATOM     58  N   UNL A   1      41.732  29.158  32.586  1.00  0.00    -0.354 N 
ATOM     59  N   UNL A   1      41.206  30.964  34.853  1.00  0.00    -0.248 NA
ATOM     60  C   UNL A   1      41.788  31.811  36.954  1.00  0.00     0.031 C 
ATOM     61  C   UNL A   1      43.506  27.830  32.687  1.00  0.00     0.029 A 
ATOM     62  C   UNL A   1      42.808  28.801  33.388  1.00  0.00     0.049 A 
ATOM     63  H   UNL A   1      41.049  29.825  32.826  1.00  0.00     0.167 HD
ATOM     64  C   UNL A   1      42.377  30.345  35.286  1.00  0.00     0.074 A 
ATOM     65  C   UNL A   1      42.707  30.942  36.565  1.00  0.00     0.031 C 
ATOM     66  C   UNL A   1      43.109  29.373  34.682  1.00  0.00     0.034 A 
BRANCH  53  67
ATOM     67  C   UNL A   1      40.852  27.603  29.157  1.00  0.00     0.023 A 
ATOM     68  C   UNL A   1      41.791  27.818  28.132  1.00  0.00     0.031 A 
ATOM     69  C   UNL A   1      39.956  26.530  29.004  1.00  0.00     0.131 A 
ATOM     70  C   UNL A   1      41.745  27.047  26.960  1.00  0.00     0.055 A 
ATOM     71  C   UNL A   1      39.980  25.703  27.878  1.00  0.00     0.041 A 
ATOM     72  F   UNL A   1      39.020  26.281  29.933  1.00  0.00    -0.206 F 
ATOM     73  C   UNL A   1      40.863  25.973  26.837  1.00  0.00     0.022 A 
BRANCH  70  74
ATOM     74  S   UNL A   1      42.717  27.593  25.528  1.00  0.00     0.124 S 
ATOM     75  O   UNL A   1      44.010  27.887  26.143  1.00  0.00    -0.237 OA
ATOM     76  O   UNL A   1      42.675  26.426  24.655  1.00  0.00    -0.237 OA
ATOM     77  O   UNL A   1      41.987  28.763  25.045  1.00  0.00    -0.744 OA
ENDBRANCH  70  74
ENDBRANCH  53  67
BRANCH  54  78
ATOM     78  C   UNL A   1      39.534  33.681  37.028  1.00  0.00     0.023 A 
ATOM     79  C   UNL A   1      38.901  33.227  38.197  1.00  0.00     0.031 A 
ATOM     80  C   UNL A   1      39.972  35.016  36.990  1.00  0.00     0.131 A 
ATOM     81  C   UNL A   1      38.691  34.112  39.265  1.00  0.00     0.055 A 
ATOM     82  C   UNL A   1      39.807  35.878  38.075  1.00  0.00     0.041 A 
ATOM     83  F   UNL A   1      40.590  35.496  35.898  1.00  0.00    -0.206 F 
ATOM     84  C   UNL A   1      39.154  35.429  39.218  1.00  0.00     0.022 A 
BRANCH  81  85
ATOM     85  S   UNL A   1      37.752  33.531  40.704  1.00  0.00     0.124 S 
ATOM     86  O   UNL A   1      36.800  32.614  40.087  1.00  0.00    -0.237 OA
ATOM     87  O   UNL A   1      38.794  32.921  41.522  1.00  0.00    -0.237 OA
ATOM     88  O   UNL A   1      37.173  34.757  41.250  1.00  0.00    -0.744 OA
ENDBRANCH  81  85
ENDBRANCH  54  78
BRANCH  66  89
ATOM     89  C   UNL A   1      44.357  28.920  35.406  1.00  0.00     0.023 A 
ATOM     90  C   UNL A   1      44.308  27.939  36.414  1.00  0.00     0.031 A 
ATOM     91  C   UNL A   1      45.600  29.515  35.130  1.00  0.00     0.131 A 
ATOM     92  C   UNL A   1      45.455  27.654  37.171  1.00  0.00     0.055 A 
ATOM     93  C   UNL A   1      46.756  29.168  35.832  1.00  0.00     0.041 A 
ATOM     94  F   UNL A   1      45.711  30.459  34.182  1.00  0.00    -0.206 F 
ATOM     95  C   UNL A   1      46.683  28.249  36.873  1.00  0.00     0.022 A 
BRANCH  92  96
ATOM     96  S   UNL A   1      45.283  26.612  38.646  1.00  0.00     0.124 S 
ATOM     97  O   UNL A   1      44.606  25.436  38.109  1.00  0.00    -0.237 OA
ATOM     98  O   UNL A   1      46.670  26.417  39.053  1.00  0.00    -0.237 OA
ATOM     99  O   UNL A   1      44.479  27.430  39.552  1.00  0.00    -0.744 OA
ENDBRANCH  92  96
ENDBRANCH  66  89
ENDBRANCH  40  41
ENDBRANCH  32  35
ENDBRANCH  30  31
ENDBRANCH  29  30
ENDBRANCH   1  29
TORSDOF 20
ENDMDL
MODEL 2
REMARK VINA RESULT:     -11.8      1.665      7.580
REMARK SMILES C[C@@H]1CCC[C@H](S[C@@H]2CCC[C@]([NH2+]C3CC3)(C(=O)NCCCCCCNC(=O)c3ccc(-c4c5nc(c(-c6cc(S(=O)(=O)[O-])ccc6F)c6ccc([nH]6)c(-c6cc(S(=O)(=O)[O-])ccc6F)c6nc(c(-c7cc(S(=O)(=O)[O-])ccc7F)c7ccc4[nH]7)C=C6)C=C5)cc3)C2)C1
REMARK SMILES IDX 23 1 22 2 21 3 20 4 19 5 17 6 18 7 12 9 8 10 9 11 92 12
REMARK SMILES IDX 10 13 11 14 7 15 6 16 1 17 2 18 3 19 93 20 4 21 5 22 13 23
REMARK SMILES IDX 14 26 15 27 16 28 24 29 25 30 26 31 27 32 28 34 29 35 30 36
REMARK SMILES IDX 91 37 31 38 90 39 32 40 33 41 34 42 84 43 35 44 89 45 83 46
REMARK SMILES IDX 85 47 36 48 88 49 82 50 81 51 37 53 69 54 49 55 68 56 50 57
REMARK SMILES IDX 53 58 67 59 86 60 51 61 52 62 66 64 87 65 54 66 38 67 39 68
REMARK SMILES IDX 47 69 40 70 46 71 48 72 45 73 41 74 42 75 43 76 44 77 70 78
REMARK SMILES IDX 71 79 79 80 72 81 78 82 80 83 77 84 73 85 74 86 75 87 76 88
REMARK SMILES IDX 55 89 56 90 64 91 57 92 63 93 65 94 62 95 58 96 59 97 60 98
REMARK SMILES IDX 61 99
REMARK H PARENT 19 8 13 24 13 25 26 33 85 52 53 63
REMARK Flexibility Score: inf
ROOT
ATOM      1  C   UNL A   1      31.644  30.186  26.095  1.00  0.00     0.002 C 
ENDROOT
BRANCH   1   2
ATOM      2  C   UNL A   1      31.949  29.176  27.205  1.00  0.00     0.002 C 
BRANCH   2   3
ATOM      3  C   UNL A   1      32.511  27.835  26.729  1.00  0.00     0.021 C 
BRANCH   3   4
ATOM      4  C   UNL A   1      31.501  26.920  26.047  1.00  0.00     0.116 C 
BRANCH   4   5
ATOM      5  N   UNL A   1      31.258  25.703  26.793  1.00  0.00    -0.351 N 
ATOM      6  C   UNL A   1      31.714  24.427  26.647  1.00  0.00     0.281 C 
ATOM      7  O   UNL A   1      31.307  23.623  27.493  1.00  0.00    -0.268 OA
ATOM      8  H   UNL A   1      30.645  25.820  27.553  1.00  0.00     0.163 HD
BRANCH   6   9
ATOM      9  C   UNL A   1      32.712  24.007  25.517  1.00  0.00     0.176 C 
ATOM     10  C   UNL A   1      34.304  22.042  24.838  1.00  0.00     0.053 C 
ATOM     11  C   UNL A   1      35.538  22.934  24.937  1.00  0.00     0.015 C 
ATOM     12  C   UNL A   1      33.094  22.508  25.642  1.00  0.00     0.093 C 
ATOM     13  C   UNL A   1      35.175  24.411  24.824  1.00  0.00     0.008 C 
ATOM     14  C   UNL A   1      34.031  24.801  25.755  1.00  0.00     0.079 C 
BRANCH  10  15
ATOM     15  S   UNL A   1      34.647  20.223  25.008  1.00  0.00    -0.155 SA
BRANCH  15  16
ATOM     16  C   UNL A   1      33.095  19.217  24.822  1.00  0.00     0.047 C 
ATOM     17  C   UNL A   1      34.886  16.230  25.340  1.00  0.00     0.007 C 
ATOM     18  C   UNL A   1      33.476  16.631  24.897  1.00  0.00    -0.013 C 
ATOM     19  C   UNL A   1      33.215  16.601  23.375  1.00  0.00     0.003 C 
ATOM     20  C   UNL A   1      33.033  17.906  25.620  1.00  0.00     0.017 C 
ATOM     21  C   UNL A   1      32.945  17.914  22.636  1.00  0.00     0.001 C 
ATOM     22  C   UNL A   1      32.407  19.054  23.477  1.00  0.00     0.014 C 
ENDBRANCH  15  16
ENDBRANCH  10  15
BRANCH   9  23
ATOM     23  N   UNL A   1      32.132  24.279  24.184  1.00  0.00    -0.331 N 
ATOM     24  H   UNL A   1      31.194  24.643  24.351  1.00  0.00     0.347 HD
ATOM     25  H   UNL A   1      32.247  23.379  23.718  1.00  0.00     0.347 HD
BRANCH  23  26
ATOM     26  C   UNL A   1      32.761  25.200  23.219  1.00  0.00     0.183 C 
ATOM     27  C   UNL A   1      32.834  25.059  21.723  1.00  0.00     0.071 C 
ATOM     28  C   UNL A   1      31.937  26.092  22.323  1.00  0.00     0.071 C 
ENDBRANCH  23  26
ENDBRANCH   9  23
ENDBRANCH   6   9
ENDBRANCH   4   5
ENDBRANCH   3   4
ENDBRANCH   2   3
ENDBRANCH   1   2
BRANCH   1  29
ATOM     29  C   UNL A   1      31.537  31.645  26.543  1.00  0.00     0.021 C 
BRANCH  29  30
ATOM     30  C   UNL A   1      32.800  32.226  27.165  1.00  0.00     0.116 C 
BRANCH  30  31
ATOM     31  N   UNL A   1      32.604  33.584  27.627  1.00  0.00    -0.352 N 
ATOM     32  C   UNL A   1      33.274  34.273  28.605  1.00  0.00     0.251 C 
ATOM     33  H   UNL A   1      31.885  34.084  27.176  1.00  0.00     0.163 HD
ATOM     34  O   UNL A   1      32.826  35.342  29.005  1.00  0.00    -0.269 OA
BRANCH  32  35
ATOM     35  C   UNL A   1      34.514  33.712  29.191  1.00  0.00     0.039 A 
ATOM     36  C   UNL A   1      34.397  32.704  30.151  1.00  0.00     0.014 A 
ATOM     37  C   UNL A   1      35.778  34.178  28.817  1.00  0.00     0.014 A 
ATOM     38  C   UNL A   1      35.547  32.136  30.698  1.00  0.00     0.010 A 
ATOM     39  C   UNL A   1      36.926  33.552  29.302  1.00  0.00     0.010 A 
ATOM     40  C   UNL A   1      36.822  32.532  30.257  1.00  0.00    -0.014 A 
BRANCH  40  41
ATOM     41  C   UNL A   1      38.036  31.865  30.797  1.00  0.00     0.031 A 
ATOM     42  C   UNL A   1      38.557  32.201  32.166  1.00  0.00     0.074 A 
ATOM     43  C   UNL A   1      38.672  30.953  30.037  1.00  0.00     0.049 A 
ATOM     44  N   UNL A   1      39.550  31.662  32.828  1.00  0.00    -0.248 NA
ATOM     45  C   UNL A   1      37.894  33.305  32.873  1.00  0.00     0.031 C 
ATOM     46  C   UNL A   1      38.297  30.589  28.668  1.00  0.00     0.029 A 
ATOM     47  N   UNL A   1      39.751  30.151  30.309  1.00  0.00    -0.354 N 
ATOM     48  C   UNL A   1      39.628  32.358  34.030  1.00  0.00     0.074 A 
ATOM     49  C   UNL A   1      38.636  33.410  33.964  1.00  0.00     0.031 C 
ATOM     50  C   UNL A   1      39.089  29.592  28.246  1.00  0.00     0.029 A 
ATOM     51  C   UNL A   1      40.054  29.274  29.293  1.00  0.00     0.049 A 
ATOM     52  H   UNL A   1      40.259  30.198  31.151  1.00  0.00     0.167 HD
ATOM     53  C   UNL A   1      40.430  32.122  35.101  1.00  0.00     0.034 A 
ATOM     54  C   UNL A   1      40.994  28.312  29.219  1.00  0.00     0.034 A 
ATOM     55  C   UNL A   1      41.425  31.074  35.139  1.00  0.00     0.049 A 
ATOM     56  C   UNL A   1      41.886  28.078  30.408  1.00  0.00     0.074 A 
ATOM     57  C   UNL A   1      42.261  30.712  36.181  1.00  0.00     0.029 A 
ATOM     58  N   UNL A   1      41.730  30.226  34.079  1.00  0.00    -0.354 N 
ATOM     59  N   UNL A   1      41.902  28.697  31.568  1.00  0.00    -0.248 NA
ATOM     60  C   UNL A   1      42.876  27.003  30.282  1.00  0.00     0.031 C 
ATOM     61  C   UNL A   1      43.122  29.706  35.726  1.00  0.00     0.029 A 
ATOM     62  C   UNL A   1      42.768  29.373  34.429  1.00  0.00     0.049 A 
ATOM     63  H   UNL A   1      41.276  30.231  33.206  1.00  0.00     0.167 HD
ATOM     64  C   UNL A   1      42.891  28.066  32.319  1.00  0.00     0.074 A 
ATOM     65  C   UNL A   1      43.423  27.004  31.487  1.00  0.00     0.031 C 
ATOM     66  C   UNL A   1      43.320  28.340  33.578  1.00  0.00     0.034 A 
BRANCH  53  67
ATOM     67  C   UNL A   1      40.275  33.042  36.294  1.00  0.00     0.023 A 
ATOM     68  C   UNL A   1      39.555  32.653  37.439  1.00  0.00     0.031 A 
ATOM     69  C   UNL A   1      40.801  34.346  36.269  1.00  0.00     0.131 A 
ATOM     70  C   UNL A   1      39.290  33.584  38.455  1.00  0.00     0.055 A 
ATOM     71  C   UNL A   1      40.619  35.237  37.330  1.00  0.00     0.041 A 
ATOM     72  F   UNL A   1      41.481  34.789  35.200  1.00  0.00    -0.206 F 
ATOM     73  C   UNL A   1      39.840  34.866  38.422  1.00  0.00     0.022 A 
BRANCH  70  74
ATOM     74  S   UNL A   1      38.060  33.156  39.719  1.00  0.00     0.124 S 
ATOM     75  O   UNL A   1      38.639  31.946  40.298  1.00  0.00    -0.237 OA
ATOM     76  O   UNL A   1      38.061  34.338  40.573  1.00  0.00    -0.237 OA
ATOM     77  O   UNL A   1      36.837  32.943  38.948  1.00  0.00    -0.744 OA
ENDBRANCH  70  74
ENDBRANCH  53  67
BRANCH  54  78
ATOM     78  C   UNL A   1      41.119  27.481  27.988  1.00  0.00     0.023 A 
ATOM     79  C   UNL A   1      40.654  26.156  27.959  1.00  0.00     0.031 A 
ATOM     80  C   UNL A   1      41.716  27.997  26.824  1.00  0.00     0.131 A 
ATOM     81  C   UNL A   1      40.827  25.381  26.802  1.00  0.00     0.055 A 
ATOM     82  C   UNL A   1      41.839  27.238  25.660  1.00  0.00     0.041 A 
ATOM     83  F   UNL A   1      42.170  29.261  26.798  1.00  0.00    -0.206 F 
ATOM     84  C   UNL A   1      41.402  25.918  25.648  1.00  0.00     0.022 A 
BRANCH  81  85
ATOM     85  S   UNL A   1      40.337  23.635  26.845  1.00  0.00     0.124 S 
ATOM     86  O   UNL A   1      40.484  23.319  28.260  1.00  0.00    -0.237 OA
ATOM     87  O   UNL A   1      38.970  23.690  26.336  1.00  0.00    -0.237 OA
ATOM     88  O   UNL A   1      41.303  22.990  25.958  1.00  0.00    -0.744 OA
ENDBRANCH  81  85
ENDBRANCH  54  78
BRANCH  66  89
ATOM     89  C   UNL A   1      44.411  27.449  34.129  1.00  0.00     0.023 A 
ATOM     90  C   UNL A   1      44.156  26.117  34.501  1.00  0.00     0.031 A 
ATOM     91  C   UNL A   1      45.705  27.954  34.342  1.00  0.00     0.131 A 
ATOM     92  C   UNL A   1      45.149  25.368  35.151  1.00  0.00     0.055 A 
ATOM     93  C   UNL A   1      46.714  27.177  34.916  1.00  0.00     0.041 A 
ATOM     94  F   UNL A   1      46.011  29.219  34.011  1.00  0.00    -0.206 F 
ATOM     95  C   UNL A   1      46.432  25.883  35.343  1.00  0.00     0.022 A 
BRANCH  92  96
ATOM     96  S   UNL A   1      44.693  23.769  35.878  1.00  0.00     0.124 S 
ATOM     97  O   UNL A   1      43.258  23.716  35.617  1.00  0.00    -0.237 OA
ATOM     98  O   UNL A   1      45.514  22.835  35.116  1.00  0.00    -0.237 OA
ATOM     99  O   UNL A   1      45.062  23.915  37.285  1.00  0.00    -0.744 OA
ENDBRANCH  92  96
ENDBRANCH  66  89
ENDBRANCH  40  41
ENDBRANCH  32  35
ENDBRANCH  30  31
ENDBRANCH  29  30
ENDBRANCH   1  29
TORSDOF 20
ENDMDL
MODEL 3
REMARK VINA RESULT:     -11.4      1.602      7.571
REMARK SMILES C[C@@H]1CCC[C@H](S[C@@H]2CCC[C@]([NH2+]C3CC3)(C(=O)NCCCCCCNC(=O)c3ccc(-c4c5nc(c(-c6cc(S(=O)(=O)[O-])ccc6F)c6ccc([nH]6)c(-c6cc(S(=O)(=O)[O-])ccc6F)c6nc(c(-c7cc(S(=O)(=O)[O-])ccc7F)c7ccc4[nH]7)C=C6)C=C5)cc3)C2)C1
REMARK SMILES IDX 23 1 22 2 21 3 20 4 19 5 17 6 18 7 12 9 8 10 9 11 92 12
REMARK SMILES IDX 10 13 11 14 7 15 6 16 1 17 2 18 3 19 93 20 4 21 5 22 13 23
REMARK SMILES IDX 14 26 15 27 16 28 24 29 25 30 26 31 27 32 28 34 29 35 30 36
REMARK SMILES IDX 91 37 31 38 90 39 32 40 33 41 34 42 84 43 35 44 89 45 83 46
REMARK SMILES IDX 85 47 36 48 88 49 82 50 81 51 37 53 69 54 49 55 68 56 50 57
REMARK SMILES IDX 53 58 67 59 86 60 51 61 52 62 66 64 87 65 54 66 38 67 39 68
REMARK SMILES IDX 47 69 40 70 46 71 48 72 45 73 41 74 42 75 43 76 44 77 70 78
REMARK SMILES IDX 71 79 79 80 72 81 78 82 80 83 77 84 73 85 74 86 75 87 76 88
REMARK SMILES IDX 55 89 56 90 64 91 57 92 63 93 65 94 62 95 58 96 59 97 60 98
REMARK SMILES IDX 61 99
REMARK H PARENT 19 8 13 24 13 25 26 33 85 52 53 63
REMARK Flexibility Score: inf
ROOT
ATOM      1  C   UNL A   1      31.539  30.618  26.136  1.00  0.00     0.002 C 
ENDROOT
BRANCH   1   2
ATOM      2  C   UNL A   1      32.260  29.661  27.089  1.00  0.00     0.002 C 
BRANCH   2   3
ATOM      3  C   UNL A   1      32.681  28.324  26.474  1.00  0.00     0.021 C 
BRANCH   3   4
ATOM      4  C   UNL A   1      31.548  27.522  25.844  1.00  0.00     0.116 C 
BRANCH   4   5
ATOM      5  N   UNL A   1      31.255  26.305  26.572  1.00  0.00    -0.351 N 
ATOM      6  C   UNL A   1      31.574  24.998  26.347  1.00  0.00     0.281 C 
ATOM      7  O   UNL A   1      31.166  24.203  27.201  1.00  0.00    -0.268 OA
ATOM      8  H   UNL A   1      30.723  26.448  27.386  1.00  0.00     0.163 HD
BRANCH   6   9
ATOM      9  C   UNL A   1      32.427  24.533  25.120  1.00  0.00     0.176 C 
ATOM     10  C   UNL A   1      33.272  22.352  23.944  1.00  0.00     0.053 C 
ATOM     11  C   UNL A   1      34.731  22.703  24.218  1.00  0.00     0.015 C 
ATOM     12  C   UNL A   1      32.256  23.011  24.871  1.00  0.00     0.093 C 
ATOM     13  C   UNL A   1      34.913  24.195  24.474  1.00  0.00     0.008 C 
ATOM     14  C   UNL A   1      33.924  24.732  25.504  1.00  0.00     0.079 C 
BRANCH  10  15
ATOM     15  S   UNL A   1      32.950  20.542  23.662  1.00  0.00    -0.155 SA
BRANCH  15  16
ATOM     16  C   UNL A   1      33.790  19.493  24.945  1.00  0.00     0.047 C 
ATOM     17  C   UNL A   1      34.118  16.836  22.659  1.00  0.00     0.007 C 
ATOM     18  C   UNL A   1      34.320  17.056  24.162  1.00  0.00    -0.013 C 
ATOM     19  C   UNL A   1      33.174  16.568  25.073  1.00  0.00     0.003 C 
ATOM     20  C   UNL A   1      34.821  18.479  24.428  1.00  0.00     0.017 C 
ATOM     21  C   UNL A   1      32.351  17.596  25.856  1.00  0.00     0.001 C 
ATOM     22  C   UNL A   1      33.030  18.922  26.130  1.00  0.00     0.014 C 
ENDBRANCH  15  16
ENDBRANCH  10  15
BRANCH   9  23
ATOM     23  N   UNL A   1      32.056  25.296  23.909  1.00  0.00    -0.331 N 
ATOM     24  H   UNL A   1      31.918  26.260  24.212  1.00  0.00     0.347 HD
ATOM     25  H   UNL A   1      31.262  24.760  23.559  1.00  0.00     0.347 HD
BRANCH  23  26
ATOM     26  C   UNL A   1      32.923  25.363  22.719  1.00  0.00     0.183 C 
ATOM     27  C   UNL A   1      32.531  25.718  21.311  1.00  0.00     0.071 C 
ATOM     28  C   UNL A   1      33.340  26.682  22.115  1.00  0.00     0.071 C 
ENDBRANCH  23  26
ENDBRANCH   9  23
ENDBRANCH   6   9
ENDBRANCH   4   5
ENDBRANCH   3   4
ENDBRANCH   2   3
ENDBRANCH   1   2
BRANCH   1  29
ATOM     29  C   UNL A   1      31.495  32.082  26.581  1.00  0.00     0.021 C 
BRANCH  29  30
ATOM     30  C   UNL A   1      32.806  32.633  27.126  1.00  0.00     0.116 C 
BRANCH  30  31
ATOM     31  N   UNL A   1      32.634  33.931  27.744  1.00  0.00    -0.352 N 
ATOM     32  C   UNL A   1      33.275  34.466  28.833  1.00  0.00     0.251 C 
ATOM     33  H   UNL A   1      31.961  34.514  27.323  1.00  0.00     0.163 HD
ATOM     34  O   UNL A   1      32.846  35.496  29.340  1.00  0.00    -0.269 OA
BRANCH  32  35
ATOM     35  C   UNL A   1      34.459  33.783  29.405  1.00  0.00     0.039 A 
ATOM     36  C   UNL A   1      35.727  34.183  28.977  1.00  0.00     0.014 A 
ATOM     37  C   UNL A   1      34.330  32.751  30.340  1.00  0.00     0.014 A 
ATOM     38  C   UNL A   1      36.861  33.580  29.520  1.00  0.00     0.010 A 
ATOM     39  C   UNL A   1      35.464  32.208  30.942  1.00  0.00     0.010 A 
ATOM     40  C   UNL A   1      36.742  32.608  30.530  1.00  0.00    -0.014 A 
BRANCH  40  41
ATOM     41  C   UNL A   1      37.961  32.027  31.151  1.00  0.00     0.031 A 
ATOM     42  C   UNL A   1      38.427  32.478  32.507  1.00  0.00     0.074 A 
ATOM     43  C   UNL A   1      38.652  31.087  30.476  1.00  0.00     0.049 A 
ATOM     44  N   UNL A   1      39.417  32.025  33.234  1.00  0.00    -0.248 NA
ATOM     45  C   UNL A   1      37.704  33.604  33.113  1.00  0.00     0.031 C 
ATOM     46  C   UNL A   1      38.332  30.613  29.127  1.00  0.00     0.029 A 
ATOM     47  N   UNL A   1      39.749  30.347  30.837  1.00  0.00    -0.354 N 
ATOM     48  C   UNL A   1      39.433  32.807  34.384  1.00  0.00     0.074 A 
ATOM     49  C   UNL A   1      38.407  33.814  34.214  1.00  0.00     0.031 C 
ATOM     50  C   UNL A   1      39.173  29.620  28.802  1.00  0.00     0.029 A 
ATOM     51  C   UNL A   1      40.115  29.413  29.895  1.00  0.00     0.049 A 
ATOM     52  H   UNL A   1      40.229  30.473  31.687  1.00  0.00     0.167 HD
ATOM     53  C   UNL A   1      40.209  32.677  35.492  1.00  0.00     0.034 A 
ATOM     54  C   UNL A   1      41.089  28.483  29.918  1.00  0.00     0.034 A 
ATOM     55  C   UNL A   1      41.238  31.673  35.634  1.00  0.00     0.049 A 
ATOM     56  C   UNL A   1      41.952  28.368  31.146  1.00  0.00     0.074 A 
ATOM     57  C   UNL A   1      42.054  31.417  36.723  1.00  0.00     0.029 A 
ATOM     58  N   UNL A   1      41.606  30.764  34.647  1.00  0.00    -0.354 N 
ATOM     59  N   UNL A   1      41.909  29.067  32.258  1.00  0.00    -0.248 NA
ATOM     60  C   UNL A   1      42.982  27.324  31.126  1.00  0.00     0.031 C 
ATOM     61  C   UNL A   1      42.963  30.414  36.366  1.00  0.00     0.029 A 
ATOM     62  C   UNL A   1      42.661  29.976  35.086  1.00  0.00     0.049 A 
ATOM     63  H   UNL A   1      41.179  30.690  33.763  1.00  0.00     0.167 HD
ATOM     64  C   UNL A   1      42.896  28.529  33.081  1.00  0.00     0.074 A 
ATOM     65  C   UNL A   1      43.490  27.431  32.343  1.00  0.00     0.031 C 
ATOM     66  C   UNL A   1      43.276  28.907  34.329  1.00  0.00     0.034 A 
BRANCH  53  67
ATOM     67  C   UNL A   1      39.984  33.673  36.611  1.00  0.00     0.023 A 
ATOM     68  C   UNL A   1      40.863  34.750  36.828  1.00  0.00     0.031 A 
ATOM     69  C   UNL A   1      38.913  33.515  37.508  1.00  0.00     0.131 A 
ATOM     70  C   UNL A   1      40.721  35.557  37.968  1.00  0.00     0.055 A 
ATOM     71  C   UNL A   1      38.719  34.383  38.586  1.00  0.00     0.041 A 
ATOM     72  F   UNL A   1      38.049  32.497  37.372  1.00  0.00    -0.206 F 
ATOM     73  C   UNL A   1      39.639  35.398  38.835  1.00  0.00     0.022 A 
BRANCH  70  74
ATOM     74  S   UNL A   1      42.075  36.683  38.404  1.00  0.00     0.124 S 
ATOM     75  O   UNL A   1      41.354  37.772  39.060  1.00  0.00    -0.237 OA
ATOM     76  O   UNL A   1      42.908  35.856  39.268  1.00  0.00    -0.237 OA
ATOM     77  O   UNL A   1      42.663  37.028  37.111  1.00  0.00    -0.744 OA
ENDBRANCH  70  74
ENDBRANCH  53  67
BRANCH  54  78
ATOM     78  C   UNL A   1      41.282  27.573  28.754  1.00  0.00     0.023 A 
ATOM     79  C   UNL A   1      42.271  27.831  27.791  1.00  0.00     0.031 A 
ATOM     80  C   UNL A   1      40.471  26.438  28.580  1.00  0.00     0.131 A 
ATOM     81  C   UNL A   1      42.401  26.984  26.679  1.00  0.00     0.055 A 
ATOM     82  C   UNL A   1      40.638  25.570  27.500  1.00  0.00     0.041 A 
ATOM     83  F   UNL A   1      39.516  26.143  29.477  1.00  0.00    -0.206 F 
ATOM     84  C   UNL A   1      41.602  25.848  26.536  1.00  0.00     0.022 A 
BRANCH  81  85
ATOM     85  S   UNL A   1      43.597  27.422  25.388  1.00  0.00     0.124 S 
ATOM     86  O   UNL A   1      42.722  27.854  24.306  1.00  0.00    -0.237 OA
ATOM     87  O   UNL A   1      44.379  28.467  26.040  1.00  0.00    -0.237 OA
ATOM     88  O   UNL A   1      44.314  26.170  25.151  1.00  0.00    -0.744 OA
ENDBRANCH  81  85
ENDBRANCH  54  78
BRANCH  66  89
ATOM     89  C   UNL A   1      44.379  28.099  34.973  1.00  0.00     0.023 A 
ATOM     90  C   UNL A   1      44.110  26.901  35.662  1.00  0.00     0.031 A 
ATOM     91  C   UNL A   1      45.707  28.559  34.954  1.00  0.00     0.131 A 
ATOM     92  C   UNL A   1      45.131  26.259  36.378  1.00  0.00     0.055 A 
ATOM     93  C   UNL A   1      46.736  27.871  35.601  1.00  0.00     0.041 A 
ATOM     94  F   UNL A   1      46.028  29.697  34.316  1.00  0.00    -0.206 F 
ATOM     95  C   UNL A   1      46.447  26.726  36.336  1.00  0.00     0.022 A 
BRANCH  92  96
ATOM     96  S   UNL A   1      44.686  24.895  37.488  1.00  0.00     0.124 S 
ATOM     97  O   UNL A   1      45.695  25.015  38.535  1.00  0.00    -0.237 OA
ATOM     98  O   UNL A   1      43.322  25.241  37.876  1.00  0.00    -0.237 OA
ATOM     99  O   UNL A   1      44.809  23.710  36.642  1.00  0.00    -0.744 OA
ENDBRANCH  92  96
ENDBRANCH  66  89
ENDBRANCH  40  41
ENDBRANCH  32  35
ENDBRANCH  30  31
ENDBRANCH  29  30
ENDBRANCH   1  29
TORSDOF 20
ENDMDL
