MODEL 1
REMARK VINA RESULT:     -11.6      0.000      0.000
REMARK SMILES CC(=O)N[C@@H](CS[C@H]1CC(=O)N(c2ccc(Cl)cc2Cl)C1=O)C(=O)NCCCCCCNC(=O)c1ccc(-c2c3nc(c(-c4cc(S(=O)(=O)[O-])ccc4F)c4ccc([nH]4)c(-c4cc(S(=O)(=O)[O-])ccc4F)c4nc(c(-c5cc(S(=O)(=O)[O-])ccc5F)c5ccc2[nH]5)C=C4)C=C3)cc1
REMARK SMILES IDX 28 1 27 2 26 3 25 4 23 5 24 6 5 8 4 9 1 10 2 11 3 12 6 14
REMARK SMILES IDX 7 15 8 16 9 17 21 18 10 19 12 20 22 21 11 22 13 23 14 24
REMARK SMILES IDX 19 25 15 26 18 27 20 28 16 29 17 30 29 31 30 32 31 33 32 34
REMARK SMILES IDX 33 35 34 37 35 38 36 39 97 40 37 41 96 42 38 43 39 44 40 45
REMARK SMILES IDX 90 46 41 47 95 48 89 49 91 50 42 51 94 52 88 53 87 54 43 56
REMARK SMILES IDX 75 57 55 58 74 59 56 60 59 61 73 62 92 63 57 64 58 65 72 67
REMARK SMILES IDX 93 68 60 69 44 70 45 71 53 72 46 73 52 74 54 75 51 76 47 77
REMARK SMILES IDX 48 78 49 79 50 80 76 81 77 82 85 83 78 84 84 85 86 86 83 87
REMARK SMILES IDX 79 88 80 89 81 90 82 91 61 92 62 93 70 94 63 95 69 96 71 97
REMARK SMILES IDX 68 98 64 99 65 100 66 101 67 102
REMARK H PARENT 25 7 4 13 32 36 91 55 59 66
REMARK Flexibility Score: inf
ROOT
ATOM      1  C   UNL A   1      33.218  29.013  27.368  1.00  0.00     0.002 C 
ENDROOT
BRANCH   1   2
ATOM      2  C   UNL A   1      33.834  28.278  26.172  1.00  0.00     0.021 C 
BRANCH   2   3
ATOM      3  C   UNL A   1      33.313  28.663  24.786  1.00  0.00     0.116 C 
BRANCH   3   4
ATOM      4  N   UNL A   1      33.197  27.532  23.878  1.00  0.00    -0.354 N 
ATOM      5  C   UNL A   1      32.123  27.007  23.224  1.00  0.00     0.243 C 
ATOM      6  O   UNL A   1      32.373  26.254  22.275  1.00  0.00    -0.273 OA
ATOM      7  H   UNL A   1      34.044  27.063  23.704  1.00  0.00     0.163 HD
BRANCH   5   8
ATOM      8  C   UNL A   1      30.658  27.417  23.487  1.00  0.00     0.181 C 
BRANCH   8   9
ATOM      9  N   UNL A   1      30.028  28.224  22.447  1.00  0.00    -0.344 N 
ATOM     10  C   UNL A   1      29.898  30.294  23.795  1.00  0.00     0.114 C 
ATOM     11  C   UNL A   1      29.809  29.574  22.474  1.00  0.00     0.217 C 
ATOM     12  O   UNL A   1      29.517  30.165  21.438  1.00  0.00    -0.275 OA
ATOM     13  H   UNL A   1      29.729  27.746  21.640  1.00  0.00     0.164 HD
ENDBRANCH   8   9
BRANCH   8  14
ATOM     14  C   UNL A   1      29.798  26.232  23.974  1.00  0.00     0.105 C 
BRANCH  14  15
ATOM     15  S   UNL A   1      30.115  25.543  25.640  1.00  0.00    -0.145 SA
BRANCH  15  16
ATOM     16  C   UNL A   1      31.062  24.041  25.236  1.00  0.00     0.146 C 
ATOM     17  C   UNL A   1      31.045  23.584  23.793  1.00  0.00     0.125 C 
ATOM     18  C   UNL A   1      32.547  24.204  25.497  1.00  0.00     0.247 C 
ATOM     19  C   UNL A   1      32.344  22.821  23.696  1.00  0.00     0.235 C 
ATOM     20  N   UNL A   1      33.176  23.276  24.691  1.00  0.00    -0.248 N 
ATOM     21  O   UNL A   1      33.044  24.912  26.350  1.00  0.00    -0.273 OA
ATOM     22  O   UNL A   1      32.598  22.038  22.792  1.00  0.00    -0.274 OA
BRANCH  20  23
ATOM     23  C   UNL A   1      34.511  22.857  24.898  1.00  0.00     0.070 A 
ATOM     24  C   UNL A   1      35.556  23.617  24.344  1.00  0.00     0.030 A 
ATOM     25  C   UNL A   1      34.839  21.770  25.733  1.00  0.00     0.066 A 
ATOM     26  C   UNL A   1      36.892  23.284  24.592  1.00  0.00     0.023 A 
ATOM     27  C   UNL A   1      36.177  21.458  26.002  1.00  0.00     0.043 A 
ATOM     28  Cl  UNL A   1      33.642  20.882  26.617  1.00  0.00    -0.082 Cl
ATOM     29  C   UNL A   1      37.195  22.209  25.421  1.00  0.00     0.042 A 
ATOM     30  Cl  UNL A   1      38.837  21.814  25.741  1.00  0.00    -0.084 Cl
ENDBRANCH  20  23
ENDBRANCH  15  16
ENDBRANCH  14  15
ENDBRANCH   8  14
ENDBRANCH   5   8
ENDBRANCH   3   4
ENDBRANCH   2   3
ENDBRANCH   1   2
BRANCH   1  31
ATOM     31  C   UNL A   1      31.821  29.598  27.158  1.00  0.00     0.002 C 
BRANCH  31  32
ATOM     32  C   UNL A   1      31.771  31.092  26.854  1.00  0.00     0.021 C 
BRANCH  32  33
ATOM     33  C   UNL A   1      32.983  31.898  27.291  1.00  0.00     0.116 C 
BRANCH  33  34
ATOM     34  N   UNL A   1      32.674  33.301  27.520  1.00  0.00    -0.352 N 
ATOM     35  C   UNL A   1      33.220  34.189  28.419  1.00  0.00     0.251 C 
ATOM     36  H   UNL A   1      31.967  33.672  26.944  1.00  0.00     0.163 HD
ATOM     37  O   UNL A   1      32.706  35.295  28.558  1.00  0.00    -0.269 OA
BRANCH  35  38
ATOM     38  C   UNL A   1      34.393  33.800  29.238  1.00  0.00     0.039 A 
ATOM     39  C   UNL A   1      34.210  32.945  30.330  1.00  0.00     0.014 A 
ATOM     40  C   UNL A   1      35.674  34.262  28.928  1.00  0.00     0.014 A 
ATOM     41  C   UNL A   1      35.318  32.480  31.046  1.00  0.00     0.010 A 
ATOM     42  C   UNL A   1      36.780  33.730  29.582  1.00  0.00     0.010 A 
ATOM     43  C   UNL A   1      36.617  32.830  30.646  1.00  0.00    -0.014 A 
BRANCH  43  44
ATOM     44  C   UNL A   1      37.825  32.290  31.323  1.00  0.00     0.031 A 
ATOM     45  C   UNL A   1      38.581  31.151  30.693  1.00  0.00     0.074 A 
ATOM     46  C   UNL A   1      38.179  32.751  32.539  1.00  0.00     0.049 A 
ATOM     47  N   UNL A   1      39.546  30.421  31.189  1.00  0.00    -0.248 NA
ATOM     48  C   UNL A   1      38.162  30.758  29.339  1.00  0.00     0.031 C 
ATOM     49  C   UNL A   1      37.504  33.831  33.265  1.00  0.00     0.029 A 
ATOM     50  N   UNL A   1      39.178  32.356  33.394  1.00  0.00    -0.354 N 
ATOM     51  C   UNL A   1      39.832  29.465  30.219  1.00  0.00     0.074 A 
ATOM     52  C   UNL A   1      38.898  29.677  29.133  1.00  0.00     0.031 C 
ATOM     53  C   UNL A   1      38.116  34.019  34.446  1.00  0.00     0.029 A 
ATOM     54  C   UNL A   1      39.189  33.040  34.589  1.00  0.00     0.049 A 
ATOM     55  H   UNL A   1      39.827  31.650  33.172  1.00  0.00     0.167 HD
ATOM     56  C   UNL A   1      40.797  28.513  30.225  1.00  0.00     0.034 A 
ATOM     57  C   UNL A   1      39.956  32.877  35.686  1.00  0.00     0.034 A 
ATOM     58  C   UNL A   1      41.735  28.335  31.307  1.00  0.00     0.049 A 
ATOM     59  C   UNL A   1      41.003  31.790  35.684  1.00  0.00     0.074 A 
ATOM     60  C   UNL A   1      42.797  27.453  31.391  1.00  0.00     0.029 A 
ATOM     61  N   UNL A   1      41.716  29.051  32.498  1.00  0.00    -0.354 N 
ATOM     62  N   UNL A   1      41.291  30.924  34.741  1.00  0.00    -0.248 NA
ATOM     63  C   UNL A   1      41.826  31.659  36.893  1.00  0.00     0.031 C 
ATOM     64  C   UNL A   1      43.378  27.588  32.657  1.00  0.00     0.029 A 
ATOM     65  C   UNL A   1      42.726  28.604  33.336  1.00  0.00     0.049 A 
ATOM     66  H   UNL A   1      41.079  29.769  32.715  1.00  0.00     0.167 HD
ATOM     67  C   UNL A   1      42.346  30.162  35.234  1.00  0.00     0.074 A 
ATOM     68  C   UNL A   1      42.652  30.680  36.552  1.00  0.00     0.031 C 
ATOM     69  C   UNL A   1      43.006  29.128  34.652  1.00  0.00     0.034 A 
BRANCH  56  70
ATOM     70  C   UNL A   1      40.864  27.581  29.039  1.00  0.00     0.023 A 
ATOM     71  C   UNL A   1      41.819  27.748  28.020  1.00  0.00     0.031 A 
ATOM     72  C   UNL A   1      39.940  26.530  28.907  1.00  0.00     0.131 A 
ATOM     73  C   UNL A   1      41.776  26.933  26.879  1.00  0.00     0.055 A 
ATOM     74  C   UNL A   1      39.957  25.667  27.808  1.00  0.00     0.041 A 
ATOM     75  F   UNL A   1      38.993  26.330  29.837  1.00  0.00    -0.206 F 
ATOM     76  C   UNL A   1      40.868  25.877  26.778  1.00  0.00     0.022 A 
BRANCH  73  77
ATOM     77  S   UNL A   1      42.828  27.368  25.468  1.00  0.00     0.124 S 
ATOM     78  O   UNL A   1      42.699  26.180  24.627  1.00  0.00    -0.237 OA
ATOM     79  O   UNL A   1      42.194  28.581  24.963  1.00  0.00    -0.237 OA
ATOM     80  O   UNL A   1      44.147  27.558  26.068  1.00  0.00    -0.744 OA
ENDBRANCH  73  77
ENDBRANCH  56  70
BRANCH  57  81
ATOM     81  C   UNL A   1      39.751  33.733  36.890  1.00  0.00     0.023 A 
ATOM     82  C   UNL A   1      40.607  34.812  37.162  1.00  0.00     0.031 A 
ATOM     83  C   UNL A   1      38.722  33.461  37.809  1.00  0.00     0.131 A 
ATOM     84  C   UNL A   1      40.447  35.552  38.344  1.00  0.00     0.055 A 
ATOM     85  C   UNL A   1      38.534  34.233  38.957  1.00  0.00     0.041 A 
ATOM     86  F   UNL A   1      37.873  32.444  37.596  1.00  0.00    -0.206 F 
ATOM     87  C   UNL A   1      39.409  35.278  39.237  1.00  0.00     0.022 A 
BRANCH  84  88
ATOM     88  S   UNL A   1      41.671  36.831  38.741  1.00  0.00     0.124 S 
ATOM     89  O   UNL A   1      40.825  37.906  39.247  1.00  0.00    -0.237 OA
ATOM     90  O   UNL A   1      42.508  36.154  39.726  1.00  0.00    -0.237 OA
ATOM     91  O   UNL A   1      42.315  37.096  37.456  1.00  0.00    -0.744 OA
ENDBRANCH  84  88
ENDBRANCH  57  81
BRANCH  69  92
ATOM     92  C   UNL A   1      44.145  28.518  35.429  1.00  0.00     0.023 A 
ATOM     93  C   UNL A   1      43.943  27.449  36.318  1.00  0.00     0.031 A 
ATOM     94  C   UNL A   1      45.453  29.007  35.264  1.00  0.00     0.131 A 
ATOM     95  C   UNL A   1      45.026  26.930  37.042  1.00  0.00     0.055 A 
ATOM     96  C   UNL A   1      46.535  28.451  35.947  1.00  0.00     0.041 A 
ATOM     97  F   UNL A   1      45.700  30.028  34.428  1.00  0.00    -0.206 F 
ATOM     98  C   UNL A   1      46.324  27.412  36.849  1.00  0.00     0.022 A 
BRANCH  95  99
ATOM     99  S   UNL A   1      44.709  25.654  38.292  1.00  0.00     0.124 S 
ATOM    100  O   UNL A   1      44.219  26.446  39.416  1.00  0.00    -0.237 OA
ATOM    101  O   UNL A   1      43.722  24.806  37.632  1.00  0.00    -0.237 OA
ATOM    102  O   UNL A   1      46.019  25.038  38.493  1.00  0.00    -0.744 OA
ENDBRANCH  95  99
ENDBRANCH  69  92
ENDBRANCH  43  44
ENDBRANCH  35  38
ENDBRANCH  33  34
ENDBRANCH  32  33
ENDBRANCH  31  32
ENDBRANCH   1  31
TORSDOF 21
ENDMDL
MODEL 2
REMARK VINA RESULT:     -11.5      2.044      2.462
REMARK SMILES CC(=O)N[C@@H](CS[C@H]1CC(=O)N(c2ccc(Cl)cc2Cl)C1=O)C(=O)NCCCCCCNC(=O)c1ccc(-c2c3nc(c(-c4cc(S(=O)(=O)[O-])ccc4F)c4ccc([nH]4)c(-c4cc(S(=O)(=O)[O-])ccc4F)c4nc(c(-c5cc(S(=O)(=O)[O-])ccc5F)c5ccc2[nH]5)C=C4)C=C3)cc1
REMARK SMILES IDX 28 1 27 2 26 3 25 4 23 5 24 6 5 8 4 9 1 10 2 11 3 12 6 14
REMARK SMILES IDX 7 15 8 16 9 17 21 18 10 19 12 20 22 21 11 22 13 23 14 24
REMARK SMILES IDX 19 25 15 26 18 27 20 28 16 29 17 30 29 31 30 32 31 33 32 34
REMARK SMILES IDX 33 35 34 37 35 38 36 39 97 40 37 41 96 42 38 43 39 44 40 45
REMARK SMILES IDX 90 46 41 47 95 48 89 49 91 50 42 51 94 52 88 53 87 54 43 56
REMARK SMILES IDX 75 57 55 58 74 59 56 60 59 61 73 62 92 63 57 64 58 65 72 67
REMARK SMILES IDX 93 68 60 69 44 70 45 71 53 72 46 73 52 74 54 75 51 76 47 77
REMARK SMILES IDX 48 78 49 79 50 80 76 81 77 82 85 83 78 84 84 85 86 86 83 87
REMARK SMILES IDX 79 88 80 89 81 90 82 91 61 92 62 93 70 94 63 95 69 96 71 97
REMARK SMILES IDX 68 98 64 99 65 100 66 101 67 102
REMARK H PARENT 25 7 4 13 32 36 91 55 59 66
REMARK Flexibility Score: inf
ROOT
ATOM      1  C   UNL A   1      33.311  30.226  27.276  1.00  0.00     0.002 C 
ENDROOT
BRANCH   1   2
ATOM      2  C   UNL A   1      33.931  28.976  26.640  1.00  0.00     0.021 C 
BRANCH   2   3
ATOM      3  C   UNL A   1      32.964  27.981  25.996  1.00  0.00     0.116 C 
BRANCH   3   4
ATOM      4  N   UNL A   1      33.101  27.897  24.550  1.00  0.00    -0.354 N 
ATOM      5  C   UNL A   1      32.207  28.115  23.545  1.00  0.00     0.243 C 
ATOM      6  O   UNL A   1      32.682  28.286  22.415  1.00  0.00    -0.273 OA
ATOM      7  H   UNL A   1      33.999  27.639  24.242  1.00  0.00     0.163 HD
BRANCH   5   8
ATOM      8  C   UNL A   1      30.692  28.321  23.756  1.00  0.00     0.181 C 
BRANCH   8   9
ATOM      9  N   UNL A   1      29.929  28.692  22.570  1.00  0.00    -0.344 N 
ATOM     10  C   UNL A   1      29.135  30.858  23.461  1.00  0.00     0.114 C 
ATOM     11  C   UNL A   1      29.338  29.899  22.316  1.00  0.00     0.217 C 
ATOM     12  O   UNL A   1      28.960  30.167  21.178  1.00  0.00    -0.275 OA
ATOM     13  H   UNL A   1      29.831  28.000  21.876  1.00  0.00     0.164 HD
ENDBRANCH   8   9
BRANCH   8  14
ATOM     14  C   UNL A   1      30.057  27.184  24.584  1.00  0.00     0.105 C 
BRANCH  14  15
ATOM     15  S   UNL A   1      30.205  25.465  23.975  1.00  0.00    -0.145 SA
BRANCH  15  16
ATOM     16  C   UNL A   1      31.509  24.805  25.063  1.00  0.00     0.146 C 
ATOM     17  C   UNL A   1      31.060  24.096  26.323  1.00  0.00     0.125 C 
ATOM     18  C   UNL A   1      32.347  23.739  24.384  1.00  0.00     0.247 C 
ATOM     19  C   UNL A   1      32.224  23.173  26.588  1.00  0.00     0.235 C 
ATOM     20  N   UNL A   1      32.889  22.981  25.402  1.00  0.00    -0.248 N 
ATOM     21  O   UNL A   1      32.590  23.678  23.195  1.00  0.00    -0.273 OA
ATOM     22  O   UNL A   1      32.415  22.625  27.664  1.00  0.00    -0.274 OA
BRANCH  20  23
ATOM     23  C   UNL A   1      34.002  22.128  25.216  1.00  0.00     0.070 A 
ATOM     24  C   UNL A   1      35.293  22.631  25.455  1.00  0.00     0.030 A 
ATOM     25  C   UNL A   1      33.861  20.760  24.908  1.00  0.00     0.066 A 
ATOM     26  C   UNL A   1      36.414  21.801  25.362  1.00  0.00     0.023 A 
ATOM     27  C   UNL A   1      34.983  19.925  24.844  1.00  0.00     0.043 A 
ATOM     28  Cl  UNL A   1      32.314  19.991  24.778  1.00  0.00    -0.082 Cl
ATOM     29  C   UNL A   1      36.254  20.452  25.059  1.00  0.00     0.042 A 
ATOM     30  Cl  UNL A   1      37.630  19.428  24.965  1.00  0.00    -0.084 Cl
ENDBRANCH  20  23
ENDBRANCH  15  16
ENDBRANCH  14  15
ENDBRANCH   8  14
ENDBRANCH   5   8
ENDBRANCH   3   4
ENDBRANCH   2   3
ENDBRANCH   1   2
BRANCH   1  31
ATOM     31  C   UNL A   1      31.857  30.522  26.909  1.00  0.00     0.002 C 
BRANCH  31  32
ATOM     32  C   UNL A   1      31.470  31.998  26.881  1.00  0.00     0.021 C 
BRANCH  32  33
ATOM     33  C   UNL A   1      32.625  32.984  26.833  1.00  0.00     0.116 C 
BRANCH  33  34
ATOM     34  N   UNL A   1      32.406  34.148  27.677  1.00  0.00    -0.352 N 
ATOM     35  C   UNL A   1      33.081  34.560  28.803  1.00  0.00     0.251 C 
ATOM     36  H   UNL A   1      31.663  34.730  27.400  1.00  0.00     0.163 HD
ATOM     37  O   UNL A   1      32.636  35.497  29.462  1.00  0.00    -0.269 OA
BRANCH  35  38
ATOM     38  C   UNL A   1      34.313  33.858  29.238  1.00  0.00     0.039 A 
ATOM     39  C   UNL A   1      35.559  34.400  28.911  1.00  0.00     0.014 A 
ATOM     40  C   UNL A   1      34.245  32.674  29.977  1.00  0.00     0.014 A 
ATOM     41  C   UNL A   1      36.729  33.812  29.406  1.00  0.00     0.010 A 
ATOM     42  C   UNL A   1      35.399  32.143  30.542  1.00  0.00     0.010 A 
ATOM     43  C   UNL A   1      36.654  32.706  30.267  1.00  0.00    -0.014 A 
BRANCH  43  44
ATOM     44  C   UNL A   1      37.864  32.103  30.885  1.00  0.00     0.031 A 
ATOM     45  C   UNL A   1      38.636  31.052  30.132  1.00  0.00     0.074 A 
ATOM     46  C   UNL A   1      38.205  32.421  32.149  1.00  0.00     0.049 A 
ATOM     47  N   UNL A   1      39.605  30.278  30.545  1.00  0.00    -0.248 NA
ATOM     48  C   UNL A   1      38.230  30.817  28.737  1.00  0.00     0.031 C 
ATOM     49  C   UNL A   1      37.514  33.401  32.991  1.00  0.00     0.029 A 
ATOM     50  N   UNL A   1      39.203  31.938  32.960  1.00  0.00    -0.354 N 
ATOM     51  C   UNL A   1      39.907  29.446  29.472  1.00  0.00     0.074 A 
ATOM     52  C   UNL A   1      38.979  29.775  28.412  1.00  0.00     0.031 C 
ATOM     53  C   UNL A   1      38.116  33.455  34.191  1.00  0.00     0.029 A 
ATOM     54  C   UNL A   1      39.199  32.477  34.227  1.00  0.00     0.049 A 
ATOM     55  H   UNL A   1      39.861  31.269  32.661  1.00  0.00     0.167 HD
ATOM     56  C   UNL A   1      40.883  28.509  29.374  1.00  0.00     0.034 A 
ATOM     57  C   UNL A   1      39.961  32.193  35.303  1.00  0.00     0.034 A 
ATOM     58  C   UNL A   1      41.815  28.215  30.435  1.00  0.00     0.049 A 
ATOM     59  C   UNL A   1      41.019  31.125  35.181  1.00  0.00     0.074 A 
ATOM     60  C   UNL A   1      42.886  27.340  30.423  1.00  0.00     0.029 A 
ATOM     61  N   UNL A   1      41.782  28.785  31.702  1.00  0.00    -0.354 N 
ATOM     62  N   UNL A   1      41.322  30.378  34.145  1.00  0.00    -0.248 NA
ATOM     63  C   UNL A   1      41.836  30.861  36.373  1.00  0.00     0.031 C 
ATOM     64  C   UNL A   1      43.458  27.331  31.700  1.00  0.00     0.029 A 
ATOM     65  C   UNL A   1      42.791  28.254  32.489  1.00  0.00     0.049 A 
ATOM     66  H   UNL A   1      41.135  29.467  31.996  1.00  0.00     0.167 HD
ATOM     67  C   UNL A   1      42.382  29.574  34.553  1.00  0.00     0.074 A 
ATOM     68  C   UNL A   1      42.674  29.937  35.926  1.00  0.00     0.031 C 
ATOM     69  C   UNL A   1      43.056  28.622  33.859  1.00  0.00     0.034 A 
BRANCH  56  70
ATOM     70  C   UNL A   1      40.967  27.724  28.088  1.00  0.00     0.023 A 
ATOM     71  C   UNL A   1      40.389  26.448  27.960  1.00  0.00     0.031 A 
ATOM     72  C   UNL A   1      41.661  28.243  26.981  1.00  0.00     0.131 A 
ATOM     73  C   UNL A   1      40.586  25.702  26.788  1.00  0.00     0.055 A 
ATOM     74  C   UNL A   1      41.781  27.531  25.785  1.00  0.00     0.041 A 
ATOM     75  F   UNL A   1      42.250  29.448  27.046  1.00  0.00    -0.206 F 
ATOM     76  C   UNL A   1      41.257  26.245  25.690  1.00  0.00     0.022 A 
BRANCH  73  77
ATOM     77  S   UNL A   1      40.081  23.961  26.777  1.00  0.00     0.124 S 
ATOM     78  O   UNL A   1      39.809  23.724  28.193  1.00  0.00    -0.237 OA
ATOM     79  O   UNL A   1      38.919  23.975  25.896  1.00  0.00    -0.237 OA
ATOM     80  O   UNL A   1      41.255  23.267  26.251  1.00  0.00    -0.744 OA
ENDBRANCH  73  77
ENDBRANCH  56  70
BRANCH  57  81
ATOM     81  C   UNL A   1      39.739  32.901  36.597  1.00  0.00     0.023 A 
ATOM     82  C   UNL A   1      38.790  32.435  37.521  1.00  0.00     0.031 A 
ATOM     83  C   UNL A   1      40.443  34.077  36.912  1.00  0.00     0.131 A 
ATOM     84  C   UNL A   1      38.539  33.164  38.694  1.00  0.00     0.055 A 
ATOM     85  C   UNL A   1      40.226  34.770  38.105  1.00  0.00     0.041 A 
ATOM     86  F   UNL A   1      41.365  34.565  36.067  1.00  0.00    -0.206 F 
ATOM     87  C   UNL A   1      39.259  34.321  38.998  1.00  0.00     0.022 A 
BRANCH  84  88
ATOM     88  S   UNL A   1      37.191  32.622  39.781  1.00  0.00     0.124 S 
ATOM     89  O   UNL A   1      37.662  31.309  40.206  1.00  0.00    -0.237 OA
ATOM     90  O   UNL A   1      37.187  33.665  40.801  1.00  0.00    -0.237 OA
ATOM     91  O   UNL A   1      36.025  32.613  38.899  1.00  0.00    -0.744 OA
ENDBRANCH  84  88
ENDBRANCH  57  81
BRANCH  69  92
ATOM     92  C   UNL A   1      44.197  27.936  34.568  1.00  0.00     0.023 A 
ATOM     93  C   UNL A   1      44.016  26.725  35.256  1.00  0.00     0.031 A 
ATOM     94  C   UNL A   1      45.485  28.499  34.540  1.00  0.00     0.131 A 
ATOM     95  C   UNL A   1      45.099  26.135  35.926  1.00  0.00     0.055 A 
ATOM     96  C   UNL A   1      46.569  27.880  35.163  1.00  0.00     0.041 A 
ATOM     97  F   UNL A   1      45.711  29.656  33.898  1.00  0.00    -0.206 F 
ATOM     98  C   UNL A   1      46.378  26.695  35.868  1.00  0.00     0.022 A 
BRANCH  95  99
ATOM     99  S   UNL A   1      44.801  24.654  36.930  1.00  0.00     0.124 S 
ATOM    100  O   UNL A   1      43.766  23.970  36.161  1.00  0.00    -0.237 OA
ATOM    101  O   UNL A   1      46.112  24.015  36.943  1.00  0.00    -0.237 OA
ATOM    102  O   UNL A   1      44.362  25.194  38.215  1.00  0.00    -0.744 OA
ENDBRANCH  95  99
ENDBRANCH  69  92
ENDBRANCH  43  44
ENDBRANCH  35  38
ENDBRANCH  33  34
ENDBRANCH  32  33
ENDBRANCH  31  32
ENDBRANCH   1  31
TORSDOF 21
ENDMDL
MODEL 3
REMARK VINA RESULT:     -11.4      1.767      2.258
REMARK SMILES CC(=O)N[C@@H](CS[C@H]1CC(=O)N(c2ccc(Cl)cc2Cl)C1=O)C(=O)NCCCCCCNC(=O)c1ccc(-c2c3nc(c(-c4cc(S(=O)(=O)[O-])ccc4F)c4ccc([nH]4)c(-c4cc(S(=O)(=O)[O-])ccc4F)c4nc(c(-c5cc(S(=O)(=O)[O-])ccc5F)c5ccc2[nH]5)C=C4)C=C3)cc1
REMARK SMILES IDX 28 1 27 2 26 3 25 4 23 5 24 6 5 8 4 9 1 10 2 11 3 12 6 14
REMARK SMILES IDX 7 15 8 16 9 17 21 18 10 19 12 20 22 21 11 22 13 23 14 24
REMARK SMILES IDX 19 25 15 26 18 27 20 28 16 29 17 30 29 31 30 32 31 33 32 34
REMARK SMILES IDX 33 35 34 37 35 38 36 39 97 40 37 41 96 42 38 43 39 44 40 45
REMARK SMILES IDX 90 46 41 47 95 48 89 49 91 50 42 51 94 52 88 53 87 54 43 56
REMARK SMILES IDX 75 57 55 58 74 59 56 60 59 61 73 62 92 63 57 64 58 65 72 67
REMARK SMILES IDX 93 68 60 69 44 70 45 71 53 72 46 73 52 74 54 75 51 76 47 77
REMARK SMILES IDX 48 78 49 79 50 80 76 81 77 82 85 83 78 84 84 85 86 86 83 87
REMARK SMILES IDX 79 88 80 89 81 90 82 91 61 92 62 93 70 94 63 95 69 96 71 97
REMARK SMILES IDX 68 98 64 99 65 100 66 101 67 102
REMARK H PARENT 25 7 4 13 32 36 91 55 59 66
REMARK Flexibility Score: inf
ROOT
ATOM      1  C   UNL A   1      34.392  29.315  27.085  1.00  0.00     0.002 C 
ENDROOT
BRANCH   1   2
ATOM      2  C   UNL A   1      32.923  28.907  27.253  1.00  0.00     0.021 C 
BRANCH   2   3
ATOM      3  C   UNL A   1      32.083  28.821  25.976  1.00  0.00     0.116 C 
BRANCH   3   4
ATOM      4  N   UNL A   1      32.881  28.836  24.759  1.00  0.00    -0.354 N 
ATOM      5  C   UNL A   1      32.521  28.878  23.446  1.00  0.00     0.243 C 
ATOM      6  O   UNL A   1      33.406  29.207  22.645  1.00  0.00    -0.273 OA
ATOM      7  H   UNL A   1      33.853  28.814  24.911  1.00  0.00     0.163 HD
BRANCH   5   8
ATOM      8  C   UNL A   1      31.076  28.706  22.932  1.00  0.00     0.181 C 
BRANCH   8   9
ATOM      9  N   UNL A   1      30.633  29.683  21.944  1.00  0.00    -0.344 N 
ATOM     10  C   UNL A   1      28.264  29.688  22.657  1.00  0.00     0.114 C 
ATOM     11  C   UNL A   1      29.407  30.286  21.877  1.00  0.00     0.217 C 
ATOM     12  O   UNL A   1      29.252  31.277  21.167  1.00  0.00    -0.275 OA
ATOM     13  H   UNL A   1      31.285  29.937  21.252  1.00  0.00     0.164 HD
ENDBRANCH   8   9
BRANCH   8  14
ATOM     14  C   UNL A   1      30.758  27.243  22.560  1.00  0.00     0.105 C 
BRANCH  14  15
ATOM     15  S   UNL A   1      29.709  26.257  23.690  1.00  0.00    -0.145 SA
BRANCH  15  16
ATOM     16  C   UNL A   1      30.963  25.438  24.726  1.00  0.00     0.146 C 
ATOM     17  C   UNL A   1      30.590  25.158  26.166  1.00  0.00     0.125 C 
ATOM     18  C   UNL A   1      31.319  24.053  24.219  1.00  0.00     0.247 C 
ATOM     19  C   UNL A   1      31.478  23.983  26.492  1.00  0.00     0.235 C 
ATOM     20  N   UNL A   1      31.816  23.369  25.310  1.00  0.00    -0.248 N 
ATOM     21  O   UNL A   1      31.297  23.694  23.058  1.00  0.00    -0.273 OA
ATOM     22  O   UNL A   1      31.716  23.615  27.634  1.00  0.00    -0.274 OA
BRANCH  20  23
ATOM     23  C   UNL A   1      32.587  22.189  25.191  1.00  0.00     0.070 A 
ATOM     24  C   UNL A   1      31.927  20.955  25.061  1.00  0.00     0.030 A 
ATOM     25  C   UNL A   1      33.993  22.214  25.084  1.00  0.00     0.066 A 
ATOM     26  C   UNL A   1      32.649  19.774  24.860  1.00  0.00     0.023 A 
ATOM     27  C   UNL A   1      34.711  21.034  24.854  1.00  0.00     0.043 A 
ATOM     28  Cl  UNL A   1      34.896  23.692  25.041  1.00  0.00    -0.082 Cl
ATOM     29  C   UNL A   1      34.036  19.820  24.755  1.00  0.00     0.042 A 
ATOM     30  Cl  UNL A   1      34.921  18.371  24.487  1.00  0.00    -0.084 Cl
ENDBRANCH  20  23
ENDBRANCH  15  16
ENDBRANCH  14  15
ENDBRANCH   8  14
ENDBRANCH   5   8
ENDBRANCH   3   4
ENDBRANCH   2   3
ENDBRANCH   1   2
BRANCH   1  31
ATOM     31  C   UNL A   1      34.860  30.513  27.911  1.00  0.00     0.002 C 
BRANCH  31  32
ATOM     32  C   UNL A   1      33.789  31.550  28.236  1.00  0.00     0.021 C 
BRANCH  32  33
ATOM     33  C   UNL A   1      33.539  32.600  27.166  1.00  0.00     0.116 C 
BRANCH  33  34
ATOM     34  N   UNL A   1      32.954  33.820  27.701  1.00  0.00    -0.352 N 
ATOM     35  C   UNL A   1      33.281  34.532  28.833  1.00  0.00     0.251 C 
ATOM     36  H   UNL A   1      32.212  34.193  27.174  1.00  0.00     0.163 HD
ATOM     37  O   UNL A   1      32.557  35.457  29.191  1.00  0.00    -0.269 OA
BRANCH  35  38
ATOM     38  C   UNL A   1      34.475  34.163  29.631  1.00  0.00     0.039 A 
ATOM     39  C   UNL A   1      34.303  33.487  30.843  1.00  0.00     0.014 A 
ATOM     40  C   UNL A   1      35.763  34.469  29.186  1.00  0.00     0.014 A 
ATOM     41  C   UNL A   1      35.419  33.034  31.554  1.00  0.00     0.010 A 
ATOM     42  C   UNL A   1      36.868  33.942  29.845  1.00  0.00     0.010 A 
ATOM     43  C   UNL A   1      36.710  33.215  31.035  1.00  0.00    -0.014 A 
BRANCH  43  44
ATOM     44  C   UNL A   1      37.919  32.675  31.713  1.00  0.00     0.031 A 
ATOM     45  C   UNL A   1      38.702  31.568  31.060  1.00  0.00     0.074 A 
ATOM     46  C   UNL A   1      38.248  33.105  32.947  1.00  0.00     0.049 A 
ATOM     47  N   UNL A   1      39.672  30.838  31.547  1.00  0.00    -0.248 NA
ATOM     48  C   UNL A   1      38.308  31.209  29.689  1.00  0.00     0.031 C 
ATOM     49  C   UNL A   1      37.546  34.152  33.694  1.00  0.00     0.029 A 
ATOM     50  N   UNL A   1      39.242  32.701  33.804  1.00  0.00    -0.354 N 
ATOM     51  C   UNL A   1      39.987  29.918  30.553  1.00  0.00     0.074 A 
ATOM     52  C   UNL A   1      39.065  30.146  29.462  1.00  0.00     0.031 C 
ATOM     53  C   UNL A   1      38.138  34.314  34.889  1.00  0.00     0.029 A 
ATOM     54  C   UNL A   1      39.225  33.349  35.019  1.00  0.00     0.049 A 
ATOM     55  H   UNL A   1      39.905  32.012  33.570  1.00  0.00     0.167 HD
ATOM     56  C   UNL A   1      40.967  28.981  30.545  1.00  0.00     0.034 A 
ATOM     57  C   UNL A   1      39.980  33.165  36.121  1.00  0.00     0.034 A 
ATOM     58  C   UNL A   1      41.893  28.786  31.635  1.00  0.00     0.049 A 
ATOM     59  C   UNL A   1      41.045  32.097  36.102  1.00  0.00     0.074 A 
ATOM     60  C   UNL A   1      42.969  27.920  31.707  1.00  0.00     0.029 A 
ATOM     61  N   UNL A   1      41.847  29.465  32.846  1.00  0.00    -0.354 N 
ATOM     62  N   UNL A   1      41.360  31.263  35.137  1.00  0.00    -0.248 NA
ATOM     63  C   UNL A   1      41.853  31.943  37.317  1.00  0.00     0.031 C 
ATOM     64  C   UNL A   1      43.530  28.026  32.985  1.00  0.00     0.029 A 
ATOM     65  C   UNL A   1      42.852  29.010  33.685  1.00  0.00     0.049 A 
ATOM     66  H   UNL A   1      41.195  30.167  33.075  1.00  0.00     0.167 HD
ATOM     67  C   UNL A   1      42.420  30.504  35.622  1.00  0.00     0.074 A 
ATOM     68  C   UNL A   1      42.699  30.988  36.959  1.00  0.00     0.031 C 
ATOM     69  C   UNL A   1      43.105  29.499  35.019  1.00  0.00     0.034 A 
BRANCH  56  70
ATOM     70  C   UNL A   1      41.066  28.087  29.333  1.00  0.00     0.023 A 
ATOM     71  C   UNL A   1      42.056  28.276  28.353  1.00  0.00     0.031 A 
ATOM     72  C   UNL A   1      40.138  27.049  29.137  1.00  0.00     0.131 A 
ATOM     73  C   UNL A   1      42.045  27.498  27.185  1.00  0.00     0.055 A 
ATOM     74  C   UNL A   1      40.184  26.221  28.013  1.00  0.00     0.041 A 
ATOM     75  F   UNL A   1      39.158  26.830  30.028  1.00  0.00    -0.206 F 
ATOM     76  C   UNL A   1      41.131  26.454  27.020  1.00  0.00     0.022 A 
BRANCH  73  77
ATOM     77  S   UNL A   1      43.147  27.966  25.824  1.00  0.00     0.124 S 
ATOM     78  O   UNL A   1      42.234  27.944  24.684  1.00  0.00    -0.237 OA
ATOM     79  O   UNL A   1      43.620  29.282  26.239  1.00  0.00    -0.237 OA
ATOM     80  O   UNL A   1      44.159  26.912  25.824  1.00  0.00    -0.744 OA
ENDBRANCH  73  77
ENDBRANCH  56  70
BRANCH  57  81
ATOM     81  C   UNL A   1      39.744  33.982  37.347  1.00  0.00     0.023 A 
ATOM     82  C   UNL A   1      39.051  33.451  38.446  1.00  0.00     0.031 A 
ATOM     83  C   UNL A   1      40.172  35.320  37.421  1.00  0.00     0.131 A 
ATOM     84  C   UNL A   1      38.768  34.265  39.554  1.00  0.00     0.055 A 
ATOM     85  C   UNL A   1      39.933  36.109  38.548  1.00  0.00     0.041 A 
ATOM     86  F   UNL A   1      40.843  35.877  36.401  1.00  0.00    -0.206 F 
ATOM     87  C   UNL A   1      39.215  35.586  39.618  1.00  0.00     0.022 A 
BRANCH  84  88
ATOM     88  S   UNL A   1      37.728  33.593  40.881  1.00  0.00     0.124 S 
ATOM     89  O   UNL A   1      38.700  32.845  41.670  1.00  0.00    -0.237 OA
ATOM     90  O   UNL A   1      37.199  34.806  41.494  1.00  0.00    -0.237 OA
ATOM     91  O   UNL A   1      36.746  32.780  40.166  1.00  0.00    -0.744 OA
ENDBRANCH  84  88
ENDBRANCH  57  81
BRANCH  69  92
ATOM     92  C   UNL A   1      44.243  28.884  35.793  1.00  0.00     0.023 A 
ATOM     93  C   UNL A   1      44.049  27.779  36.639  1.00  0.00     0.031 A 
ATOM     94  C   UNL A   1      45.543  29.407  35.671  1.00  0.00     0.131 A 
ATOM     95  C   UNL A   1      45.131  27.256  37.363  1.00  0.00     0.055 A 
ATOM     96  C   UNL A   1      46.625  28.849  36.352  1.00  0.00     0.041 A 
ATOM     97  F   UNL A   1      45.783  30.464  34.878  1.00  0.00    -0.206 F 
ATOM     98  C   UNL A   1      46.421  27.772  37.211  1.00  0.00     0.022 A 
BRANCH  95  99
ATOM     99  S   UNL A   1      44.820  25.928  38.558  1.00  0.00     0.124 S 
ATOM    100  O   UNL A   1      44.290  24.870  37.704  1.00  0.00    -0.237 OA
ATOM    101  O   UNL A   1      46.146  25.692  39.118  1.00  0.00    -0.237 OA
ATOM    102  O   UNL A   1      43.854  26.518  39.483  1.00  0.00    -0.744 OA
ENDBRANCH  95  99
ENDBRANCH  69  92
ENDBRANCH  43  44
ENDBRANCH  35  38
ENDBRANCH  33  34
ENDBRANCH  32  33
ENDBRANCH  31  32
ENDBRANCH   1  31
TORSDOF 21
ENDMDL
