MODEL 1
REMARK VINA RESULT:     -12.1      0.000      0.000
REMARK SMILES Cc1ccc2c(c1)C=C(C(=O)NCCCCCCNC(=O)c1ccc(-c3c4nc(c(-c5cc(S(=O)(=O)[O-])ccc5F)c5ccc([nH]5)c(-c5cc(S(=O)(=O)[O-])ccc5F)c5nc(c(-c6cc(S(=O)(=O)[O-])ccc6F)c6ccc3[nH]6)C=C5)C=C4)cc1)[C@@H](C(F)(F)F)O2
REMARK SMILES IDX 16 1 15 2 14 3 13 4 12 5 10 6 11 7 9 9 1 10 2 11 3 12 7 13
REMARK SMILES IDX 4 14 6 15 5 16 8 17 90 18 85 19 86 20 87 21 88 22 89 23
REMARK SMILES IDX 17 24 18 25 19 26 20 27 21 29 22 30 23 31 84 32 24 33 83 34
REMARK SMILES IDX 25 35 26 36 27 37 77 38 28 39 82 40 76 41 78 42 29 43 81 44
REMARK SMILES IDX 75 45 74 46 30 48 62 49 42 50 61 51 43 52 46 53 60 54 79 55
REMARK SMILES IDX 44 56 45 57 59 59 80 60 47 61 31 62 32 63 40 64 33 65 39 66
REMARK SMILES IDX 41 67 38 68 34 69 35 70 36 71 37 72 63 73 64 74 72 75 65 76
REMARK SMILES IDX 71 77 73 78 70 79 66 80 67 81 68 82 69 83 48 84 49 85 57 86
REMARK SMILES IDX 50 87 56 88 58 89 55 90 51 91 52 92 53 93 54 94
REMARK H PARENT 12 8 19 28 78 47 46 58
REMARK Flexibility Score: inf
ROOT
ATOM      1  C   UNL A   1      32.261  29.692  24.702  1.00  0.00     0.002 C 
ENDROOT
BRANCH   1   2
ATOM      2  C   UNL A   1      33.239  28.784  25.460  1.00  0.00     0.002 C 
BRANCH   2   3
ATOM      3  C   UNL A   1      34.048  27.806  24.599  1.00  0.00     0.021 C 
BRANCH   3   4
ATOM      4  C   UNL A   1      33.772  26.332  24.886  1.00  0.00     0.116 C 
BRANCH   4   5
ATOM      5  N   UNL A   1      33.375  25.614  23.687  1.00  0.00    -0.352 N 
ATOM      6  C   UNL A   1      32.283  25.530  22.894  1.00  0.00     0.251 C 
ATOM      7  O   UNL A   1      32.404  24.769  21.925  1.00  0.00    -0.270 OA
ATOM      8  H   UNL A   1      34.099  25.031  23.363  1.00  0.00     0.163 HD
BRANCH   6   9
ATOM      9  C   UNL A   1      30.994  26.259  23.097  1.00  0.00     0.067 C 
ATOM     10  C   UNL A   1      28.438  31.774  21.933  1.00  0.00     0.044 C 
ATOM     11  C   UNL A   1      28.479  30.345  22.386  1.00  0.00    -0.050 A 
ATOM     12  C   UNL A   1      27.356  29.745  22.967  1.00  0.00     0.007 A 
ATOM     13  C   UNL A   1      29.658  29.598  22.244  1.00  0.00     0.015 A 
ATOM     14  C   UNL A   1      27.409  28.419  23.395  1.00  0.00     0.047 A 
ATOM     15  C   UNL A   1      29.716  28.270  22.677  1.00  0.00     0.017 A 
ATOM     16  C   UNL A   1      28.589  27.692  23.259  1.00  0.00     0.128 A 
ATOM     17  C   UNL A   1      30.918  27.465  22.503  1.00  0.00     0.025 C 
ATOM     18  O   UNL A   1      28.561  26.396  23.679  1.00  0.00    -0.475 OA
ATOM     19  C   UNL A   1      29.847  25.764  23.937  1.00  0.00     0.314 C 
BRANCH  19  20
ATOM     20  C   UNL A   1      30.145  25.832  25.445  1.00  0.00     0.429 C 
ATOM     21  F   UNL A   1      29.016  25.630  26.166  1.00  0.00    -0.167 F 
ATOM     22  F   UNL A   1      31.025  24.882  25.841  1.00  0.00    -0.167 F 
ATOM     23  F   UNL A   1      30.661  27.025  25.818  1.00  0.00    -0.167 F 
ENDBRANCH  19  20
ENDBRANCH   6   9
ENDBRANCH   4   5
ENDBRANCH   3   4
ENDBRANCH   2   3
ENDBRANCH   1   2
BRANCH   1  24
ATOM     24  C   UNL A   1      31.349  30.564  25.567  1.00  0.00     0.021 C 
BRANCH  24  25
ATOM     25  C   UNL A   1      31.942  31.004  26.900  1.00  0.00     0.116 C 
BRANCH  25  26
ATOM     26  N   UNL A   1      31.968  32.450  27.055  1.00  0.00    -0.352 N 
ATOM     27  C   UNL A   1      32.959  33.239  27.591  1.00  0.00     0.251 C 
ATOM     28  H   UNL A   1      31.170  32.927  26.733  1.00  0.00     0.163 HD
ATOM     29  O   UNL A   1      32.765  34.438  27.767  1.00  0.00    -0.269 OA
BRANCH  27  30
ATOM     30  C   UNL A   1      34.238  32.616  27.993  1.00  0.00     0.039 A 
ATOM     31  C   UNL A   1      34.301  31.252  28.289  1.00  0.00     0.014 A 
ATOM     32  C   UNL A   1      35.369  33.424  28.133  1.00  0.00     0.014 A 
ATOM     33  C   UNL A   1      35.449  30.729  28.879  1.00  0.00     0.010 A 
ATOM     34  C   UNL A   1      36.542  32.880  28.662  1.00  0.00     0.010 A 
ATOM     35  C   UNL A   1      36.574  31.542  29.087  1.00  0.00    -0.014 A 
BRANCH  35  36
ATOM     36  C   UNL A   1      37.771  30.998  29.779  1.00  0.00     0.031 A 
ATOM     37  C   UNL A   1      38.074  31.399  31.198  1.00  0.00     0.074 A 
ATOM     38  C   UNL A   1      38.570  30.125  29.138  1.00  0.00     0.049 A 
ATOM     39  N   UNL A   1      39.098  31.078  31.944  1.00  0.00    -0.248 NA
ATOM     40  C   UNL A   1      37.099  32.278  31.867  1.00  0.00     0.031 C 
ATOM     41  C   UNL A   1      38.352  29.638  27.776  1.00  0.00     0.029 A 
ATOM     42  N   UNL A   1      39.717  29.487  29.542  1.00  0.00    -0.354 N 
ATOM     43  C   UNL A   1      38.904  31.727  33.159  1.00  0.00     0.074 A 
ATOM     44  C   UNL A   1      37.677  32.483  33.043  1.00  0.00     0.031 C 
ATOM     45  C   UNL A   1      39.313  28.757  27.467  1.00  0.00     0.029 A 
ATOM     46  C   UNL A   1      40.261  28.670  28.577  1.00  0.00     0.049 A 
ATOM     47  H   UNL A   1      40.113  29.604  30.435  1.00  0.00     0.167 HD
ATOM     48  C   UNL A   1      39.676  31.683  34.271  1.00  0.00     0.034 A 
ATOM     49  C   UNL A   1      41.403  27.953  28.572  1.00  0.00     0.034 A 
ATOM     50  C   UNL A   1      40.883  30.905  34.378  1.00  0.00     0.049 A 
ATOM     51  C   UNL A   1      42.278  27.971  29.799  1.00  0.00     0.074 A 
ATOM     52  C   UNL A   1      41.719  30.775  35.472  1.00  0.00     0.029 A 
ATOM     53  N   UNL A   1      41.423  30.125  33.366  1.00  0.00    -0.354 N 
ATOM     54  N   UNL A   1      42.070  28.571  30.947  1.00  0.00    -0.248 NA
ATOM     55  C   UNL A   1      43.545  27.229  29.733  1.00  0.00     0.031 C 
ATOM     56  C   UNL A   1      42.792  29.961  35.105  1.00  0.00     0.029 A 
ATOM     57  C   UNL A   1      42.596  29.533  33.802  1.00  0.00     0.049 A 
ATOM     58  H   UNL A   1      41.031  30.010  32.470  1.00  0.00     0.167 HD
ATOM     59  C   UNL A   1      43.169  28.266  31.746  1.00  0.00     0.074 A 
ATOM     60  C   UNL A   1      44.029  27.410  30.956  1.00  0.00     0.031 C 
ATOM     61  C   UNL A   1      43.439  28.665  33.014  1.00  0.00     0.034 A 
BRANCH  48  62
ATOM     62  C   UNL A   1      39.255  32.483  35.478  1.00  0.00     0.023 A 
ATOM     63  C   UNL A   1      39.707  33.807  35.637  1.00  0.00     0.031 A 
ATOM     64  C   UNL A   1      38.522  31.899  36.525  1.00  0.00     0.131 A 
ATOM     65  C   UNL A   1      39.446  34.493  36.829  1.00  0.00     0.055 A 
ATOM     66  C   UNL A   1      38.235  32.599  37.698  1.00  0.00     0.041 A 
ATOM     67  F   UNL A   1      38.067  30.640  36.418  1.00  0.00    -0.206 F 
ATOM     68  C   UNL A   1      38.709  33.898  37.859  1.00  0.00     0.022 A 
BRANCH  65  69
ATOM     69  S   UNL A   1      40.099  36.161  37.117  1.00  0.00     0.124 S 
ATOM     70  O   UNL A   1      39.828  36.812  35.837  1.00  0.00    -0.237 OA
ATOM     71  O   UNL A   1      39.282  36.621  38.236  1.00  0.00    -0.237 OA
ATOM     72  O   UNL A   1      41.510  35.939  37.414  1.00  0.00    -0.744 OA
ENDBRANCH  65  69
ENDBRANCH  48  62
BRANCH  49  73
ATOM     73  C   UNL A   1      41.748  27.149  27.364  1.00  0.00     0.023 A 
ATOM     74  C   UNL A   1      41.518  25.761  27.327  1.00  0.00     0.031 A 
ATOM     75  C   UNL A   1      42.423  27.734  26.280  1.00  0.00     0.131 A 
ATOM     76  C   UNL A   1      42.031  24.995  26.274  1.00  0.00     0.055 A 
ATOM     77  C   UNL A   1      42.868  26.978  25.195  1.00  0.00     0.041 A 
ATOM     78  F   UNL A   1      42.674  29.053  26.273  1.00  0.00    -0.206 F 
ATOM     79  C   UNL A   1      42.691  25.596  25.198  1.00  0.00     0.022 A 
BRANCH  76  80
ATOM     80  S   UNL A   1      41.988  23.181  26.336  1.00  0.00     0.124 S 
ATOM     81  O   UNL A   1      42.566  22.819  25.046  1.00  0.00    -0.237 OA
ATOM     82  O   UNL A   1      42.823  22.904  27.503  1.00  0.00    -0.237 OA
ATOM     83  O   UNL A   1      40.572  22.876  26.504  1.00  0.00    -0.744 OA
ENDBRANCH  76  80
ENDBRANCH  49  73
BRANCH  61  84
ATOM     84  C   UNL A   1      44.715  28.196  33.665  1.00  0.00     0.023 A 
ATOM     85  C   UNL A   1      44.701  27.059  34.497  1.00  0.00     0.031 A 
ATOM     86  C   UNL A   1      45.883  28.972  33.614  1.00  0.00     0.131 A 
ATOM     87  C   UNL A   1      45.816  26.763  35.288  1.00  0.00     0.055 A 
ATOM     88  C   UNL A   1      47.010  28.647  34.371  1.00  0.00     0.041 A 
ATOM     89  F   UNL A   1      45.940  30.069  32.843  1.00  0.00    -0.206 F 
ATOM     90  C   UNL A   1      46.973  27.547  35.225  1.00  0.00     0.022 A 
BRANCH  87  91
ATOM     91  S   UNL A   1      45.776  25.406  36.492  1.00  0.00     0.124 S 
ATOM     92  O   UNL A   1      47.060  24.752  36.255  1.00  0.00    -0.237 OA
ATOM     93  O   UNL A   1      45.665  26.124  37.758  1.00  0.00    -0.237 OA
ATOM     94  O   UNL A   1      44.603  24.628  36.105  1.00  0.00    -0.744 OA
ENDBRANCH  87  91
ENDBRANCH  61  84
ENDBRANCH  35  36
ENDBRANCH  27  30
ENDBRANCH  25  26
ENDBRANCH  24  25
ENDBRANCH   1  24
TORSDOF 17
ENDMDL
MODEL 2
REMARK VINA RESULT:     -12.0      1.937      8.434
REMARK SMILES Cc1ccc2c(c1)C=C(C(=O)NCCCCCCNC(=O)c1ccc(-c3c4nc(c(-c5cc(S(=O)(=O)[O-])ccc5F)c5ccc([nH]5)c(-c5cc(S(=O)(=O)[O-])ccc5F)c5nc(c(-c6cc(S(=O)(=O)[O-])ccc6F)c6ccc3[nH]6)C=C5)C=C4)cc1)[C@@H](C(F)(F)F)O2
REMARK SMILES IDX 16 1 15 2 14 3 13 4 12 5 10 6 11 7 9 9 1 10 2 11 3 12 7 13
REMARK SMILES IDX 4 14 6 15 5 16 8 17 90 18 85 19 86 20 87 21 88 22 89 23
REMARK SMILES IDX 17 24 18 25 19 26 20 27 21 29 22 30 23 31 84 32 24 33 83 34
REMARK SMILES IDX 25 35 26 36 27 37 77 38 28 39 82 40 76 41 78 42 29 43 81 44
REMARK SMILES IDX 75 45 74 46 30 48 62 49 42 50 61 51 43 52 46 53 60 54 79 55
REMARK SMILES IDX 44 56 45 57 59 59 80 60 47 61 31 62 32 63 40 64 33 65 39 66
REMARK SMILES IDX 41 67 38 68 34 69 35 70 36 71 37 72 63 73 64 74 72 75 65 76
REMARK SMILES IDX 71 77 73 78 70 79 66 80 67 81 68 82 69 83 48 84 49 85 57 86
REMARK SMILES IDX 50 87 56 88 58 89 55 90 51 91 52 92 53 93 54 94
REMARK H PARENT 12 8 19 28 78 47 46 58
REMARK Flexibility Score: inf
ROOT
ATOM      1  C   UNL A   1      31.033  27.912  25.440  1.00  0.00     0.002 C 
ENDROOT
BRANCH   1   2
ATOM      2  C   UNL A   1      30.818  28.649  24.112  1.00  0.00     0.002 C 
BRANCH   2   3
ATOM      3  C   UNL A   1      30.192  27.824  22.981  1.00  0.00     0.021 C 
BRANCH   3   4
ATOM      4  C   UNL A   1      30.679  26.378  22.908  1.00  0.00     0.116 C 
BRANCH   4   5
ATOM      5  N   UNL A   1      31.597  26.173  21.801  1.00  0.00    -0.352 N 
ATOM      6  C   UNL A   1      32.665  25.390  21.527  1.00  0.00     0.251 C 
ATOM      7  O   UNL A   1      33.146  25.547  20.398  1.00  0.00    -0.270 OA
ATOM      8  H   UNL A   1      31.382  26.764  21.044  1.00  0.00     0.163 HD
BRANCH   6   9
ATOM      9  C   UNL A   1      33.279  24.390  22.454  1.00  0.00     0.067 C 
ATOM     10  C   UNL A   1      32.357  18.614  24.476  1.00  0.00     0.044 C 
ATOM     11  C   UNL A   1      33.085  19.915  24.313  1.00  0.00    -0.050 A 
ATOM     12  C   UNL A   1      34.279  20.158  25.003  1.00  0.00     0.007 A 
ATOM     13  C   UNL A   1      32.564  20.910  23.472  1.00  0.00     0.015 A 
ATOM     14  C   UNL A   1      34.942  21.376  24.852  1.00  0.00     0.047 A 
ATOM     15  C   UNL A   1      33.224  22.134  23.324  1.00  0.00     0.017 A 
ATOM     16  C   UNL A   1      34.408  22.360  24.024  1.00  0.00     0.128 A 
ATOM     17  C   UNL A   1      32.720  23.165  22.427  1.00  0.00     0.025 C 
ATOM     18  O   UNL A   1      35.122  23.515  23.909  1.00  0.00    -0.475 OA
ATOM     19  C   UNL A   1      34.404  24.680  23.411  1.00  0.00     0.314 C 
BRANCH  19  20
ATOM     20  C   UNL A   1      33.957  25.541  24.606  1.00  0.00     0.429 C 
ATOM     21  F   UNL A   1      32.739  25.147  25.050  1.00  0.00    -0.167 F 
ATOM     22  F   UNL A   1      34.799  25.437  25.661  1.00  0.00    -0.167 F 
ATOM     23  F   UNL A   1      33.874  26.854  24.297  1.00  0.00    -0.167 F 
ENDBRANCH  19  20
ENDBRANCH   6   9
ENDBRANCH   4   5
ENDBRANCH   3   4
ENDBRANCH   2   3
ENDBRANCH   1   2
BRANCH   1  24
ATOM     24  C   UNL A   1      31.818  28.673  26.510  1.00  0.00     0.021 C 
BRANCH  24  25
ATOM     25  C   UNL A   1      32.840  29.671  25.979  1.00  0.00     0.116 C 
BRANCH  25  26
ATOM     26  N   UNL A   1      32.545  31.041  26.367  1.00  0.00    -0.352 N 
ATOM     27  C   UNL A   1      33.254  31.870  27.205  1.00  0.00     0.251 C 
ATOM     28  H   UNL A   1      31.727  31.426  25.978  1.00  0.00     0.163 HD
ATOM     29  O   UNL A   1      32.793  32.959  27.532  1.00  0.00    -0.269 OA
BRANCH  27  30
ATOM     30  C   UNL A   1      34.554  31.411  27.740  1.00  0.00     0.039 A 
ATOM     31  C   UNL A   1      34.736  30.077  28.115  1.00  0.00     0.014 A 
ATOM     32  C   UNL A   1      35.577  32.344  27.926  1.00  0.00     0.014 A 
ATOM     33  C   UNL A   1      35.879  29.711  28.822  1.00  0.00     0.010 A 
ATOM     34  C   UNL A   1      36.751  31.958  28.574  1.00  0.00     0.010 A 
ATOM     35  C   UNL A   1      36.889  30.652  29.074  1.00  0.00    -0.014 A 
BRANCH  35  36
ATOM     36  C   UNL A   1      38.075  30.276  29.887  1.00  0.00     0.031 A 
ATOM     37  C   UNL A   1      39.111  29.339  29.327  1.00  0.00     0.074 A 
ATOM     38  C   UNL A   1      38.230  30.798  31.118  1.00  0.00     0.049 A 
ATOM     39  N   UNL A   1      40.178  28.851  29.903  1.00  0.00    -0.248 NA
ATOM     40  C   UNL A   1      38.925  28.890  27.936  1.00  0.00     0.031 C 
ATOM     41  C   UNL A   1      37.308  31.743  31.746  1.00  0.00     0.029 A 
ATOM     42  N   UNL A   1      39.215  30.616  32.057  1.00  0.00    -0.354 N 
ATOM     43  C   UNL A   1      40.779  28.024  28.959  1.00  0.00     0.074 A 
ATOM     44  C   UNL A   1      39.944  28.056  27.779  1.00  0.00     0.031 C 
ATOM     45  C   UNL A   1      37.784  32.083  32.952  1.00  0.00     0.029 A 
ATOM     46  C   UNL A   1      39.004  31.325  33.218  1.00  0.00     0.049 A 
ATOM     47  H   UNL A   1      39.996  30.035  31.914  1.00  0.00     0.167 HD
ATOM     48  C   UNL A   1      41.928  27.316  29.067  1.00  0.00     0.034 A 
ATOM     49  C   UNL A   1      39.696  31.343  34.376  1.00  0.00     0.034 A 
ATOM     50  C   UNL A   1      42.761  27.316  30.242  1.00  0.00     0.049 A 
ATOM     51  C   UNL A   1      40.937  30.497  34.494  1.00  0.00     0.074 A 
ATOM     52  C   UNL A   1      43.958  26.652  30.438  1.00  0.00     0.029 A 
ATOM     53  N   UNL A   1      42.492  28.011  31.413  1.00  0.00    -0.354 N 
ATOM     54  N   UNL A   1      41.505  29.739  33.586  1.00  0.00    -0.248 NA
ATOM     55  C   UNL A   1      41.628  30.495  35.791  1.00  0.00     0.031 C 
ATOM     56  C   UNL A   1      44.385  26.902  31.743  1.00  0.00     0.029 A 
ATOM     57  C   UNL A   1      43.487  27.770  32.343  1.00  0.00     0.049 A 
ATOM     58  H   UNL A   1      41.709  28.590  31.559  1.00  0.00     0.167 HD
ATOM     59  C   UNL A   1      42.627  29.184  34.193  1.00  0.00     0.074 A 
ATOM     60  C   UNL A   1      42.671  29.710  35.542  1.00  0.00     0.031 C 
ATOM     61  C   UNL A   1      43.533  28.314  33.680  1.00  0.00     0.034 A 
BRANCH  48  62
ATOM     62  C   UNL A   1      42.379  26.482  27.895  1.00  0.00     0.023 A 
ATOM     63  C   UNL A   1      41.963  25.142  27.783  1.00  0.00     0.031 A 
ATOM     64  C   UNL A   1      43.317  26.968  26.968  1.00  0.00     0.131 A 
ATOM     65  C   UNL A   1      42.507  24.326  26.784  1.00  0.00     0.055 A 
ATOM     66  C   UNL A   1      43.831  26.160  25.953  1.00  0.00     0.041 A 
ATOM     67  F   UNL A   1      43.742  28.241  27.033  1.00  0.00    -0.206 F 
ATOM     68  C   UNL A   1      43.435  24.828  25.865  1.00  0.00     0.022 A 
BRANCH  65  69
ATOM     69  S   UNL A   1      42.077  22.567  26.670  1.00  0.00     0.124 S 
ATOM     70  O   UNL A   1      43.039  21.965  27.592  1.00  0.00    -0.237 OA
ATOM     71  O   UNL A   1      40.690  22.561  27.125  1.00  0.00    -0.237 OA
ATOM     72  O   UNL A   1      42.283  22.245  25.263  1.00  0.00    -0.744 OA
ENDBRANCH  65  69
ENDBRANCH  48  62
BRANCH  49  73
ATOM     73  C   UNL A   1      39.224  32.218  35.488  1.00  0.00     0.023 A 
ATOM     74  C   UNL A   1      39.658  33.552  35.595  1.00  0.00     0.031 A 
ATOM     75  C   UNL A   1      38.430  31.697  36.524  1.00  0.00     0.131 A 
ATOM     76  C   UNL A   1      39.369  34.291  36.748  1.00  0.00     0.055 A 
ATOM     77  C   UNL A   1      38.081  32.462  37.638  1.00  0.00     0.041 A 
ATOM     78  F   UNL A   1      37.999  30.428  36.471  1.00  0.00    -0.206 F 
ATOM     79  C   UNL A   1      38.569  33.761  37.765  1.00  0.00     0.022 A 
BRANCH  76  80
ATOM     80  S   UNL A   1      40.141  35.909  37.034  1.00  0.00     0.124 S 
ATOM     81  O   UNL A   1      39.726  36.657  35.851  1.00  0.00    -0.237 OA
ATOM     82  O   UNL A   1      39.519  36.318  38.291  1.00  0.00    -0.237 OA
ATOM     83  O   UNL A   1      41.564  35.600  37.120  1.00  0.00    -0.744 OA
ENDBRANCH  76  80
ENDBRANCH  49  73
BRANCH  61  84
ATOM     84  C   UNL A   1      44.671  27.852  34.555  1.00  0.00     0.023 A 
ATOM     85  C   UNL A   1      44.515  26.710  35.364  1.00  0.00     0.031 A 
ATOM     86  C   UNL A   1      45.821  28.640  34.724  1.00  0.00     0.131 A 
ATOM     87  C   UNL A   1      45.468  26.420  36.347  1.00  0.00     0.055 A 
ATOM     88  C   UNL A   1      46.791  28.320  35.675  1.00  0.00     0.041 A 
ATOM     89  F   UNL A   1      46.007  29.742  33.981  1.00  0.00    -0.206 F 
ATOM     90  C   UNL A   1      46.609  27.215  36.502  1.00  0.00     0.022 A 
BRANCH  87  91
ATOM     91  S   UNL A   1      45.220  25.055  37.517  1.00  0.00     0.124 S 
ATOM     92  O   UNL A   1      44.629  24.028  36.663  1.00  0.00    -0.237 OA
ATOM     93  O   UNL A   1      46.583  24.786  37.966  1.00  0.00    -0.237 OA
ATOM     94  O   UNL A   1      44.324  25.614  38.525  1.00  0.00    -0.744 OA
ENDBRANCH  87  91
ENDBRANCH  61  84
ENDBRANCH  35  36
ENDBRANCH  27  30
ENDBRANCH  25  26
ENDBRANCH  24  25
ENDBRANCH   1  24
TORSDOF 17
ENDMDL
MODEL 3
REMARK VINA RESULT:     -12.0      5.663     10.716
REMARK SMILES Cc1ccc2c(c1)C=C(C(=O)NCCCCCCNC(=O)c1ccc(-c3c4nc(c(-c5cc(S(=O)(=O)[O-])ccc5F)c5ccc([nH]5)c(-c5cc(S(=O)(=O)[O-])ccc5F)c5nc(c(-c6cc(S(=O)(=O)[O-])ccc6F)c6ccc3[nH]6)C=C5)C=C4)cc1)[C@@H](C(F)(F)F)O2
REMARK SMILES IDX 16 1 15 2 14 3 13 4 12 5 10 6 11 7 9 9 1 10 2 11 3 12 7 13
REMARK SMILES IDX 4 14 6 15 5 16 8 17 90 18 85 19 86 20 87 21 88 22 89 23
REMARK SMILES IDX 17 24 18 25 19 26 20 27 21 29 22 30 23 31 84 32 24 33 83 34
REMARK SMILES IDX 25 35 26 36 27 37 77 38 28 39 82 40 76 41 78 42 29 43 81 44
REMARK SMILES IDX 75 45 74 46 30 48 62 49 42 50 61 51 43 52 46 53 60 54 79 55
REMARK SMILES IDX 44 56 45 57 59 59 80 60 47 61 31 62 32 63 40 64 33 65 39 66
REMARK SMILES IDX 41 67 38 68 34 69 35 70 36 71 37 72 63 73 64 74 72 75 65 76
REMARK SMILES IDX 71 77 73 78 70 79 66 80 67 81 68 82 69 83 48 84 49 85 57 86
REMARK SMILES IDX 50 87 56 88 58 89 55 90 51 91 52 92 53 93 54 94
REMARK H PARENT 12 8 19 28 78 47 46 58
REMARK Flexibility Score: inf
ROOT
ATOM      1  C   UNL A   1      36.372  21.285  24.922  1.00  0.00     0.002 C 
ENDROOT
BRANCH   1   2
ATOM      2  C   UNL A   1      36.962  22.700  24.873  1.00  0.00     0.002 C 
BRANCH   2   3
ATOM      3  C   UNL A   1      36.113  23.802  25.519  1.00  0.00     0.021 C 
BRANCH   3   4
ATOM      4  C   UNL A   1      35.063  23.296  26.505  1.00  0.00     0.116 C 
BRANCH   4   5
ATOM      5  N   UNL A   1      33.757  23.877  26.249  1.00  0.00    -0.352 N 
ATOM      6  C   UNL A   1      32.685  23.609  25.468  1.00  0.00     0.251 C 
ATOM      7  O   UNL A   1      31.742  24.400  25.595  1.00  0.00    -0.270 OA
ATOM      8  H   UNL A   1      33.612  24.685  26.793  1.00  0.00     0.163 HD
BRANCH   6   9
ATOM      9  C   UNL A   1      32.566  22.475  24.503  1.00  0.00     0.067 C 
ATOM     10  C   UNL A   1      33.790  16.419  24.138  1.00  0.00     0.044 C 
ATOM     11  C   UNL A   1      33.240  17.741  23.691  1.00  0.00    -0.050 A 
ATOM     12  C   UNL A   1      32.648  17.881  22.430  1.00  0.00     0.007 A 
ATOM     13  C   UNL A   1      33.328  18.858  24.535  1.00  0.00     0.015 A 
ATOM     14  C   UNL A   1      32.150  19.117  22.021  1.00  0.00     0.047 A 
ATOM     15  C   UNL A   1      32.834  20.100  24.125  1.00  0.00     0.017 A 
ATOM     16  C   UNL A   1      32.254  20.221  22.863  1.00  0.00     0.128 A 
ATOM     17  C   UNL A   1      32.880  21.263  25.001  1.00  0.00     0.025 C 
ATOM     18  O   UNL A   1      31.726  21.391  22.406  1.00  0.00    -0.475 OA
ATOM     19  C   UNL A   1      32.182  22.613  23.053  1.00  0.00     0.314 C 
BRANCH  19  20
ATOM     20  C   UNL A   1      33.299  23.243  22.203  1.00  0.00     0.429 C 
ATOM     21  F   UNL A   1      34.517  22.946  22.717  1.00  0.00    -0.167 F 
ATOM     22  F   UNL A   1      33.299  22.785  20.929  1.00  0.00    -0.167 F 
ATOM     23  F   UNL A   1      33.201  24.590  22.136  1.00  0.00    -0.167 F 
ENDBRANCH  19  20
ENDBRANCH   6   9
ENDBRANCH   4   5
ENDBRANCH   3   4
ENDBRANCH   2   3
ENDBRANCH   1   2
BRANCH   1  24
ATOM     24  C   UNL A   1      37.377  20.146  25.105  1.00  0.00     0.021 C 
BRANCH  24  25
ATOM     25  C   UNL A   1      38.843  20.551  25.014  1.00  0.00     0.116 C 
BRANCH  25  26
ATOM     26  N   UNL A   1      39.716  19.687  25.793  1.00  0.00    -0.352 N 
ATOM     27  C   UNL A   1      40.685  20.039  26.704  1.00  0.00     0.251 C 
ATOM     28  H   UNL A   1      39.597  18.721  25.647  1.00  0.00     0.163 HD
ATOM     29  O   UNL A   1      41.426  19.184  27.178  1.00  0.00    -0.269 OA
BRANCH  27  30
ATOM     30  C   UNL A   1      40.849  21.463  27.066  1.00  0.00     0.039 A 
ATOM     31  C   UNL A   1      40.293  22.467  26.269  1.00  0.00     0.014 A 
ATOM     32  C   UNL A   1      41.623  21.792  28.182  1.00  0.00     0.014 A 
ATOM     33  C   UNL A   1      40.643  23.796  26.494  1.00  0.00     0.010 A 
ATOM     34  C   UNL A   1      41.916  23.132  28.445  1.00  0.00     0.010 A 
ATOM     35  C   UNL A   1      41.472  24.140  27.572  1.00  0.00    -0.014 A 
BRANCH  35  36
ATOM     36  C   UNL A   1      41.899  25.549  27.768  1.00  0.00     0.031 A 
ATOM     37  C   UNL A   1      43.222  26.022  27.228  1.00  0.00     0.074 A 
ATOM     38  C   UNL A   1      41.085  26.408  28.409  1.00  0.00     0.049 A 
ATOM     39  N   UNL A   1      43.790  27.193  27.349  1.00  0.00    -0.248 NA
ATOM     40  C   UNL A   1      44.012  25.052  26.449  1.00  0.00     0.031 C 
ATOM     41  C   UNL A   1      39.766  26.068  28.941  1.00  0.00     0.029 A 
ATOM     42  N   UNL A   1      41.238  27.737  28.718  1.00  0.00    -0.354 N 
ATOM     43  C   UNL A   1      45.008  27.098  26.683  1.00  0.00     0.074 A 
ATOM     44  C   UNL A   1      45.110  25.746  26.181  1.00  0.00     0.031 C 
ATOM     45  C   UNL A   1      39.216  27.164  29.483  1.00  0.00     0.029 A 
ATOM     46  C   UNL A   1      40.171  28.268  29.407  1.00  0.00     0.049 A 
ATOM     47  H   UNL A   1      42.034  28.260  28.470  1.00  0.00     0.167 HD
ATOM     48  C   UNL A   1      45.947  28.057  26.500  1.00  0.00     0.034 A 
ATOM     49  C   UNL A   1      39.990  29.493  29.941  1.00  0.00     0.034 A 
ATOM     50  C   UNL A   1      45.818  29.406  26.986  1.00  0.00     0.049 A 
ATOM     51  C   UNL A   1      41.077  30.525  29.779  1.00  0.00     0.074 A 
ATOM     52  C   UNL A   1      46.703  30.457  26.827  1.00  0.00     0.029 A 
ATOM     53  N   UNL A   1      44.743  29.894  27.716  1.00  0.00    -0.354 N 
ATOM     54  N   UNL A   1      42.212  30.426  29.127  1.00  0.00    -0.248 NA
ATOM     55  C   UNL A   1      40.871  31.827  30.427  1.00  0.00     0.031 C 
ATOM     56  C   UNL A   1      46.190  31.564  27.506  1.00  0.00     0.029 A 
ATOM     57  C   UNL A   1      44.956  31.222  28.038  1.00  0.00     0.049 A 
ATOM     58  H   UNL A   1      43.947  29.371  27.968  1.00  0.00     0.167 HD
ATOM     59  C   UNL A   1      42.847  31.657  29.273  1.00  0.00     0.074 A 
ATOM     60  C   UNL A   1      41.960  32.490  30.057  1.00  0.00     0.031 C 
ATOM     61  C   UNL A   1      44.057  32.053  28.804  1.00  0.00     0.034 A 
BRANCH  48  62
ATOM     62  C   UNL A   1      47.200  27.709  25.737  1.00  0.00     0.023 A 
ATOM     63  C   UNL A   1      47.264  27.937  24.349  1.00  0.00     0.031 A 
ATOM     64  C   UNL A   1      48.269  27.037  26.352  1.00  0.00     0.131 A 
ATOM     65  C   UNL A   1      48.363  27.469  23.618  1.00  0.00     0.055 A 
ATOM     66  C   UNL A   1      49.378  26.602  25.624  1.00  0.00     0.041 A 
ATOM     67  F   UNL A   1      48.253  26.798  27.674  1.00  0.00    -0.206 F 
ATOM     68  C   UNL A   1      49.423  26.808  24.248  1.00  0.00     0.022 A 
BRANCH  65  69
ATOM     69  S   UNL A   1      48.437  27.649  21.814  1.00  0.00     0.124 S 
ATOM     70  O   UNL A   1      47.122  28.213  21.516  1.00  0.00    -0.237 OA
ATOM     71  O   UNL A   1      49.561  28.566  21.644  1.00  0.00    -0.237 OA
ATOM     72  O   UNL A   1      48.652  26.289  21.334  1.00  0.00    -0.744 OA
ENDBRANCH  65  69
ENDBRANCH  48  62
BRANCH  49  73
ATOM     73  C   UNL A   1      38.713  29.792  30.651  1.00  0.00     0.023 A 
ATOM     74  C   UNL A   1      37.704  30.557  30.036  1.00  0.00     0.031 A 
ATOM     75  C   UNL A   1      38.534  29.422  31.994  1.00  0.00     0.131 A 
ATOM     76  C   UNL A   1      36.606  30.997  30.785  1.00  0.00     0.055 A 
ATOM     77  C   UNL A   1      37.401  29.800  32.717  1.00  0.00     0.041 A 
ATOM     78  F   UNL A   1      39.472  28.700  32.626  1.00  0.00    -0.206 F 
ATOM     79  C   UNL A   1      36.439  30.610  32.118  1.00  0.00     0.022 A 
BRANCH  76  80
ATOM     80  S   UNL A   1      35.437  32.204  30.099  1.00  0.00     0.124 S 
ATOM     81  O   UNL A   1      34.966  31.522  28.897  1.00  0.00    -0.237 OA
ATOM     82  O   UNL A   1      34.462  32.322  31.181  1.00  0.00    -0.237 OA
ATOM     83  O   UNL A   1      36.257  33.388  29.874  1.00  0.00    -0.744 OA
ENDBRANCH  76  80
ENDBRANCH  49  73
BRANCH  61  84
ATOM     84  C   UNL A   1      44.528  33.453  29.106  1.00  0.00     0.023 A 
ATOM     85  C   UNL A   1      44.106  34.525  28.295  1.00  0.00     0.031 A 
ATOM     86  C   UNL A   1      45.527  33.692  30.063  1.00  0.00     0.131 A 
ATOM     87  C   UNL A   1      44.724  35.775  28.419  1.00  0.00     0.055 A 
ATOM     88  C   UNL A   1      46.108  34.952  30.214  1.00  0.00     0.041 A 
ATOM     89  F   UNL A   1      45.966  32.698  30.852  1.00  0.00    -0.206 F 
ATOM     90  C   UNL A   1      45.717  35.995  29.379  1.00  0.00     0.022 A 
BRANCH  87  91
ATOM     91  S   UNL A   1      44.325  37.132  27.283  1.00  0.00     0.124 S 
ATOM     92  O   UNL A   1      43.989  38.212  28.207  1.00  0.00    -0.237 OA
ATOM     93  O   UNL A   1      45.580  37.300  26.556  1.00  0.00    -0.237 OA
ATOM     94  O   UNL A   1      43.207  36.617  26.498  1.00  0.00    -0.744 OA
ENDBRANCH  87  91
ENDBRANCH  61  84
ENDBRANCH  35  36
ENDBRANCH  27  30
ENDBRANCH  25  26
ENDBRANCH  24  25
ENDBRANCH   1  24
TORSDOF 17
ENDMDL
