MODEL 1
REMARK VINA RESULT:     -10.3      0.000      0.000
REMARK SMILES COC(=O)C[C@@H](NC(=O)c1ccccc1C(=O)NCCCCCCNC(=O)c1ccc(-c2c3nc(c(-c4cc(S(=O)(=O)[O-])ccc4F)c4ccc([nH]4)c(-c4cc(S(=O)(=O)[O-])ccc4F)c4nc(c(-c5cc(S(=O)(=O)[O-])ccc5F)c5ccc2[nH]5)C=C4)C=C3)cc1)c1cccc(C)c1C
REMARK SMILES IDX 20 1 19 2 18 3 16 4 17 5 15 7 10 8 11 9 12 10 14 11 13 12
REMARK SMILES IDX 8 13 7 14 9 16 6 17 5 18 3 19 4 20 2 21 1 22 91 23 92 24
REMARK SMILES IDX 97 25 93 26 95 27 98 28 94 29 96 30 21 31 22 32 23 33 24 34
REMARK SMILES IDX 25 35 26 36 27 38 28 39 29 40 90 41 30 42 89 43 31 44 32 45
REMARK SMILES IDX 33 46 83 47 34 48 88 49 82 50 84 51 35 52 87 53 81 54 80 55
REMARK SMILES IDX 36 57 68 58 48 59 67 60 49 61 52 62 66 63 85 64 50 65 51 66
REMARK SMILES IDX 65 68 86 69 53 70 37 71 38 72 46 73 39 74 45 75 47 76 44 77
REMARK SMILES IDX 40 78 41 79 42 80 43 81 69 82 70 83 78 84 71 85 77 86 79 87
REMARK SMILES IDX 76 88 72 89 73 90 74 91 75 92 54 93 55 94 63 95 56 96 62 97
REMARK SMILES IDX 64 98 61 99 57 100 58 101 59 102 60 103
REMARK H PARENT 18 6 7 15 25 37 84 56 52 67
REMARK Flexibility Score: inf
ROOT
ATOM      1  C   UNL A   1      37.097  23.371  26.753  1.00  0.00     0.021 C 
ENDROOT
BRANCH   1   2
ATOM      2  C   UNL A   1      36.047  24.045  25.882  1.00  0.00     0.116 C 
BRANCH   2   3
ATOM      3  N   UNL A   1      36.309  23.908  24.469  1.00  0.00    -0.352 N 
ATOM      4  C   UNL A   1      35.843  22.992  23.569  1.00  0.00     0.252 C 
ATOM      5  O   UNL A   1      36.366  22.998  22.452  1.00  0.00    -0.269 OA
ATOM      6  H   UNL A   1      36.918  24.585  24.095  1.00  0.00     0.163 HD
BRANCH   4   7
ATOM      7  C   UNL A   1      34.827  21.953  23.881  1.00  0.00     0.052 A 
ATOM      8  C   UNL A   1      33.485  21.910  23.488  1.00  0.00     0.052 A 
ATOM      9  C   UNL A   1      32.658  20.858  23.949  1.00  0.00     0.014 A 
ATOM     10  C   UNL A   1      33.169  19.814  24.719  1.00  0.00     0.001 A 
ATOM     11  C   UNL A   1      35.329  20.868  24.639  1.00  0.00     0.014 A 
ATOM     12  C   UNL A   1      34.515  19.808  25.048  1.00  0.00     0.001 A 
BRANCH   8  13
ATOM     13  C   UNL A   1      32.755  22.869  22.638  1.00  0.00     0.252 C 
ATOM     14  N   UNL A   1      32.216  24.045  23.087  1.00  0.00    -0.345 N 
ATOM     15  H   UNL A   1      32.064  24.705  22.373  1.00  0.00     0.164 HD
ATOM     16  O   UNL A   1      32.726  22.645  21.427  1.00  0.00    -0.269 OA
BRANCH  14  17
ATOM     17  C   UNL A   1      31.820  24.525  24.422  1.00  0.00     0.124 C 
BRANCH  17  18
ATOM     18  C   UNL A   1      30.678  23.671  24.980  1.00  0.00     0.152 C 
BRANCH  18  19
ATOM     19  C   UNL A   1      30.954  23.270  26.402  1.00  0.00     0.307 C 
ATOM     20  O   UNL A   1      30.194  23.495  27.333  1.00  0.00    -0.252 OA
BRANCH  19  21
ATOM     21  O   UNL A   1      32.147  22.624  26.492  1.00  0.00    -0.469 OA
ATOM     22  C   UNL A   1      32.898  22.911  27.676  1.00  0.00     0.282 C 
ENDBRANCH  19  21
ENDBRANCH  18  19
ENDBRANCH  17  18
BRANCH  17  23
ATOM     23  C   UNL A   1      31.405  25.988  24.460  1.00  0.00    -0.022 A 
ATOM     24  C   UNL A   1      30.220  26.386  23.814  1.00  0.00     0.006 A 
ATOM     25  C   UNL A   1      32.209  26.970  25.096  1.00  0.00    -0.043 A 
ATOM     26  C   UNL A   1      29.919  27.731  23.644  1.00  0.00     0.001 A 
ATOM     27  C   UNL A   1      31.919  28.338  24.881  1.00  0.00    -0.048 A 
ATOM     28  C   UNL A   1      33.365  26.598  25.997  1.00  0.00     0.045 C 
ATOM     29  C   UNL A   1      30.786  28.699  24.136  1.00  0.00     0.004 A 
ATOM     30  C   UNL A   1      32.855  29.436  25.314  1.00  0.00     0.044 C 
ENDBRANCH  17  23
ENDBRANCH  14  17
ENDBRANCH   8  13
ENDBRANCH   4   7
ENDBRANCH   2   3
ENDBRANCH   1   2
BRANCH   1  31
ATOM     31  C   UNL A   1      38.451  23.114  26.079  1.00  0.00     0.002 C 
BRANCH  31  32
ATOM     32  C   UNL A   1      38.785  21.665  25.711  1.00  0.00     0.002 C 
BRANCH  32  33
ATOM     33  C   UNL A   1      40.106  21.104  26.238  1.00  0.00     0.021 C 
BRANCH  33  34
ATOM     34  C   UNL A   1      41.210  22.112  26.517  1.00  0.00     0.116 C 
BRANCH  34  35
ATOM     35  N   UNL A   1      42.241  22.109  25.497  1.00  0.00    -0.352 N 
ATOM     36  C   UNL A   1      43.076  23.113  25.076  1.00  0.00     0.251 C 
ATOM     37  H   UNL A   1      42.359  21.249  25.031  1.00  0.00     0.163 HD
ATOM     38  O   UNL A   1      43.768  22.931  24.077  1.00  0.00    -0.269 OA
BRANCH  36  39
ATOM     39  C   UNL A   1      43.127  24.414  25.787  1.00  0.00     0.039 A 
ATOM     40  C   UNL A   1      43.576  24.435  27.110  1.00  0.00     0.014 A 
ATOM     41  C   UNL A   1      42.709  25.603  25.181  1.00  0.00     0.014 A 
ATOM     42  C   UNL A   1      43.659  25.647  27.802  1.00  0.00     0.010 A 
ATOM     43  C   UNL A   1      42.876  26.820  25.840  1.00  0.00     0.010 A 
ATOM     44  C   UNL A   1      43.341  26.856  27.162  1.00  0.00    -0.014 A 
BRANCH  44  45
ATOM     45  C   UNL A   1      43.464  28.159  27.868  1.00  0.00     0.031 A 
ATOM     46  C   UNL A   1      42.248  28.809  28.471  1.00  0.00     0.074 A 
ATOM     47  C   UNL A   1      44.658  28.785  27.915  1.00  0.00     0.049 A 
ATOM     48  N   UNL A   1      42.131  29.975  29.056  1.00  0.00    -0.248 NA
ATOM     49  C   UNL A   1      40.985  28.061  28.372  1.00  0.00     0.031 C 
ATOM     50  C   UNL A   1      45.900  28.276  27.329  1.00  0.00     0.029 A 
ATOM     51  N   UNL A   1      45.021  29.985  28.470  1.00  0.00    -0.354 N 
ATOM     52  C   UNL A   1      40.784  30.108  29.374  1.00  0.00     0.074 A 
ATOM     53  C   UNL A   1      40.115  28.933  28.859  1.00  0.00     0.031 C 
ATOM     54  C   UNL A   1      46.892  29.147  27.578  1.00  0.00     0.029 A 
ATOM     55  C   UNL A   1      46.350  30.295  28.298  1.00  0.00     0.049 A 
ATOM     56  H   UNL A   1      44.389  30.571  28.947  1.00  0.00     0.167 HD
ATOM     57  C   UNL A   1      40.165  31.107  30.053  1.00  0.00     0.034 A 
ATOM     58  C   UNL A   1      47.051  31.386  28.667  1.00  0.00     0.034 A 
ATOM     59  C   UNL A   1      40.852  32.264  30.575  1.00  0.00     0.049 A 
ATOM     60  C   UNL A   1      46.343  32.488  29.410  1.00  0.00     0.074 A 
ATOM     61  C   UNL A   1      40.340  33.304  31.332  1.00  0.00     0.029 A 
ATOM     62  N   UNL A   1      42.201  32.541  30.386  1.00  0.00    -0.354 N 
ATOM     63  N   UNL A   1      45.078  32.576  29.751  1.00  0.00    -0.248 NA
ATOM     64  C   UNL A   1      47.161  33.633  29.830  1.00  0.00     0.031 C 
ATOM     65  C   UNL A   1      41.360  34.239  31.542  1.00  0.00     0.029 A 
ATOM     66  C   UNL A   1      42.530  33.748  30.984  1.00  0.00     0.049 A 
ATOM     67  H   UNL A   1      42.832  31.963  29.899  1.00  0.00     0.167 HD
ATOM     68  C   UNL A   1      44.955  33.775  30.448  1.00  0.00     0.074 A 
ATOM     69  C   UNL A   1      46.278  34.365  30.492  1.00  0.00     0.031 C 
ATOM     70  C   UNL A   1      43.850  34.335  31.004  1.00  0.00     0.034 A 
BRANCH  57  71
ATOM     71  C   UNL A   1      38.668  30.995  30.243  1.00  0.00     0.023 A 
ATOM     72  C   UNL A   1      37.762  31.485  29.285  1.00  0.00     0.031 A 
ATOM     73  C   UNL A   1      38.139  30.429  31.415  1.00  0.00     0.131 A 
ATOM     74  C   UNL A   1      36.385  31.482  29.555  1.00  0.00     0.055 A 
ATOM     75  C   UNL A   1      36.762  30.348  31.638  1.00  0.00     0.041 A 
ATOM     76  F   UNL A   1      38.950  29.961  32.376  1.00  0.00    -0.206 F 
ATOM     77  C   UNL A   1      35.876  30.893  30.714  1.00  0.00     0.022 A 
BRANCH  74  78
ATOM     78  S   UNL A   1      35.284  32.404  28.445  1.00  0.00     0.124 S 
ATOM     79  O   UNL A   1      34.323  32.971  29.390  1.00  0.00    -0.237 OA
ATOM     80  O   UNL A   1      36.195  33.352  27.813  1.00  0.00    -0.237 OA
ATOM     81  O   UNL A   1      34.744  31.373  27.563  1.00  0.00    -0.744 OA
ENDBRANCH  74  78
ENDBRANCH  57  71
BRANCH  58  82
ATOM     82  C   UNL A   1      48.501  31.495  28.334  1.00  0.00     0.023 A 
ATOM     83  C   UNL A   1      48.947  32.346  27.311  1.00  0.00     0.031 A 
ATOM     84  C   UNL A   1      49.461  30.729  29.021  1.00  0.00     0.131 A 
ATOM     85  C   UNL A   1      50.309  32.384  26.976  1.00  0.00     0.055 A 
ATOM     86  C   UNL A   1      50.821  30.807  28.718  1.00  0.00     0.041 A 
ATOM     87  F   UNL A   1      49.088  29.905  30.014  1.00  0.00    -0.206 F 
ATOM     88  C   UNL A   1      51.250  31.629  27.681  1.00  0.00     0.022 A 
BRANCH  85  89
ATOM     89  S   UNL A   1      50.828  33.384  25.555  1.00  0.00     0.124 S 
ATOM     90  O   UNL A   1      51.869  34.219  26.143  1.00  0.00    -0.237 OA
ATOM     91  O   UNL A   1      51.277  32.363  24.614  1.00  0.00    -0.237 OA
ATOM     92  O   UNL A   1      49.607  34.088  25.170  1.00  0.00    -0.744 OA
ENDBRANCH  85  89
ENDBRANCH  58  82
BRANCH  70  93
ATOM     93  C   UNL A   1      44.043  35.638  31.739  1.00  0.00     0.023 A 
ATOM     94  C   UNL A   1      44.362  35.676  33.108  1.00  0.00     0.031 A 
ATOM     95  C   UNL A   1      43.888  36.862  31.063  1.00  0.00     0.131 A 
ATOM     96  C   UNL A   1      44.458  36.910  33.769  1.00  0.00     0.055 A 
ATOM     97  C   UNL A   1      44.048  38.087  31.712  1.00  0.00     0.041 A 
ATOM     98  F   UNL A   1      43.582  36.886  29.756  1.00  0.00    -0.206 F 
ATOM     99  C   UNL A   1      44.320  38.115  33.077  1.00  0.00     0.022 A 
BRANCH  96 100
ATOM    100  S   UNL A   1      44.672  36.917  35.571  1.00  0.00     0.124 S 
ATOM    101  O   UNL A   1      46.124  36.996  35.703  1.00  0.00    -0.237 OA
ATOM    102  O   UNL A   1      43.929  38.108  35.969  1.00  0.00    -0.237 OA
ATOM    103  O   UNL A   1      44.079  35.648  35.992  1.00  0.00    -0.744 OA
ENDBRANCH  96 100
ENDBRANCH  70  93
ENDBRANCH  44  45
ENDBRANCH  36  39
ENDBRANCH  34  35
ENDBRANCH  33  34
ENDBRANCH  32  33
ENDBRANCH  31  32
ENDBRANCH   1  31
TORSDOF 22
ENDMDL
MODEL 2
REMARK VINA RESULT:     -10.0      1.936      7.677
REMARK SMILES COC(=O)C[C@@H](NC(=O)c1ccccc1C(=O)NCCCCCCNC(=O)c1ccc(-c2c3nc(c(-c4cc(S(=O)(=O)[O-])ccc4F)c4ccc([nH]4)c(-c4cc(S(=O)(=O)[O-])ccc4F)c4nc(c(-c5cc(S(=O)(=O)[O-])ccc5F)c5ccc2[nH]5)C=C4)C=C3)cc1)c1cccc(C)c1C
REMARK SMILES IDX 20 1 19 2 18 3 16 4 17 5 15 7 10 8 11 9 12 10 14 11 13 12
REMARK SMILES IDX 8 13 7 14 9 16 6 17 5 18 3 19 4 20 2 21 1 22 91 23 92 24
REMARK SMILES IDX 97 25 93 26 95 27 98 28 94 29 96 30 21 31 22 32 23 33 24 34
REMARK SMILES IDX 25 35 26 36 27 38 28 39 29 40 90 41 30 42 89 43 31 44 32 45
REMARK SMILES IDX 33 46 83 47 34 48 88 49 82 50 84 51 35 52 87 53 81 54 80 55
REMARK SMILES IDX 36 57 68 58 48 59 67 60 49 61 52 62 66 63 85 64 50 65 51 66
REMARK SMILES IDX 65 68 86 69 53 70 37 71 38 72 46 73 39 74 45 75 47 76 44 77
REMARK SMILES IDX 40 78 41 79 42 80 43 81 69 82 70 83 78 84 71 85 77 86 79 87
REMARK SMILES IDX 76 88 72 89 73 90 74 91 75 92 54 93 55 94 63 95 56 96 62 97
REMARK SMILES IDX 64 98 61 99 57 100 58 101 59 102 60 103
REMARK H PARENT 18 6 7 15 25 37 84 56 52 67
REMARK Flexibility Score: inf
ROOT
ATOM      1  C   UNL A   1      36.201  22.545  25.162  1.00  0.00     0.021 C 
ENDROOT
BRANCH   1   2
ATOM      2  C   UNL A   1      34.686  22.661  25.246  1.00  0.00     0.116 C 
BRANCH   2   3
ATOM      3  N   UNL A   1      34.244  23.805  26.006  1.00  0.00    -0.352 N 
ATOM      4  C   UNL A   1      33.549  24.913  25.611  1.00  0.00     0.252 C 
ATOM      5  O   UNL A   1      33.454  25.829  26.432  1.00  0.00    -0.269 OA
ATOM      6  H   UNL A   1      34.481  23.783  26.961  1.00  0.00     0.163 HD
BRANCH   4   7
ATOM      7  C   UNL A   1      32.988  25.109  24.248  1.00  0.00     0.052 A 
ATOM      8  C   UNL A   1      31.661  25.366  23.887  1.00  0.00     0.052 A 
ATOM      9  C   UNL A   1      31.318  25.455  22.517  1.00  0.00     0.014 A 
ATOM     10  C   UNL A   1      32.285  25.376  21.517  1.00  0.00     0.001 A 
ATOM     11  C   UNL A   1      33.957  25.061  23.217  1.00  0.00     0.014 A 
ATOM     12  C   UNL A   1      33.614  25.199  21.870  1.00  0.00     0.001 A 
BRANCH   8  13
ATOM     13  C   UNL A   1      30.495  25.541  24.773  1.00  0.00     0.252 C 
ATOM     14  N   UNL A   1      29.671  26.635  24.758  1.00  0.00    -0.345 N 
ATOM     15  H   UNL A   1      28.785  26.463  25.151  1.00  0.00     0.164 HD
ATOM     16  O   UNL A   1      30.184  24.591  25.493  1.00  0.00    -0.269 OA
BRANCH  14  17
ATOM     17  C   UNL A   1      29.840  28.015  24.274  1.00  0.00     0.124 C 
BRANCH  17  18
ATOM     18  C   UNL A   1      29.181  28.185  22.902  1.00  0.00     0.152 C 
BRANCH  18  19
ATOM     19  C   UNL A   1      28.152  29.280  22.935  1.00  0.00     0.307 C 
ATOM     20  O   UNL A   1      26.971  29.097  23.194  1.00  0.00    -0.252 OA
BRANCH  19  21
ATOM     21  O   UNL A   1      28.723  30.479  22.646  1.00  0.00    -0.469 OA
ATOM     22  C   UNL A   1      28.416  31.529  23.569  1.00  0.00     0.282 C 
ENDBRANCH  19  21
ENDBRANCH  18  19
ENDBRANCH  17  18
BRANCH  17  23
ATOM     23  C   UNL A   1      31.289  28.470  24.184  1.00  0.00    -0.022 A 
ATOM     24  C   UNL A   1      31.877  28.652  22.918  1.00  0.00     0.006 A 
ATOM     25  C   UNL A   1      32.076  28.673  25.348  1.00  0.00    -0.043 A 
ATOM     26  C   UNL A   1      33.246  28.857  22.791  1.00  0.00     0.001 A 
ATOM     27  C   UNL A   1      33.474  28.838  25.210  1.00  0.00    -0.048 A 
ATOM     28  C   UNL A   1      31.464  28.721  26.730  1.00  0.00     0.045 C 
ATOM     29  C   UNL A   1      34.043  28.906  23.928  1.00  0.00     0.004 A 
ATOM     30  C   UNL A   1      34.406  28.818  26.393  1.00  0.00     0.044 C 
ENDBRANCH  17  23
ENDBRANCH  14  17
ENDBRANCH   8  13
ENDBRANCH   4   7
ENDBRANCH   2   3
ENDBRANCH   1   2
BRANCH   1  31
ATOM     31  C   UNL A   1      36.989  23.679  25.830  1.00  0.00     0.002 C 
BRANCH  31  32
ATOM     32  C   UNL A   1      38.461  23.410  26.158  1.00  0.00     0.002 C 
BRANCH  32  33
ATOM     33  C   UNL A   1      38.947  21.967  26.021  1.00  0.00     0.021 C 
BRANCH  33  34
ATOM     34  C   UNL A   1      40.086  21.543  26.936  1.00  0.00     0.116 C 
BRANCH  34  35
ATOM     35  N   UNL A   1      41.272  21.141  26.203  1.00  0.00    -0.352 N 
ATOM     36  C   UNL A   1      42.407  21.848  25.896  1.00  0.00     0.251 C 
ATOM     37  H   UNL A   1      41.259  20.214  25.873  1.00  0.00     0.163 HD
ATOM     38  O   UNL A   1      43.222  21.355  25.120  1.00  0.00    -0.269 OA
BRANCH  36  39
ATOM     39  C   UNL A   1      42.641  23.201  26.457  1.00  0.00     0.039 A 
ATOM     40  C   UNL A   1      42.579  24.300  25.596  1.00  0.00     0.014 A 
ATOM     41  C   UNL A   1      42.952  23.398  27.806  1.00  0.00     0.014 A 
ATOM     42  C   UNL A   1      42.772  25.592  26.094  1.00  0.00     0.010 A 
ATOM     43  C   UNL A   1      43.055  24.690  28.317  1.00  0.00     0.010 A 
ATOM     44  C   UNL A   1      42.979  25.802  27.467  1.00  0.00    -0.014 A 
BRANCH  44  45
ATOM     45  C   UNL A   1      43.142  27.172  28.022  1.00  0.00     0.031 A 
ATOM     46  C   UNL A   1      44.516  27.772  28.159  1.00  0.00     0.074 A 
ATOM     47  C   UNL A   1      42.062  27.851  28.458  1.00  0.00     0.049 A 
ATOM     48  N   UNL A   1      44.876  28.914  28.689  1.00  0.00    -0.248 NA
ATOM     49  C   UNL A   1      45.640  26.963  27.662  1.00  0.00     0.031 C 
ATOM     50  C   UNL A   1      40.684  27.358  28.420  1.00  0.00     0.029 A 
ATOM     51  N   UNL A   1      41.953  29.095  29.027  1.00  0.00    -0.354 N 
ATOM     52  C   UNL A   1      46.264  28.950  28.608  1.00  0.00     0.074 A 
ATOM     53  C   UNL A   1      46.682  27.688  28.038  1.00  0.00     0.031 C 
ATOM     54  C   UNL A   1      39.866  28.298  28.919  1.00  0.00     0.029 A 
ATOM     55  C   UNL A   1      40.663  29.441  29.356  1.00  0.00     0.049 A 
ATOM     56  H   UNL A   1      42.726  29.685  29.185  1.00  0.00     0.167 HD
ATOM     57  C   UNL A   1      47.111  29.953  28.957  1.00  0.00     0.034 A 
ATOM     58  C   UNL A   1      40.177  30.547  29.953  1.00  0.00     0.034 A 
ATOM     59  C   UNL A   1      46.673  31.213  29.508  1.00  0.00     0.049 A 
ATOM     60  C   UNL A   1      41.134  31.644  30.342  1.00  0.00     0.074 A 
ATOM     61  C   UNL A   1      47.434  32.322  29.838  1.00  0.00     0.029 A 
ATOM     62  N   UNL A   1      45.357  31.530  29.822  1.00  0.00    -0.354 N 
ATOM     63  N   UNL A   1      42.440  31.686  30.211  1.00  0.00    -0.248 NA
ATOM     64  C   UNL A   1      40.550  32.847  30.947  1.00  0.00     0.031 C 
ATOM     65  C   UNL A   1      46.590  33.280  30.411  1.00  0.00     0.029 A 
ATOM     66  C   UNL A   1      45.289  32.803  30.370  1.00  0.00     0.049 A 
ATOM     67  H   UNL A   1      44.584  30.937  29.677  1.00  0.00     0.167 HD
ATOM     68  C   UNL A   1      42.830  32.931  30.696  1.00  0.00     0.074 A 
ATOM     69  C   UNL A   1      41.619  33.614  31.104  1.00  0.00     0.031 C 
ATOM     70  C   UNL A   1      44.076  33.464  30.791  1.00  0.00     0.034 A 
BRANCH  57  71
ATOM     71  C   UNL A   1      48.592  29.707  28.772  1.00  0.00     0.023 A 
ATOM     72  C   UNL A   1      49.217  29.860  27.521  1.00  0.00     0.031 A 
ATOM     73  C   UNL A   1      49.383  29.274  29.850  1.00  0.00     0.131 A 
ATOM     74  C   UNL A   1      50.562  29.497  27.360  1.00  0.00     0.055 A 
ATOM     75  C   UNL A   1      50.744  28.999  29.702  1.00  0.00     0.041 A 
ATOM     76  F   UNL A   1      48.842  29.090  31.065  1.00  0.00    -0.206 F 
ATOM     77  C   UNL A   1      51.339  29.092  28.447  1.00  0.00     0.022 A 
BRANCH  74  78
ATOM     78  S   UNL A   1      51.238  29.406  25.678  1.00  0.00     0.124 S 
ATOM     79  O   UNL A   1      50.233  28.588  25.001  1.00  0.00    -0.237 OA
ATOM     80  O   UNL A   1      51.292  30.809  25.284  1.00  0.00    -0.237 OA
ATOM     81  O   UNL A   1      52.534  28.758  25.864  1.00  0.00    -0.744 OA
ENDBRANCH  74  78
ENDBRANCH  57  71
BRANCH  58  82
ATOM     82  C   UNL A   1      38.717  30.673  30.228  1.00  0.00     0.023 A 
ATOM     83  C   UNL A   1      37.896  31.483  29.428  1.00  0.00     0.031 A 
ATOM     84  C   UNL A   1      38.125  30.002  31.314  1.00  0.00     0.131 A 
ATOM     85  C   UNL A   1      36.538  31.633  29.746  1.00  0.00     0.055 A 
ATOM     86  C   UNL A   1      36.763  30.116  31.598  1.00  0.00     0.041 A 
ATOM     87  F   UNL A   1      38.863  29.209  32.107  1.00  0.00    -0.206 F 
ATOM     88  C   UNL A   1      35.963  30.946  30.818  1.00  0.00     0.022 A 
BRANCH  85  89
ATOM     89  S   UNL A   1      35.542  32.799  28.778  1.00  0.00     0.124 S 
ATOM     90  O   UNL A   1      34.257  32.735  29.464  1.00  0.00    -0.237 OA
ATOM     91  O   UNL A   1      36.292  34.041  28.933  1.00  0.00    -0.237 OA
ATOM     92  O   UNL A   1      35.560  32.228  27.433  1.00  0.00    -0.744 OA
ENDBRANCH  85  89
ENDBRANCH  58  82
BRANCH  70  93
ATOM     93  C   UNL A   1      44.176  34.871  31.327  1.00  0.00     0.023 A 
ATOM     94  C   UNL A   1      44.235  35.136  32.707  1.00  0.00     0.031 A 
ATOM     95  C   UNL A   1      44.195  35.965  30.442  1.00  0.00     0.131 A 
ATOM     96  C   UNL A   1      44.252  36.462  33.163  1.00  0.00     0.055 A 
ATOM     97  C   UNL A   1      44.275  37.280  30.901  1.00  0.00     0.041 A 
ATOM     98  F   UNL A   1      44.139  35.771  29.115  1.00  0.00    -0.206 F 
ATOM     99  C   UNL A   1      44.289  37.535  32.270  1.00  0.00     0.022 A 
BRANCH  96 100
ATOM    100  S   UNL A   1      44.126  36.770  34.947  1.00  0.00     0.124 S 
ATOM    101  O   UNL A   1      42.691  36.966  35.120  1.00  0.00    -0.237 OA
ATOM    102  O   UNL A   1      44.676  35.544  35.515  1.00  0.00    -0.237 OA
ATOM    103  O   UNL A   1      44.944  37.966  35.146  1.00  0.00    -0.744 OA
ENDBRANCH  96 100
ENDBRANCH  70  93
ENDBRANCH  44  45
ENDBRANCH  36  39
ENDBRANCH  34  35
ENDBRANCH  33  34
ENDBRANCH  32  33
ENDBRANCH  31  32
ENDBRANCH   1  31
TORSDOF 22
ENDMDL
MODEL 3
REMARK VINA RESULT:     -10.0      6.045     11.304
REMARK SMILES COC(=O)C[C@@H](NC(=O)c1ccccc1C(=O)NCCCCCCNC(=O)c1ccc(-c2c3nc(c(-c4cc(S(=O)(=O)[O-])ccc4F)c4ccc([nH]4)c(-c4cc(S(=O)(=O)[O-])ccc4F)c4nc(c(-c5cc(S(=O)(=O)[O-])ccc5F)c5ccc2[nH]5)C=C4)C=C3)cc1)c1cccc(C)c1C
REMARK SMILES IDX 20 1 19 2 18 3 16 4 17 5 15 7 10 8 11 9 12 10 14 11 13 12
REMARK SMILES IDX 8 13 7 14 9 16 6 17 5 18 3 19 4 20 2 21 1 22 91 23 92 24
REMARK SMILES IDX 97 25 93 26 95 27 98 28 94 29 96 30 21 31 22 32 23 33 24 34
REMARK SMILES IDX 25 35 26 36 27 38 28 39 29 40 90 41 30 42 89 43 31 44 32 45
REMARK SMILES IDX 33 46 83 47 34 48 88 49 82 50 84 51 35 52 87 53 81 54 80 55
REMARK SMILES IDX 36 57 68 58 48 59 67 60 49 61 52 62 66 63 85 64 50 65 51 66
REMARK SMILES IDX 65 68 86 69 53 70 37 71 38 72 46 73 39 74 45 75 47 76 44 77
REMARK SMILES IDX 40 78 41 79 42 80 43 81 69 82 70 83 78 84 71 85 77 86 79 87
REMARK SMILES IDX 76 88 72 89 73 90 74 91 75 92 54 93 55 94 63 95 56 96 62 97
REMARK SMILES IDX 64 98 61 99 57 100 58 101 59 102 60 103
REMARK H PARENT 18 6 7 15 25 37 84 56 52 67
REMARK Flexibility Score: inf
ROOT
ATOM      1  C   UNL A   1      41.330  27.026  28.437  1.00  0.00     0.021 C 
ENDROOT
BRANCH   1   2
ATOM      2  C   UNL A   1      40.911  27.032  29.899  1.00  0.00     0.116 C 
BRANCH   2   3
ATOM      3  N   UNL A   1      41.218  28.271  30.573  1.00  0.00    -0.352 N 
ATOM      4  C   UNL A   1      40.453  29.387  30.762  1.00  0.00     0.252 C 
ATOM      5  O   UNL A   1      41.024  30.378  31.223  1.00  0.00    -0.269 OA
ATOM      6  H   UNL A   1      42.122  28.318  30.960  1.00  0.00     0.163 HD
BRANCH   4   7
ATOM      7  C   UNL A   1      39.024  29.500  30.367  1.00  0.00     0.052 A 
ATOM      8  C   UNL A   1      37.890  29.331  31.169  1.00  0.00     0.052 A 
ATOM      9  C   UNL A   1      36.605  29.417  30.583  1.00  0.00     0.014 A 
ATOM     10  C   UNL A   1      36.437  29.749  29.239  1.00  0.00     0.001 A 
ATOM     11  C   UNL A   1      38.829  29.865  29.014  1.00  0.00     0.014 A 
ATOM     12  C   UNL A   1      37.554  29.995  28.457  1.00  0.00     0.001 A 
BRANCH   8  13
ATOM     13  C   UNL A   1      37.832  29.032  32.612  1.00  0.00     0.252 C 
ATOM     14  N   UNL A   1      37.667  29.976  33.591  1.00  0.00    -0.345 N 
ATOM     15  H   UNL A   1      37.325  29.608  34.437  1.00  0.00     0.164 HD
ATOM     16  O   UNL A   1      37.823  27.846  32.945  1.00  0.00    -0.269 OA
BRANCH  14  17
ATOM     17  C   UNL A   1      37.895  31.430  33.634  1.00  0.00     0.124 C 
BRANCH  17  18
ATOM     18  C   UNL A   1      37.712  31.958  35.059  1.00  0.00     0.152 C 
BRANCH  18  19
ATOM     19  C   UNL A   1      38.322  31.019  36.061  1.00  0.00     0.307 C 
ATOM     20  O   UNL A   1      37.699  30.502  36.978  1.00  0.00    -0.252 OA
BRANCH  19  21
ATOM     21  O   UNL A   1      39.642  30.829  35.794  1.00  0.00    -0.469 OA
ATOM     22  C   UNL A   1      40.504  31.879  36.244  1.00  0.00     0.282 C 
ENDBRANCH  19  21
ENDBRANCH  18  19
ENDBRANCH  17  18
BRANCH  17  23
ATOM     23  C   UNL A   1      37.003  32.228  32.694  1.00  0.00    -0.022 A 
ATOM     24  C   UNL A   1      35.618  32.282  32.938  1.00  0.00     0.006 A 
ATOM     25  C   UNL A   1      37.530  32.885  31.551  1.00  0.00    -0.043 A 
ATOM     26  C   UNL A   1      34.749  32.817  31.994  1.00  0.00     0.001 A 
ATOM     27  C   UNL A   1      36.637  33.388  30.576  1.00  0.00    -0.048 A 
ATOM     28  C   UNL A   1      39.018  33.066  31.346  1.00  0.00     0.045 C 
ATOM     29  C   UNL A   1      35.253  33.325  30.804  1.00  0.00     0.004 A 
ATOM     30  C   UNL A   1      37.107  33.877  29.232  1.00  0.00     0.044 C 
ENDBRANCH  17  23
ENDBRANCH  14  17
ENDBRANCH   8  13
ENDBRANCH   4   7
ENDBRANCH   2   3
ENDBRANCH   1   2
BRANCH   1  31
ATOM     31  C   UNL A   1      40.401  26.260  27.486  1.00  0.00     0.002 C 
BRANCH  31  32
ATOM     32  C   UNL A   1      40.177  24.772  27.774  1.00  0.00     0.002 C 
BRANCH  32  33
ATOM     33  C   UNL A   1      40.007  23.851  26.565  1.00  0.00     0.021 C 
BRANCH  33  34
ATOM     34  C   UNL A   1      40.806  22.556  26.579  1.00  0.00     0.116 C 
BRANCH  34  35
ATOM     35  N   UNL A   1      41.611  22.384  25.384  1.00  0.00    -0.352 N 
ATOM     36  C   UNL A   1      42.877  22.826  25.097  1.00  0.00     0.251 C 
ATOM     37  H   UNL A   1      41.178  21.869  24.665  1.00  0.00     0.163 HD
ATOM     38  O   UNL A   1      43.305  22.701  23.952  1.00  0.00    -0.269 OA
BRANCH  36  39
ATOM     39  C   UNL A   1      43.715  23.477  26.134  1.00  0.00     0.039 A 
ATOM     40  C   UNL A   1      44.546  22.675  26.921  1.00  0.00     0.014 A 
ATOM     41  C   UNL A   1      43.668  24.856  26.363  1.00  0.00     0.014 A 
ATOM     42  C   UNL A   1      45.366  23.257  27.892  1.00  0.00     0.010 A 
ATOM     43  C   UNL A   1      44.549  25.444  27.268  1.00  0.00     0.010 A 
ATOM     44  C   UNL A   1      45.400  24.652  28.052  1.00  0.00    -0.014 A 
BRANCH  44  45
ATOM     45  C   UNL A   1      46.298  25.293  29.049  1.00  0.00     0.031 A 
ATOM     46  C   UNL A   1      47.672  25.753  28.642  1.00  0.00     0.074 A 
ATOM     47  C   UNL A   1      45.901  25.407  30.333  1.00  0.00     0.049 A 
ATOM     48  N   UNL A   1      48.631  26.261  29.375  1.00  0.00    -0.248 NA
ATOM     49  C   UNL A   1      48.027  25.589  27.223  1.00  0.00     0.031 C 
ATOM     50  C   UNL A   1      44.609  24.958  30.859  1.00  0.00     0.029 A 
ATOM     51  N   UNL A   1      46.543  25.924  31.429  1.00  0.00    -0.354 N 
ATOM     52  C   UNL A   1      49.706  26.456  28.514  1.00  0.00     0.074 A 
ATOM     53  C   UNL A   1      49.301  25.952  27.220  1.00  0.00     0.031 C 
ATOM     54  C   UNL A   1      44.547  25.242  32.170  1.00  0.00     0.029 A 
ATOM     55  C   UNL A   1      45.806  25.849  32.588  1.00  0.00     0.049 A 
ATOM     56  H   UNL A   1      47.447  26.312  31.390  1.00  0.00     0.167 HD
ATOM     57  C   UNL A   1      50.911  27.024  28.773  1.00  0.00     0.034 A 
ATOM     58  C   UNL A   1      46.114  26.215  33.849  1.00  0.00     0.034 A 
ATOM     59  C   UNL A   1      51.291  27.538  30.067  1.00  0.00     0.049 A 
ATOM     60  C   UNL A   1      47.461  26.834  34.117  1.00  0.00     0.074 A 
ATOM     61  C   UNL A   1      52.457  28.190  30.429  1.00  0.00     0.029 A 
ATOM     62  N   UNL A   1      50.515  27.450  31.218  1.00  0.00    -0.354 N 
ATOM     63  N   UNL A   1      48.448  27.061  33.282  1.00  0.00    -0.248 NA
ATOM     64  C   UNL A   1      47.730  27.258  35.497  1.00  0.00     0.031 C 
ATOM     65  C   UNL A   1      52.416  28.435  31.807  1.00  0.00     0.029 A 
ATOM     66  C   UNL A   1      51.191  28.006  32.294  1.00  0.00     0.049 A 
ATOM     67  H   UNL A   1      49.616  27.050  31.262  1.00  0.00     0.167 HD
ATOM     68  C   UNL A   1      49.447  27.677  34.031  1.00  0.00     0.074 A 
ATOM     69  C   UNL A   1      48.933  27.801  35.380  1.00  0.00     0.031 C 
ATOM     70  C   UNL A   1      50.674  28.105  33.639  1.00  0.00     0.034 A 
BRANCH  57  71
ATOM     71  C   UNL A   1      51.906  27.091  27.636  1.00  0.00     0.023 A 
ATOM     72  C   UNL A   1      52.606  25.953  27.196  1.00  0.00     0.031 A 
ATOM     73  C   UNL A   1      52.192  28.317  27.010  1.00  0.00     0.131 A 
ATOM     74  C   UNL A   1      53.615  26.079  26.230  1.00  0.00     0.055 A 
ATOM     75  C   UNL A   1      53.136  28.420  25.985  1.00  0.00     0.041 A 
ATOM     76  F   UNL A   1      51.573  29.444  27.397  1.00  0.00    -0.206 F 
ATOM     77  C   UNL A   1      53.868  27.300  25.601  1.00  0.00     0.022 A 
BRANCH  74  78
ATOM     78  S   UNL A   1      54.701  24.659  25.923  1.00  0.00     0.124 S 
ATOM     79  O   UNL A   1      53.747  23.652  25.463  1.00  0.00    -0.237 OA
ATOM     80  O   UNL A   1      55.620  25.176  24.915  1.00  0.00    -0.237 OA
ATOM     81  O   UNL A   1      55.295  24.392  27.231  1.00  0.00    -0.744 OA
ENDBRANCH  74  78
ENDBRANCH  57  71
BRANCH  58  82
ATOM     82  C   UNL A   1      45.136  26.001  34.954  1.00  0.00     0.023 A 
ATOM     83  C   UNL A   1      43.987  26.798  35.068  1.00  0.00     0.031 A 
ATOM     84  C   UNL A   1      45.351  25.009  35.928  1.00  0.00     0.131 A 
ATOM     85  C   UNL A   1      43.116  26.617  36.153  1.00  0.00     0.055 A 
ATOM     86  C   UNL A   1      44.456  24.799  36.978  1.00  0.00     0.041 A 
ATOM     87  F   UNL A   1      46.431  24.213  35.860  1.00  0.00    -0.206 F 
ATOM     88  C   UNL A   1      43.336  25.615  37.102  1.00  0.00     0.022 A 
BRANCH  85  89
ATOM     89  S   UNL A   1      41.721  27.760  36.348  1.00  0.00     0.124 S 
ATOM     90  O   UNL A   1      41.215  27.848  34.983  1.00  0.00    -0.237 OA
ATOM     91  O   UNL A   1      40.877  27.048  37.302  1.00  0.00    -0.237 OA
ATOM     92  O   UNL A   1      42.346  28.977  36.862  1.00  0.00    -0.744 OA
ENDBRANCH  85  89
ENDBRANCH  58  82
BRANCH  70  93
ATOM     93  C   UNL A   1      51.526  28.782  34.685  1.00  0.00     0.023 A 
ATOM     94  C   UNL A   1      51.470  30.170  34.902  1.00  0.00     0.031 A 
ATOM     95  C   UNL A   1      52.421  28.027  35.465  1.00  0.00     0.131 A 
ATOM     96  C   UNL A   1      52.334  30.767  35.832  1.00  0.00     0.055 A 
ATOM     97  C   UNL A   1      53.233  28.619  36.433  1.00  0.00     0.041 A 
ATOM     98  F   UNL A   1      52.518  26.698  35.299  1.00  0.00    -0.206 F 
ATOM     99  C   UNL A   1      53.202  29.999  36.610  1.00  0.00     0.022 A 
BRANCH  96 100
ATOM    100  S   UNL A   1      52.376  32.578  35.943  1.00  0.00     0.124 S 
ATOM    101  O   UNL A   1      52.047  32.973  34.577  1.00  0.00    -0.237 OA
ATOM    102  O   UNL A   1      51.357  32.853  36.950  1.00  0.00    -0.237 OA
ATOM    103  O   UNL A   1      53.749  32.864  36.357  1.00  0.00    -0.744 OA
ENDBRANCH  96 100
ENDBRANCH  70  93
ENDBRANCH  44  45
ENDBRANCH  36  39
ENDBRANCH  34  35
ENDBRANCH  33  34
ENDBRANCH  32  33
ENDBRANCH  31  32
ENDBRANCH   1  31
TORSDOF 22
ENDMDL
