MODEL 1
REMARK VINA RESULT:     -13.8      0.000      0.000
REMARK SMILES O=C(NCCCCCCNC(=O)[C@H]1Cc2[nH]cnc2CN1C(=O)C[C@]12C[C@H]3C[C@H](C[C@H](C3)C1)C2)c1ccc(-c2c3nc(c(-c4cc(S(=O)(=O)[O-])ccc4F)c4ccc([nH]4)c(-c4cc(S(=O)(=O)[O-])ccc4F)c4nc(c(-c5cc(S(=O)(=O)[O-])ccc5F)c5ccc2[nH]5)C=C4)C=C3)cc1
REMARK SMILES IDX 6 1 5 2 4 3 3 4 1 5 2 6 35 8 36 9 97 10 37 11 96 12 38 13
REMARK SMILES IDX 39 14 40 15 90 16 41 17 95 18 89 19 91 20 42 21 94 22 88 23
REMARK SMILES IDX 87 24 43 26 75 27 55 28 74 29 56 30 59 31 73 32 92 33 57 34
REMARK SMILES IDX 58 35 72 37 93 38 60 39 44 40 45 41 53 42 46 43 52 44 54 45
REMARK SMILES IDX 51 46 47 47 48 48 49 49 50 50 76 51 77 52 85 53 78 54 84 55
REMARK SMILES IDX 86 56 83 57 79 58 80 59 81 60 82 61 61 62 62 63 70 64 63 65
REMARK SMILES IDX 69 66 71 67 68 68 64 69 65 70 66 71 67 72 7 73 8 74 9 75
REMARK SMILES IDX 10 76 11 77 12 79 13 80 14 81 21 82 15 83 20 84 16 85 19 86
REMARK SMILES IDX 17 87 18 89 22 90 23 91 24 92 25 93 26 94 33 95 34 96 27 97
REMARK SMILES IDX 31 98 29 99 28 100 32 101 30 102
REMARK H PARENT 3 7 91 25 59 36 10 78 16 88
REMARK Flexibility Score: inf
ROOT
ATOM      1  C   UNL A   1      31.850  29.115  27.079  1.00  0.00     0.002 C 
ENDROOT
BRANCH   1   2
ATOM      2  C   UNL A   1      32.394  30.517  26.842  1.00  0.00     0.021 C 
BRANCH   2   3
ATOM      3  C   UNL A   1      33.830  30.791  27.301  1.00  0.00     0.116 C 
BRANCH   3   4
ATOM      4  N   UNL A   1      34.026  31.635  28.476  1.00  0.00    -0.352 N 
ATOM      5  O   UNL A   1      35.009  32.909  30.023  1.00  0.00    -0.269 OA
ATOM      6  C   UNL A   1      35.109  31.935  29.272  1.00  0.00     0.251 C 
ATOM      7  H   UNL A   1      33.202  32.089  28.763  1.00  0.00     0.163 HD
BRANCH   6   8
ATOM      8  C   UNL A   1      36.336  31.102  29.343  1.00  0.00     0.039 A 
ATOM      9  C   UNL A   1      36.314  29.717  29.415  1.00  0.00     0.014 A 
ATOM     10  C   UNL A   1      37.580  31.765  29.381  1.00  0.00     0.014 A 
ATOM     11  C   UNL A   1      37.474  29.022  29.715  1.00  0.00     0.010 A 
ATOM     12  C   UNL A   1      38.767  31.059  29.596  1.00  0.00     0.010 A 
ATOM     13  C   UNL A   1      38.708  29.687  29.805  1.00  0.00    -0.014 A 
BRANCH  13  14
ATOM     14  C   UNL A   1      39.888  28.820  29.840  1.00  0.00     0.031 A 
ATOM     15  C   UNL A   1      40.346  28.557  31.234  1.00  0.00     0.074 A 
ATOM     16  C   UNL A   1      40.527  28.233  28.810  1.00  0.00     0.049 A 
ATOM     17  N   UNL A   1      41.404  29.024  31.808  1.00  0.00    -0.248 NA
ATOM     18  C   UNL A   1      39.415  27.879  32.149  1.00  0.00     0.031 C 
ATOM     19  C   UNL A   1      40.123  28.149  27.410  1.00  0.00     0.029 A 
ATOM     20  N   UNL A   1      41.683  27.504  28.844  1.00  0.00    -0.354 N 
ATOM     21  C   UNL A   1      41.383  28.535  33.108  1.00  0.00     0.074 A 
ATOM     22  C   UNL A   1      40.064  27.996  33.308  1.00  0.00     0.031 C 
ATOM     23  C   UNL A   1      40.899  27.235  26.779  1.00  0.00     0.029 A 
ATOM     24  C   UNL A   1      41.933  26.766  27.692  1.00  0.00     0.049 A 
ATOM     25  H   UNL A   1      42.289  27.503  29.620  1.00  0.00     0.167 HD
ATOM     26  C   UNL A   1      42.524  28.434  33.842  1.00  0.00     0.034 A 
ATOM     27  C   UNL A   1      42.881  25.802  27.525  1.00  0.00     0.034 A 
ATOM     28  C   UNL A   1      43.575  29.258  33.290  1.00  0.00     0.049 A 
ATOM     29  C   UNL A   1      43.949  26.051  28.526  1.00  0.00     0.074 A 
ATOM     30  C   UNL A   1      43.710  30.610  33.033  1.00  0.00     0.029 A 
ATOM     31  N   UNL A   1      44.571  28.647  32.562  1.00  0.00    -0.354 N 
ATOM     32  N   UNL A   1      44.738  27.088  28.488  1.00  0.00    -0.248 NA
ATOM     33  C   UNL A   1      43.843  25.407  29.829  1.00  0.00     0.031 C 
ATOM     34  C   UNL A   1      44.415  30.680  31.795  1.00  0.00     0.029 A 
ATOM     35  C   UNL A   1      44.737  29.378  31.411  1.00  0.00     0.049 A 
ATOM     36  H   UNL A   1      45.070  27.838  32.817  1.00  0.00     0.167 HD
ATOM     37  C   UNL A   1      44.866  27.492  29.807  1.00  0.00     0.074 A 
ATOM     38  C   UNL A   1      44.375  26.364  30.595  1.00  0.00     0.031 C 
ATOM     39  C   UNL A   1      45.097  28.800  30.130  1.00  0.00     0.034 A 
BRANCH  26  40
ATOM     40  C   UNL A   1      42.808  27.315  34.820  1.00  0.00     0.023 A 
ATOM     41  C   UNL A   1      43.605  26.250  34.358  1.00  0.00     0.031 A 
ATOM     42  C   UNL A   1      42.109  27.081  36.025  1.00  0.00     0.131 A 
ATOM     43  C   UNL A   1      43.577  25.000  34.998  1.00  0.00     0.055 A 
ATOM     44  C   UNL A   1      42.141  25.857  36.697  1.00  0.00     0.041 A 
ATOM     45  F   UNL A   1      41.282  27.978  36.573  1.00  0.00    -0.206 F 
ATOM     46  C   UNL A   1      42.847  24.794  36.164  1.00  0.00     0.022 A 
BRANCH  43  47
ATOM     47  S   UNL A   1      44.356  23.596  34.162  1.00  0.00     0.124 S 
ATOM     48  O   UNL A   1      45.662  24.148  33.824  1.00  0.00    -0.237 OA
ATOM     49  O   UNL A   1      44.336  22.576  35.204  1.00  0.00    -0.237 OA
ATOM     50  O   UNL A   1      43.469  23.345  33.027  1.00  0.00    -0.744 OA
ENDBRANCH  43  47
ENDBRANCH  26  40
BRANCH  27  51
ATOM     51  C   UNL A   1      42.749  24.519  26.776  1.00  0.00     0.023 A 
ATOM     52  C   UNL A   1      43.777  23.992  25.960  1.00  0.00     0.031 A 
ATOM     53  C   UNL A   1      41.670  23.654  27.067  1.00  0.00     0.131 A 
ATOM     54  C   UNL A   1      43.694  22.662  25.477  1.00  0.00     0.055 A 
ATOM     55  C   UNL A   1      41.593  22.346  26.585  1.00  0.00     0.041 A 
ATOM     56  F   UNL A   1      40.692  24.021  27.909  1.00  0.00    -0.206 F 
ATOM     57  C   UNL A   1      42.611  21.841  25.794  1.00  0.00     0.022 A 
BRANCH  54  58
ATOM     58  S   UNL A   1      45.054  21.936  24.502  1.00  0.00     0.124 S 
ATOM     59  O   UNL A   1      44.467  20.688  24.027  1.00  0.00    -0.237 OA
ATOM     60  O   UNL A   1      45.306  22.961  23.497  1.00  0.00    -0.237 OA
ATOM     61  O   UNL A   1      46.129  21.771  25.485  1.00  0.00    -0.744 OA
ENDBRANCH  54  58
ENDBRANCH  27  51
BRANCH  39  62
ATOM     62  C   UNL A   1      45.547  29.754  29.043  1.00  0.00     0.023 A 
ATOM     63  C   UNL A   1      46.893  30.015  28.695  1.00  0.00     0.031 A 
ATOM     64  C   UNL A   1      44.546  30.353  28.256  1.00  0.00     0.131 A 
ATOM     65  C   UNL A   1      47.188  30.863  27.607  1.00  0.00     0.055 A 
ATOM     66  C   UNL A   1      44.843  31.170  27.166  1.00  0.00     0.041 A 
ATOM     67  F   UNL A   1      43.247  30.130  28.519  1.00  0.00    -0.206 F 
ATOM     68  C   UNL A   1      46.166  31.434  26.843  1.00  0.00     0.022 A 
BRANCH  65  69
ATOM     69  S   UNL A   1      48.917  31.269  27.200  1.00  0.00     0.124 S 
ATOM     70  O   UNL A   1      49.406  30.106  26.523  1.00  0.00    -0.237 OA
ATOM     71  O   UNL A   1      48.762  32.488  26.386  1.00  0.00    -0.237 OA
ATOM     72  O   UNL A   1      49.518  31.520  28.525  1.00  0.00    -0.744 OA
ENDBRANCH  65  69
ENDBRANCH  39  62
ENDBRANCH  13  14
ENDBRANCH   6   8
ENDBRANCH   3   4
ENDBRANCH   2   3
ENDBRANCH   1   2
BRANCH   1  73
ATOM     73  C   UNL A   1      32.743  27.905  26.726  1.00  0.00     0.002 C 
BRANCH  73  74
ATOM     74  C   UNL A   1      33.800  27.952  25.592  1.00  0.00     0.021 C 
BRANCH  74  75
ATOM     75  C   UNL A   1      33.727  28.816  24.226  1.00  0.00     0.116 C 
BRANCH  75  76
ATOM     76  N   UNL A   1      32.612  28.949  23.153  1.00  0.00    -0.354 N 
ATOM     77  C   UNL A   1      31.285  29.398  22.939  1.00  0.00     0.243 C 
ATOM     78  H   UNL A   1      32.955  28.587  22.304  1.00  0.00     0.163 HD
ATOM     79  O   UNL A   1      30.876  29.670  21.805  1.00  0.00    -0.273 OA
BRANCH  77  80
ATOM     80  C   UNL A   1      30.188  29.212  23.950  1.00  0.00     0.180 C 
ATOM     81  C   UNL A   1      29.679  30.698  24.040  1.00  0.00     0.091 C 
ATOM     82  N   UNL A   1      29.511  28.163  23.281  1.00  0.00    -0.324 N 
ATOM     83  C   UNL A   1      28.985  31.002  22.779  1.00  0.00     0.042 A 
ATOM     84  C   UNL A   1      28.185  28.573  22.566  1.00  0.00     0.178 C 
ATOM     85  N   UNL A   1      29.152  32.084  21.965  1.00  0.00    -0.348 N 
ATOM     86  C   UNL A   1      28.297  30.045  22.071  1.00  0.00     0.081 A 
ATOM     87  C   UNL A   1      28.437  31.810  20.828  1.00  0.00     0.197 A 
ATOM     88  H   UNL A   1      29.677  32.895  22.156  1.00  0.00     0.167 HD
ATOM     89  N   UNL A   1      27.939  30.583  20.849  1.00  0.00    -0.240 NA
BRANCH  82  90
ATOM     90  C   UNL A   1      30.317  26.965  23.083  1.00  0.00     0.224 C 
ATOM     91  O   UNL A   1      30.696  26.712  21.931  1.00  0.00    -0.275 OA
BRANCH  90  92
ATOM     92  C   UNL A   1      30.836  25.850  24.428  1.00  0.00     0.107 C 
BRANCH  92  93
ATOM     93  C   UNL A   1      31.916  24.413  24.753  1.00  0.00    -0.020 C 
ATOM     94  C   UNL A   1      31.074  23.077  24.924  1.00  0.00     0.011 C 
ATOM     95  C   UNL A   1      32.973  24.367  25.943  1.00  0.00     0.011 C 
ATOM     96  C   UNL A   1      32.750  24.040  23.452  1.00  0.00     0.011 C 
ATOM     97  C   UNL A   1      31.953  21.808  25.134  1.00  0.00    -0.010 C 
ATOM     98  C   UNL A   1      33.829  23.122  26.103  1.00  0.00    -0.010 C 
ATOM     99  C   UNL A   1      33.695  22.807  23.650  1.00  0.00    -0.010 C 
ATOM    100  C   UNL A   1      32.836  21.564  23.912  1.00  0.00     0.007 C 
ATOM    101  C   UNL A   1      32.863  21.967  26.360  1.00  0.00     0.007 C 
ATOM    102  C   UNL A   1      34.650  22.963  24.842  1.00  0.00     0.007 C 
ENDBRANCH  92  93
ENDBRANCH  90  92
ENDBRANCH  82  90
ENDBRANCH  77  80
ENDBRANCH  75  76
ENDBRANCH  74  75
ENDBRANCH  73  74
ENDBRANCH   1  73
TORSDOF 19
ENDMDL
MODEL 2
REMARK VINA RESULT:     -13.7      1.910      4.447
REMARK SMILES O=C(NCCCCCCNC(=O)[C@H]1Cc2[nH]cnc2CN1C(=O)C[C@]12C[C@H]3C[C@H](C[C@H](C3)C1)C2)c1ccc(-c2c3nc(c(-c4cc(S(=O)(=O)[O-])ccc4F)c4ccc([nH]4)c(-c4cc(S(=O)(=O)[O-])ccc4F)c4nc(c(-c5cc(S(=O)(=O)[O-])ccc5F)c5ccc2[nH]5)C=C4)C=C3)cc1
REMARK SMILES IDX 6 1 5 2 4 3 3 4 1 5 2 6 35 8 36 9 97 10 37 11 96 12 38 13
REMARK SMILES IDX 39 14 40 15 90 16 41 17 95 18 89 19 91 20 42 21 94 22 88 23
REMARK SMILES IDX 87 24 43 26 75 27 55 28 74 29 56 30 59 31 73 32 92 33 57 34
REMARK SMILES IDX 58 35 72 37 93 38 60 39 44 40 45 41 53 42 46 43 52 44 54 45
REMARK SMILES IDX 51 46 47 47 48 48 49 49 50 50 76 51 77 52 85 53 78 54 84 55
REMARK SMILES IDX 86 56 83 57 79 58 80 59 81 60 82 61 61 62 62 63 70 64 63 65
REMARK SMILES IDX 69 66 71 67 68 68 64 69 65 70 66 71 67 72 7 73 8 74 9 75
REMARK SMILES IDX 10 76 11 77 12 79 13 80 14 81 21 82 15 83 20 84 16 85 19 86
REMARK SMILES IDX 17 87 18 89 22 90 23 91 24 92 25 93 26 94 33 95 34 96 27 97
REMARK SMILES IDX 31 98 29 99 28 100 32 101 30 102
REMARK H PARENT 3 7 91 25 59 36 10 78 16 88
REMARK Flexibility Score: inf
ROOT
ATOM      1  C   UNL A   1      34.696  30.185  27.249  1.00  0.00     0.002 C 
ENDROOT
BRANCH   1   2
ATOM      2  C   UNL A   1      34.028  31.498  27.636  1.00  0.00     0.021 C 
BRANCH   2   3
ATOM      3  C   UNL A   1      34.952  32.679  27.953  1.00  0.00     0.116 C 
BRANCH   3   4
ATOM      4  N   UNL A   1      35.054  33.117  29.342  1.00  0.00    -0.352 N 
ATOM      5  O   UNL A   1      35.918  33.737  31.304  1.00  0.00    -0.269 OA
ATOM      6  C   UNL A   1      36.025  33.011  30.312  1.00  0.00     0.251 C 
ATOM      7  H   UNL A   1      34.250  33.591  29.654  1.00  0.00     0.163 HD
BRANCH   6   8
ATOM      8  C   UNL A   1      37.127  32.015  30.272  1.00  0.00     0.039 A 
ATOM      9  C   UNL A   1      38.468  32.361  30.340  1.00  0.00     0.014 A 
ATOM     10  C   UNL A   1      36.782  30.658  30.113  1.00  0.00     0.014 A 
ATOM     11  C   UNL A   1      39.440  31.414  30.060  1.00  0.00     0.010 A 
ATOM     12  C   UNL A   1      37.763  29.683  29.918  1.00  0.00     0.010 A 
ATOM     13  C   UNL A   1      39.096  30.070  29.851  1.00  0.00    -0.014 A 
BRANCH  13  14
ATOM     14  C   UNL A   1      40.216  29.126  29.851  1.00  0.00     0.031 A 
ATOM     15  C   UNL A   1      40.623  28.743  31.233  1.00  0.00     0.074 A 
ATOM     16  C   UNL A   1      40.840  28.567  28.797  1.00  0.00     0.049 A 
ATOM     17  N   UNL A   1      41.695  29.100  31.858  1.00  0.00    -0.248 NA
ATOM     18  C   UNL A   1      39.628  28.070  32.083  1.00  0.00     0.031 C 
ATOM     19  C   UNL A   1      40.465  28.601  27.387  1.00  0.00     0.029 A 
ATOM     20  N   UNL A   1      41.945  27.762  28.804  1.00  0.00    -0.354 N 
ATOM     21  C   UNL A   1      41.612  28.529  33.122  1.00  0.00     0.074 A 
ATOM     22  C   UNL A   1      40.256  28.067  33.259  1.00  0.00     0.031 C 
ATOM     23  C   UNL A   1      41.195  27.680  26.712  1.00  0.00     0.029 A 
ATOM     24  C   UNL A   1      42.174  27.086  27.611  1.00  0.00     0.049 A 
ATOM     25  H   UNL A   1      42.531  27.670  29.590  1.00  0.00     0.167 HD
ATOM     26  C   UNL A   1      42.726  28.305  33.869  1.00  0.00     0.034 A 
ATOM     27  C   UNL A   1      43.060  26.073  27.399  1.00  0.00     0.034 A 
ATOM     28  C   UNL A   1      43.841  29.092  33.393  1.00  0.00     0.049 A 
ATOM     29  C   UNL A   1      44.118  26.185  28.434  1.00  0.00     0.074 A 
ATOM     30  C   UNL A   1      44.070  30.446  33.230  1.00  0.00     0.029 A 
ATOM     31  N   UNL A   1      44.812  28.464  32.645  1.00  0.00    -0.354 N 
ATOM     32  N   UNL A   1      44.974  27.167  28.480  1.00  0.00    -0.248 NA
ATOM     33  C   UNL A   1      43.940  25.466  29.689  1.00  0.00     0.031 C 
ATOM     34  C   UNL A   1      44.808  30.549  32.013  1.00  0.00     0.029 A 
ATOM     35  C   UNL A   1      45.053  29.256  31.549  1.00  0.00     0.049 A 
ATOM     36  H   UNL A   1      45.251  27.609  32.856  1.00  0.00     0.167 HD
ATOM     37  C   UNL A   1      45.096  27.475  29.826  1.00  0.00     0.074 A 
ATOM     38  C   UNL A   1      44.515  26.333  30.527  1.00  0.00     0.031 C 
ATOM     39  C   UNL A   1      45.404  28.740  30.239  1.00  0.00     0.034 A 
BRANCH  26  40
ATOM     40  C   UNL A   1      42.914  27.108  34.775  1.00  0.00     0.023 A 
ATOM     41  C   UNL A   1      43.704  26.052  34.283  1.00  0.00     0.031 A 
ATOM     42  C   UNL A   1      42.133  26.812  35.915  1.00  0.00     0.131 A 
ATOM     43  C   UNL A   1      43.597  24.760  34.825  1.00  0.00     0.055 A 
ATOM     44  C   UNL A   1      42.085  25.542  36.494  1.00  0.00     0.041 A 
ATOM     45  F   UNL A   1      41.302  27.696  36.478  1.00  0.00    -0.206 F 
ATOM     46  C   UNL A   1      42.790  24.496  35.926  1.00  0.00     0.022 A 
BRANCH  43  47
ATOM     47  S   UNL A   1      44.382  23.394  33.933  1.00  0.00     0.124 S 
ATOM     48  O   UNL A   1      45.771  23.838  33.887  1.00  0.00    -0.237 OA
ATOM     49  O   UNL A   1      44.095  22.261  34.806  1.00  0.00    -0.237 OA
ATOM     50  O   UNL A   1      43.685  23.384  32.649  1.00  0.00    -0.744 OA
ENDBRANCH  43  47
ENDBRANCH  26  40
BRANCH  27  51
ATOM     51  C   UNL A   1      42.863  24.854  26.563  1.00  0.00     0.023 A 
ATOM     52  C   UNL A   1      43.821  24.393  25.630  1.00  0.00     0.031 A 
ATOM     53  C   UNL A   1      41.805  23.968  26.868  1.00  0.00     0.131 A 
ATOM     54  C   UNL A   1      43.693  23.106  25.051  1.00  0.00     0.055 A 
ATOM     55  C   UNL A   1      41.683  22.702  26.291  1.00  0.00     0.041 A 
ATOM     56  F   UNL A   1      40.897  24.267  27.810  1.00  0.00    -0.206 F 
ATOM     57  C   UNL A   1      42.633  22.262  25.387  1.00  0.00     0.022 A 
BRANCH  54  58
ATOM     58  S   UNL A   1      44.969  22.460  23.919  1.00  0.00     0.124 S 
ATOM     59  O   UNL A   1      44.212  22.231  22.693  1.00  0.00    -0.237 OA
ATOM     60  O   UNL A   1      45.944  23.543  23.889  1.00  0.00    -0.237 OA
ATOM     61  O   UNL A   1      45.433  21.241  24.587  1.00  0.00    -0.744 OA
ENDBRANCH  54  58
ENDBRANCH  27  51
BRANCH  39  62
ATOM     62  C   UNL A   1      45.942  29.732  29.228  1.00  0.00     0.023 A 
ATOM     63  C   UNL A   1      45.151  30.584  28.424  1.00  0.00     0.031 A 
ATOM     64  C   UNL A   1      47.339  29.883  29.154  1.00  0.00     0.131 A 
ATOM     65  C   UNL A   1      45.769  31.528  27.576  1.00  0.00     0.055 A 
ATOM     66  C   UNL A   1      47.945  30.833  28.334  1.00  0.00     0.041 A 
ATOM     67  F   UNL A   1      48.149  29.119  29.908  1.00  0.00    -0.206 F 
ATOM     68  C   UNL A   1      47.160  31.654  27.535  1.00  0.00     0.022 A 
BRANCH  65  69
ATOM     69  S   UNL A   1      44.762  32.575  26.477  1.00  0.00     0.124 S 
ATOM     70  O   UNL A   1      43.881  31.658  25.820  1.00  0.00    -0.237 OA
ATOM     71  O   UNL A   1      44.143  33.514  27.430  1.00  0.00    -0.237 OA
ATOM     72  O   UNL A   1      45.772  33.206  25.604  1.00  0.00    -0.744 OA
ENDBRANCH  65  69
ENDBRANCH  39  62
ENDBRANCH  13  14
ENDBRANCH   6   8
ENDBRANCH   3   4
ENDBRANCH   2   3
ENDBRANCH   1   2
BRANCH   1  73
ATOM     73  C   UNL A   1      33.819  28.923  27.101  1.00  0.00     0.002 C 
BRANCH  73  74
ATOM     74  C   UNL A   1      32.281  28.949  27.301  1.00  0.00     0.021 C 
BRANCH  74  75
ATOM     75  C   UNL A   1      31.292  27.674  27.427  1.00  0.00     0.116 C 
BRANCH  75  76
ATOM     76  N   UNL A   1      31.246  26.329  26.651  1.00  0.00    -0.354 N 
ATOM     77  C   UNL A   1      32.048  25.378  25.972  1.00  0.00     0.243 C 
ATOM     78  H   UNL A   1      30.311  26.022  26.620  1.00  0.00     0.163 HD
ATOM     79  O   UNL A   1      31.662  24.216  25.807  1.00  0.00    -0.273 OA
BRANCH  77  80
ATOM     80  C   UNL A   1      33.200  25.766  25.087  1.00  0.00     0.180 C 
ATOM     81  C   UNL A   1      34.349  24.976  25.815  1.00  0.00     0.091 C 
ATOM     82  N   UNL A   1      32.608  25.386  23.857  1.00  0.00    -0.324 N 
ATOM     83  C   UNL A   1      34.134  23.545  25.552  1.00  0.00     0.042 A 
ATOM     84  C   UNL A   1      33.149  24.058  23.238  1.00  0.00     0.178 C 
ATOM     85  N   UNL A   1      34.121  22.516  26.448  1.00  0.00    -0.348 N 
ATOM     86  C   UNL A   1      33.575  23.090  24.381  1.00  0.00     0.081 A 
ATOM     87  C   UNL A   1      33.682  21.420  25.752  1.00  0.00     0.197 A 
ATOM     88  H   UNL A   1      34.376  22.554  27.399  1.00  0.00     0.167 HD
ATOM     89  N   UNL A   1      33.317  21.739  24.520  1.00  0.00    -0.240 NA
BRANCH  82  90
ATOM     90  C   UNL A   1      31.377  26.099  23.542  1.00  0.00     0.224 C 
ATOM     91  O   UNL A   1      30.363  25.424  23.319  1.00  0.00    -0.275 OA
BRANCH  90  92
ATOM     92  C   UNL A   1      31.232  27.916  23.504  1.00  0.00     0.107 C 
BRANCH  92  93
ATOM     93  C   UNL A   1      30.021  29.244  23.172  1.00  0.00    -0.020 C 
ATOM     94  C   UNL A   1      30.213  29.858  21.721  1.00  0.00     0.011 C 
ATOM     95  C   UNL A   1      29.838  30.512  24.116  1.00  0.00     0.011 C 
ATOM     96  C   UNL A   1      28.561  28.636  23.016  1.00  0.00     0.011 C 
ATOM     97  C   UNL A   1      29.159  30.948  21.360  1.00  0.00    -0.010 C 
ATOM     98  C   UNL A   1      28.785  31.544  23.746  1.00  0.00    -0.010 C 
ATOM     99  C   UNL A   1      27.466  29.715  22.719  1.00  0.00    -0.010 C 
ATOM    100  C   UNL A   1      27.754  30.349  21.353  1.00  0.00     0.007 C 
ATOM    101  C   UNL A   1      29.186  32.096  22.380  1.00  0.00     0.007 C 
ATOM    102  C   UNL A   1      27.440  30.850  23.754  1.00  0.00     0.007 C 
ENDBRANCH  92  93
ENDBRANCH  90  92
ENDBRANCH  82  90
ENDBRANCH  77  80
ENDBRANCH  75  76
ENDBRANCH  74  75
ENDBRANCH  73  74
ENDBRANCH   1  73
TORSDOF 19
ENDMDL
MODEL 3
REMARK VINA RESULT:     -13.2      3.675      9.535
REMARK SMILES O=C(NCCCCCCNC(=O)[C@H]1Cc2[nH]cnc2CN1C(=O)C[C@]12C[C@H]3C[C@H](C[C@H](C3)C1)C2)c1ccc(-c2c3nc(c(-c4cc(S(=O)(=O)[O-])ccc4F)c4ccc([nH]4)c(-c4cc(S(=O)(=O)[O-])ccc4F)c4nc(c(-c5cc(S(=O)(=O)[O-])ccc5F)c5ccc2[nH]5)C=C4)C=C3)cc1
REMARK SMILES IDX 6 1 5 2 4 3 3 4 1 5 2 6 35 8 36 9 97 10 37 11 96 12 38 13
REMARK SMILES IDX 39 14 40 15 90 16 41 17 95 18 89 19 91 20 42 21 94 22 88 23
REMARK SMILES IDX 87 24 43 26 75 27 55 28 74 29 56 30 59 31 73 32 92 33 57 34
REMARK SMILES IDX 58 35 72 37 93 38 60 39 44 40 45 41 53 42 46 43 52 44 54 45
REMARK SMILES IDX 51 46 47 47 48 48 49 49 50 50 76 51 77 52 85 53 78 54 84 55
REMARK SMILES IDX 86 56 83 57 79 58 80 59 81 60 82 61 61 62 62 63 70 64 63 65
REMARK SMILES IDX 69 66 71 67 68 68 64 69 65 70 66 71 67 72 7 73 8 74 9 75
REMARK SMILES IDX 10 76 11 77 12 79 13 80 14 81 21 82 15 83 20 84 16 85 19 86
REMARK SMILES IDX 17 87 18 89 22 90 23 91 24 92 25 93 26 94 33 95 34 96 27 97
REMARK SMILES IDX 31 98 29 99 28 100 32 101 30 102
REMARK H PARENT 3 7 91 25 59 36 10 78 16 88
REMARK Flexibility Score: inf
ROOT
ATOM      1  C   UNL A   1      39.872  22.443  26.665  1.00  0.00     0.002 C 
ENDROOT
BRANCH   1   2
ATOM      2  C   UNL A   1      40.600  21.947  27.906  1.00  0.00     0.021 C 
BRANCH   2   3
ATOM      3  C   UNL A   1      42.131  21.898  27.839  1.00  0.00     0.116 C 
BRANCH   3   4
ATOM      4  N   UNL A   1      42.778  22.335  26.605  1.00  0.00    -0.352 N 
ATOM      5  O   UNL A   1      44.020  23.511  25.172  1.00  0.00    -0.269 OA
ATOM      6  C   UNL A   1      43.277  23.537  26.157  1.00  0.00     0.251 C 
ATOM      7  H   UNL A   1      42.878  21.609  25.948  1.00  0.00     0.163 HD
BRANCH   6   8
ATOM      8  C   UNL A   1      42.898  24.853  26.730  1.00  0.00     0.039 A 
ATOM      9  C   UNL A   1      43.586  25.457  27.772  1.00  0.00     0.014 A 
ATOM     10  C   UNL A   1      41.753  25.492  26.212  1.00  0.00     0.014 A 
ATOM     11  C   UNL A   1      43.044  26.560  28.411  1.00  0.00     0.010 A 
ATOM     12  C   UNL A   1      41.250  26.656  26.797  1.00  0.00     0.010 A 
ATOM     13  C   UNL A   1      41.875  27.168  27.928  1.00  0.00    -0.014 A 
BRANCH  13  14
ATOM     14  C   UNL A   1      41.564  28.479  28.504  1.00  0.00     0.031 A 
ATOM     15  C   UNL A   1      42.567  29.511  28.119  1.00  0.00     0.074 A 
ATOM     16  C   UNL A   1      40.503  28.832  29.255  1.00  0.00     0.049 A 
ATOM     17  N   UNL A   1      43.463  30.049  28.877  1.00  0.00    -0.248 NA
ATOM     18  C   UNL A   1      42.731  29.813  26.689  1.00  0.00     0.031 C 
ATOM     19  C   UNL A   1      39.294  28.070  29.548  1.00  0.00     0.029 A 
ATOM     20  N   UNL A   1      40.269  30.032  29.867  1.00  0.00    -0.354 N 
ATOM     21  C   UNL A   1      44.182  30.918  28.066  1.00  0.00     0.074 A 
ATOM     22  C   UNL A   1      43.809  30.597  26.713  1.00  0.00     0.031 C 
ATOM     23  C   UNL A   1      38.369  28.898  30.092  1.00  0.00     0.029 A 
ATOM     24  C   UNL A   1      38.962  30.211  30.305  1.00  0.00     0.049 A 
ATOM     25  H   UNL A   1      40.970  30.713  29.988  1.00  0.00     0.167 HD
ATOM     26  C   UNL A   1      44.872  31.965  28.592  1.00  0.00     0.034 A 
ATOM     27  C   UNL A   1      38.397  31.368  30.751  1.00  0.00     0.034 A 
ATOM     28  C   UNL A   1      45.100  31.783  30.007  1.00  0.00     0.049 A 
ATOM     29  C   UNL A   1      39.496  32.240  31.234  1.00  0.00     0.074 A 
ATOM     30  C   UNL A   1      45.735  30.819  30.770  1.00  0.00     0.029 A 
ATOM     31  N   UNL A   1      44.316  32.490  30.892  1.00  0.00    -0.354 N 
ATOM     32  N   UNL A   1      40.213  31.971  32.289  1.00  0.00    -0.248 NA
ATOM     33  C   UNL A   1      40.112  33.167  30.293  1.00  0.00     0.031 C 
ATOM     34  C   UNL A   1      44.917  30.671  31.929  1.00  0.00     0.029 A 
ATOM     35  C   UNL A   1      43.881  31.602  31.845  1.00  0.00     0.049 A 
ATOM     36  H   UNL A   1      44.106  33.451  30.849  1.00  0.00     0.167 HD
ATOM     37  C   UNL A   1      41.509  32.316  31.941  1.00  0.00     0.074 A 
ATOM     38  C   UNL A   1      41.371  33.137  30.741  1.00  0.00     0.031 C 
ATOM     39  C   UNL A   1      42.586  31.681  32.493  1.00  0.00     0.034 A 
BRANCH  26  40
ATOM     40  C   UNL A   1      45.008  33.315  27.922  1.00  0.00     0.023 A 
ATOM     41  C   UNL A   1      44.077  34.306  28.287  1.00  0.00     0.031 A 
ATOM     42  C   UNL A   1      45.763  33.581  26.757  1.00  0.00     0.131 A 
ATOM     43  C   UNL A   1      43.836  35.410  27.452  1.00  0.00     0.055 A 
ATOM     44  C   UNL A   1      45.569  34.717  25.969  1.00  0.00     0.041 A 
ATOM     45  F   UNL A   1      46.660  32.722  26.259  1.00  0.00    -0.206 F 
ATOM     46  C   UNL A   1      44.574  35.622  26.293  1.00  0.00     0.022 A 
BRANCH  43  47
ATOM     47  S   UNL A   1      42.402  36.454  27.813  1.00  0.00     0.124 S 
ATOM     48  O   UNL A   1      42.772  37.018  29.106  1.00  0.00    -0.237 OA
ATOM     49  O   UNL A   1      42.409  37.376  26.682  1.00  0.00    -0.237 OA
ATOM     50  O   UNL A   1      41.291  35.506  27.838  1.00  0.00    -0.744 OA
ENDBRANCH  43  47
ENDBRANCH  26  40
BRANCH  27  51
ATOM     51  C   UNL A   1      37.017  31.866  30.485  1.00  0.00     0.023 A 
ATOM     52  C   UNL A   1      36.255  32.579  31.439  1.00  0.00     0.031 A 
ATOM     53  C   UNL A   1      36.521  31.860  29.161  1.00  0.00     0.131 A 
ATOM     54  C   UNL A   1      35.062  33.240  31.052  1.00  0.00     0.055 A 
ATOM     55  C   UNL A   1      35.343  32.510  28.787  1.00  0.00     0.041 A 
ATOM     56  F   UNL A   1      37.216  31.296  28.161  1.00  0.00    -0.206 F 
ATOM     57  C   UNL A   1      34.613  33.211  29.731  1.00  0.00     0.022 A 
BRANCH  54  58
ATOM     58  S   UNL A   1      34.118  34.241  32.250  1.00  0.00     0.124 S 
ATOM     59  O   UNL A   1      35.156  35.071  32.850  1.00  0.00    -0.237 OA
ATOM     60  O   UNL A   1      33.150  34.923  31.399  1.00  0.00    -0.237 OA
ATOM     61  O   UNL A   1      33.539  33.240  33.150  1.00  0.00    -0.744 OA
ENDBRANCH  54  58
ENDBRANCH  27  51
BRANCH  39  62
ATOM     62  C   UNL A   1      42.380  30.832  33.732  1.00  0.00     0.023 A 
ATOM     63  C   UNL A   1      42.089  29.449  33.732  1.00  0.00     0.031 A 
ATOM     64  C   UNL A   1      42.591  31.451  34.978  1.00  0.00     0.131 A 
ATOM     65  C   UNL A   1      42.002  28.747  34.952  1.00  0.00     0.055 A 
ATOM     66  C   UNL A   1      42.528  30.748  36.180  1.00  0.00     0.041 A 
ATOM     67  F   UNL A   1      42.893  32.759  35.049  1.00  0.00    -0.206 F 
ATOM     68  C   UNL A   1      42.225  29.394  36.171  1.00  0.00     0.022 A 
BRANCH  65  69
ATOM     69  S   UNL A   1      41.548  26.982  34.968  1.00  0.00     0.124 S 
ATOM     70  O   UNL A   1      41.254  26.702  36.341  1.00  0.00    -0.237 OA
ATOM     71  O   UNL A   1      40.410  26.950  34.031  1.00  0.00    -0.237 OA
ATOM     72  O   UNL A   1      42.761  26.324  34.442  1.00  0.00    -0.744 OA
ENDBRANCH  65  69
ENDBRANCH  39  62
ENDBRANCH  13  14
ENDBRANCH   6   8
ENDBRANCH   3   4
ENDBRANCH   2   3
ENDBRANCH   1   2
BRANCH   1  73
ATOM     73  C   UNL A   1      39.182  21.409  25.747  1.00  0.00     0.002 C 
BRANCH  73  74
ATOM     74  C   UNL A   1      37.797  21.665  25.099  1.00  0.00     0.021 C 
BRANCH  74  75
ATOM     75  C   UNL A   1      36.362  21.703  25.846  1.00  0.00     0.116 C 
BRANCH  75  76
ATOM     76  N   UNL A   1      35.221  22.757  25.825  1.00  0.00    -0.354 N 
ATOM     77  C   UNL A   1      33.850  22.945  25.518  1.00  0.00     0.243 C 
ATOM     78  H   UNL A   1      35.585  23.614  26.147  1.00  0.00     0.163 HD
ATOM     79  O   UNL A   1      33.206  23.880  26.007  1.00  0.00    -0.273 OA
BRANCH  77  80
ATOM     80  C   UNL A   1      33.187  22.310  24.328  1.00  0.00     0.180 C 
ATOM     81  C   UNL A   1      32.153  21.393  25.080  1.00  0.00     0.091 C 
ATOM     82  N   UNL A   1      32.863  23.511  23.649  1.00  0.00    -0.324 N 
ATOM     83  C   UNL A   1      31.127  22.273  25.661  1.00  0.00     0.042 A 
ATOM     84  C   UNL A   1      31.359  23.928  23.713  1.00  0.00     0.178 C 
ATOM     85  N   UNL A   1      30.648  22.279  26.938  1.00  0.00    -0.348 N 
ATOM     86  C   UNL A   1      30.746  23.451  25.063  1.00  0.00     0.081 A 
ATOM     87  C   UNL A   1      29.868  23.401  27.039  1.00  0.00     0.197 A 
ATOM     88  H   UNL A   1      30.827  21.614  27.643  1.00  0.00     0.167 HD
ATOM     89  N   UNL A   1      29.932  24.140  25.942  1.00  0.00    -0.240 NA
BRANCH  82  90
ATOM     90  C   UNL A   1      34.017  24.326  23.295  1.00  0.00     0.224 C 
ATOM     91  O   UNL A   1      34.894  23.805  22.592  1.00  0.00    -0.275 OA
BRANCH  90  92
ATOM     92  C   UNL A   1      34.222  26.071  23.783  1.00  0.00     0.107 C 
BRANCH  92  93
ATOM     93  C   UNL A   1      33.548  27.318  24.934  1.00  0.00    -0.020 C 
ATOM     94  C   UNL A   1      33.527  28.765  24.280  1.00  0.00     0.011 C 
ATOM     95  C   UNL A   1      34.126  27.557  26.398  1.00  0.00     0.011 C 
ATOM     96  C   UNL A   1      31.987  27.095  25.142  1.00  0.00     0.011 C 
ATOM     97  C   UNL A   1      32.895  29.856  25.196  1.00  0.00    -0.010 C 
ATOM     98  C   UNL A   1      33.470  28.613  27.273  1.00  0.00    -0.010 C 
ATOM     99  C   UNL A   1      31.334  28.136  26.112  1.00  0.00    -0.010 C 
ATOM    100  C   UNL A   1      31.430  29.529  25.480  1.00  0.00     0.007 C 
ATOM    101  C   UNL A   1      33.636  29.942  26.539  1.00  0.00     0.007 C 
ATOM    102  C   UNL A   1      32.027  28.205  27.481  1.00  0.00     0.007 C 
ENDBRANCH  92  93
ENDBRANCH  90  92
ENDBRANCH  82  90
ENDBRANCH  77  80
ENDBRANCH  75  76
ENDBRANCH  74  75
ENDBRANCH  73  74
ENDBRANCH   1  73
TORSDOF 19
ENDMDL
