MODEL 1
REMARK VINA RESULT:     -11.9      0.000      0.000
REMARK SMILES O=C(NCCCCCCNC(=O)c1cc(F)c(F)cc1NS(=O)(=O)c1ccc2c(c1)CCC2)c1ccc(-c2c3nc(c(-c4cc(S(=O)(=O)[O-])ccc4F)c4ccc([nH]4)c(-c4cc(S(=O)(=O)[O-])ccc4F)c4nc(c(-c5cc(S(=O)(=O)[O-])ccc5F)c5ccc2[nH]5)C=C4)C=C3)cc1
REMARK SMILES IDX 6 1 5 2 4 3 3 4 1 5 2 6 34 8 35 9 96 10 36 11 95 12 37 13
REMARK SMILES IDX 38 14 39 15 89 16 40 17 94 18 88 19 90 20 41 21 93 22 87 23
REMARK SMILES IDX 86 24 42 26 74 27 54 28 73 29 55 30 58 31 72 32 91 33 56 34
REMARK SMILES IDX 57 35 71 37 92 38 59 39 43 40 44 41 52 42 45 43 51 44 53 45
REMARK SMILES IDX 50 46 46 47 47 48 48 49 49 50 75 51 76 52 84 53 77 54 83 55
REMARK SMILES IDX 85 56 82 57 78 58 79 59 80 60 81 61 60 62 61 63 69 64 62 65
REMARK SMILES IDX 68 66 70 67 67 68 63 69 64 70 65 71 66 72 7 73 8 74 9 75
REMARK SMILES IDX 10 76 11 77 12 79 13 80 14 81 20 82 15 83 19 84 16 85 17 86
REMARK SMILES IDX 18 87 21 88 22 90 23 91 24 92 25 93 26 94 30 95 27 96 29 97
REMARK SMILES IDX 28 98 31 99 33 100 32 101
REMARK H PARENT 3 7 90 25 58 36 10 78 21 89
REMARK Flexibility Score: inf
ROOT
ATOM      1  C   UNL A   1      37.298  21.037  24.348  1.00  0.00     0.002 C 
ENDROOT
BRANCH   1   2
ATOM      2  C   UNL A   1      38.037  19.828  24.924  1.00  0.00     0.021 C 
BRANCH   2   3
ATOM      3  C   UNL A   1      38.981  20.130  26.081  1.00  0.00     0.116 C 
BRANCH   3   4
ATOM      4  N   UNL A   1      40.103  19.208  26.154  1.00  0.00    -0.352 N 
ATOM      5  O   UNL A   1      42.270  18.581  26.184  1.00  0.00    -0.269 OA
ATOM      6  C   UNL A   1      41.445  19.488  26.267  1.00  0.00     0.251 C 
ATOM      7  H   UNL A   1      39.870  18.252  26.120  1.00  0.00     0.163 HD
BRANCH   6   8
ATOM      8  C   UNL A   1      41.894  20.887  26.461  1.00  0.00     0.039 A 
ATOM      9  C   UNL A   1      42.167  21.375  27.740  1.00  0.00     0.014 A 
ATOM     10  C   UNL A   1      42.038  21.724  25.350  1.00  0.00     0.014 A 
ATOM     11  C   UNL A   1      42.438  22.725  27.921  1.00  0.00     0.010 A 
ATOM     12  C   UNL A   1      42.400  23.064  25.527  1.00  0.00     0.010 A 
ATOM     13  C   UNL A   1      42.573  23.586  26.818  1.00  0.00    -0.014 A 
BRANCH  13  14
ATOM     14  C   UNL A   1      42.956  25.003  27.060  1.00  0.00     0.031 A 
ATOM     15  C   UNL A   1      42.045  25.948  27.795  1.00  0.00     0.074 A 
ATOM     16  C   UNL A   1      44.178  25.409  26.664  1.00  0.00     0.049 A 
ATOM     17  N   UNL A   1      42.263  27.188  28.153  1.00  0.00    -0.248 NA
ATOM     18  C   UNL A   1      40.717  25.441  28.166  1.00  0.00     0.031 C 
ATOM     19  C   UNL A   1      45.137  24.583  25.923  1.00  0.00     0.029 A 
ATOM     20  N   UNL A   1      44.842  26.595  26.851  1.00  0.00    -0.354 N 
ATOM     21  C   UNL A   1      41.102  27.615  28.789  1.00  0.00     0.074 A 
ATOM     22  C   UNL A   1      40.167  26.509  28.730  1.00  0.00     0.031 C 
ATOM     23  C   UNL A   1      46.281  25.265  25.772  1.00  0.00     0.029 A 
ATOM     24  C   UNL A   1      46.121  26.595  26.346  1.00  0.00     0.049 A 
ATOM     25  H   UNL A   1      44.439  27.372  27.304  1.00  0.00     0.167 HD
ATOM     26  C   UNL A   1      40.846  28.812  29.376  1.00  0.00     0.034 A 
ATOM     27  C   UNL A   1      47.059  27.559  26.332  1.00  0.00     0.034 A 
ATOM     28  C   UNL A   1      41.787  29.907  29.418  1.00  0.00     0.049 A 
ATOM     29  C   UNL A   1      46.747  28.877  26.986  1.00  0.00     0.074 A 
ATOM     30  C   UNL A   1      41.629  31.163  29.982  1.00  0.00     0.029 A 
ATOM     31  N   UNL A   1      43.065  29.882  28.872  1.00  0.00    -0.354 N 
ATOM     32  N   UNL A   1      45.644  29.257  27.590  1.00  0.00    -0.248 NA
ATOM     33  C   UNL A   1      47.807  29.891  26.965  1.00  0.00     0.031 C 
ATOM     34  C   UNL A   1      42.786  31.911  29.730  1.00  0.00     0.029 A 
ATOM     35  C   UNL A   1      43.695  31.102  29.069  1.00  0.00     0.049 A 
ATOM     36  H   UNL A   1      43.465  29.110  28.411  1.00  0.00     0.167 HD
ATOM     37  C   UNL A   1      45.880  30.557  28.022  1.00  0.00     0.074 A 
ATOM     38  C   UNL A   1      47.244  30.877  27.648  1.00  0.00     0.031 C 
ATOM     39  C   UNL A   1      45.045  31.415  28.663  1.00  0.00     0.034 A 
BRANCH  26  40
ATOM     40  C   UNL A   1      39.478  29.007  29.989  1.00  0.00     0.023 A 
ATOM     41  C   UNL A   1      38.450  29.677  29.301  1.00  0.00     0.031 A 
ATOM     42  C   UNL A   1      39.198  28.525  31.280  1.00  0.00     0.131 A 
ATOM     43  C   UNL A   1      37.213  29.896  29.928  1.00  0.00     0.055 A 
ATOM     44  C   UNL A   1      37.944  28.685  31.872  1.00  0.00     0.041 A 
ATOM     45  F   UNL A   1      40.146  27.895  31.994  1.00  0.00    -0.206 F 
ATOM     46  C   UNL A   1      36.945  29.384  31.199  1.00  0.00     0.022 A 
BRANCH  43  47
ATOM     47  S   UNL A   1      35.999  30.963  29.104  1.00  0.00     0.124 S 
ATOM     48  O   UNL A   1      35.235  29.993  28.323  1.00  0.00    -0.237 OA
ATOM     49  O   UNL A   1      35.297  31.571  30.228  1.00  0.00    -0.237 OA
ATOM     50  O   UNL A   1      36.823  31.875  28.315  1.00  0.00    -0.744 OA
ENDBRANCH  43  47
ENDBRANCH  26  40
BRANCH  27  51
ATOM     51  C   UNL A   1      48.365  27.325  25.653  1.00  0.00     0.023 A 
ATOM     52  C   UNL A   1      48.512  27.508  24.270  1.00  0.00     0.031 A 
ATOM     53  C   UNL A   1      49.483  26.884  26.384  1.00  0.00     0.131 A 
ATOM     54  C   UNL A   1      49.738  27.214  23.654  1.00  0.00     0.055 A 
ATOM     55  C   UNL A   1      50.715  26.646  25.775  1.00  0.00     0.041 A 
ATOM     56  F   UNL A   1      49.397  26.698  27.710  1.00  0.00    -0.206 F 
ATOM     57  C   UNL A   1      50.844  26.797  24.399  1.00  0.00     0.022 A 
BRANCH  54  58
ATOM     58  S   UNL A   1      49.844  27.299  21.845  1.00  0.00     0.124 S 
ATOM     59  O   UNL A   1      49.760  28.735  21.607  1.00  0.00    -0.237 OA
ATOM     60  O   UNL A   1      51.142  26.682  21.590  1.00  0.00    -0.237 OA
ATOM     61  O   UNL A   1      48.689  26.522  21.399  1.00  0.00    -0.744 OA
ENDBRANCH  54  58
ENDBRANCH  27  51
BRANCH  39  62
ATOM     62  C   UNL A   1      45.609  32.772  28.999  1.00  0.00     0.023 A 
ATOM     63  C   UNL A   1      45.523  33.846  28.095  1.00  0.00     0.031 A 
ATOM     64  C   UNL A   1      46.287  32.981  30.213  1.00  0.00     0.131 A 
ATOM     65  C   UNL A   1      46.167  35.057  28.384  1.00  0.00     0.055 A 
ATOM     66  C   UNL A   1      46.873  34.209  30.522  1.00  0.00     0.041 A 
ATOM     67  F   UNL A   1      46.400  31.990  31.111  1.00  0.00    -0.206 F 
ATOM     68  C   UNL A   1      46.830  35.250  29.598  1.00  0.00     0.022 A 
BRANCH  65  69
ATOM     69  S   UNL A   1      46.223  36.339  27.103  1.00  0.00     0.124 S 
ATOM     70  O   UNL A   1      46.720  35.595  25.950  1.00  0.00    -0.237 OA
ATOM     71  O   UNL A   1      44.830  36.770  27.032  1.00  0.00    -0.237 OA
ATOM     72  O   UNL A   1      47.150  37.329  27.649  1.00  0.00    -0.744 OA
ENDBRANCH  65  69
ENDBRANCH  39  62
ENDBRANCH  13  14
ENDBRANCH   6   8
ENDBRANCH   3   4
ENDBRANCH   2   3
ENDBRANCH   1   2
BRANCH   1  73
ATOM     73  C   UNL A   1      35.906  21.310  24.929  1.00  0.00     0.002 C 
BRANCH  73  74
ATOM     74  C   UNL A   1      35.846  22.340  26.062  1.00  0.00     0.021 C 
BRANCH  74  75
ATOM     75  C   UNL A   1      35.617  23.781  25.615  1.00  0.00     0.116 C 
BRANCH  75  76
ATOM     76  N   UNL A   1      35.257  23.865  24.205  1.00  0.00    -0.352 N 
ATOM     77  C   UNL A   1      34.175  24.490  23.631  1.00  0.00     0.253 C 
ATOM     78  H   UNL A   1      35.870  23.414  23.581  1.00  0.00     0.163 HD
ATOM     79  O   UNL A   1      33.867  24.274  22.466  1.00  0.00    -0.269 OA
BRANCH  77  80
ATOM     80  C   UNL A   1      33.347  25.374  24.471  1.00  0.00     0.067 A 
ATOM     81  C   UNL A   1      33.825  26.666  24.740  1.00  0.00     0.058 A 
ATOM     82  C   UNL A   1      32.194  24.884  25.108  1.00  0.00     0.065 A 
ATOM     83  C   UNL A   1      33.209  27.422  25.726  1.00  0.00     0.159 A 
ATOM     84  C   UNL A   1      31.647  25.631  26.155  1.00  0.00     0.070 A 
ATOM     85  F   UNL A   1      33.675  28.647  26.002  1.00  0.00    -0.204 F 
ATOM     86  C   UNL A   1      32.150  26.895  26.453  1.00  0.00     0.160 A 
ATOM     87  F   UNL A   1      31.583  27.610  27.433  1.00  0.00    -0.204 F 
BRANCH  82  88
ATOM     88  N   UNL A   1      31.532  23.657  24.723  1.00  0.00    -0.279 N 
ATOM     89  H   UNL A   1      31.072  23.575  23.857  1.00  0.00     0.180 HD
BRANCH  88  90
ATOM     90  S   UNL A   1      31.580  22.342  25.838  1.00  0.00     0.261 S 
ATOM     91  O   UNL A   1      32.598  22.623  26.826  1.00  0.00    -0.201 OA
ATOM     92  O   UNL A   1      30.208  22.105  26.240  1.00  0.00    -0.201 OA
BRANCH  90  93
ATOM     93  C   UNL A   1      32.129  20.924  24.913  1.00  0.00     0.088 A 
ATOM     94  C   UNL A   1      32.148  21.010  23.504  1.00  0.00     0.022 A 
ATOM     95  C   UNL A   1      32.555  19.765  25.571  1.00  0.00     0.026 A 
ATOM     96  C   UNL A   1      32.443  19.886  22.735  1.00  0.00     0.005 A 
ATOM     97  C   UNL A   1      32.919  18.679  24.789  1.00  0.00    -0.043 A 
ATOM     98  C   UNL A   1      32.815  18.728  23.392  1.00  0.00    -0.045 A 
ATOM     99  C   UNL A   1      33.406  17.332  25.232  1.00  0.00     0.036 C 
ATOM    100  C   UNL A   1      33.102  17.387  22.790  1.00  0.00     0.036 C 
ATOM    101  C   UNL A   1      33.928  16.744  23.909  1.00  0.00     0.010 C 
ENDBRANCH  90  93
ENDBRANCH  88  90
ENDBRANCH  82  88
ENDBRANCH  77  80
ENDBRANCH  75  76
ENDBRANCH  74  75
ENDBRANCH  73  74
ENDBRANCH   1  73
TORSDOF 19
ENDMDL
MODEL 2
REMARK VINA RESULT:     -11.9      1.367      1.679
REMARK SMILES O=C(NCCCCCCNC(=O)c1cc(F)c(F)cc1NS(=O)(=O)c1ccc2c(c1)CCC2)c1ccc(-c2c3nc(c(-c4cc(S(=O)(=O)[O-])ccc4F)c4ccc([nH]4)c(-c4cc(S(=O)(=O)[O-])ccc4F)c4nc(c(-c5cc(S(=O)(=O)[O-])ccc5F)c5ccc2[nH]5)C=C4)C=C3)cc1
REMARK SMILES IDX 6 1 5 2 4 3 3 4 1 5 2 6 34 8 35 9 96 10 36 11 95 12 37 13
REMARK SMILES IDX 38 14 39 15 89 16 40 17 94 18 88 19 90 20 41 21 93 22 87 23
REMARK SMILES IDX 86 24 42 26 74 27 54 28 73 29 55 30 58 31 72 32 91 33 56 34
REMARK SMILES IDX 57 35 71 37 92 38 59 39 43 40 44 41 52 42 45 43 51 44 53 45
REMARK SMILES IDX 50 46 46 47 47 48 48 49 49 50 75 51 76 52 84 53 77 54 83 55
REMARK SMILES IDX 85 56 82 57 78 58 79 59 80 60 81 61 60 62 61 63 69 64 62 65
REMARK SMILES IDX 68 66 70 67 67 68 63 69 64 70 65 71 66 72 7 73 8 74 9 75
REMARK SMILES IDX 10 76 11 77 12 79 13 80 14 81 20 82 15 83 19 84 16 85 17 86
REMARK SMILES IDX 18 87 21 88 22 90 23 91 24 92 25 93 26 94 30 95 27 96 29 97
REMARK SMILES IDX 28 98 31 99 33 100 32 101
REMARK H PARENT 3 7 90 25 58 36 10 78 21 89
REMARK Flexibility Score: inf
ROOT
ATOM      1  C   UNL A   1      37.500  21.020  24.637  1.00  0.00     0.002 C 
ENDROOT
BRANCH   1   2
ATOM      2  C   UNL A   1      38.398  19.844  25.022  1.00  0.00     0.021 C 
BRANCH   2   3
ATOM      3  C   UNL A   1      39.344  20.098  26.190  1.00  0.00     0.116 C 
BRANCH   3   4
ATOM      4  N   UNL A   1      40.519  19.243  26.166  1.00  0.00    -0.352 N 
ATOM      5  O   UNL A   1      42.719  18.748  26.063  1.00  0.00    -0.269 OA
ATOM      6  C   UNL A   1      41.847  19.599  26.228  1.00  0.00     0.251 C 
ATOM      7  H   UNL A   1      40.341  18.278  26.096  1.00  0.00     0.163 HD
BRANCH   6   8
ATOM      8  C   UNL A   1      42.223  21.012  26.469  1.00  0.00     0.039 A 
ATOM      9  C   UNL A   1      42.216  21.938  25.424  1.00  0.00     0.014 A 
ATOM     10  C   UNL A   1      42.592  21.416  27.756  1.00  0.00     0.014 A 
ATOM     11  C   UNL A   1      42.714  23.218  25.632  1.00  0.00     0.010 A 
ATOM     12  C   UNL A   1      43.008  22.732  27.983  1.00  0.00     0.010 A 
ATOM     13  C   UNL A   1      43.103  23.639  26.916  1.00  0.00    -0.014 A 
BRANCH  13  14
ATOM     14  C   UNL A   1      43.541  25.047  27.103  1.00  0.00     0.031 A 
ATOM     15  C   UNL A   1      42.633  26.078  27.716  1.00  0.00     0.074 A 
ATOM     16  C   UNL A   1      44.808  25.370  26.773  1.00  0.00     0.049 A 
ATOM     17  N   UNL A   1      42.891  27.326  28.016  1.00  0.00    -0.248 NA
ATOM     18  C   UNL A   1      41.258  25.660  28.020  1.00  0.00     0.031 C 
ATOM     19  C   UNL A   1      45.771  24.455  26.151  1.00  0.00     0.029 A 
ATOM     20  N   UNL A   1      45.518  26.531  26.938  1.00  0.00    -0.354 N 
ATOM     21  C   UNL A   1      41.712  27.846  28.542  1.00  0.00     0.074 A 
ATOM     22  C   UNL A   1      40.727  26.785  28.481  1.00  0.00     0.031 C 
ATOM     23  C   UNL A   1      46.956  25.070  26.043  1.00  0.00     0.029 A 
ATOM     24  C   UNL A   1      46.827  26.439  26.526  1.00  0.00     0.049 A 
ATOM     25  H   UNL A   1      45.127  27.353  27.316  1.00  0.00     0.167 HD
ATOM     26  C   UNL A   1      41.480  29.087  29.040  1.00  0.00     0.034 A 
ATOM     27  C   UNL A   1      47.813  27.355  26.525  1.00  0.00     0.034 A 
ATOM     28  C   UNL A   1      42.472  30.137  29.086  1.00  0.00     0.049 A 
ATOM     29  C   UNL A   1      47.526  28.723  27.078  1.00  0.00     0.074 A 
ATOM     30  C   UNL A   1      42.341  31.431  29.565  1.00  0.00     0.029 A 
ATOM     31  N   UNL A   1      43.781  30.017  28.635  1.00  0.00    -0.354 N 
ATOM     32  N   UNL A   1      46.406  29.192  27.578  1.00  0.00    -0.248 NA
ATOM     33  C   UNL A   1      48.637  29.682  27.074  1.00  0.00     0.031 C 
ATOM     34  C   UNL A   1      43.550  32.105  29.353  1.00  0.00     0.029 A 
ATOM     35  C   UNL A   1      44.459  31.215  28.806  1.00  0.00     0.049 A 
ATOM     36  H   UNL A   1      44.171  29.200  28.249  1.00  0.00     0.167 HD
ATOM     37  C   UNL A   1      46.679  30.503  27.952  1.00  0.00     0.074 A 
ATOM     38  C   UNL A   1      48.080  30.733  27.658  1.00  0.00     0.031 C 
ATOM     39  C   UNL A   1      45.849  31.437  28.480  1.00  0.00     0.034 A 
BRANCH  26  40
ATOM     40  C   UNL A   1      40.086  29.386  29.542  1.00  0.00     0.023 A 
ATOM     41  C   UNL A   1      39.795  29.454  30.917  1.00  0.00     0.031 A 
ATOM     42  C   UNL A   1      39.031  29.599  28.636  1.00  0.00     0.131 A 
ATOM     43  C   UNL A   1      38.475  29.669  31.345  1.00  0.00     0.055 A 
ATOM     44  C   UNL A   1      37.734  29.881  29.068  1.00  0.00     0.041 A 
ATOM     45  F   UNL A   1      39.243  29.527  27.312  1.00  0.00    -0.206 F 
ATOM     46  C   UNL A   1      37.447  29.906  30.430  1.00  0.00     0.022 A 
BRANCH  43  47
ATOM     47  S   UNL A   1      38.100  29.516  33.113  1.00  0.00     0.124 S 
ATOM     48  O   UNL A   1      37.321  28.280  33.145  1.00  0.00    -0.237 OA
ATOM     49  O   UNL A   1      39.427  29.448  33.713  1.00  0.00    -0.237 OA
ATOM     50  O   UNL A   1      37.343  30.729  33.409  1.00  0.00    -0.744 OA
ENDBRANCH  43  47
ENDBRANCH  26  40
BRANCH  27  51
ATOM     51  C   UNL A   1      49.148  27.017  25.954  1.00  0.00     0.023 A 
ATOM     52  C   UNL A   1      49.514  27.420  24.662  1.00  0.00     0.031 A 
ATOM     53  C   UNL A   1      50.070  26.255  26.695  1.00  0.00     0.131 A 
ATOM     54  C   UNL A   1      50.753  27.027  24.133  1.00  0.00     0.055 A 
ATOM     55  C   UNL A   1      51.323  25.913  26.185  1.00  0.00     0.041 A 
ATOM     56  F   UNL A   1      49.772  25.848  27.938  1.00  0.00    -0.206 F 
ATOM     57  C   UNL A   1      51.665  26.288  24.891  1.00  0.00     0.022 A 
BRANCH  54  58
ATOM     58  S   UNL A   1      51.123  27.421  22.401  1.00  0.00     0.124 S 
ATOM     59  O   UNL A   1      51.031  28.876  22.399  1.00  0.00    -0.237 OA
ATOM     60  O   UNL A   1      52.462  26.862  22.245  1.00  0.00    -0.237 OA
ATOM     61  O   UNL A   1      50.070  26.727  21.662  1.00  0.00    -0.744 OA
ENDBRANCH  54  58
ENDBRANCH  27  51
BRANCH  39  62
ATOM     62  C   UNL A   1      46.458  32.784  28.778  1.00  0.00     0.023 A 
ATOM     63  C   UNL A   1      46.542  33.784  27.792  1.00  0.00     0.031 A 
ATOM     64  C   UNL A   1      47.010  33.052  30.043  1.00  0.00     0.131 A 
ATOM     65  C   UNL A   1      47.227  34.977  28.063  1.00  0.00     0.055 A 
ATOM     66  C   UNL A   1      47.636  34.266  30.326  1.00  0.00     0.041 A 
ATOM     67  F   UNL A   1      46.958  32.132  31.019  1.00  0.00    -0.206 F 
ATOM     68  C   UNL A   1      47.763  35.230  29.328  1.00  0.00     0.022 A 
BRANCH  65  69
ATOM     69  S   UNL A   1      47.507  36.145  26.706  1.00  0.00     0.124 S 
ATOM     70  O   UNL A   1      46.254  36.893  26.685  1.00  0.00    -0.237 OA
ATOM     71  O   UNL A   1      48.681  36.881  27.164  1.00  0.00    -0.237 OA
ATOM     72  O   UNL A   1      47.732  35.280  25.549  1.00  0.00    -0.744 OA
ENDBRANCH  65  69
ENDBRANCH  39  62
ENDBRANCH  13  14
ENDBRANCH   6   8
ENDBRANCH   3   4
ENDBRANCH   2   3
ENDBRANCH   1   2
BRANCH   1  73
ATOM     73  C   UNL A   1      37.795  22.348  25.344  1.00  0.00     0.002 C 
BRANCH  73  74
ATOM     74  C   UNL A   1      36.783  23.472  25.102  1.00  0.00     0.021 C 
BRANCH  74  75
ATOM     75  C   UNL A   1      35.345  23.011  24.878  1.00  0.00     0.116 C 
BRANCH  75  76
ATOM     76  N   UNL A   1      34.898  23.262  23.513  1.00  0.00    -0.352 N 
ATOM     77  C   UNL A   1      33.919  24.122  23.075  1.00  0.00     0.253 C 
ATOM     78  H   UNL A   1      35.359  22.747  22.811  1.00  0.00     0.163 HD
ATOM     79  O   UNL A   1      33.483  24.053  21.933  1.00  0.00    -0.269 OA
BRANCH  77  80
ATOM     80  C   UNL A   1      33.351  25.086  24.033  1.00  0.00     0.067 A 
ATOM     81  C   UNL A   1      34.003  26.319  24.194  1.00  0.00     0.058 A 
ATOM     82  C   UNL A   1      32.283  24.720  24.872  1.00  0.00     0.065 A 
ATOM     83  C   UNL A   1      33.655  27.133  25.262  1.00  0.00     0.159 A 
ATOM     84  C   UNL A   1      32.012  25.518  25.987  1.00  0.00     0.070 A 
ATOM     85  F   UNL A   1      34.289  28.301  25.433  1.00  0.00    -0.204 F 
ATOM     86  C   UNL A   1      32.691  26.720  26.172  1.00  0.00     0.160 A 
ATOM     87  F   UNL A   1      32.385  27.488  27.225  1.00  0.00    -0.204 F 
BRANCH  82  88
ATOM     88  N   UNL A   1      31.437  23.573  24.627  1.00  0.00    -0.279 N 
ATOM     89  H   UNL A   1      30.819  23.548  23.862  1.00  0.00     0.180 HD
BRANCH  88  90
ATOM     90  S   UNL A   1      31.552  22.250  25.728  1.00  0.00     0.261 S 
ATOM     91  O   UNL A   1      32.601  22.543  26.680  1.00  0.00    -0.201 OA
ATOM     92  O   UNL A   1      30.202  21.982  26.179  1.00  0.00    -0.201 OA
BRANCH  90  93
ATOM     93  C   UNL A   1      32.095  20.851  24.770  1.00  0.00     0.088 A 
ATOM     94  C   UNL A   1      32.036  20.940  23.363  1.00  0.00     0.022 A 
ATOM     95  C   UNL A   1      32.591  19.704  25.401  1.00  0.00     0.026 A 
ATOM     96  C   UNL A   1      32.325  19.827  22.575  1.00  0.00     0.005 A 
ATOM     97  C   UNL A   1      32.946  18.631  24.597  1.00  0.00    -0.043 A 
ATOM     98  C   UNL A   1      32.766  18.680  23.208  1.00  0.00    -0.045 A 
ATOM     99  C   UNL A   1      33.496  17.299  25.009  1.00  0.00     0.036 C 
ATOM    100  C   UNL A   1      33.061  17.350  22.587  1.00  0.00     0.036 C 
ATOM    101  C   UNL A   1      33.965  16.730  23.658  1.00  0.00     0.010 C 
ENDBRANCH  90  93
ENDBRANCH  88  90
ENDBRANCH  82  88
ENDBRANCH  77  80
ENDBRANCH  75  76
ENDBRANCH  74  75
ENDBRANCH  73  74
ENDBRANCH   1  73
TORSDOF 19
ENDMDL
MODEL 3
REMARK VINA RESULT:     -11.9      1.443      7.401
REMARK SMILES O=C(NCCCCCCNC(=O)c1cc(F)c(F)cc1NS(=O)(=O)c1ccc2c(c1)CCC2)c1ccc(-c2c3nc(c(-c4cc(S(=O)(=O)[O-])ccc4F)c4ccc([nH]4)c(-c4cc(S(=O)(=O)[O-])ccc4F)c4nc(c(-c5cc(S(=O)(=O)[O-])ccc5F)c5ccc2[nH]5)C=C4)C=C3)cc1
REMARK SMILES IDX 6 1 5 2 4 3 3 4 1 5 2 6 34 8 35 9 96 10 36 11 95 12 37 13
REMARK SMILES IDX 38 14 39 15 89 16 40 17 94 18 88 19 90 20 41 21 93 22 87 23
REMARK SMILES IDX 86 24 42 26 74 27 54 28 73 29 55 30 58 31 72 32 91 33 56 34
REMARK SMILES IDX 57 35 71 37 92 38 59 39 43 40 44 41 52 42 45 43 51 44 53 45
REMARK SMILES IDX 50 46 46 47 47 48 48 49 49 50 75 51 76 52 84 53 77 54 83 55
REMARK SMILES IDX 85 56 82 57 78 58 79 59 80 60 81 61 60 62 61 63 69 64 62 65
REMARK SMILES IDX 68 66 70 67 67 68 63 69 64 70 65 71 66 72 7 73 8 74 9 75
REMARK SMILES IDX 10 76 11 77 12 79 13 80 14 81 20 82 15 83 19 84 16 85 17 86
REMARK SMILES IDX 18 87 21 88 22 90 23 91 24 92 25 93 26 94 30 95 27 96 29 97
REMARK SMILES IDX 28 98 31 99 33 100 32 101
REMARK H PARENT 3 7 90 25 58 36 10 78 21 89
REMARK Flexibility Score: inf
ROOT
ATOM      1  C   UNL A   1      36.828  20.618  25.054  1.00  0.00     0.002 C 
ENDROOT
BRANCH   1   2
ATOM      2  C   UNL A   1      38.126  19.832  24.860  1.00  0.00     0.021 C 
BRANCH   2   3
ATOM      3  C   UNL A   1      39.267  20.212  25.796  1.00  0.00     0.116 C 
BRANCH   3   4
ATOM      4  N   UNL A   1      40.298  19.191  25.878  1.00  0.00    -0.352 N 
ATOM      5  O   UNL A   1      42.398  18.375  26.014  1.00  0.00    -0.269 OA
ATOM      6  C   UNL A   1      41.647  19.343  26.106  1.00  0.00     0.251 C 
ATOM      7  H   UNL A   1      39.990  18.265  25.755  1.00  0.00     0.163 HD
BRANCH   6   8
ATOM      8  C   UNL A   1      42.194  20.680  26.438  1.00  0.00     0.039 A 
ATOM      9  C   UNL A   1      42.308  21.091  27.766  1.00  0.00     0.014 A 
ATOM     10  C   UNL A   1      42.593  21.535  25.405  1.00  0.00     0.014 A 
ATOM     11  C   UNL A   1      42.679  22.399  28.055  1.00  0.00     0.010 A 
ATOM     12  C   UNL A   1      43.052  22.823  25.703  1.00  0.00     0.010 A 
ATOM     13  C   UNL A   1      43.070  23.279  27.030  1.00  0.00    -0.014 A 
BRANCH  13  14
ATOM     14  C   UNL A   1      43.546  24.638  27.400  1.00  0.00     0.031 A 
ATOM     15  C   UNL A   1      44.977  25.053  27.189  1.00  0.00     0.074 A 
ATOM     16  C   UNL A   1      42.645  25.524  27.869  1.00  0.00     0.049 A 
ATOM     17  N   UNL A   1      45.531  26.223  27.387  1.00  0.00    -0.248 NA
ATOM     18  C   UNL A   1      45.907  24.024  26.706  1.00  0.00     0.031 C 
ATOM     19  C   UNL A   1      41.234  25.223  28.133  1.00  0.00     0.029 A 
ATOM     20  N   UNL A   1      42.760  26.856  28.174  1.00  0.00    -0.354 N 
ATOM     21  C   UNL A   1      46.874  26.074  27.057  1.00  0.00     0.074 A 
ATOM     22  C   UNL A   1      47.057  24.685  26.683  1.00  0.00     0.031 C 
ATOM     23  C   UNL A   1      40.606  26.348  28.503  1.00  0.00     0.029 A 
ATOM     24  C   UNL A   1      41.575  27.435  28.564  1.00  0.00     0.049 A 
ATOM     25  H   UNL A   1      43.611  27.349  28.120  1.00  0.00     0.167 HD
ATOM     26  C   UNL A   1      47.857  27.010  27.054  1.00  0.00     0.034 A 
ATOM     27  C   UNL A   1      41.297  28.696  28.942  1.00  0.00     0.034 A 
ATOM     28  C   UNL A   1      47.659  28.388  27.438  1.00  0.00     0.049 A 
ATOM     29  C   UNL A   1      42.407  29.712  28.933  1.00  0.00     0.074 A 
ATOM     30  C   UNL A   1      48.586  29.418  27.476  1.00  0.00     0.029 A 
ATOM     31  N   UNL A   1      46.451  28.935  27.853  1.00  0.00    -0.354 N 
ATOM     32  N   UNL A   1      43.669  29.551  28.609  1.00  0.00    -0.248 NA
ATOM     33  C   UNL A   1      42.053  31.078  29.333  1.00  0.00     0.031 C 
ATOM     34  C   UNL A   1      47.952  30.567  27.964  1.00  0.00     0.029 A 
ATOM     35  C   UNL A   1      46.613  30.277  28.166  1.00  0.00     0.049 A 
ATOM     36  H   UNL A   1      45.602  28.441  27.917  1.00  0.00     0.167 HD
ATOM     37  C   UNL A   1      44.260  30.799  28.764  1.00  0.00     0.074 A 
ATOM     38  C   UNL A   1      43.206  31.709  29.168  1.00  0.00     0.031 C 
ATOM     39  C   UNL A   1      45.557  31.163  28.597  1.00  0.00     0.034 A 
BRANCH  26  40
ATOM     40  C   UNL A   1      49.244  26.560  26.655  1.00  0.00     0.023 A 
ATOM     41  C   UNL A   1      49.865  27.033  25.484  1.00  0.00     0.031 A 
ATOM     42  C   UNL A   1      49.954  25.643  27.450  1.00  0.00     0.131 A 
ATOM     43  C   UNL A   1      51.127  26.543  25.113  1.00  0.00     0.055 A 
ATOM     44  C   UNL A   1      51.239  25.213  27.112  1.00  0.00     0.041 A 
ATOM     45  F   UNL A   1      49.406  25.142  28.570  1.00  0.00    -0.206 F 
ATOM     46  C   UNL A   1      51.828  25.655  25.931  1.00  0.00     0.022 A 
BRANCH  43  47
ATOM     47  S   UNL A   1      51.789  26.994  23.486  1.00  0.00     0.124 S 
ATOM     48  O   UNL A   1      50.604  26.872  22.640  1.00  0.00    -0.237 OA
ATOM     49  O   UNL A   1      52.277  28.351  23.707  1.00  0.00    -0.237 OA
ATOM     50  O   UNL A   1      52.823  25.991  23.245  1.00  0.00    -0.744 OA
ENDBRANCH  43  47
ENDBRANCH  26  40
BRANCH  27  51
ATOM     51  C   UNL A   1      39.922  29.059  29.387  1.00  0.00     0.023 A 
ATOM     52  C   UNL A   1      39.583  29.106  30.747  1.00  0.00     0.031 A 
ATOM     53  C   UNL A   1      38.916  29.339  28.445  1.00  0.00     0.131 A 
ATOM     54  C   UNL A   1      38.261  29.386  31.127  1.00  0.00     0.055 A 
ATOM     55  C   UNL A   1      37.617  29.671  28.829  1.00  0.00     0.041 A 
ATOM     56  F   UNL A   1      39.189  29.313  27.131  1.00  0.00    -0.206 F 
ATOM     57  C   UNL A   1      37.280  29.682  30.178  1.00  0.00     0.022 A 
BRANCH  54  58
ATOM     58  S   UNL A   1      37.819  29.273  32.883  1.00  0.00     0.124 S 
ATOM     59  O   UNL A   1      36.686  30.187  32.966  1.00  0.00    -0.237 OA
ATOM     60  O   UNL A   1      37.510  27.854  33.025  1.00  0.00    -0.237 OA
ATOM     61  O   UNL A   1      39.032  29.715  33.568  1.00  0.00    -0.744 OA
ENDBRANCH  54  58
ENDBRANCH  27  51
BRANCH  39  62
ATOM     62  C   UNL A   1      45.884  32.614  28.847  1.00  0.00     0.023 A 
ATOM     63  C   UNL A   1      45.696  33.589  27.850  1.00  0.00     0.031 A 
ATOM     64  C   UNL A   1      46.439  33.018  30.073  1.00  0.00     0.131 A 
ATOM     65  C   UNL A   1      46.128  34.904  28.069  1.00  0.00     0.055 A 
ATOM     66  C   UNL A   1      46.810  34.343  30.308  1.00  0.00     0.041 A 
ATOM     67  F   UNL A   1      46.641  32.128  31.058  1.00  0.00    -0.206 F 
ATOM     68  C   UNL A   1      46.671  35.291  29.297  1.00  0.00     0.022 A 
BRANCH  65  69
ATOM     69  S   UNL A   1      46.074  36.078  26.688  1.00  0.00     0.124 S 
ATOM     70  O   UNL A   1      45.866  35.193  25.546  1.00  0.00    -0.237 OA
ATOM     71  O   UNL A   1      44.946  36.931  27.047  1.00  0.00    -0.237 OA
ATOM     72  O   UNL A   1      47.383  36.727  26.739  1.00  0.00    -0.744 OA
ENDBRANCH  65  69
ENDBRANCH  39  62
ENDBRANCH  13  14
ENDBRANCH   6   8
ENDBRANCH   3   4
ENDBRANCH   2   3
ENDBRANCH   1   2
BRANCH   1  73
ATOM     73  C   UNL A   1      36.986  22.059  25.553  1.00  0.00     0.002 C 
BRANCH  73  74
ATOM     74  C   UNL A   1      36.805  23.154  24.496  1.00  0.00     0.021 C 
BRANCH  74  75
ATOM     75  C   UNL A   1      35.545  24.002  24.653  1.00  0.00     0.116 C 
BRANCH  75  76
ATOM     76  N   UNL A   1      34.896  24.256  23.372  1.00  0.00    -0.352 N 
ATOM     77  C   UNL A   1      33.797  25.038  23.108  1.00  0.00     0.253 C 
ATOM     78  H   UNL A   1      35.299  23.808  22.593  1.00  0.00     0.163 HD
ATOM     79  O   UNL A   1      33.216  24.967  22.032  1.00  0.00    -0.269 OA
BRANCH  77  80
ATOM     80  C   UNL A   1      33.284  25.915  24.175  1.00  0.00     0.067 A 
ATOM     81  C   UNL A   1      33.908  27.158  24.364  1.00  0.00     0.058 A 
ATOM     82  C   UNL A   1      32.307  25.454  25.075  1.00  0.00     0.065 A 
ATOM     83  C   UNL A   1      33.630  27.887  25.511  1.00  0.00     0.159 A 
ATOM     84  C   UNL A   1      32.111  26.166  26.262  1.00  0.00     0.070 A 
ATOM     85  F   UNL A   1      34.239  29.064  25.706  1.00  0.00    -0.204 F 
ATOM     86  C   UNL A   1      32.764  27.379  26.470  1.00  0.00     0.160 A 
ATOM     87  F   UNL A   1      32.528  28.063  27.596  1.00  0.00    -0.204 F 
BRANCH  82  88
ATOM     88  N   UNL A   1      31.481  24.294  24.826  1.00  0.00    -0.279 N 
ATOM     89  H   UNL A   1      30.795  24.297  24.120  1.00  0.00     0.180 HD
BRANCH  88  90
ATOM     90  S   UNL A   1      31.741  22.904  25.814  1.00  0.00     0.261 S 
ATOM     91  O   UNL A   1      32.953  23.110  26.575  1.00  0.00    -0.201 OA
ATOM     92  O   UNL A   1      30.484  22.646  26.486  1.00  0.00    -0.201 OA
BRANCH  90  93
ATOM     93  C   UNL A   1      32.050  21.551  24.698  1.00  0.00     0.088 A 
ATOM     94  C   UNL A   1      31.980  21.799  23.311  1.00  0.00     0.022 A 
ATOM     95  C   UNL A   1      32.380  20.283  25.190  1.00  0.00     0.026 A 
ATOM     96  C   UNL A   1      32.084  20.747  22.403  1.00  0.00     0.005 A 
ATOM     97  C   UNL A   1      32.555  19.262  24.268  1.00  0.00    -0.043 A 
ATOM     98  C   UNL A   1      32.359  19.486  22.898  1.00  0.00    -0.045 A 
ATOM     99  C   UNL A   1      32.906  17.827  24.520  1.00  0.00     0.036 C 
ATOM    100  C   UNL A   1      32.441  18.201  22.133  1.00  0.00     0.036 C 
ATOM    101  C   UNL A   1      33.260  17.344  23.103  1.00  0.00     0.010 C 
ENDBRANCH  90  93
ENDBRANCH  88  90
ENDBRANCH  82  88
ENDBRANCH  77  80
ENDBRANCH  75  76
ENDBRANCH  74  75
ENDBRANCH  73  74
ENDBRANCH   1  73
TORSDOF 19
ENDMDL
