MODEL 1
REMARK VINA RESULT:     -12.8      0.000      0.000
REMARK SMILES COc1ccc(NC(=O)N[C@@H]2C=C[C@H](C(=O)NCCCCCCNC(=O)c3ccc(-c4c5nc(c(-c6cc(S(=O)(=O)[O-])ccc6F)c6ccc([nH]6)c(-c6cc(S(=O)(=O)[O-])ccc6F)c6nc(c(-c7cc(S(=O)(=O)[O-])ccc7F)c7ccc4[nH]7)C=C6)C=C5)cc3)C2)c(C)c1
REMARK SMILES IDX 20 1 19 2 18 3 17 4 15 5 16 6 14 8 11 9 12 10 90 11 13 12
REMARK SMILES IDX 10 13 7 14 8 15 9 17 6 19 3 20 4 21 93 22 5 23 91 24 92 25
REMARK SMILES IDX 2 26 1 27 21 28 22 29 23 30 24 31 25 32 26 34 27 35 28 36
REMARK SMILES IDX 89 37 29 38 88 39 30 40 31 41 32 42 82 43 33 44 87 45 81 46
REMARK SMILES IDX 83 47 34 48 86 49 80 50 79 51 35 53 67 54 47 55 66 56 48 57
REMARK SMILES IDX 51 58 65 59 84 60 49 61 50 62 64 64 85 65 52 66 36 67 37 68
REMARK SMILES IDX 45 69 38 70 44 71 46 72 43 73 39 74 40 75 41 76 42 77 68 78
REMARK SMILES IDX 69 79 77 80 70 81 76 82 78 83 75 84 71 85 72 86 73 87 74 88
REMARK SMILES IDX 53 89 54 90 62 91 55 92 61 93 63 94 60 95 56 96 57 97 58 98
REMARK SMILES IDX 59 99
REMARK H PARENT 17 7 7 16 10 18 24 33 83 52 51 63
REMARK Flexibility Score: inf
ROOT
ATOM      1  C   UNL A   1      35.047  30.604  28.125  1.00  0.00     0.002 C 
ENDROOT
BRANCH   1   2
ATOM      2  C   UNL A   1      34.173  30.322  26.902  1.00  0.00     0.021 C 
BRANCH   2   3
ATOM      3  C   UNL A   1      32.697  30.484  27.198  1.00  0.00     0.116 C 
BRANCH   3   4
ATOM      4  N   UNL A   1      31.927  30.510  25.979  1.00  0.00    -0.356 N 
ATOM      5  C   UNL A   1      31.452  29.469  25.250  1.00  0.00     0.227 C 
ATOM      6  O   UNL A   1      31.035  29.712  24.115  1.00  0.00    -0.274 OA
ATOM      7  H   UNL A   1      31.716  31.406  25.629  1.00  0.00     0.163 HD
BRANCH   5   8
ATOM      8  C   UNL A   1      31.511  27.958  25.913  1.00  0.00     0.103 C 
ATOM      9  C   UNL A   1      33.004  25.585  24.311  1.00  0.00     0.107 C 
ATOM     10  C   UNL A   1      31.316  24.925  24.871  1.00  0.00    -0.006 C 
ATOM     11  C   UNL A   1      33.398  27.364  25.227  1.00  0.00     0.047 C 
ATOM     12  C   UNL A   1      30.449  26.044  25.545  1.00  0.00    -0.016 C 
BRANCH   9  13
ATOM     13  N   UNL A   1      32.494  25.756  22.668  1.00  0.00    -0.332 N 
ATOM     14  N   UNL A   1      33.159  23.654  21.352  1.00  0.00    -0.308 N 
ATOM     15  C   UNL A   1      32.576  24.973  21.448  1.00  0.00     0.319 C 
ATOM     16  H   UNL A   1      33.219  23.246  20.459  1.00  0.00     0.171 HD
ATOM     17  O   UNL A   1      32.107  25.480  20.421  1.00  0.00    -0.248 OA
ATOM     18  H   UNL A   1      32.027  26.609  22.521  1.00  0.00     0.165 HD
BRANCH  14  19
ATOM     19  C   UNL A   1      33.646  22.908  22.446  1.00  0.00     0.046 A 
ATOM     20  C   UNL A   1      33.406  21.696  25.918  1.00  0.00     0.119 A 
ATOM     21  C   UNL A   1      31.976  21.646  24.881  1.00  0.00     0.048 A 
ATOM     22  C   UNL A   1      34.862  22.250  25.146  1.00  0.00     0.052 A 
ATOM     23  C   UNL A   1      32.383  22.228  22.971  1.00  0.00     0.030 A 
ATOM     24  C   UNL A   1      34.952  22.865  23.487  1.00  0.00    -0.024 A 
ATOM     25  C   UNL A   1      36.276  23.403  23.024  1.00  0.00     0.047 C 
BRANCH  20  26
ATOM     26  O   UNL A   1      33.474  21.176  27.171  1.00  0.00    -0.497 OA
ATOM     27  C   UNL A   1      33.224  22.170  28.167  1.00  0.00     0.278 C 
ENDBRANCH  20  26
ENDBRANCH  14  19
ENDBRANCH   9  13
ENDBRANCH   5   8
ENDBRANCH   3   4
ENDBRANCH   2   3
ENDBRANCH   1   2
BRANCH   1  28
ATOM     28  C   UNL A   1      35.901  31.878  28.019  1.00  0.00     0.002 C 
BRANCH  28  29
ATOM     29  C   UNL A   1      35.401  33.051  28.853  1.00  0.00     0.021 C 
BRANCH  29  30
ATOM     30  C   UNL A   1      34.834  32.614  30.180  1.00  0.00     0.116 C 
BRANCH  30  31
ATOM     31  N   UNL A   1      34.026  33.617  30.836  1.00  0.00    -0.352 N 
ATOM     32  C   UNL A   1      34.135  34.081  32.132  1.00  0.00     0.251 C 
ATOM     33  H   UNL A   1      33.309  34.018  30.292  1.00  0.00     0.163 HD
ATOM     34  O   UNL A   1      33.174  34.604  32.692  1.00  0.00    -0.269 OA
BRANCH  32  35
ATOM     35  C   UNL A   1      35.483  34.161  32.772  1.00  0.00     0.039 A 
ATOM     36  C   UNL A   1      36.485  34.717  31.963  1.00  0.00     0.014 A 
ATOM     37  C   UNL A   1      35.837  33.234  33.736  1.00  0.00     0.014 A 
ATOM     38  C   UNL A   1      37.702  34.068  31.868  1.00  0.00     0.010 A 
ATOM     39  C   UNL A   1      36.886  32.419  33.449  1.00  0.00     0.010 A 
ATOM     40  C   UNL A   1      37.795  32.828  32.479  1.00  0.00    -0.014 A 
BRANCH  40  41
ATOM     41  C   UNL A   1      38.955  31.975  32.483  1.00  0.00     0.031 A 
ATOM     42  C   UNL A   1      38.659  30.692  31.794  1.00  0.00     0.074 A 
ATOM     43  C   UNL A   1      40.116  32.606  32.802  1.00  0.00     0.049 A 
ATOM     44  N   UNL A   1      39.274  29.590  31.980  1.00  0.00    -0.248 NA
ATOM     45  C   UNL A   1      37.506  30.484  30.880  1.00  0.00     0.031 C 
ATOM     46  C   UNL A   1      41.511  32.303  32.511  1.00  0.00     0.029 A 
ATOM     47  N   UNL A   1      40.228  33.673  33.709  1.00  0.00    -0.354 N 
ATOM     48  C   UNL A   1      39.004  28.818  30.862  1.00  0.00     0.074 A 
ATOM     49  C   UNL A   1      37.744  29.273  30.366  1.00  0.00     0.031 C 
ATOM     50  C   UNL A   1      42.297  32.845  33.465  1.00  0.00     0.029 A 
ATOM     51  C   UNL A   1      41.419  33.463  34.442  1.00  0.00     0.049 A 
ATOM     52  H   UNL A   1      39.599  34.423  33.814  1.00  0.00     0.167 HD
ATOM     53  C   UNL A   1      40.029  28.090  30.345  1.00  0.00     0.034 A 
ATOM     54  C   UNL A   1      41.337  33.131  35.769  1.00  0.00     0.034 A 
ATOM     55  C   UNL A   1      41.221  28.393  31.126  1.00  0.00     0.049 A 
ATOM     56  C   UNL A   1      41.725  31.670  35.938  1.00  0.00     0.074 A 
ATOM     57  C   UNL A   1      42.281  29.259  30.931  1.00  0.00     0.029 A 
ATOM     58  N   UNL A   1      41.202  28.071  32.464  1.00  0.00    -0.354 N 
ATOM     59  N   UNL A   1      41.534  30.752  35.022  1.00  0.00    -0.248 NA
ATOM     60  C   UNL A   1      42.496  31.171  37.074  1.00  0.00     0.031 C 
ATOM     61  C   UNL A   1      42.892  29.461  32.201  1.00  0.00     0.029 A 
ATOM     62  C   UNL A   1      42.177  28.746  33.146  1.00  0.00     0.049 A 
ATOM     63  H   UNL A   1      40.570  27.437  32.875  1.00  0.00     0.167 HD
ATOM     64  C   UNL A   1      42.205  29.606  35.376  1.00  0.00     0.074 A 
ATOM     65  C   UNL A   1      42.770  29.917  36.679  1.00  0.00     0.031 C 
ATOM     66  C   UNL A   1      42.306  28.506  34.565  1.00  0.00     0.034 A 
BRANCH  53  67
ATOM     67  C   UNL A   1      40.142  27.315  29.065  1.00  0.00     0.023 A 
ATOM     68  C   UNL A   1      41.055  27.820  28.114  1.00  0.00     0.031 A 
ATOM     69  C   UNL A   1      39.486  26.128  28.703  1.00  0.00     0.131 A 
ATOM     70  C   UNL A   1      41.280  27.202  26.880  1.00  0.00     0.055 A 
ATOM     71  C   UNL A   1      39.715  25.497  27.464  1.00  0.00     0.041 A 
ATOM     72  F   UNL A   1      38.622  25.516  29.523  1.00  0.00    -0.206 F 
ATOM     73  C   UNL A   1      40.615  26.033  26.545  1.00  0.00     0.022 A 
BRANCH  70  74
ATOM     74  S   UNL A   1      42.463  27.982  25.755  1.00  0.00     0.124 S 
ATOM     75  O   UNL A   1      41.825  29.268  25.484  1.00  0.00    -0.237 OA
ATOM     76  O   UNL A   1      43.679  28.022  26.560  1.00  0.00    -0.237 OA
ATOM     77  O   UNL A   1      42.504  27.062  24.620  1.00  0.00    -0.744 OA
ENDBRANCH  70  74
ENDBRANCH  53  67
BRANCH  54  78
ATOM     78  C   UNL A   1      40.180  33.866  36.401  1.00  0.00     0.023 A 
ATOM     79  C   UNL A   1      39.058  33.064  36.749  1.00  0.00     0.031 A 
ATOM     80  C   UNL A   1      40.419  35.013  37.170  1.00  0.00     0.131 A 
ATOM     81  C   UNL A   1      38.438  33.236  38.000  1.00  0.00     0.055 A 
ATOM     82  C   UNL A   1      39.716  35.235  38.363  1.00  0.00     0.041 A 
ATOM     83  F   UNL A   1      41.452  35.822  36.891  1.00  0.00    -0.206 F 
ATOM     84  C   UNL A   1      38.785  34.303  38.825  1.00  0.00     0.022 A 
BRANCH  81  85
ATOM     85  S   UNL A   1      37.383  31.898  38.643  1.00  0.00     0.124 S 
ATOM     86  O   UNL A   1      37.530  30.868  37.619  1.00  0.00    -0.237 OA
ATOM     87  O   UNL A   1      38.009  31.609  39.932  1.00  0.00    -0.237 OA
ATOM     88  O   UNL A   1      36.055  32.497  38.740  1.00  0.00    -0.744 OA
ENDBRANCH  81  85
ENDBRANCH  54  78
BRANCH  66  89
ATOM     89  C   UNL A   1      42.594  27.084  35.014  1.00  0.00     0.023 A 
ATOM     90  C   UNL A   1      43.553  26.296  34.386  1.00  0.00     0.031 A 
ATOM     91  C   UNL A   1      41.984  26.486  36.155  1.00  0.00     0.131 A 
ATOM     92  C   UNL A   1      43.777  24.970  34.774  1.00  0.00     0.055 A 
ATOM     93  C   UNL A   1      42.298  25.208  36.618  1.00  0.00     0.041 A 
ATOM     94  F   UNL A   1      41.066  27.107  36.906  1.00  0.00    -0.206 F 
ATOM     95  C   UNL A   1      43.177  24.421  35.902  1.00  0.00     0.022 A 
BRANCH  92  96
ATOM     96  S   UNL A   1      44.803  23.967  33.683  1.00  0.00     0.124 S 
ATOM     97  O   UNL A   1      45.336  24.974  32.769  1.00  0.00    -0.237 OA
ATOM     98  O   UNL A   1      45.767  23.385  34.612  1.00  0.00    -0.237 OA
ATOM     99  O   UNL A   1      43.857  23.025  33.093  1.00  0.00    -0.744 OA
ENDBRANCH  92  96
ENDBRANCH  66  89
ENDBRANCH  40  41
ENDBRANCH  32  35
ENDBRANCH  30  31
ENDBRANCH  29  30
ENDBRANCH  28  29
ENDBRANCH   1  28
TORSDOF 19
ENDMDL
MODEL 2
REMARK VINA RESULT:     -11.1      2.150      2.712
REMARK SMILES COc1ccc(NC(=O)N[C@@H]2C=C[C@H](C(=O)NCCCCCCNC(=O)c3ccc(-c4c5nc(c(-c6cc(S(=O)(=O)[O-])ccc6F)c6ccc([nH]6)c(-c6cc(S(=O)(=O)[O-])ccc6F)c6nc(c(-c7cc(S(=O)(=O)[O-])ccc7F)c7ccc4[nH]7)C=C6)C=C5)cc3)C2)c(C)c1
REMARK SMILES IDX 20 1 19 2 18 3 17 4 15 5 16 6 14 8 11 9 12 10 90 11 13 12
REMARK SMILES IDX 10 13 7 14 8 15 9 17 6 19 3 20 4 21 93 22 5 23 91 24 92 25
REMARK SMILES IDX 2 26 1 27 21 28 22 29 23 30 24 31 25 32 26 34 27 35 28 36
REMARK SMILES IDX 89 37 29 38 88 39 30 40 31 41 32 42 82 43 33 44 87 45 81 46
REMARK SMILES IDX 83 47 34 48 86 49 80 50 79 51 35 53 67 54 47 55 66 56 48 57
REMARK SMILES IDX 51 58 65 59 84 60 49 61 50 62 64 64 85 65 52 66 36 67 37 68
REMARK SMILES IDX 45 69 38 70 44 71 46 72 43 73 39 74 40 75 41 76 42 77 68 78
REMARK SMILES IDX 69 79 77 80 70 81 76 82 78 83 75 84 71 85 72 86 73 87 74 88
REMARK SMILES IDX 53 89 54 90 62 91 55 92 61 93 63 94 60 95 56 96 57 97 58 98
REMARK SMILES IDX 59 99
REMARK H PARENT 17 7 7 16 10 18 24 33 83 52 51 63
REMARK Flexibility Score: inf
ROOT
ATOM      1  C   UNL A   1      33.268  32.294  27.876  1.00  0.00     0.002 C 
ENDROOT
BRANCH   1   2
ATOM      2  C   UNL A   1      34.626  31.598  27.765  1.00  0.00     0.021 C 
BRANCH   2   3
ATOM      3  C   UNL A   1      34.494  30.099  27.603  1.00  0.00     0.116 C 
BRANCH   3   4
ATOM      4  N   UNL A   1      34.498  29.730  26.209  1.00  0.00    -0.356 N 
ATOM      5  C   UNL A   1      33.942  28.644  25.613  1.00  0.00     0.227 C 
ATOM      6  O   UNL A   1      34.276  28.397  24.453  1.00  0.00    -0.274 OA
ATOM      7  H   UNL A   1      34.966  30.352  25.606  1.00  0.00     0.163 HD
BRANCH   5   8
ATOM      8  C   UNL A   1      32.904  27.714  26.498  1.00  0.00     0.103 C 
ATOM      9  C   UNL A   1      31.995  24.834  25.355  1.00  0.00     0.107 C 
ATOM     10  C   UNL A   1      30.430  25.748  25.913  1.00  0.00    -0.006 C 
ATOM     11  C   UNL A   1      33.654  25.820  26.015  1.00  0.00     0.047 C 
ATOM     12  C   UNL A   1      30.744  27.217  26.363  1.00  0.00    -0.016 C 
BRANCH   9  13
ATOM     13  N   UNL A   1      31.661  25.095  23.679  1.00  0.00    -0.332 N 
ATOM     14  N   UNL A   1      33.279  23.693  22.264  1.00  0.00    -0.308 N 
ATOM     15  C   UNL A   1      32.201  24.644  22.409  1.00  0.00     0.319 C 
ATOM     16  H   UNL A   1      33.608  23.512  21.354  1.00  0.00     0.171 HD
ATOM     17  O   UNL A   1      31.692  25.111  21.383  1.00  0.00    -0.248 OA
ATOM     18  H   UNL A   1      30.907  25.714  23.553  1.00  0.00     0.165 HD
BRANCH  14  19
ATOM     19  C   UNL A   1      33.895  23.003  23.331  1.00  0.00     0.046 A 
ATOM     20  C   UNL A   1      36.779  21.298  24.863  1.00  0.00     0.119 A 
ATOM     21  C   UNL A   1      37.021  22.844  24.041  1.00  0.00     0.048 A 
ATOM     22  C   UNL A   1      35.130  20.755  24.948  1.00  0.00     0.052 A 
ATOM     23  C   UNL A   1      35.268  23.665  23.403  1.00  0.00     0.030 A 
ATOM     24  C   UNL A   1      33.760  21.567  24.173  1.00  0.00    -0.024 A 
ATOM     25  C   UNL A   1      32.420  20.894  24.263  1.00  0.00     0.047 C 
BRANCH  20  26
ATOM     26  O   UNL A   1      37.736  20.633  25.562  1.00  0.00    -0.497 OA
ATOM     27  C   UNL A   1      38.233  19.509  24.832  1.00  0.00     0.278 C 
ENDBRANCH  20  26
ENDBRANCH  14  19
ENDBRANCH   9  13
ENDBRANCH   5   8
ENDBRANCH   3   4
ENDBRANCH   2   3
ENDBRANCH   1   2
BRANCH   1  28
ATOM     28  C   UNL A   1      33.312  33.816  27.670  1.00  0.00     0.002 C 
BRANCH  28  29
ATOM     29  C   UNL A   1      33.138  34.636  28.943  1.00  0.00     0.021 C 
BRANCH  29  30
ATOM     30  C   UNL A   1      34.456  35.047  29.549  1.00  0.00     0.116 C 
BRANCH  30  31
ATOM     31  N   UNL A   1      34.382  35.379  30.954  1.00  0.00    -0.352 N 
ATOM     32  C   UNL A   1      34.266  34.515  32.025  1.00  0.00     0.251 C 
ATOM     33  H   UNL A   1      34.420  36.338  31.174  1.00  0.00     0.163 HD
ATOM     34  O   UNL A   1      33.809  34.906  33.097  1.00  0.00    -0.269 OA
BRANCH  32  35
ATOM     35  C   UNL A   1      34.912  33.169  31.957  1.00  0.00     0.039 A 
ATOM     36  C   UNL A   1      35.386  32.683  33.184  1.00  0.00     0.014 A 
ATOM     37  C   UNL A   1      35.540  32.771  30.790  1.00  0.00     0.014 A 
ATOM     38  C   UNL A   1      36.664  32.157  33.244  1.00  0.00     0.010 A 
ATOM     39  C   UNL A   1      36.877  32.544  30.859  1.00  0.00     0.010 A 
ATOM     40  C   UNL A   1      37.441  32.277  32.103  1.00  0.00    -0.014 A 
BRANCH  40  41
ATOM     41  C   UNL A   1      38.798  31.824  31.955  1.00  0.00     0.031 A 
ATOM     42  C   UNL A   1      38.827  30.412  31.491  1.00  0.00     0.074 A 
ATOM     43  C   UNL A   1      39.726  32.818  31.948  1.00  0.00     0.049 A 
ATOM     44  N   UNL A   1      39.790  29.593  31.663  1.00  0.00    -0.248 NA
ATOM     45  C   UNL A   1      37.669  29.715  30.873  1.00  0.00     0.031 C 
ATOM     46  C   UNL A   1      41.074  32.899  31.402  1.00  0.00     0.029 A 
ATOM     47  N   UNL A   1      39.633  34.009  32.686  1.00  0.00    -0.354 N 
ATOM     48  C   UNL A   1      39.605  28.595  30.721  1.00  0.00     0.074 A 
ATOM     49  C   UNL A   1      38.201  28.561  30.457  1.00  0.00     0.031 C 
ATOM     50  C   UNL A   1      41.787  33.808  32.101  1.00  0.00     0.029 A 
ATOM     51  C   UNL A   1      40.931  34.294  33.168  1.00  0.00     0.049 A 
ATOM     52  H   UNL A   1      38.820  34.543  32.839  1.00  0.00     0.167 HD
ATOM     53  C   UNL A   1      40.710  28.128  30.082  1.00  0.00     0.034 A 
ATOM     54  C   UNL A   1      41.185  34.187  34.510  1.00  0.00     0.034 A 
ATOM     55  C   UNL A   1      41.850  28.903  30.553  1.00  0.00     0.049 A 
ATOM     56  C   UNL A   1      42.051  32.960  34.754  1.00  0.00     0.074 A 
ATOM     57  C   UNL A   1      42.521  29.999  30.042  1.00  0.00     0.029 A 
ATOM     58  N   UNL A   1      42.160  28.826  31.891  1.00  0.00    -0.354 N 
ATOM     59  N   UNL A   1      42.020  31.884  34.007  1.00  0.00    -0.248 NA
ATOM     60  C   UNL A   1      43.120  32.919  35.748  1.00  0.00     0.031 C 
ATOM     61  C   UNL A   1      43.235  30.590  31.123  1.00  0.00     0.029 A 
ATOM     62  C   UNL A   1      42.960  29.869  32.272  1.00  0.00     0.049 A 
ATOM     63  H   UNL A   1      41.847  28.113  32.495  1.00  0.00     0.167 HD
ATOM     64  C   UNL A   1      43.078  31.069  34.335  1.00  0.00     0.074 A 
ATOM     65  C   UNL A   1      43.719  31.754  35.445  1.00  0.00     0.031 C 
ATOM     66  C   UNL A   1      43.395  29.926  33.648  1.00  0.00     0.034 A 
BRANCH  53  67
ATOM     67  C   UNL A   1      40.855  27.214  28.901  1.00  0.00     0.023 A 
ATOM     68  C   UNL A   1      41.772  26.150  29.051  1.00  0.00     0.031 A 
ATOM     69  C   UNL A   1      40.168  27.252  27.678  1.00  0.00     0.131 A 
ATOM     70  C   UNL A   1      42.007  25.208  28.046  1.00  0.00     0.055 A 
ATOM     71  C   UNL A   1      40.396  26.300  26.664  1.00  0.00     0.041 A 
ATOM     72  F   UNL A   1      39.242  28.182  27.413  1.00  0.00    -0.206 F 
ATOM     73  C   UNL A   1      41.319  25.272  26.844  1.00  0.00     0.022 A 
BRANCH  70  74
ATOM     74  S   UNL A   1      43.231  23.917  28.375  1.00  0.00     0.124 S 
ATOM     75  O   UNL A   1      43.429  23.339  27.049  1.00  0.00    -0.237 OA
ATOM     76  O   UNL A   1      44.349  24.680  28.919  1.00  0.00    -0.237 OA
ATOM     77  O   UNL A   1      42.552  23.047  29.333  1.00  0.00    -0.744 OA
ENDBRANCH  70  74
ENDBRANCH  53  67
BRANCH  54  78
ATOM     78  C   UNL A   1      39.974  34.641  35.289  1.00  0.00     0.023 A 
ATOM     79  C   UNL A   1      39.159  33.603  35.820  1.00  0.00     0.031 A 
ATOM     80  C   UNL A   1      40.007  35.858  35.983  1.00  0.00     0.131 A 
ATOM     81  C   UNL A   1      38.693  33.690  37.145  1.00  0.00     0.055 A 
ATOM     82  C   UNL A   1      39.441  35.968  37.261  1.00  0.00     0.041 A 
ATOM     83  F   UNL A   1      40.743  36.884  35.532  1.00  0.00    -0.206 F 
ATOM     84  C   UNL A   1      38.859  34.861  37.881  1.00  0.00     0.022 A 
BRANCH  81  85
ATOM     85  S   UNL A   1      38.125  32.171  37.972  1.00  0.00     0.124 S 
ATOM     86  O   UNL A   1      38.464  31.140  36.995  1.00  0.00    -0.237 OA
ATOM     87  O   UNL A   1      38.921  32.175  39.198  1.00  0.00    -0.237 OA
ATOM     88  O   UNL A   1      36.695  32.385  38.182  1.00  0.00    -0.744 OA
ENDBRANCH  81  85
ENDBRANCH  54  78
BRANCH  66  89
ATOM     89  C   UNL A   1      44.203  28.755  34.180  1.00  0.00     0.023 A 
ATOM     90  C   UNL A   1      43.662  27.837  35.074  1.00  0.00     0.031 A 
ATOM     91  C   UNL A   1      45.525  28.454  33.741  1.00  0.00     0.131 A 
ATOM     92  C   UNL A   1      44.430  26.790  35.597  1.00  0.00     0.055 A 
ATOM     93  C   UNL A   1      46.246  27.339  34.168  1.00  0.00     0.041 A 
ATOM     94  F   UNL A   1      46.193  29.204  32.855  1.00  0.00    -0.206 F 
ATOM     95  C   UNL A   1      45.712  26.514  35.136  1.00  0.00     0.022 A 
BRANCH  92  96
ATOM     96  S   UNL A   1      43.718  25.873  36.976  1.00  0.00     0.124 S 
ATOM     97  O   UNL A   1      42.545  25.264  36.354  1.00  0.00    -0.237 OA
ATOM     98  O   UNL A   1      44.795  24.952  37.327  1.00  0.00    -0.237 OA
ATOM     99  O   UNL A   1      43.433  26.908  37.966  1.00  0.00    -0.744 OA
ENDBRANCH  92  96
ENDBRANCH  66  89
ENDBRANCH  40  41
ENDBRANCH  32  35
ENDBRANCH  30  31
ENDBRANCH  29  30
ENDBRANCH  28  29
ENDBRANCH   1  28
TORSDOF 19
ENDMDL
MODEL 3
REMARK VINA RESULT:     -10.9      1.814      2.277
REMARK SMILES COc1ccc(NC(=O)N[C@@H]2C=C[C@H](C(=O)NCCCCCCNC(=O)c3ccc(-c4c5nc(c(-c6cc(S(=O)(=O)[O-])ccc6F)c6ccc([nH]6)c(-c6cc(S(=O)(=O)[O-])ccc6F)c6nc(c(-c7cc(S(=O)(=O)[O-])ccc7F)c7ccc4[nH]7)C=C6)C=C5)cc3)C2)c(C)c1
REMARK SMILES IDX 20 1 19 2 18 3 17 4 15 5 16 6 14 8 11 9 12 10 90 11 13 12
REMARK SMILES IDX 10 13 7 14 8 15 9 17 6 19 3 20 4 21 93 22 5 23 91 24 92 25
REMARK SMILES IDX 2 26 1 27 21 28 22 29 23 30 24 31 25 32 26 34 27 35 28 36
REMARK SMILES IDX 89 37 29 38 88 39 30 40 31 41 32 42 82 43 33 44 87 45 81 46
REMARK SMILES IDX 83 47 34 48 86 49 80 50 79 51 35 53 67 54 47 55 66 56 48 57
REMARK SMILES IDX 51 58 65 59 84 60 49 61 50 62 64 64 85 65 52 66 36 67 37 68
REMARK SMILES IDX 45 69 38 70 44 71 46 72 43 73 39 74 40 75 41 76 42 77 68 78
REMARK SMILES IDX 69 79 77 80 70 81 76 82 78 83 75 84 71 85 72 86 73 87 74 88
REMARK SMILES IDX 53 89 54 90 62 91 55 92 61 93 63 94 60 95 56 96 57 97 58 98
REMARK SMILES IDX 59 99
REMARK H PARENT 17 7 7 16 10 18 24 33 83 52 51 63
REMARK Flexibility Score: inf
ROOT
ATOM      1  C   UNL A   1      34.827  30.037  28.052  1.00  0.00     0.002 C 
ENDROOT
BRANCH   1   2
ATOM      2  C   UNL A   1      34.043  30.567  26.850  1.00  0.00     0.021 C 
BRANCH   2   3
ATOM      3  C   UNL A   1      32.573  30.756  27.157  1.00  0.00     0.116 C 
BRANCH   3   4
ATOM      4  N   UNL A   1      31.777  30.633  25.962  1.00  0.00    -0.356 N 
ATOM      5  C   UNL A   1      31.343  29.508  25.339  1.00  0.00     0.227 C 
ATOM      6  O   UNL A   1      30.889  29.626  24.199  1.00  0.00    -0.274 OA
ATOM      7  H   UNL A   1      31.510  31.482  25.539  1.00  0.00     0.163 HD
BRANCH   5   8
ATOM      8  C   UNL A   1      31.498  28.067  26.131  1.00  0.00     0.103 C 
ATOM      9  C   UNL A   1      33.149  25.666  24.740  1.00  0.00     0.107 C 
ATOM     10  C   UNL A   1      31.505  24.949  25.357  1.00  0.00    -0.006 C 
ATOM     11  C   UNL A   1      33.422  27.540  25.498  1.00  0.00     0.047 C 
ATOM     12  C   UNL A   1      30.564  26.063  25.933  1.00  0.00    -0.016 C 
BRANCH   9  13
ATOM     13  N   UNL A   1      32.636  25.660  23.089  1.00  0.00    -0.332 N 
ATOM     14  N   UNL A   1      33.420  23.489  21.967  1.00  0.00    -0.308 N 
ATOM     15  C   UNL A   1      32.765  24.777  21.944  1.00  0.00     0.319 C 
ATOM     16  H   UNL A   1      33.506  23.006  21.114  1.00  0.00     0.171 HD
ATOM     17  O   UNL A   1      32.273  25.162  20.876  1.00  0.00    -0.248 OA
ATOM     18  H   UNL A   1      32.123  26.470  22.866  1.00  0.00     0.165 HD
BRANCH  14  19
ATOM     19  C   UNL A   1      33.944  22.872  23.123  1.00  0.00     0.046 A 
ATOM     20  C   UNL A   1      36.609  21.071  24.921  1.00  0.00     0.119 A 
ATOM     21  C   UNL A   1      37.026  22.473  23.929  1.00  0.00     0.048 A 
ATOM     22  C   UNL A   1      34.910  20.717  25.026  1.00  0.00     0.052 A 
ATOM     23  C   UNL A   1      35.379  23.390  23.153  1.00  0.00     0.030 A 
ATOM     24  C   UNL A   1      33.645  21.569  24.126  1.00  0.00    -0.024 A 
ATOM     25  C   UNL A   1      32.240  21.055  24.260  1.00  0.00     0.047 C 
BRANCH  20  26
ATOM     26  O   UNL A   1      37.480  20.398  25.718  1.00  0.00    -0.497 OA
ATOM     27  C   UNL A   1      38.153  19.360  25.002  1.00  0.00     0.278 C 
ENDBRANCH  20  26
ENDBRANCH  14  19
ENDBRANCH   9  13
ENDBRANCH   5   8
ENDBRANCH   3   4
ENDBRANCH   2   3
ENDBRANCH   1   2
BRANCH   1  28
ATOM     28  C   UNL A   1      35.442  31.128  28.944  1.00  0.00     0.002 C 
BRANCH  28  29
ATOM     29  C   UNL A   1      36.568  31.921  28.292  1.00  0.00     0.021 C 
BRANCH  29  30
ATOM     30  C   UNL A   1      36.332  33.409  28.348  1.00  0.00     0.116 C 
BRANCH  30  31
ATOM     31  N   UNL A   1      35.224  33.801  29.189  1.00  0.00    -0.352 N 
ATOM     32  C   UNL A   1      35.116  33.682  30.561  1.00  0.00     0.251 C 
ATOM     33  H   UNL A   1      34.452  34.201  28.728  1.00  0.00     0.163 HD
ATOM     34  O   UNL A   1      34.013  33.659  31.101  1.00  0.00    -0.269 OA
BRANCH  32  35
ATOM     35  C   UNL A   1      36.339  33.818  31.408  1.00  0.00     0.039 A 
ATOM     36  C   UNL A   1      37.450  34.366  30.751  1.00  0.00     0.014 A 
ATOM     37  C   UNL A   1      36.547  32.937  32.455  1.00  0.00     0.014 A 
ATOM     38  C   UNL A   1      38.678  33.743  30.883  1.00  0.00     0.010 A 
ATOM     39  C   UNL A   1      37.642  32.137  32.376  1.00  0.00     0.010 A 
ATOM     40  C   UNL A   1      38.691  32.529  31.551  1.00  0.00    -0.014 A 
BRANCH  40  41
ATOM     41  C   UNL A   1      39.848  31.705  31.779  1.00  0.00     0.031 A 
ATOM     42  C   UNL A   1      39.740  30.434  31.016  1.00  0.00     0.074 A 
ATOM     43  C   UNL A   1      40.899  32.355  32.348  1.00  0.00     0.049 A 
ATOM     44  N   UNL A   1      40.335  29.342  31.303  1.00  0.00    -0.248 NA
ATOM     45  C   UNL A   1      38.809  30.224  29.877  1.00  0.00     0.031 C 
ATOM     46  C   UNL A   1      42.332  32.093  32.348  1.00  0.00     0.029 A 
ATOM     47  N   UNL A   1      40.787  33.399  33.281  1.00  0.00    -0.354 N 
ATOM     48  C   UNL A   1      40.327  28.595  30.137  1.00  0.00     0.074 A 
ATOM     49  C   UNL A   1      39.185  29.033  29.398  1.00  0.00     0.031 C 
ATOM     50  C   UNL A   1      42.885  32.628  33.458  1.00  0.00     0.029 A 
ATOM     51  C   UNL A   1      41.805  33.198  34.242  1.00  0.00     0.049 A 
ATOM     52  H   UNL A   1      40.129  34.130  33.268  1.00  0.00     0.167 HD
ATOM     53  C   UNL A   1      41.458  27.906  29.830  1.00  0.00     0.034 A 
ATOM     54  C   UNL A   1      41.458  32.828  35.515  1.00  0.00     0.034 A 
ATOM     55  C   UNL A   1      42.451  28.217  30.850  1.00  0.00     0.049 A 
ATOM     56  C   UNL A   1      41.844  31.372  35.730  1.00  0.00     0.074 A 
ATOM     57  C   UNL A   1      43.503  29.113  30.900  1.00  0.00     0.029 A 
ATOM     58  N   UNL A   1      42.162  27.858  32.146  1.00  0.00    -0.354 N 
ATOM     59  N   UNL A   1      41.875  30.476  34.775  1.00  0.00    -0.248 NA
ATOM     60  C   UNL A   1      42.375  30.862  36.992  1.00  0.00     0.031 C 
ATOM     61  C   UNL A   1      43.829  29.295  32.274  1.00  0.00     0.029 A 
ATOM     62  C   UNL A   1      42.954  28.538  33.032  1.00  0.00     0.049 A 
ATOM     63  H   UNL A   1      41.478  27.198  32.403  1.00  0.00     0.167 HD
ATOM     64  C   UNL A   1      42.491  29.337  35.237  1.00  0.00     0.074 A 
ATOM     65  C   UNL A   1      42.763  29.625  36.635  1.00  0.00     0.031 C 
ATOM     66  C   UNL A   1      42.791  28.262  34.441  1.00  0.00     0.034 A 
BRANCH  53  67
ATOM     67  C   UNL A   1      41.858  27.169  28.586  1.00  0.00     0.023 A 
ATOM     68  C   UNL A   1      41.457  25.817  28.512  1.00  0.00     0.031 A 
ATOM     69  C   UNL A   1      42.546  27.658  27.465  1.00  0.00     0.131 A 
ATOM     70  C   UNL A   1      41.744  25.004  27.412  1.00  0.00     0.055 A 
ATOM     71  C   UNL A   1      42.831  26.844  26.350  1.00  0.00     0.041 A 
ATOM     72  F   UNL A   1      42.953  28.931  27.382  1.00  0.00    -0.206 F 
ATOM     73  C   UNL A   1      42.430  25.510  26.319  1.00  0.00     0.022 A 
BRANCH  70  74
ATOM     74  S   UNL A   1      41.186  23.283  27.473  1.00  0.00     0.124 S 
ATOM     75  O   UNL A   1      39.741  23.436  27.618  1.00  0.00    -0.237 OA
ATOM     76  O   UNL A   1      41.654  22.759  26.194  1.00  0.00    -0.237 OA
ATOM     77  O   UNL A   1      41.871  22.749  28.647  1.00  0.00    -0.744 OA
ENDBRANCH  70  74
ENDBRANCH  53  67
BRANCH  54  78
ATOM     78  C   UNL A   1      40.174  33.517  35.907  1.00  0.00     0.023 A 
ATOM     79  C   UNL A   1      39.133  32.664  36.368  1.00  0.00     0.031 A 
ATOM     80  C   UNL A   1      40.209  34.825  36.410  1.00  0.00     0.131 A 
ATOM     81  C   UNL A   1      38.399  33.016  37.516  1.00  0.00     0.055 A 
ATOM     82  C   UNL A   1      39.392  35.201  37.485  1.00  0.00     0.041 A 
ATOM     83  F   UNL A   1      41.154  35.688  36.009  1.00  0.00    -0.206 F 
ATOM     84  C   UNL A   1      38.547  34.273  38.098  1.00  0.00     0.022 A 
BRANCH  81  85
ATOM     85  S   UNL A   1      37.467  31.717  38.389  1.00  0.00     0.124 S 
ATOM     86  O   UNL A   1      38.219  31.578  39.633  1.00  0.00    -0.237 OA
ATOM     87  O   UNL A   1      36.142  32.320  38.508  1.00  0.00    -0.237 OA
ATOM     88  O   UNL A   1      37.526  30.565  37.492  1.00  0.00    -0.744 OA
ENDBRANCH  81  85
ENDBRANCH  54  78
BRANCH  66  89
ATOM     89  C   UNL A   1      43.021  26.835  34.910  1.00  0.00     0.023 A 
ATOM     90  C   UNL A   1      44.289  26.364  35.232  1.00  0.00     0.031 A 
ATOM     91  C   UNL A   1      41.962  25.910  35.144  1.00  0.00     0.131 A 
ATOM     92  C   UNL A   1      44.498  25.034  35.615  1.00  0.00     0.055 A 
ATOM     93  C   UNL A   1      42.158  24.623  35.645  1.00  0.00     0.041 A 
ATOM     94  F   UNL A   1      40.673  26.199  34.926  1.00  0.00    -0.206 F 
ATOM     95  C   UNL A   1      43.442  24.160  35.849  1.00  0.00     0.022 A 
BRANCH  92  96
ATOM     96  S   UNL A   1      46.208  24.470  35.690  1.00  0.00     0.124 S 
ATOM     97  O   UNL A   1      46.905  25.545  34.989  1.00  0.00    -0.237 OA
ATOM     98  O   UNL A   1      46.448  24.396  37.128  1.00  0.00    -0.237 OA
ATOM     99  O   UNL A   1      46.178  23.187  34.995  1.00  0.00    -0.744 OA
ENDBRANCH  92  96
ENDBRANCH  66  89
ENDBRANCH  40  41
ENDBRANCH  32  35
ENDBRANCH  30  31
ENDBRANCH  29  30
ENDBRANCH  28  29
ENDBRANCH   1  28
TORSDOF 19
ENDMDL
