MODEL 1
REMARK VINA RESULT:     -10.9      0.000      0.000
REMARK SMILES C[C@@H](c1cccc(F)c1)[C@@](C)(O)C(=O)NCCCCCCNC(=O)c1ccc(-c2c3nc(c(-c4cc(S(=O)(=O)[O-])ccc4F)c4ccc([nH]4)c(-c4cc(S(=O)(=O)[O-])ccc4F)c4nc(c(-c5cc(S(=O)(=O)[O-])ccc5F)c5ccc2[nH]5)C=C4)C=C3)cc1
REMARK SMILES IDX 19 1 18 2 17 3 16 4 15 5 13 6 14 7 10 9 11 10 2 11 1 12 3 13
REMARK SMILES IDX 4 14 9 15 5 16 7 17 6 18 8 19 12 20 20 22 21 23 22 24 23 25
REMARK SMILES IDX 24 27 25 28 26 29 87 30 27 31 86 32 28 33 29 34 30 35 80 36
REMARK SMILES IDX 31 37 85 38 79 39 81 40 32 41 84 42 78 43 77 44 33 46 65 47
REMARK SMILES IDX 45 48 64 49 46 50 49 51 63 52 82 53 47 54 48 55 62 57 83 58
REMARK SMILES IDX 50 59 34 60 35 61 43 62 36 63 42 64 44 65 41 66 37 67 38 68
REMARK SMILES IDX 39 69 40 70 66 71 67 72 75 73 68 74 74 75 76 76 73 77 69 78
REMARK SMILES IDX 70 79 71 80 72 81 51 82 52 83 60 84 53 85 59 86 61 87 58 88
REMARK SMILES IDX 54 89 55 90 56 91 57 92
REMARK H PARENT 15 8 12 21 22 26 81 45 49 56
REMARK Flexibility Score: inf
ROOT
ATOM      1  C   UNL A   1      36.206  22.981  23.642  1.00  0.00     0.002 C 
ENDROOT
BRANCH   1   2
ATOM      2  C   UNL A   1      35.673  24.071  24.578  1.00  0.00     0.002 C 
BRANCH   2   3
ATOM      3  C   UNL A   1      34.623  25.011  23.970  1.00  0.00     0.021 C 
BRANCH   3   4
ATOM      4  C   UNL A   1      33.587  25.540  24.958  1.00  0.00     0.116 C 
BRANCH   4   5
ATOM      5  N   UNL A   1      32.232  25.296  24.506  1.00  0.00    -0.354 N 
ATOM      6  C   UNL A   1      31.272  24.446  24.969  1.00  0.00     0.252 C 
ATOM      7  O   UNL A   1      30.166  24.542  24.429  1.00  0.00    -0.272 OA
ATOM      8  H   UNL A   1      31.957  25.838  23.731  1.00  0.00     0.163 HD
BRANCH   6   9
ATOM      9  C   UNL A   1      31.538  23.515  26.191  1.00  0.00     0.146 C 
ATOM     10  C   UNL A   1      30.280  22.642  26.364  1.00  0.00     0.053 C 
BRANCH   9  11
ATOM     11  C   UNL A   1      32.817  22.616  26.028  1.00  0.00     0.057 C 
ATOM     12  C   UNL A   1      33.480  22.154  27.336  1.00  0.00     0.016 C 
BRANCH  11  13
ATOM     13  C   UNL A   1      32.629  21.465  25.035  1.00  0.00    -0.039 A 
ATOM     14  C   UNL A   1      32.772  20.137  25.479  1.00  0.00     0.004 A 
ATOM     15  C   UNL A   1      32.342  21.679  23.679  1.00  0.00     0.043 A 
ATOM     16  C   UNL A   1      32.647  19.061  24.596  1.00  0.00     0.003 A 
ATOM     17  C   UNL A   1      32.226  20.601  22.806  1.00  0.00     0.123 A 
ATOM     18  C   UNL A   1      32.378  19.295  23.251  1.00  0.00     0.039 A 
ATOM     19  F   UNL A   1      31.966  20.825  21.510  1.00  0.00    -0.207 F 
ENDBRANCH  11  13
ENDBRANCH   9  11
BRANCH   9  20
ATOM     20  O   UNL A   1      31.697  24.262  27.409  1.00  0.00    -0.380 OA
ATOM     21  H   UNL A   1      30.867  24.246  27.909  1.00  0.00     0.212 HD
ENDBRANCH   9  20
ENDBRANCH   6   9
ENDBRANCH   4   5
ENDBRANCH   3   4
ENDBRANCH   2   3
ENDBRANCH   1   2
BRANCH   1  22
ATOM     22  C   UNL A   1      36.303  21.583  24.254  1.00  0.00     0.021 C 
BRANCH  22  23
ATOM     23  C   UNL A   1      36.861  21.541  25.672  1.00  0.00     0.116 C 
BRANCH  23  24
ATOM     24  N   UNL A   1      37.925  20.563  25.816  1.00  0.00    -0.352 N 
ATOM     25  C   UNL A   1      39.251  20.767  26.111  1.00  0.00     0.251 C 
ATOM     26  H   UNL A   1      37.661  19.624  25.684  1.00  0.00     0.163 HD
ATOM     27  O   UNL A   1      40.050  19.839  26.011  1.00  0.00    -0.269 OA
BRANCH  25  28
ATOM     28  C   UNL A   1      39.712  22.113  26.518  1.00  0.00     0.039 A 
ATOM     29  C   UNL A   1      40.671  22.222  27.528  1.00  0.00     0.014 A 
ATOM     30  C   UNL A   1      39.208  23.261  25.901  1.00  0.00     0.014 A 
ATOM     31  C   UNL A   1      41.171  23.480  27.871  1.00  0.00     0.010 A 
ATOM     32  C   UNL A   1      39.762  24.505  26.192  1.00  0.00     0.010 A 
ATOM     33  C   UNL A   1      40.749  24.627  27.180  1.00  0.00    -0.014 A 
BRANCH  33  34
ATOM     34  C   UNL A   1      41.332  25.963  27.478  1.00  0.00     0.031 A 
ATOM     35  C   UNL A   1      42.711  26.311  26.988  1.00  0.00     0.074 A 
ATOM     36  C   UNL A   1      40.635  26.844  28.223  1.00  0.00     0.049 A 
ATOM     37  N   UNL A   1      43.413  27.393  27.205  1.00  0.00    -0.248 NA
ATOM     38  C   UNL A   1      43.401  25.305  26.165  1.00  0.00     0.031 C 
ATOM     39  C   UNL A   1      39.298  26.612  28.775  1.00  0.00     0.029 A 
ATOM     40  N   UNL A   1      40.951  28.111  28.646  1.00  0.00    -0.354 N 
ATOM     41  C   UNL A   1      44.626  27.197  26.552  1.00  0.00     0.074 A 
ATOM     42  C   UNL A   1      44.585  25.869  25.979  1.00  0.00     0.031 C 
ATOM     43  C   UNL A   1      38.894  27.713  29.427  1.00  0.00     0.029 A 
ATOM     44  C   UNL A   1      39.959  28.710  29.388  1.00  0.00     0.049 A 
ATOM     45  H   UNL A   1      41.807  28.551  28.438  1.00  0.00     0.167 HD
ATOM     46  C   UNL A   1      45.666  28.054  26.425  1.00  0.00     0.034 A 
ATOM     47  C   UNL A   1      39.913  29.921  29.980  1.00  0.00     0.034 A 
ATOM     48  C   UNL A   1      45.687  29.383  26.982  1.00  0.00     0.049 A 
ATOM     49  C   UNL A   1      41.099  30.841  29.858  1.00  0.00     0.074 A 
ATOM     50  C   UNL A   1      46.676  30.344  26.869  1.00  0.00     0.029 A 
ATOM     51  N   UNL A   1      44.677  29.938  27.755  1.00  0.00    -0.354 N 
ATOM     52  N   UNL A   1      42.235  30.639  29.232  1.00  0.00    -0.248 NA
ATOM     53  C   UNL A   1      41.000  32.148  30.522  1.00  0.00     0.031 C 
ATOM     54  C   UNL A   1      46.295  31.454  27.628  1.00  0.00     0.029 A 
ATOM     55  C   UNL A   1      45.035  31.217  28.152  1.00  0.00     0.049 A 
ATOM     56  H   UNL A   1      43.832  29.490  27.988  1.00  0.00     0.167 HD
ATOM     57  C   UNL A   1      42.976  31.803  29.408  1.00  0.00     0.074 A 
ATOM     58  C   UNL A   1      42.160  32.703  30.195  1.00  0.00     0.031 C 
ATOM     59  C   UNL A   1      44.217  32.100  28.950  1.00  0.00     0.034 A 
BRANCH  46  60
ATOM     60  C   UNL A   1      46.876  27.582  25.660  1.00  0.00     0.023 A 
ATOM     61  C   UNL A   1      47.059  27.902  24.304  1.00  0.00     0.031 A 
ATOM     62  C   UNL A   1      47.876  26.834  26.306  1.00  0.00     0.131 A 
ATOM     63  C   UNL A   1      48.197  27.441  23.626  1.00  0.00     0.055 A 
ATOM     64  C   UNL A   1      49.037  26.434  25.643  1.00  0.00     0.041 A 
ATOM     65  F   UNL A   1      47.743  26.486  27.595  1.00  0.00    -0.206 F 
ATOM     66  C   UNL A   1      49.200  26.731  24.293  1.00  0.00     0.022 A 
BRANCH  63  67
ATOM     67  S   UNL A   1      48.315  27.718  21.838  1.00  0.00     0.124 S 
ATOM     68  O   UNL A   1      47.011  28.306  21.546  1.00  0.00    -0.237 OA
ATOM     69  O   UNL A   1      49.459  28.616  21.732  1.00  0.00    -0.237 OA
ATOM     70  O   UNL A   1      48.524  26.377  21.297  1.00  0.00    -0.744 OA
ENDBRANCH  63  67
ENDBRANCH  46  60
BRANCH  47  71
ATOM     71  C   UNL A   1      38.702  30.326  30.746  1.00  0.00     0.023 A 
ATOM     72  C   UNL A   1      37.680  31.072  30.140  1.00  0.00     0.031 A 
ATOM     73  C   UNL A   1      38.547  29.963  32.096  1.00  0.00     0.131 A 
ATOM     74  C   UNL A   1      36.552  31.445  30.887  1.00  0.00     0.055 A 
ATOM     75  C   UNL A   1      37.405  30.302  32.823  1.00  0.00     0.041 A 
ATOM     76  F   UNL A   1      39.492  29.242  32.718  1.00  0.00    -0.206 F 
ATOM     77  C   UNL A   1      36.401  31.054  32.219  1.00  0.00     0.022 A 
BRANCH  74  78
ATOM     78  S   UNL A   1      35.285  32.478  30.098  1.00  0.00     0.124 S 
ATOM     79  O   UNL A   1      34.439  32.826  31.234  1.00  0.00    -0.237 OA
ATOM     80  O   UNL A   1      36.083  33.562  29.535  1.00  0.00    -0.237 OA
ATOM     81  O   UNL A   1      34.678  31.581  29.117  1.00  0.00    -0.744 OA
ENDBRANCH  74  78
ENDBRANCH  47  71
BRANCH  59  82
ATOM     82  C   UNL A   1      44.767  33.468  29.258  1.00  0.00     0.023 A 
ATOM     83  C   UNL A   1      44.531  34.564  28.412  1.00  0.00     0.031 A 
ATOM     84  C   UNL A   1      45.484  33.686  30.448  1.00  0.00     0.131 A 
ATOM     85  C   UNL A   1      45.029  35.828  28.758  1.00  0.00     0.055 A 
ATOM     86  C   UNL A   1      45.936  34.955  30.810  1.00  0.00     0.041 A 
ATOM     87  F   UNL A   1      45.733  32.671  31.291  1.00  0.00    -0.206 F 
ATOM     88  C   UNL A   1      45.713  36.034  29.959  1.00  0.00     0.022 A 
BRANCH  85  89
ATOM     89  S   UNL A   1      44.797  37.204  27.600  1.00  0.00     0.124 S 
ATOM     90  O   UNL A   1      45.946  37.047  26.712  1.00  0.00    -0.237 OA
ATOM     91  O   UNL A   1      43.494  36.908  27.013  1.00  0.00    -0.237 OA
ATOM     92  O   UNL A   1      44.833  38.386  28.458  1.00  0.00    -0.744 OA
ENDBRANCH  85  89
ENDBRANCH  59  82
ENDBRANCH  33  34
ENDBRANCH  25  28
ENDBRANCH  23  24
ENDBRANCH  22  23
ENDBRANCH   1  22
TORSDOF 19
ENDMDL
MODEL 2
REMARK VINA RESULT:     -10.4      5.082     10.033
REMARK SMILES C[C@@H](c1cccc(F)c1)[C@@](C)(O)C(=O)NCCCCCCNC(=O)c1ccc(-c2c3nc(c(-c4cc(S(=O)(=O)[O-])ccc4F)c4ccc([nH]4)c(-c4cc(S(=O)(=O)[O-])ccc4F)c4nc(c(-c5cc(S(=O)(=O)[O-])ccc5F)c5ccc2[nH]5)C=C4)C=C3)cc1
REMARK SMILES IDX 19 1 18 2 17 3 16 4 15 5 13 6 14 7 10 9 11 10 2 11 1 12 3 13
REMARK SMILES IDX 4 14 9 15 5 16 7 17 6 18 8 19 12 20 20 22 21 23 22 24 23 25
REMARK SMILES IDX 24 27 25 28 26 29 87 30 27 31 86 32 28 33 29 34 30 35 80 36
REMARK SMILES IDX 31 37 85 38 79 39 81 40 32 41 84 42 78 43 77 44 33 46 65 47
REMARK SMILES IDX 45 48 64 49 46 50 49 51 63 52 82 53 47 54 48 55 62 57 83 58
REMARK SMILES IDX 50 59 34 60 35 61 43 62 36 63 42 64 44 65 41 66 37 67 38 68
REMARK SMILES IDX 39 69 40 70 66 71 67 72 75 73 68 74 74 75 76 76 73 77 69 78
REMARK SMILES IDX 70 79 71 80 72 81 51 82 52 83 60 84 53 85 59 86 61 87 58 88
REMARK SMILES IDX 54 89 55 90 56 91 57 92
REMARK H PARENT 15 8 12 21 22 26 81 45 49 56
REMARK Flexibility Score: inf
ROOT
ATOM      1  C   UNL A   1      31.387  27.989  25.063  1.00  0.00     0.002 C 
ENDROOT
BRANCH   1   2
ATOM      2  C   UNL A   1      31.503  27.211  26.378  1.00  0.00     0.002 C 
BRANCH   2   3
ATOM      3  C   UNL A   1      32.066  25.789  26.259  1.00  0.00     0.021 C 
BRANCH   3   4
ATOM      4  C   UNL A   1      31.029  24.711  25.953  1.00  0.00     0.116 C 
BRANCH   4   5
ATOM      5  N   UNL A   1      31.153  24.208  24.599  1.00  0.00    -0.354 N 
ATOM      6  C   UNL A   1      31.639  23.028  24.122  1.00  0.00     0.252 C 
ATOM      7  O   UNL A   1      31.515  22.849  22.907  1.00  0.00    -0.272 OA
ATOM      8  H   UNL A   1      30.831  24.826  23.904  1.00  0.00     0.163 HD
BRANCH   6   9
ATOM      9  C   UNL A   1      32.191  21.932  25.085  1.00  0.00     0.146 C 
ATOM     10  C   UNL A   1      32.599  20.735  24.205  1.00  0.00     0.053 C 
BRANCH   9  11
ATOM     11  C   UNL A   1      33.405  22.417  25.957  1.00  0.00     0.057 C 
ATOM     12  C   UNL A   1      33.358  22.028  27.443  1.00  0.00     0.016 C 
BRANCH  11  13
ATOM     13  C   UNL A   1      34.767  22.121  25.323  1.00  0.00    -0.039 A 
ATOM     14  C   UNL A   1      35.556  21.074  25.834  1.00  0.00     0.004 A 
ATOM     15  C   UNL A   1      35.281  22.873  24.256  1.00  0.00     0.043 A 
ATOM     16  C   UNL A   1      36.821  20.796  25.308  1.00  0.00     0.003 A 
ATOM     17  C   UNL A   1      36.545  22.593  23.744  1.00  0.00     0.123 A 
ATOM     18  C   UNL A   1      37.320  21.563  24.261  1.00  0.00     0.039 A 
ATOM     19  F   UNL A   1      37.027  23.331  22.734  1.00  0.00    -0.207 F 
ENDBRANCH  11  13
ENDBRANCH   9  11
BRANCH   9  20
ATOM     20  O   UNL A   1      31.180  21.459  25.991  1.00  0.00    -0.380 OA
ATOM     21  H   UNL A   1      31.087  22.084  26.727  1.00  0.00     0.212 HD
ENDBRANCH   9  20
ENDBRANCH   6   9
ENDBRANCH   4   5
ENDBRANCH   3   4
ENDBRANCH   2   3
ENDBRANCH   1   2
BRANCH   1  22
ATOM     22  C   UNL A   1      31.953  29.410  25.092  1.00  0.00     0.021 C 
BRANCH  22  23
ATOM     23  C   UNL A   1      32.430  29.883  26.460  1.00  0.00     0.116 C 
BRANCH  23  24
ATOM     24  N   UNL A   1      32.366  31.328  26.595  1.00  0.00    -0.352 N 
ATOM     25  C   UNL A   1      33.194  32.166  27.303  1.00  0.00     0.251 C 
ATOM     26  H   UNL A   1      31.629  31.768  26.114  1.00  0.00     0.163 HD
ATOM     27  O   UNL A   1      32.882  33.344  27.457  1.00  0.00    -0.269 OA
BRANCH  25  28
ATOM     28  C   UNL A   1      34.439  31.635  27.899  1.00  0.00     0.039 A 
ATOM     29  C   UNL A   1      35.460  32.525  28.236  1.00  0.00     0.014 A 
ATOM     30  C   UNL A   1      34.594  30.266  28.132  1.00  0.00     0.014 A 
ATOM     31  C   UNL A   1      36.610  32.048  28.868  1.00  0.00     0.010 A 
ATOM     32  C   UNL A   1      35.708  29.803  28.830  1.00  0.00     0.010 A 
ATOM     33  C   UNL A   1      36.728  30.690  29.205  1.00  0.00    -0.014 A 
BRANCH  33  34
ATOM     34  C   UNL A   1      37.909  30.181  29.950  1.00  0.00     0.031 A 
ATOM     35  C   UNL A   1      38.187  30.665  31.347  1.00  0.00     0.074 A 
ATOM     36  C   UNL A   1      38.753  29.315  29.354  1.00  0.00     0.049 A 
ATOM     37  N   UNL A   1      39.200  30.392  32.128  1.00  0.00    -0.248 NA
ATOM     38  C   UNL A   1      37.210  31.595  31.937  1.00  0.00     0.031 C 
ATOM     39  C   UNL A   1      38.601  28.790  27.994  1.00  0.00     0.029 A 
ATOM     40  N   UNL A   1      39.902  28.721  29.810  1.00  0.00    -0.354 N 
ATOM     41  C   UNL A   1      38.988  31.117  33.295  1.00  0.00     0.074 A 
ATOM     42  C   UNL A   1      37.778  31.887  33.099  1.00  0.00     0.031 C 
ATOM     43  C   UNL A   1      39.596  27.925  27.743  1.00  0.00     0.029 A 
ATOM     44  C   UNL A   1      40.485  27.870  28.900  1.00  0.00     0.049 A 
ATOM     45  H   UNL A   1      40.275  28.888  30.706  1.00  0.00     0.167 HD
ATOM     46  C   UNL A   1      39.722  31.122  34.433  1.00  0.00     0.034 A 
ATOM     47  C   UNL A   1      41.613  27.135  28.979  1.00  0.00     0.034 A 
ATOM     48  C   UNL A   1      40.913  30.335  34.626  1.00  0.00     0.049 A 
ATOM     49  C   UNL A   1      42.435  27.189  30.240  1.00  0.00     0.074 A 
ATOM     50  C   UNL A   1      41.702  30.238  35.759  1.00  0.00     0.029 A 
ATOM     51  N   UNL A   1      41.489  29.514  33.667  1.00  0.00    -0.354 N 
ATOM     52  N   UNL A   1      42.214  27.878  31.335  1.00  0.00    -0.248 NA
ATOM     53  C   UNL A   1      43.655  26.372  30.276  1.00  0.00     0.031 C 
ATOM     54  C   UNL A   1      42.789  29.410  35.464  1.00  0.00     0.029 A 
ATOM     55  C   UNL A   1      42.640  28.931  34.173  1.00  0.00     0.049 A 
ATOM     56  H   UNL A   1      41.133  29.367  32.761  1.00  0.00     0.167 HD
ATOM     57  C   UNL A   1      43.257  27.558  32.200  1.00  0.00     0.074 A 
ATOM     58  C   UNL A   1      44.104  26.614  31.501  1.00  0.00     0.031 C 
ATOM     59  C   UNL A   1      43.484  28.001  33.461  1.00  0.00     0.034 A 
BRANCH  46  60
ATOM     60  C   UNL A   1      39.266  32.013  35.559  1.00  0.00     0.023 A 
ATOM     61  C   UNL A   1      39.740  33.329  35.695  1.00  0.00     0.031 A 
ATOM     62  C   UNL A   1      38.317  31.552  36.489  1.00  0.00     0.131 A 
ATOM     63  C   UNL A   1      39.294  34.126  36.760  1.00  0.00     0.055 A 
ATOM     64  C   UNL A   1      37.828  32.371  37.507  1.00  0.00     0.041 A 
ATOM     65  F   UNL A   1      37.844  30.298  36.416  1.00  0.00    -0.206 F 
ATOM     66  C   UNL A   1      38.322  33.665  37.651  1.00  0.00     0.022 A 
BRANCH  63  67
ATOM     67  S   UNL A   1      40.058  35.751  37.008  1.00  0.00     0.124 S 
ATOM     68  O   UNL A   1      39.653  36.454  35.793  1.00  0.00    -0.237 OA
ATOM     69  O   UNL A   1      39.438  36.207  38.246  1.00  0.00    -0.237 OA
ATOM     70  O   UNL A   1      41.485  35.448  37.100  1.00  0.00    -0.744 OA
ENDBRANCH  63  67
ENDBRANCH  46  60
BRANCH  47  71
ATOM     71  C   UNL A   1      42.032  26.292  27.825  1.00  0.00     0.023 A 
ATOM     72  C   UNL A   1      41.655  24.943  27.742  1.00  0.00     0.031 A 
ATOM     73  C   UNL A   1      42.808  26.829  26.782  1.00  0.00     0.131 A 
ATOM     74  C   UNL A   1      42.068  24.169  26.646  1.00  0.00     0.055 A 
ATOM     75  C   UNL A   1      43.182  26.066  25.675  1.00  0.00     0.041 A 
ATOM     76  F   UNL A   1      43.186  28.116  26.811  1.00  0.00    -0.206 F 
ATOM     77  C   UNL A   1      42.816  24.725  25.606  1.00  0.00     0.022 A 
BRANCH  74  78
ATOM     78  S   UNL A   1      41.634  22.408  26.608  1.00  0.00     0.124 S 
ATOM     79  O   UNL A   1      40.177  22.463  26.588  1.00  0.00    -0.237 OA
ATOM     80  O   UNL A   1      42.277  21.962  25.376  1.00  0.00    -0.237 OA
ATOM     81  O   UNL A   1      42.223  21.886  27.838  1.00  0.00    -0.744 OA
ENDBRANCH  74  78
ENDBRANCH  47  71
BRANCH  59  82
ATOM     82  C   UNL A   1      44.682  27.451  34.190  1.00  0.00     0.023 A 
ATOM     83  C   UNL A   1      44.598  26.284  34.967  1.00  0.00     0.031 A 
ATOM     84  C   UNL A   1      45.936  28.071  34.050  1.00  0.00     0.131 A 
ATOM     85  C   UNL A   1      45.748  25.785  35.597  1.00  0.00     0.055 A 
ATOM     86  C   UNL A   1      47.085  27.543  34.640  1.00  0.00     0.041 A 
ATOM     87  F   UNL A   1      46.068  29.186  33.314  1.00  0.00    -0.206 F 
ATOM     88  C   UNL A   1      46.993  26.396  35.422  1.00  0.00     0.022 A 
BRANCH  85  89
ATOM     89  S   UNL A   1      45.591  24.336  36.676  1.00  0.00     0.124 S 
ATOM     90  O   UNL A   1      44.879  24.891  37.824  1.00  0.00    -0.237 OA
ATOM     91  O   UNL A   1      44.835  23.404  35.847  1.00  0.00    -0.237 OA
ATOM     92  O   UNL A   1      46.977  23.949  36.934  1.00  0.00    -0.744 OA
ENDBRANCH  85  89
ENDBRANCH  59  82
ENDBRANCH  33  34
ENDBRANCH  25  28
ENDBRANCH  23  24
ENDBRANCH  22  23
ENDBRANCH   1  22
TORSDOF 19
ENDMDL
MODEL 3
REMARK VINA RESULT:     -10.3      5.663     10.824
REMARK SMILES C[C@@H](c1cccc(F)c1)[C@@](C)(O)C(=O)NCCCCCCNC(=O)c1ccc(-c2c3nc(c(-c4cc(S(=O)(=O)[O-])ccc4F)c4ccc([nH]4)c(-c4cc(S(=O)(=O)[O-])ccc4F)c4nc(c(-c5cc(S(=O)(=O)[O-])ccc5F)c5ccc2[nH]5)C=C4)C=C3)cc1
REMARK SMILES IDX 19 1 18 2 17 3 16 4 15 5 13 6 14 7 10 9 11 10 2 11 1 12 3 13
REMARK SMILES IDX 4 14 9 15 5 16 7 17 6 18 8 19 12 20 20 22 21 23 22 24 23 25
REMARK SMILES IDX 24 27 25 28 26 29 87 30 27 31 86 32 28 33 29 34 30 35 80 36
REMARK SMILES IDX 31 37 85 38 79 39 81 40 32 41 84 42 78 43 77 44 33 46 65 47
REMARK SMILES IDX 45 48 64 49 46 50 49 51 63 52 82 53 47 54 48 55 62 57 83 58
REMARK SMILES IDX 50 59 34 60 35 61 43 62 36 63 42 64 44 65 41 66 37 67 38 68
REMARK SMILES IDX 39 69 40 70 66 71 67 72 75 73 68 74 74 75 76 76 73 77 69 78
REMARK SMILES IDX 70 79 71 80 72 81 51 82 52 83 60 84 53 85 59 86 61 87 58 88
REMARK SMILES IDX 54 89 55 90 56 91 57 92
REMARK H PARENT 15 8 12 21 22 26 81 45 49 56
REMARK Flexibility Score: inf
ROOT
ATOM      1  C   UNL A   1      31.776  30.365  26.078  1.00  0.00     0.002 C 
ENDROOT
BRANCH   1   2
ATOM      2  C   UNL A   1      31.058  30.054  24.760  1.00  0.00     0.002 C 
BRANCH   2   3
ATOM      3  C   UNL A   1      31.739  29.009  23.866  1.00  0.00     0.021 C 
BRANCH   3   4
ATOM      4  C   UNL A   1      30.787  28.176  23.012  1.00  0.00     0.116 C 
BRANCH   4   5
ATOM      5  N   UNL A   1      31.494  27.208  22.198  1.00  0.00    -0.354 N 
ATOM      6  C   UNL A   1      31.742  25.883  22.394  1.00  0.00     0.252 C 
ATOM      7  O   UNL A   1      32.291  25.295  21.457  1.00  0.00    -0.272 OA
ATOM      8  H   UNL A   1      31.858  27.571  21.358  1.00  0.00     0.163 HD
BRANCH   6   9
ATOM      9  C   UNL A   1      31.237  25.145  23.672  1.00  0.00     0.146 C 
ATOM     10  C   UNL A   1      31.553  23.650  23.475  1.00  0.00     0.053 C 
BRANCH   9  11
ATOM     11  C   UNL A   1      31.886  25.677  25.001  1.00  0.00     0.057 C 
ATOM     12  C   UNL A   1      30.901  26.114  26.098  1.00  0.00     0.016 C 
BRANCH  11  13
ATOM     13  C   UNL A   1      32.993  24.769  25.543  1.00  0.00    -0.039 A 
ATOM     14  C   UNL A   1      34.314  24.942  25.092  1.00  0.00     0.004 A 
ATOM     15  C   UNL A   1      32.740  23.742  26.464  1.00  0.00     0.043 A 
ATOM     16  C   UNL A   1      35.346  24.108  25.534  1.00  0.00     0.003 A 
ATOM     17  C   UNL A   1      33.773  22.912  26.893  1.00  0.00     0.123 A 
ATOM     18  C   UNL A   1      35.072  23.084  26.436  1.00  0.00     0.039 A 
ATOM     19  F   UNL A   1      33.510  21.926  27.763  1.00  0.00    -0.207 F 
ENDBRANCH  11  13
ENDBRANCH   9  11
BRANCH   9  20
ATOM     20  O   UNL A   1      29.811  25.254  23.823  1.00  0.00    -0.380 OA
ATOM     21  H   UNL A   1      29.587  25.275  24.767  1.00  0.00     0.212 HD
ENDBRANCH   9  20
ENDBRANCH   6   9
ENDBRANCH   4   5
ENDBRANCH   3   4
ENDBRANCH   2   3
ENDBRANCH   1   2
BRANCH   1  22
ATOM     22  C   UNL A   1      31.563  31.779  26.621  1.00  0.00     0.021 C 
BRANCH  22  23
ATOM     23  C   UNL A   1      32.787  32.404  27.279  1.00  0.00     0.116 C 
BRANCH  23  24
ATOM     24  N   UNL A   1      32.571  33.796  27.634  1.00  0.00    -0.352 N 
ATOM     25  C   UNL A   1      33.169  34.538  28.623  1.00  0.00     0.251 C 
ATOM     26  H   UNL A   1      31.904  34.275  27.090  1.00  0.00     0.163 HD
ATOM     27  O   UNL A   1      32.731  35.652  28.902  1.00  0.00    -0.269 OA
BRANCH  25  28
ATOM     28  C   UNL A   1      34.318  33.977  29.366  1.00  0.00     0.039 A 
ATOM     29  C   UNL A   1      34.075  33.106  30.430  1.00  0.00     0.014 A 
ATOM     30  C   UNL A   1      35.630  34.302  29.009  1.00  0.00     0.014 A 
ATOM     31  C   UNL A   1      35.150  32.510  31.094  1.00  0.00     0.010 A 
ATOM     32  C   UNL A   1      36.698  33.650  29.622  1.00  0.00     0.010 A 
ATOM     33  C   UNL A   1      36.468  32.747  30.670  1.00  0.00    -0.014 A 
BRANCH  33  34
ATOM     34  C   UNL A   1      37.618  32.057  31.313  1.00  0.00     0.031 A 
ATOM     35  C   UNL A   1      38.080  32.474  32.683  1.00  0.00     0.074 A 
ATOM     36  C   UNL A   1      38.272  31.085  30.645  1.00  0.00     0.049 A 
ATOM     37  N   UNL A   1      39.103  32.042  33.374  1.00  0.00    -0.248 NA
ATOM     38  C   UNL A   1      37.305  33.529  33.355  1.00  0.00     0.031 C 
ATOM     39  C   UNL A   1      37.932  30.610  29.301  1.00  0.00     0.029 A 
ATOM     40  N   UNL A   1      39.354  30.321  31.001  1.00  0.00    -0.354 N 
ATOM     41  C   UNL A   1      39.097  32.773  34.557  1.00  0.00     0.074 A 
ATOM     42  C   UNL A   1      38.003  33.716  34.465  1.00  0.00     0.031 C 
ATOM     43  C   UNL A   1      38.763  29.610  28.965  1.00  0.00     0.029 A 
ATOM     44  C   UNL A   1      39.727  29.407  30.042  1.00  0.00     0.049 A 
ATOM     45  H   UNL A   1      39.821  30.417  31.863  1.00  0.00     0.167 HD
ATOM     46  C   UNL A   1      39.916  32.652  35.629  1.00  0.00     0.034 A 
ATOM     47  C   UNL A   1      40.736  28.513  30.024  1.00  0.00     0.034 A 
ATOM     48  C   UNL A   1      40.989  31.695  35.719  1.00  0.00     0.049 A 
ATOM     49  C   UNL A   1      41.658  28.425  31.212  1.00  0.00     0.074 A 
ATOM     50  C   UNL A   1      41.846  31.464  36.781  1.00  0.00     0.029 A 
ATOM     51  N   UNL A   1      41.355  30.812  34.713  1.00  0.00    -0.354 N 
ATOM     52  N   UNL A   1      41.634  29.122  32.324  1.00  0.00    -0.248 NA
ATOM     53  C   UNL A   1      42.742  27.436  31.143  1.00  0.00     0.031 C 
ATOM     54  C   UNL A   1      42.770  30.490  36.394  1.00  0.00     0.029 A 
ATOM     55  C   UNL A   1      42.444  30.057  35.118  1.00  0.00     0.049 A 
ATOM     56  H   UNL A   1      40.907  30.733  33.840  1.00  0.00     0.167 HD
ATOM     57  C   UNL A   1      42.685  28.639  33.096  1.00  0.00     0.074 A 
ATOM     58  C   UNL A   1      43.322  27.591  32.326  1.00  0.00     0.031 C 
ATOM     59  C   UNL A   1      43.079  29.024  34.335  1.00  0.00     0.034 A 
BRANCH  46  60
ATOM     60  C   UNL A   1      39.692  33.583  36.792  1.00  0.00     0.023 A 
ATOM     61  C   UNL A   1      39.056  33.151  37.969  1.00  0.00     0.031 A 
ATOM     62  C   UNL A   1      40.152  34.911  36.738  1.00  0.00     0.131 A 
ATOM     63  C   UNL A   1      38.863  34.049  39.029  1.00  0.00     0.055 A 
ATOM     64  C   UNL A   1      40.016  35.781  37.820  1.00  0.00     0.041 A 
ATOM     65  F   UNL A   1      40.750  35.381  35.632  1.00  0.00    -0.206 F 
ATOM     66  C   UNL A   1      39.362  35.353  38.973  1.00  0.00     0.022 A 
BRANCH  63  67
ATOM     67  S   UNL A   1      37.886  33.510  40.457  1.00  0.00     0.124 S 
ATOM     68  O   UNL A   1      36.667  33.026  39.813  1.00  0.00    -0.237 OA
ATOM     69  O   UNL A   1      38.738  32.492  41.059  1.00  0.00    -0.237 OA
ATOM     70  O   UNL A   1      37.726  34.732  41.242  1.00  0.00    -0.744 OA
ENDBRANCH  63  67
ENDBRANCH  46  60
BRANCH  47  71
ATOM     71  C   UNL A   1      40.928  27.635  28.837  1.00  0.00     0.023 A 
ATOM     72  C   UNL A   1      41.917  27.916  27.883  1.00  0.00     0.031 A 
ATOM     73  C   UNL A   1      40.129  26.493  28.647  1.00  0.00     0.131 A 
ATOM     74  C   UNL A   1      42.073  27.075  26.770  1.00  0.00     0.055 A 
ATOM     75  C   UNL A   1      40.314  25.637  27.560  1.00  0.00     0.041 A 
ATOM     76  F   UNL A   1      39.175  26.176  29.536  1.00  0.00    -0.206 F 
ATOM     77  C   UNL A   1      41.288  25.930  26.610  1.00  0.00     0.022 A 
BRANCH  74  78
ATOM     78  S   UNL A   1      43.305  27.510  25.512  1.00  0.00     0.124 S 
ATOM     79  O   UNL A   1      43.991  28.630  26.145  1.00  0.00    -0.237 OA
ATOM     80  O   UNL A   1      44.069  26.273  25.392  1.00  0.00    -0.237 OA
ATOM     81  O   UNL A   1      42.494  27.852  24.345  1.00  0.00    -0.744 OA
ENDBRANCH  74  78
ENDBRANCH  47  71
BRANCH  59  82
ATOM     82  C   UNL A   1      44.238  28.292  34.959  1.00  0.00     0.023 A 
ATOM     83  C   UNL A   1      44.058  27.085  35.654  1.00  0.00     0.031 A 
ATOM     84  C   UNL A   1      45.547  28.781  34.800  1.00  0.00     0.131 A 
ATOM     85  C   UNL A   1      45.170  26.416  36.185  1.00  0.00     0.055 A 
ATOM     86  C   UNL A   1      46.654  28.087  35.289  1.00  0.00     0.041 A 
ATOM     87  F   UNL A   1      45.772  29.929  34.141  1.00  0.00    -0.206 F 
ATOM     88  C   UNL A   1      46.467  26.899  35.990  1.00  0.00     0.022 A 
BRANCH  85  89
ATOM     89  S   UNL A   1      44.900  24.914  37.163  1.00  0.00     0.124 S 
ATOM     90  O   UNL A   1      46.267  24.496  37.459  1.00  0.00    -0.237 OA
ATOM     91  O   UNL A   1      44.125  25.408  38.297  1.00  0.00    -0.237 OA
ATOM     92  O   UNL A   1      44.167  24.037  36.251  1.00  0.00    -0.744 OA
ENDBRANCH  85  89
ENDBRANCH  59  82
ENDBRANCH  33  34
ENDBRANCH  25  28
ENDBRANCH  23  24
ENDBRANCH  22  23
ENDBRANCH   1  22
TORSDOF 19
ENDMDL
