MODEL 1
REMARK VINA RESULT:     -11.1      0.000      0.000
REMARK SMILES Cc1cc(F)c(C(=O)NCCCCCCNC(=O)c2ccc(-c3c4nc(c(-c5cc(S(=O)(=O)[O-])ccc5F)c5ccc([nH]5)c(-c5cc(S(=O)(=O)[O-])ccc5F)c5nc(c(-c6cc(S(=O)(=O)[O-])ccc6F)c6ccc3[nH]6)C=C5)C=C4)cc2)cc1F
REMARK SMILES IDX 14 1 13 2 12 3 11 4 10 5 9 6 7 7 8 8 6 10 1 11 2 12 3 13
REMARK SMILES IDX 83 14 4 15 82 16 84 17 5 18 15 19 16 20 17 21 18 23 19 24
REMARK SMILES IDX 20 25 81 26 21 27 80 28 22 29 23 30 24 31 74 32 25 33 79 34
REMARK SMILES IDX 73 35 75 36 26 37 78 38 72 39 71 40 27 42 59 43 39 44 58 45
REMARK SMILES IDX 40 46 43 47 57 48 76 49 41 50 42 51 56 53 77 54 44 55 28 56
REMARK SMILES IDX 29 57 37 58 30 59 36 60 38 61 35 62 31 63 32 64 33 65 34 66
REMARK SMILES IDX 60 67 61 68 69 69 62 70 68 71 70 72 67 73 63 74 64 75 65 76
REMARK SMILES IDX 66 77 45 78 46 79 54 80 47 81 53 82 55 83 52 84 48 85 49 86
REMARK SMILES IDX 50 87 51 88
REMARK H PARENT 9 9 16 22 75 41 43 52
REMARK Flexibility Score: inf
ROOT
ATOM      1  C   UNL A   1      31.822  28.801  26.333  1.00  0.00     0.021 C 
ENDROOT
BRANCH   1   2
ATOM      2  C   UNL A   1      32.310  27.358  26.457  1.00  0.00     0.002 C 
BRANCH   2   3
ATOM      3  C   UNL A   1      33.745  27.070  26.009  1.00  0.00     0.002 C 
BRANCH   3   4
ATOM      4  C   UNL A   1      34.109  25.612  25.711  1.00  0.00     0.021 C 
BRANCH   4   5
ATOM      5  C   UNL A   1      33.125  24.805  24.870  1.00  0.00     0.116 C 
BRANCH   5   6
ATOM      6  N   UNL A   1      33.436  24.792  23.452  1.00  0.00    -0.352 N 
ATOM      7  C   UNL A   1      33.003  25.604  22.432  1.00  0.00     0.254 C 
ATOM      8  O   UNL A   1      33.439  25.415  21.298  1.00  0.00    -0.269 OA
ATOM      9  H   UNL A   1      34.061  24.084  23.177  1.00  0.00     0.163 HD
BRANCH   7  10
ATOM     10  C   UNL A   1      32.024  26.689  22.665  1.00  0.00     0.078 A 
ATOM     11  C   UNL A   1      29.242  29.942  23.225  1.00  0.00     0.047 C 
ATOM     12  C   UNL A   1      30.215  28.819  23.040  1.00  0.00    -0.012 A 
ATOM     13  C   UNL A   1      31.564  29.075  22.767  1.00  0.00     0.046 A 
ATOM     14  C   UNL A   1      29.808  27.489  23.189  1.00  0.00     0.127 A 
ATOM     15  C   UNL A   1      32.453  28.016  22.574  1.00  0.00     0.136 A 
ATOM     16  C   UNL A   1      30.698  26.430  23.025  1.00  0.00     0.056 A 
ATOM     17  F   UNL A   1      28.532  27.215  23.486  1.00  0.00    -0.207 F 
ATOM     18  F   UNL A   1      33.725  28.316  22.271  1.00  0.00    -0.206 F 
ENDBRANCH   7  10
ENDBRANCH   5   6
ENDBRANCH   4   5
ENDBRANCH   3   4
ENDBRANCH   2   3
ENDBRANCH   1   2
BRANCH   1  19
ATOM     19  C   UNL A   1      32.866  29.839  25.940  1.00  0.00     0.116 C 
BRANCH  19  20
ATOM     20  N   UNL A   1      32.636  31.152  26.516  1.00  0.00    -0.352 N 
ATOM     21  C   UNL A   1      33.421  31.871  27.393  1.00  0.00     0.251 C 
ATOM     22  H   UNL A   1      31.799  31.593  26.240  1.00  0.00     0.163 HD
ATOM     23  O   UNL A   1      33.021  32.942  27.834  1.00  0.00    -0.269 OA
BRANCH  21  24
ATOM     24  C   UNL A   1      34.723  31.319  27.840  1.00  0.00     0.039 A 
ATOM     25  C   UNL A   1      34.854  29.978  28.207  1.00  0.00     0.014 A 
ATOM     26  C   UNL A   1      35.824  32.177  27.934  1.00  0.00     0.014 A 
ATOM     27  C   UNL A   1      36.018  29.544  28.836  1.00  0.00     0.010 A 
ATOM     28  C   UNL A   1      37.020  31.716  28.493  1.00  0.00     0.010 A 
ATOM     29  C   UNL A   1      37.109  30.413  29.005  1.00  0.00    -0.014 A 
BRANCH  29  30
ATOM     30  C   UNL A   1      38.320  29.950  29.735  1.00  0.00     0.031 A 
ATOM     31  C   UNL A   1      39.274  28.973  29.098  1.00  0.00     0.074 A 
ATOM     32  C   UNL A   1      38.588  30.446  30.959  1.00  0.00     0.049 A 
ATOM     33  N   UNL A   1      40.385  28.474  29.578  1.00  0.00    -0.248 NA
ATOM     34  C   UNL A   1      38.941  28.492  27.747  1.00  0.00     0.031 C 
ATOM     35  C   UNL A   1      37.745  31.406  31.671  1.00  0.00     0.029 A 
ATOM     36  N   UNL A   1      39.643  30.232  31.811  1.00  0.00    -0.354 N 
ATOM     37  C   UNL A   1      40.873  27.612  28.602  1.00  0.00     0.074 A 
ATOM     38  C   UNL A   1      39.920  27.629  27.513  1.00  0.00     0.031 C 
ATOM     39  C   UNL A   1      38.336  31.733  32.828  1.00  0.00     0.029 A 
ATOM     40  C   UNL A   1      39.566  30.958  32.977  1.00  0.00     0.049 A 
ATOM     41  H   UNL A   1      40.384  29.617  31.606  1.00  0.00     0.167 HD
ATOM     42  C   UNL A   1      42.017  26.887  28.605  1.00  0.00     0.034 A 
ATOM     43  C   UNL A   1      40.381  30.991  34.051  1.00  0.00     0.034 A 
ATOM     44  C   UNL A   1      42.970  26.893  29.687  1.00  0.00     0.049 A 
ATOM     45  C   UNL A   1      41.630  30.148  34.047  1.00  0.00     0.074 A 
ATOM     46  C   UNL A   1      44.170  26.211  29.770  1.00  0.00     0.029 A 
ATOM     47  N   UNL A   1      42.840  27.615  30.864  1.00  0.00    -0.354 N 
ATOM     48  N   UNL A   1      42.095  29.371  33.098  1.00  0.00    -0.248 NA
ATOM     49  C   UNL A   1      42.467  30.182  35.255  1.00  0.00     0.031 C 
ATOM     50  C   UNL A   1      44.739  26.474  31.017  1.00  0.00     0.029 A 
ATOM     51  C   UNL A   1      43.927  27.374  31.689  1.00  0.00     0.049 A 
ATOM     52  H   UNL A   1      42.086  28.210  31.083  1.00  0.00     0.167 HD
ATOM     53  C   UNL A   1      43.284  28.837  33.586  1.00  0.00     0.074 A 
ATOM     54  C   UNL A   1      43.483  29.403  34.904  1.00  0.00     0.031 C 
ATOM     55  C   UNL A   1      44.128  27.952  32.997  1.00  0.00     0.034 A 
BRANCH  42  56
ATOM     56  C   UNL A   1      42.335  26.029  27.405  1.00  0.00     0.023 A 
ATOM     57  C   UNL A   1      41.965  24.670  27.392  1.00  0.00     0.031 A 
ATOM     58  C   UNL A   1      43.111  26.516  26.340  1.00  0.00     0.131 A 
ATOM     59  C   UNL A   1      42.398  23.840  26.350  1.00  0.00     0.055 A 
ATOM     60  C   UNL A   1      43.508  25.694  25.284  1.00  0.00     0.041 A 
ATOM     61  F   UNL A   1      43.489  27.805  26.306  1.00  0.00    -0.206 F 
ATOM     62  C   UNL A   1      43.163  24.346  25.293  1.00  0.00     0.022 A 
BRANCH  59  63
ATOM     63  S   UNL A   1      42.040  22.061  26.353  1.00  0.00     0.124 S 
ATOM     64  O   UNL A   1      42.892  21.584  25.265  1.00  0.00    -0.237 OA
ATOM     65  O   UNL A   1      42.463  21.668  27.694  1.00  0.00    -0.237 OA
ATOM     66  O   UNL A   1      40.606  21.991  26.097  1.00  0.00    -0.744 OA
ENDBRANCH  59  63
ENDBRANCH  42  56
BRANCH  43  67
ATOM     67  C   UNL A   1      40.043  31.895  35.189  1.00  0.00     0.023 A 
ATOM     68  C   UNL A   1      39.226  31.452  36.247  1.00  0.00     0.031 A 
ATOM     69  C   UNL A   1      40.433  33.244  35.177  1.00  0.00     0.131 A 
ATOM     70  C   UNL A   1      38.762  32.368  37.200  1.00  0.00     0.055 A 
ATOM     71  C   UNL A   1      40.029  34.137  36.172  1.00  0.00     0.041 A 
ATOM     72  F   UNL A   1      41.202  33.717  34.184  1.00  0.00    -0.206 F 
ATOM     73  C   UNL A   1      39.171  33.704  37.179  1.00  0.00     0.022 A 
BRANCH  70  74
ATOM     74  S   UNL A   1      37.495  31.887  38.407  1.00  0.00     0.124 S 
ATOM     75  O   UNL A   1      37.194  30.518  38.004  1.00  0.00    -0.237 OA
ATOM     76  O   UNL A   1      38.218  32.030  39.670  1.00  0.00    -0.237 OA
ATOM     77  O   UNL A   1      36.428  32.860  38.193  1.00  0.00    -0.744 OA
ENDBRANCH  70  74
ENDBRANCH  43  67
BRANCH  55  78
ATOM     78  C   UNL A   1      45.362  27.519  33.750  1.00  0.00     0.023 A 
ATOM     79  C   UNL A   1      45.292  26.450  34.665  1.00  0.00     0.031 A 
ATOM     80  C   UNL A   1      46.555  28.259  33.683  1.00  0.00     0.131 A 
ATOM     81  C   UNL A   1      46.379  26.180  35.505  1.00  0.00     0.055 A 
ATOM     82  C   UNL A   1      47.651  27.956  34.491  1.00  0.00     0.041 A 
ATOM     83  F   UNL A   1      46.668  29.294  32.834  1.00  0.00    -0.206 F 
ATOM     84  C   UNL A   1      47.561  26.923  35.419  1.00  0.00     0.022 A 
BRANCH  81  85
ATOM     85  S   UNL A   1      46.267  24.915  36.803  1.00  0.00     0.124 S 
ATOM     86  O   UNL A   1      45.201  24.055  36.296  1.00  0.00    -0.237 OA
ATOM     87  O   UNL A   1      47.605  24.331  36.778  1.00  0.00    -0.237 OA
ATOM     88  O   UNL A   1      45.936  25.672  38.006  1.00  0.00    -0.744 OA
ENDBRANCH  81  85
ENDBRANCH  55  78
ENDBRANCH  29  30
ENDBRANCH  21  24
ENDBRANCH  19  20
ENDBRANCH   1  19
TORSDOF 16
ENDMDL
MODEL 2
REMARK VINA RESULT:     -11.0      0.493      7.735
REMARK SMILES Cc1cc(F)c(C(=O)NCCCCCCNC(=O)c2ccc(-c3c4nc(c(-c5cc(S(=O)(=O)[O-])ccc5F)c5ccc([nH]5)c(-c5cc(S(=O)(=O)[O-])ccc5F)c5nc(c(-c6cc(S(=O)(=O)[O-])ccc6F)c6ccc3[nH]6)C=C5)C=C4)cc2)cc1F
REMARK SMILES IDX 14 1 13 2 12 3 11 4 10 5 9 6 7 7 8 8 6 10 1 11 2 12 3 13
REMARK SMILES IDX 83 14 4 15 82 16 84 17 5 18 15 19 16 20 17 21 18 23 19 24
REMARK SMILES IDX 20 25 81 26 21 27 80 28 22 29 23 30 24 31 74 32 25 33 79 34
REMARK SMILES IDX 73 35 75 36 26 37 78 38 72 39 71 40 27 42 59 43 39 44 58 45
REMARK SMILES IDX 40 46 43 47 57 48 76 49 41 50 42 51 56 53 77 54 44 55 28 56
REMARK SMILES IDX 29 57 37 58 30 59 36 60 38 61 35 62 31 63 32 64 33 65 34 66
REMARK SMILES IDX 60 67 61 68 69 69 62 70 68 71 70 72 67 73 63 74 64 75 65 76
REMARK SMILES IDX 66 77 45 78 46 79 54 80 47 81 53 82 55 83 52 84 48 85 49 86
REMARK SMILES IDX 50 87 51 88
REMARK H PARENT 9 9 16 22 75 41 43 52
REMARK Flexibility Score: inf
ROOT
ATOM      1  C   UNL A   1      31.763  29.123  26.540  1.00  0.00     0.021 C 
ENDROOT
BRANCH   1   2
ATOM      2  C   UNL A   1      32.159  27.821  27.235  1.00  0.00     0.002 C 
BRANCH   2   3
ATOM      3  C   UNL A   1      31.723  26.517  26.565  1.00  0.00     0.002 C 
BRANCH   3   4
ATOM      4  C   UNL A   1      32.824  25.604  26.018  1.00  0.00     0.021 C 
BRANCH   4   5
ATOM      5  C   UNL A   1      33.950  26.265  25.227  1.00  0.00     0.116 C 
BRANCH   5   6
ATOM      6  N   UNL A   1      34.028  25.836  23.843  1.00  0.00    -0.352 N 
ATOM      7  C   UNL A   1      33.251  26.163  22.758  1.00  0.00     0.254 C 
ATOM      8  O   UNL A   1      33.537  25.690  21.660  1.00  0.00    -0.269 OA
ATOM      9  H   UNL A   1      34.758  25.205  23.651  1.00  0.00     0.163 HD
BRANCH   7  10
ATOM     10  C   UNL A   1      32.082  27.062  22.883  1.00  0.00     0.078 A 
ATOM     11  C   UNL A   1      28.736  29.778  23.125  1.00  0.00     0.047 C 
ATOM     12  C   UNL A   1      29.903  28.843  23.051  1.00  0.00    -0.012 A 
ATOM     13  C   UNL A   1      31.199  29.328  22.842  1.00  0.00     0.046 A 
ATOM     14  C   UNL A   1      29.730  27.469  23.241  1.00  0.00     0.127 A 
ATOM     15  C   UNL A   1      32.274  28.440  22.751  1.00  0.00     0.136 A 
ATOM     16  C   UNL A   1      30.803  26.582  23.179  1.00  0.00     0.056 A 
ATOM     17  F   UNL A   1      28.507  26.980  23.479  1.00  0.00    -0.207 F 
ATOM     18  F   UNL A   1      33.488  28.953  22.506  1.00  0.00    -0.206 F 
ENDBRANCH   7  10
ENDBRANCH   5   6
ENDBRANCH   4   5
ENDBRANCH   3   4
ENDBRANCH   2   3
ENDBRANCH   1   2
BRANCH   1  19
ATOM     19  C   UNL A   1      32.898  30.075  26.182  1.00  0.00     0.116 C 
BRANCH  19  20
ATOM     20  N   UNL A   1      32.746  31.407  26.740  1.00  0.00    -0.352 N 
ATOM     21  C   UNL A   1      33.596  32.109  27.568  1.00  0.00     0.251 C 
ATOM     22  H   UNL A   1      31.917  31.877  26.488  1.00  0.00     0.163 HD
ATOM     23  O   UNL A   1      33.258  33.205  28.002  1.00  0.00    -0.269 OA
BRANCH  21  24
ATOM     24  C   UNL A   1      34.891  31.512  27.974  1.00  0.00     0.039 A 
ATOM     25  C   UNL A   1      34.981  30.176  28.368  1.00  0.00     0.014 A 
ATOM     26  C   UNL A   1      36.030  32.324  28.001  1.00  0.00     0.014 A 
ATOM     27  C   UNL A   1      36.152  29.706  28.959  1.00  0.00     0.010 A 
ATOM     28  C   UNL A   1      37.228  31.825  28.521  1.00  0.00     0.010 A 
ATOM     29  C   UNL A   1      37.284  30.531  29.060  1.00  0.00    -0.014 A 
BRANCH  29  30
ATOM     30  C   UNL A   1      38.505  30.033  29.751  1.00  0.00     0.031 A 
ATOM     31  C   UNL A   1      38.849  30.505  31.139  1.00  0.00     0.074 A 
ATOM     32  C   UNL A   1      39.284  29.116  29.142  1.00  0.00     0.049 A 
ATOM     33  N   UNL A   1      39.861  30.166  31.897  1.00  0.00    -0.248 NA
ATOM     34  C   UNL A   1      37.941  31.483  31.760  1.00  0.00     0.031 C 
ATOM     35  C   UNL A   1      39.045  28.576  27.805  1.00  0.00     0.029 A 
ATOM     36  N   UNL A   1      40.415  28.465  29.568  1.00  0.00    -0.354 N 
ATOM     37  C   UNL A   1      39.723  30.898  33.071  1.00  0.00     0.074 A 
ATOM     38  C   UNL A   1      38.547  31.725  32.915  1.00  0.00     0.031 C 
ATOM     39  C   UNL A   1      39.970  27.644  27.537  1.00  0.00     0.029 A 
ATOM     40  C   UNL A   1      40.910  27.565  28.652  1.00  0.00     0.049 A 
ATOM     41  H   UNL A   1      40.832  28.627  30.445  1.00  0.00     0.167 HD
ATOM     42  C   UNL A   1      40.496  30.870  34.184  1.00  0.00     0.034 A 
ATOM     43  C   UNL A   1      42.003  26.774  28.694  1.00  0.00     0.034 A 
ATOM     44  C   UNL A   1      41.654  30.026  34.338  1.00  0.00     0.049 A 
ATOM     45  C   UNL A   1      42.867  26.787  29.929  1.00  0.00     0.074 A 
ATOM     46  C   UNL A   1      42.485  29.910  35.438  1.00  0.00     0.029 A 
ATOM     47  N   UNL A   1      42.143  29.154  33.376  1.00  0.00    -0.354 N 
ATOM     48  N   UNL A   1      42.698  27.456  31.045  1.00  0.00    -0.248 NA
ATOM     49  C   UNL A   1      44.070  25.943  29.915  1.00  0.00     0.031 C 
ATOM     50  C   UNL A   1      43.506  29.012  35.123  1.00  0.00     0.029 A 
ATOM     51  C   UNL A   1      43.278  28.515  33.850  1.00  0.00     0.049 A 
ATOM     52  H   UNL A   1      41.743  29.010  32.488  1.00  0.00     0.167 HD
ATOM     53  C   UNL A   1      43.761  27.101  31.870  1.00  0.00     0.074 A 
ATOM     54  C   UNL A   1      44.552  26.136  31.136  1.00  0.00     0.031 C 
ATOM     55  C   UNL A   1      44.056  27.543  33.119  1.00  0.00     0.034 A 
BRANCH  42  56
ATOM     56  C   UNL A   1      40.125  31.758  35.346  1.00  0.00     0.023 A 
ATOM     57  C   UNL A   1      39.171  31.327  36.288  1.00  0.00     0.031 A 
ATOM     58  C   UNL A   1      40.613  33.072  35.449  1.00  0.00     0.131 A 
ATOM     59  C   UNL A   1      38.713  32.212  37.272  1.00  0.00     0.055 A 
ATOM     60  C   UNL A   1      40.181  33.939  36.455  1.00  0.00     0.041 A 
ATOM     61  F   UNL A   1      41.524  33.532  34.575  1.00  0.00    -0.206 F 
ATOM     62  C   UNL A   1      39.217  33.514  37.364  1.00  0.00     0.022 A 
BRANCH  59  63
ATOM     63  S   UNL A   1      37.403  31.734  38.432  1.00  0.00     0.124 S 
ATOM     64  O   UNL A   1      38.065  31.918  39.722  1.00  0.00    -0.237 OA
ATOM     65  O   UNL A   1      36.355  32.703  38.125  1.00  0.00    -0.237 OA
ATOM     66  O   UNL A   1      37.108  30.350  38.078  1.00  0.00    -0.744 OA
ENDBRANCH  59  63
ENDBRANCH  42  56
BRANCH  43  67
ATOM     67  C   UNL A   1      42.294  25.880  27.536  1.00  0.00     0.023 A 
ATOM     68  C   UNL A   1      41.765  24.577  27.477  1.00  0.00     0.031 A 
ATOM     69  C   UNL A   1      43.196  26.272  26.533  1.00  0.00     0.131 A 
ATOM     70  C   UNL A   1      42.204  23.690  26.486  1.00  0.00     0.055 A 
ATOM     71  C   UNL A   1      43.574  25.408  25.503  1.00  0.00     0.041 A 
ATOM     72  F   UNL A   1      43.737  27.500  26.552  1.00  0.00    -0.206 F 
ATOM     73  C   UNL A   1      43.092  24.102  25.489  1.00  0.00     0.022 A 
BRANCH  70  74
ATOM     74  S   UNL A   1      41.752  21.933  26.547  1.00  0.00     0.124 S 
ATOM     75  O   UNL A   1      40.299  21.990  26.443  1.00  0.00    -0.237 OA
ATOM     76  O   UNL A   1      42.451  21.406  25.376  1.00  0.00    -0.237 OA
ATOM     77  O   UNL A   1      42.278  21.487  27.833  1.00  0.00    -0.744 OA
ENDBRANCH  70  74
ENDBRANCH  43  67
BRANCH  55  78
ATOM     78  C   UNL A   1      45.287  27.002  33.805  1.00  0.00     0.023 A 
ATOM     79  C   UNL A   1      45.197  25.845  34.604  1.00  0.00     0.031 A 
ATOM     80  C   UNL A   1      46.498  27.714  33.799  1.00  0.00     0.131 A 
ATOM     81  C   UNL A   1      46.286  25.460  35.397  1.00  0.00     0.055 A 
ATOM     82  C   UNL A   1      47.594  27.299  34.556  1.00  0.00     0.041 A 
ATOM     83  F   UNL A   1      46.629  28.828  33.062  1.00  0.00    -0.206 F 
ATOM     84  C   UNL A   1      47.486  26.177  35.372  1.00  0.00     0.022 A 
BRANCH  81  85
ATOM     85  S   UNL A   1      46.155  24.070  36.557  1.00  0.00     0.124 S 
ATOM     86  O   UNL A   1      47.389  23.336  36.288  1.00  0.00    -0.237 OA
ATOM     87  O   UNL A   1      46.102  24.750  37.848  1.00  0.00    -0.237 OA
ATOM     88  O   UNL A   1      44.927  23.390  36.156  1.00  0.00    -0.744 OA
ENDBRANCH  81  85
ENDBRANCH  55  78
ENDBRANCH  29  30
ENDBRANCH  21  24
ENDBRANCH  19  20
ENDBRANCH   1  19
TORSDOF 16
ENDMDL
MODEL 3
REMARK VINA RESULT:     -11.0      6.266     11.783
REMARK SMILES Cc1cc(F)c(C(=O)NCCCCCCNC(=O)c2ccc(-c3c4nc(c(-c5cc(S(=O)(=O)[O-])ccc5F)c5ccc([nH]5)c(-c5cc(S(=O)(=O)[O-])ccc5F)c5nc(c(-c6cc(S(=O)(=O)[O-])ccc6F)c6ccc3[nH]6)C=C5)C=C4)cc2)cc1F
REMARK SMILES IDX 14 1 13 2 12 3 11 4 10 5 9 6 7 7 8 8 6 10 1 11 2 12 3 13
REMARK SMILES IDX 83 14 4 15 82 16 84 17 5 18 15 19 16 20 17 21 18 23 19 24
REMARK SMILES IDX 20 25 81 26 21 27 80 28 22 29 23 30 24 31 74 32 25 33 79 34
REMARK SMILES IDX 73 35 75 36 26 37 78 38 72 39 71 40 27 42 59 43 39 44 58 45
REMARK SMILES IDX 40 46 43 47 57 48 76 49 41 50 42 51 56 53 77 54 44 55 28 56
REMARK SMILES IDX 29 57 37 58 30 59 36 60 38 61 35 62 31 63 32 64 33 65 34 66
REMARK SMILES IDX 60 67 61 68 69 69 62 70 68 71 70 72 67 73 63 74 64 75 65 76
REMARK SMILES IDX 66 77 45 78 46 79 54 80 47 81 53 82 55 83 52 84 48 85 49 86
REMARK SMILES IDX 50 87 51 88
REMARK H PARENT 9 9 16 22 75 41 43 52
REMARK Flexibility Score: inf
ROOT
ATOM      1  C   UNL A   1      42.402  20.288  25.982  1.00  0.00     0.021 C 
ENDROOT
BRANCH   1   2
ATOM      2  C   UNL A   1      42.785  18.809  25.950  1.00  0.00     0.002 C 
BRANCH   2   3
ATOM      3  C   UNL A   1      44.258  18.480  25.696  1.00  0.00     0.002 C 
BRANCH   3   4
ATOM      4  C   UNL A   1      44.983  19.288  24.616  1.00  0.00     0.021 C 
BRANCH   4   5
ATOM      5  C   UNL A   1      46.051  20.274  25.082  1.00  0.00     0.116 C 
BRANCH   5   6
ATOM      6  N   UNL A   1      46.112  21.491  24.294  1.00  0.00    -0.352 N 
ATOM      7  C   UNL A   1      46.031  22.809  24.673  1.00  0.00     0.254 C 
ATOM      8  O   UNL A   1      46.145  23.681  23.813  1.00  0.00    -0.269 OA
ATOM      9  H   UNL A   1      46.232  21.348  23.327  1.00  0.00     0.163 HD
BRANCH   7  10
ATOM     10  C   UNL A   1      45.805  23.199  26.082  1.00  0.00     0.078 A 
ATOM     11  C   UNL A   1      45.204  24.489  30.158  1.00  0.00     0.047 C 
ATOM     12  C   UNL A   1      45.426  24.037  28.747  1.00  0.00    -0.012 A 
ATOM     13  C   UNL A   1      46.561  24.438  28.034  1.00  0.00     0.046 A 
ATOM     14  C   UNL A   1      44.527  23.162  28.129  1.00  0.00     0.127 A 
ATOM     15  C   UNL A   1      46.740  24.026  26.711  1.00  0.00     0.136 A 
ATOM     16  C   UNL A   1      44.715  22.726  26.819  1.00  0.00     0.056 A 
ATOM     17  F   UNL A   1      43.450  22.733  28.799  1.00  0.00    -0.207 F 
ATOM     18  F   UNL A   1      47.823  24.474  26.060  1.00  0.00    -0.206 F 
ENDBRANCH   7  10
ENDBRANCH   5   6
ENDBRANCH   4   5
ENDBRANCH   3   4
ENDBRANCH   2   3
ENDBRANCH   1   2
BRANCH   1  19
ATOM     19  C   UNL A   1      41.265  20.674  26.921  1.00  0.00     0.116 C 
BRANCH  19  20
ATOM     20  N   UNL A   1      39.961  20.706  26.282  1.00  0.00    -0.352 N 
ATOM     21  C   UNL A   1      39.071  21.754  26.166  1.00  0.00     0.251 C 
ATOM     22  H   UNL A   1      39.671  19.859  25.872  1.00  0.00     0.163 HD
ATOM     23  O   UNL A   1      37.974  21.568  25.653  1.00  0.00    -0.269 OA
BRANCH  21  24
ATOM     24  C   UNL A   1      39.425  23.087  26.711  1.00  0.00     0.039 A 
ATOM     25  C   UNL A   1      38.910  24.258  26.152  1.00  0.00     0.014 A 
ATOM     26  C   UNL A   1      40.327  23.162  27.777  1.00  0.00     0.014 A 
ATOM     27  C   UNL A   1      39.433  25.492  26.530  1.00  0.00     0.010 A 
ATOM     28  C   UNL A   1      40.790  24.409  28.210  1.00  0.00     0.010 A 
ATOM     29  C   UNL A   1      40.394  25.582  27.550  1.00  0.00    -0.014 A 
BRANCH  29  30
ATOM     30  C   UNL A   1      40.986  26.902  27.898  1.00  0.00     0.031 A 
ATOM     31  C   UNL A   1      40.169  27.947  28.612  1.00  0.00     0.074 A 
ATOM     32  C   UNL A   1      42.280  27.146  27.610  1.00  0.00     0.049 A 
ATOM     33  N   UNL A   1      40.525  29.143  29.006  1.00  0.00    -0.248 NA
ATOM     34  C   UNL A   1      38.771  27.608  28.924  1.00  0.00     0.031 C 
ATOM     35  C   UNL A   1      43.174  26.207  26.932  1.00  0.00     0.029 A 
ATOM     36  N   UNL A   1      43.073  28.238  27.863  1.00  0.00    -0.354 N 
ATOM     37  C   UNL A   1      39.397  29.705  29.596  1.00  0.00     0.074 A 
ATOM     38  C   UNL A   1      38.334  28.731  29.479  1.00  0.00     0.031 C 
ATOM     39  C   UNL A   1      44.400  26.742  26.863  1.00  0.00     0.029 A 
ATOM     40  C   UNL A   1      44.371  28.088  27.429  1.00  0.00     0.049 A 
ATOM     41  H   UNL A   1      42.744  29.050  28.310  1.00  0.00     0.167 HD
ATOM     42  C   UNL A   1      39.265  30.913  30.195  1.00  0.00     0.034 A 
ATOM     43  C   UNL A   1      45.418  28.939  27.469  1.00  0.00     0.034 A 
ATOM     44  C   UNL A   1      40.337  31.867  30.325  1.00  0.00     0.049 A 
ATOM     45  C   UNL A   1      45.237  30.291  28.109  1.00  0.00     0.074 A 
ATOM     46  C   UNL A   1      40.305  33.107  30.938  1.00  0.00     0.029 A 
ATOM     47  N   UNL A   1      41.626  31.693  29.844  1.00  0.00    -0.354 N 
ATOM     48  N   UNL A   1      44.174  30.788  28.697  1.00  0.00    -0.248 NA
ATOM     49  C   UNL A   1      46.390  31.201  28.092  1.00  0.00     0.031 C 
ATOM     50  C   UNL A   1      41.556  33.706  30.780  1.00  0.00     0.029 A 
ATOM     51  C   UNL A   1      42.392  32.814  30.126  1.00  0.00     0.049 A 
ATOM     52  H   UNL A   1      41.951  30.893  29.372  1.00  0.00     0.167 HD
ATOM     53  C   UNL A   1      44.535  32.059  29.134  1.00  0.00     0.074 A 
ATOM     54  C   UNL A   1      45.924  32.244  28.767  1.00  0.00     0.031 C 
ATOM     55  C   UNL A   1      43.781  32.989  29.772  1.00  0.00     0.034 A 
BRANCH  42  56
ATOM     56  C   UNL A   1      37.926  31.288  30.780  1.00  0.00     0.023 A 
ATOM     57  C   UNL A   1      36.990  31.997  30.002  1.00  0.00     0.031 A 
ATOM     58  C   UNL A   1      37.628  31.063  32.135  1.00  0.00     0.131 A 
ATOM     59  C   UNL A   1      35.816  32.482  30.593  1.00  0.00     0.055 A 
ATOM     60  C   UNL A   1      36.439  31.515  32.711  1.00  0.00     0.041 A 
ATOM     61  F   UNL A   1      38.488  30.392  32.919  1.00  0.00    -0.206 F 
ATOM     62  C   UNL A   1      35.534  32.239  31.942  1.00  0.00     0.022 A 
BRANCH  59  63
ATOM     63  S   UNL A   1      34.640  33.496  29.656  1.00  0.00     0.124 S 
ATOM     64  O   UNL A   1      35.528  34.453  28.999  1.00  0.00    -0.237 OA
ATOM     65  O   UNL A   1      34.023  32.510  28.773  1.00  0.00    -0.237 OA
ATOM     66  O   UNL A   1      33.769  34.060  30.681  1.00  0.00    -0.744 OA
ENDBRANCH  59  63
ENDBRANCH  42  56
BRANCH  43  67
ATOM     67  C   UNL A   1      46.732  28.495  26.919  1.00  0.00     0.023 A 
ATOM     68  C   UNL A   1      46.952  28.438  25.529  1.00  0.00     0.031 A 
ATOM     69  C   UNL A   1      47.741  28.012  27.767  1.00  0.00     0.131 A 
ATOM     70  C   UNL A   1      48.116  27.838  25.032  1.00  0.00     0.055 A 
ATOM     71  C   UNL A   1      48.933  27.483  27.268  1.00  0.00     0.041 A 
ATOM     72  F   UNL A   1      47.573  28.035  29.099  1.00  0.00    -0.206 F 
ATOM     73  C   UNL A   1      49.116  27.375  25.892  1.00  0.00     0.022 A 
BRANCH  70  74
ATOM     74  S   UNL A   1      48.301  27.504  23.258  1.00  0.00     0.124 S 
ATOM     75  O   UNL A   1      47.149  28.198  22.696  1.00  0.00    -0.237 OA
ATOM     76  O   UNL A   1      49.603  28.107  22.977  1.00  0.00    -0.237 OA
ATOM     77  O   UNL A   1      48.265  26.047  23.176  1.00  0.00    -0.744 OA
ENDBRANCH  70  74
ENDBRANCH  43  67
BRANCH  55  78
ATOM     78  C   UNL A   1      44.414  34.309  30.135  1.00  0.00     0.023 A 
ATOM     79  C   UNL A   1      44.395  35.377  29.216  1.00  0.00     0.031 A 
ATOM     80  C   UNL A   1      45.169  34.458  31.311  1.00  0.00     0.131 A 
ATOM     81  C   UNL A   1      45.151  36.528  29.469  1.00  0.00     0.055 A 
ATOM     82  C   UNL A   1      45.884  35.625  31.579  1.00  0.00     0.041 A 
ATOM     83  F   UNL A   1      45.227  33.465  32.213  1.00  0.00    -0.206 F 
ATOM     84  C   UNL A   1      45.890  36.661  30.649  1.00  0.00     0.022 A 
BRANCH  81  85
ATOM     85  S   UNL A   1      45.278  37.856  28.238  1.00  0.00     0.124 S 
ATOM     86  O   UNL A   1      45.357  37.102  26.989  1.00  0.00    -0.237 OA
ATOM     87  O   UNL A   1      44.032  38.588  28.446  1.00  0.00    -0.237 OA
ATOM     88  O   UNL A   1      46.494  38.569  28.612  1.00  0.00    -0.744 OA
ENDBRANCH  81  85
ENDBRANCH  55  78
ENDBRANCH  29  30
ENDBRANCH  21  24
ENDBRANCH  19  20
ENDBRANCH   1  19
TORSDOF 16
ENDMDL
