MODEL 1
REMARK VINA RESULT:     -11.0      0.000      0.000
REMARK SMILES CC[C@H](C)[C@H](C(=O)NCCCCCCNC(=O)c1ccc(-c2c3nc(c(-c4cc(S(=O)(=O)[O-])ccc4F)c4ccc([nH]4)c(-c4cc(S(=O)(=O)[O-])ccc4F)c4nc(c(-c5cc(S(=O)(=O)[O-])ccc5F)c5ccc2[nH]5)C=C4)C=C3)cc1)[NH+]1CC2(CC2)C1
REMARK SMILES IDX 12 1 11 2 10 3 9 4 8 5 6 6 7 7 5 9 3 10 4 11 2 12 1 13 81 14
REMARK SMILES IDX 82 15 86 16 83 18 84 19 85 20 13 21 14 22 15 23 16 24 17 26
REMARK SMILES IDX 18 27 19 28 80 29 20 30 79 31 21 32 22 33 23 34 73 35 24 36
REMARK SMILES IDX 78 37 72 38 74 39 25 40 77 41 71 42 70 43 26 45 58 46 38 47
REMARK SMILES IDX 57 48 39 49 42 50 56 51 75 52 40 53 41 54 55 56 76 57 43 58
REMARK SMILES IDX 27 59 28 60 36 61 29 62 35 63 37 64 34 65 30 66 31 67 32 68
REMARK SMILES IDX 33 69 59 70 60 71 68 72 61 73 67 74 69 75 66 76 62 77 63 78
REMARK SMILES IDX 64 79 65 80 44 81 45 82 53 83 46 84 52 85 54 86 51 87 47 88
REMARK SMILES IDX 48 89 49 90 50 91
REMARK H PARENT 8 8 81 17 15 25 74 44 42 55
REMARK Flexibility Score: inf
ROOT
ATOM      1  C   UNL A   1      35.407  23.273  23.305  1.00  0.00     0.002 C 
ENDROOT
BRANCH   1   2
ATOM      2  C   UNL A   1      34.161  24.153  23.436  1.00  0.00     0.002 C 
BRANCH   2   3
ATOM      3  C   UNL A   1      33.088  23.956  22.358  1.00  0.00     0.021 C 
BRANCH   3   4
ATOM      4  C   UNL A   1      32.305  25.209  21.976  1.00  0.00     0.116 C 
BRANCH   4   5
ATOM      5  N   UNL A   1      33.156  26.373  21.822  1.00  0.00    -0.351 N 
ATOM      6  C   UNL A   1      33.085  27.593  22.439  1.00  0.00     0.278 C 
ATOM      7  O   UNL A   1      34.093  28.300  22.376  1.00  0.00    -0.268 OA
ATOM      8  H   UNL A   1      33.896  26.271  21.180  1.00  0.00     0.163 HD
BRANCH   6   9
ATOM      9  C   UNL A   1      31.793  27.976  23.212  1.00  0.00     0.277 C 
BRANCH   9  10
ATOM     10  C   UNL A   1      31.961  27.583  24.738  1.00  0.00     0.054 C 
ATOM     11  C   UNL A   1      31.100  26.372  25.143  1.00  0.00     0.014 C 
BRANCH  10  12
ATOM     12  C   UNL A   1      33.431  27.340  25.162  1.00  0.00     0.006 C 
ATOM     13  C   UNL A   1      33.966  28.376  26.147  1.00  0.00     0.004 C 
ENDBRANCH  10  12
ENDBRANCH   9  10
BRANCH   9  14
ATOM     14  N   UNL A   1      31.387  29.411  23.061  1.00  0.00    -0.323 N 
ATOM     15  C   UNL A   1      30.362  29.709  22.031  1.00  0.00     0.275 C 
ATOM     16  C   UNL A   1      30.369  29.748  24.105  1.00  0.00     0.275 C 
ATOM     17  H   UNL A   1      32.302  29.852  22.972  1.00  0.00     0.348 HD
ATOM     18  C   UNL A   1      29.336  29.545  23.074  1.00  0.00     0.068 C 
ATOM     19  C   UNL A   1      28.217  28.552  23.055  1.00  0.00     0.020 C 
ATOM     20  C   UNL A   1      27.927  30.033  23.063  1.00  0.00     0.020 C 
ENDBRANCH   9  14
ENDBRANCH   6   9
ENDBRANCH   4   5
ENDBRANCH   3   4
ENDBRANCH   2   3
ENDBRANCH   1   2
BRANCH   1  21
ATOM     21  C   UNL A   1      35.530  22.144  24.330  1.00  0.00     0.021 C 
BRANCH  21  22
ATOM     22  C   UNL A   1      36.562  22.367  25.432  1.00  0.00     0.116 C 
BRANCH  22  23
ATOM     23  N   UNL A   1      37.503  21.265  25.560  1.00  0.00    -0.352 N 
ATOM     24  C   UNL A   1      38.804  21.282  26.001  1.00  0.00     0.251 C 
ATOM     25  H   UNL A   1      37.158  20.382  25.293  1.00  0.00     0.163 HD
ATOM     26  O   UNL A   1      39.491  20.266  25.920  1.00  0.00    -0.269 OA
BRANCH  24  27
ATOM     27  C   UNL A   1      39.384  22.534  26.536  1.00  0.00     0.039 A 
ATOM     28  C   UNL A   1      40.477  22.454  27.401  1.00  0.00     0.014 A 
ATOM     29  C   UNL A   1      38.871  23.780  26.162  1.00  0.00     0.014 A 
ATOM     30  C   UNL A   1      41.113  23.625  27.823  1.00  0.00     0.010 A 
ATOM     31  C   UNL A   1      39.543  24.942  26.534  1.00  0.00     0.010 A 
ATOM     32  C   UNL A   1      40.682  24.876  27.353  1.00  0.00    -0.014 A 
BRANCH  32  33
ATOM     33  C   UNL A   1      41.431  26.119  27.673  1.00  0.00     0.031 A 
ATOM     34  C   UNL A   1      40.774  27.226  28.450  1.00  0.00     0.074 A 
ATOM     35  C   UNL A   1      42.681  26.278  27.193  1.00  0.00     0.049 A 
ATOM     36  N   UNL A   1      41.233  28.415  28.744  1.00  0.00    -0.248 NA
ATOM     37  C   UNL A   1      39.411  26.968  28.937  1.00  0.00     0.031 C 
ATOM     38  C   UNL A   1      43.411  25.291  26.393  1.00  0.00     0.029 A 
ATOM     39  N   UNL A   1      43.556  27.332  27.292  1.00  0.00    -0.354 N 
ATOM     40  C   UNL A   1      40.214  29.053  29.443  1.00  0.00     0.074 A 
ATOM     41  C   UNL A   1      39.095  28.135  29.481  1.00  0.00     0.031 C 
ATOM     42  C   UNL A   1      44.623  25.778  26.090  1.00  0.00     0.029 A 
ATOM     43  C   UNL A   1      44.743  27.130  26.626  1.00  0.00     0.049 A 
ATOM     44  H   UNL A   1      43.352  28.155  27.792  1.00  0.00     0.167 HD
ATOM     45  C   UNL A   1      40.221  30.283  30.016  1.00  0.00     0.034 A 
ATOM     46  C   UNL A   1      45.801  27.947  26.450  1.00  0.00     0.034 A 
ATOM     47  C   UNL A   1      41.349  31.183  29.976  1.00  0.00     0.049 A 
ATOM     48  C   UNL A   1      45.768  29.324  27.062  1.00  0.00     0.074 A 
ATOM     49  C   UNL A   1      41.485  32.420  30.581  1.00  0.00     0.029 A 
ATOM     50  N   UNL A   1      42.531  30.949  29.285  1.00  0.00    -0.354 N 
ATOM     51  N   UNL A   1      44.817  29.889  27.770  1.00  0.00    -0.248 NA
ATOM     52  C   UNL A   1      46.951  30.169  26.857  1.00  0.00     0.031 C 
ATOM     53  C   UNL A   1      42.715  32.964  30.197  1.00  0.00     0.029 A 
ATOM     54  C   UNL A   1      43.382  32.036  29.413  1.00  0.00     0.049 A 
ATOM     55  H   UNL A   1      42.734  30.131  28.776  1.00  0.00     0.167 HD
ATOM     56  C   UNL A   1      45.300  31.150  28.112  1.00  0.00     0.074 A 
ATOM     57  C   UNL A   1      46.631  31.251  27.551  1.00  0.00     0.031 C 
ATOM     58  C   UNL A   1      44.699  32.133  28.829  1.00  0.00     0.034 A 
BRANCH  45  59
ATOM     59  C   UNL A   1      38.958  30.735  30.711  1.00  0.00     0.023 A 
ATOM     60  C   UNL A   1      37.980  31.496  30.047  1.00  0.00     0.031 A 
ATOM     61  C   UNL A   1      38.734  30.410  32.060  1.00  0.00     0.131 A 
ATOM     62  C   UNL A   1      36.860  31.964  30.749  1.00  0.00     0.055 A 
ATOM     63  C   UNL A   1      37.579  30.812  32.733  1.00  0.00     0.041 A 
ATOM     64  F   UNL A   1      39.640  29.702  32.754  1.00  0.00    -0.206 F 
ATOM     65  C   UNL A   1      36.639  31.608  32.081  1.00  0.00     0.022 A 
BRANCH  62  66
ATOM     66  S   UNL A   1      35.763  33.156  29.934  1.00  0.00     0.124 S 
ATOM     67  O   UNL A   1      36.611  33.643  28.849  1.00  0.00    -0.237 OA
ATOM     68  O   UNL A   1      34.632  32.324  29.537  1.00  0.00    -0.237 OA
ATOM     69  O   UNL A   1      35.481  34.134  30.981  1.00  0.00    -0.744 OA
ENDBRANCH  62  66
ENDBRANCH  45  59
BRANCH  46  70
ATOM     70  C   UNL A   1      46.972  27.504  25.638  1.00  0.00     0.023 A 
ATOM     71  C   UNL A   1      47.113  27.897  24.298  1.00  0.00     0.031 A 
ATOM     72  C   UNL A   1      47.942  26.642  26.179  1.00  0.00     0.131 A 
ATOM     73  C   UNL A   1      48.173  27.392  23.529  1.00  0.00     0.055 A 
ATOM     74  C   UNL A   1      49.024  26.184  25.424  1.00  0.00     0.041 A 
ATOM     75  F   UNL A   1      47.857  26.237  27.456  1.00  0.00    -0.206 F 
ATOM     76  C   UNL A   1      49.137  26.548  24.087  1.00  0.00     0.022 A 
BRANCH  73  77
ATOM     77  S   UNL A   1      48.224  27.782  21.758  1.00  0.00     0.124 S 
ATOM     78  O   UNL A   1      48.407  26.462  21.168  1.00  0.00    -0.237 OA
ATOM     79  O   UNL A   1      46.920  28.403  21.550  1.00  0.00    -0.237 OA
ATOM     80  O   UNL A   1      49.367  28.684  21.642  1.00  0.00    -0.744 OA
ENDBRANCH  73  77
ENDBRANCH  46  70
BRANCH  58  81
ATOM     81  C   UNL A   1      45.497  33.392  29.064  1.00  0.00     0.023 A 
ATOM     82  C   UNL A   1      45.429  34.482  28.179  1.00  0.00     0.031 A 
ATOM     83  C   UNL A   1      46.345  33.495  30.181  1.00  0.00     0.131 A 
ATOM     84  C   UNL A   1      46.236  35.610  28.398  1.00  0.00     0.055 A 
ATOM     85  C   UNL A   1      47.100  34.644  30.425  1.00  0.00     0.041 A 
ATOM     86  F   UNL A   1      46.450  32.484  31.056  1.00  0.00    -0.206 F 
ATOM     87  C   UNL A   1      47.057  35.704  29.524  1.00  0.00     0.022 A 
BRANCH  84  88
ATOM     88  S   UNL A   1      46.257  36.921  27.144  1.00  0.00     0.124 S 
ATOM     89  O   UNL A   1      47.332  37.782  27.626  1.00  0.00    -0.237 OA
ATOM     90  O   UNL A   1      46.534  36.180  25.918  1.00  0.00    -0.237 OA
ATOM     91  O   UNL A   1      44.915  37.497  27.229  1.00  0.00    -0.744 OA
ENDBRANCH  84  88
ENDBRANCH  58  81
ENDBRANCH  32  33
ENDBRANCH  24  27
ENDBRANCH  22  23
ENDBRANCH  21  22
ENDBRANCH   1  21
TORSDOF 19
ENDMDL
MODEL 2
REMARK VINA RESULT:     -10.8      5.537     10.818
REMARK SMILES CC[C@H](C)[C@H](C(=O)NCCCCCCNC(=O)c1ccc(-c2c3nc(c(-c4cc(S(=O)(=O)[O-])ccc4F)c4ccc([nH]4)c(-c4cc(S(=O)(=O)[O-])ccc4F)c4nc(c(-c5cc(S(=O)(=O)[O-])ccc5F)c5ccc2[nH]5)C=C4)C=C3)cc1)[NH+]1CC2(CC2)C1
REMARK SMILES IDX 12 1 11 2 10 3 9 4 8 5 6 6 7 7 5 9 3 10 4 11 2 12 1 13 81 14
REMARK SMILES IDX 82 15 86 16 83 18 84 19 85 20 13 21 14 22 15 23 16 24 17 26
REMARK SMILES IDX 18 27 19 28 80 29 20 30 79 31 21 32 22 33 23 34 73 35 24 36
REMARK SMILES IDX 78 37 72 38 74 39 25 40 77 41 71 42 70 43 26 45 58 46 38 47
REMARK SMILES IDX 57 48 39 49 42 50 56 51 75 52 40 53 41 54 55 56 76 57 43 58
REMARK SMILES IDX 27 59 28 60 36 61 29 62 35 63 37 64 34 65 30 66 31 67 32 68
REMARK SMILES IDX 33 69 59 70 60 71 68 72 61 73 67 74 69 75 66 76 62 77 63 78
REMARK SMILES IDX 64 79 65 80 44 81 45 82 53 83 46 84 52 85 54 86 51 87 47 88
REMARK SMILES IDX 48 89 49 90 50 91
REMARK H PARENT 8 8 81 17 15 25 74 44 42 55
REMARK Flexibility Score: inf
ROOT
ATOM      1  C   UNL A   1      31.943  29.068  27.371  1.00  0.00     0.002 C 
ENDROOT
BRANCH   1   2
ATOM      2  C   UNL A   1      32.035  27.994  26.284  1.00  0.00     0.002 C 
BRANCH   2   3
ATOM      3  C   UNL A   1      33.439  27.723  25.730  1.00  0.00     0.021 C 
BRANCH   3   4
ATOM      4  C   UNL A   1      33.744  26.264  25.402  1.00  0.00     0.116 C 
BRANCH   4   5
ATOM      5  N   UNL A   1      33.984  26.050  23.987  1.00  0.00    -0.351 N 
ATOM      6  C   UNL A   1      33.970  24.885  23.267  1.00  0.00     0.278 C 
ATOM      7  O   UNL A   1      33.895  24.999  22.042  1.00  0.00    -0.268 OA
ATOM      8  H   UNL A   1      34.185  26.862  23.467  1.00  0.00     0.163 HD
BRANCH   6   9
ATOM      9  C   UNL A   1      33.987  23.528  24.023  1.00  0.00     0.277 C 
BRANCH   9  10
ATOM     10  C   UNL A   1      32.570  22.834  23.882  1.00  0.00     0.054 C 
ATOM     11  C   UNL A   1      32.483  21.891  22.667  1.00  0.00     0.014 C 
BRANCH  10  12
ATOM     12  C   UNL A   1      32.113  22.082  25.157  1.00  0.00     0.006 C 
ATOM     13  C   UNL A   1      32.146  20.563  25.020  1.00  0.00     0.004 C 
ENDBRANCH  10  12
ENDBRANCH   9  10
BRANCH   9  14
ATOM     14  N   UNL A   1      35.090  22.604  23.603  1.00  0.00    -0.323 N 
ATOM     15  C   UNL A   1      36.442  23.200  23.464  1.00  0.00     0.275 C 
ATOM     16  C   UNL A   1      35.592  21.861  24.802  1.00  0.00     0.275 C 
ATOM     17  H   UNL A   1      34.667  22.173  22.783  1.00  0.00     0.348 HD
ATOM     18  C   UNL A   1      36.693  22.837  24.869  1.00  0.00     0.068 C 
ATOM     19  C   UNL A   1      37.033  23.790  25.972  1.00  0.00     0.020 C 
ATOM     20  C   UNL A   1      38.006  22.710  25.565  1.00  0.00     0.020 C 
ENDBRANCH   9  14
ENDBRANCH   6   9
ENDBRANCH   4   5
ENDBRANCH   3   4
ENDBRANCH   2   3
ENDBRANCH   1   2
BRANCH   1  21
ATOM     21  C   UNL A   1      31.866  30.512  26.870  1.00  0.00     0.021 C 
BRANCH  21  22
ATOM     22  C   UNL A   1      33.069  31.389  27.208  1.00  0.00     0.116 C 
BRANCH  22  23
ATOM     23  N   UNL A   1      32.727  32.796  27.337  1.00  0.00    -0.352 N 
ATOM     24  C   UNL A   1      33.272  33.750  28.163  1.00  0.00     0.251 C 
ATOM     25  H   UNL A   1      32.002  33.110  26.749  1.00  0.00     0.163 HD
ATOM     26  O   UNL A   1      32.765  34.867  28.225  1.00  0.00    -0.269 OA
BRANCH  24  27
ATOM     27  C   UNL A   1      34.443  33.413  29.002  1.00  0.00     0.039 A 
ATOM     28  C   UNL A   1      34.250  32.641  30.150  1.00  0.00     0.014 A 
ATOM     29  C   UNL A   1      35.728  33.832  28.643  1.00  0.00     0.014 A 
ATOM     30  C   UNL A   1      35.355  32.214  30.890  1.00  0.00     0.010 A 
ATOM     31  C   UNL A   1      36.832  33.354  29.347  1.00  0.00     0.010 A 
ATOM     32  C   UNL A   1      36.657  32.525  30.467  1.00  0.00    -0.014 A 
BRANCH  32  33
ATOM     33  C   UNL A   1      37.847  31.960  31.156  1.00  0.00     0.031 A 
ATOM     34  C   UNL A   1      38.620  30.829  30.536  1.00  0.00     0.074 A 
ATOM     35  C   UNL A   1      38.182  32.419  32.379  1.00  0.00     0.049 A 
ATOM     36  N   UNL A   1      39.623  30.148  31.027  1.00  0.00    -0.248 NA
ATOM     37  C   UNL A   1      38.189  30.391  29.201  1.00  0.00     0.031 C 
ATOM     38  C   UNL A   1      37.484  33.488  33.100  1.00  0.00     0.029 A 
ATOM     39  N   UNL A   1      39.181  32.040  33.241  1.00  0.00    -0.354 N 
ATOM     40  C   UNL A   1      39.941  29.194  30.065  1.00  0.00     0.074 A 
ATOM     41  C   UNL A   1      38.986  29.354  28.988  1.00  0.00     0.031 C 
ATOM     42  C   UNL A   1      38.085  33.687  34.283  1.00  0.00     0.029 A 
ATOM     43  C   UNL A   1      39.178  32.731  34.431  1.00  0.00     0.049 A 
ATOM     44  H   UNL A   1      39.838  31.338  33.027  1.00  0.00     0.167 HD
ATOM     45  C   UNL A   1      40.947  28.284  30.074  1.00  0.00     0.034 A 
ATOM     46  C   UNL A   1      39.952  32.597  35.526  1.00  0.00     0.034 A 
ATOM     47  C   UNL A   1      41.896  28.144  31.153  1.00  0.00     0.049 A 
ATOM     48  C   UNL A   1      41.038  31.552  35.527  1.00  0.00     0.074 A 
ATOM     49  C   UNL A   1      42.991  27.303  31.232  1.00  0.00     0.029 A 
ATOM     50  N   UNL A   1      41.855  28.854  32.346  1.00  0.00    -0.354 N 
ATOM     51  N   UNL A   1      41.360  30.696  34.584  1.00  0.00    -0.248 NA
ATOM     52  C   UNL A   1      41.866  31.457  36.736  1.00  0.00     0.031 C 
ATOM     53  C   UNL A   1      43.570  27.451  32.497  1.00  0.00     0.029 A 
ATOM     54  C   UNL A   1      42.881  28.439  33.183  1.00  0.00     0.049 A 
ATOM     55  H   UNL A   1      41.194  29.549  32.567  1.00  0.00     0.167 HD
ATOM     56  C   UNL A   1      42.445  29.977  35.080  1.00  0.00     0.074 A 
ATOM     57  C   UNL A   1      42.732  30.514  36.395  1.00  0.00     0.031 C 
ATOM     58  C   UNL A   1      43.142  28.968  34.501  1.00  0.00     0.034 A 
BRANCH  45  59
ATOM     59  C   UNL A   1      41.053  27.352  28.891  1.00  0.00     0.023 A 
ATOM     60  C   UNL A   1      42.058  27.502  27.918  1.00  0.00     0.031 A 
ATOM     61  C   UNL A   1      40.129  26.305  28.724  1.00  0.00     0.131 A 
ATOM     62  C   UNL A   1      42.074  26.666  26.792  1.00  0.00     0.055 A 
ATOM     63  C   UNL A   1      40.198  25.427  27.641  1.00  0.00     0.041 A 
ATOM     64  F   UNL A   1      39.135  26.123  29.608  1.00  0.00    -0.206 F 
ATOM     65  C   UNL A   1      41.167  25.613  26.658  1.00  0.00     0.022 A 
BRANCH  62  66
ATOM     66  S   UNL A   1      43.217  27.057  25.440  1.00  0.00     0.124 S 
ATOM     67  O   UNL A   1      43.357  25.757  24.787  1.00  0.00    -0.237 OA
ATOM     68  O   UNL A   1      42.486  28.073  24.692  1.00  0.00    -0.237 OA
ATOM     69  O   UNL A   1      44.415  27.531  26.130  1.00  0.00    -0.744 OA
ENDBRANCH  62  66
ENDBRANCH  45  59
BRANCH  46  70
ATOM     70  C   UNL A   1      39.720  33.452  36.727  1.00  0.00     0.023 A 
ATOM     71  C   UNL A   1      40.518  34.577  36.980  1.00  0.00     0.031 A 
ATOM     72  C   UNL A   1      38.723  33.126  37.664  1.00  0.00     0.131 A 
ATOM     73  C   UNL A   1      40.341  35.309  38.163  1.00  0.00     0.055 A 
ATOM     74  C   UNL A   1      38.515  33.889  38.814  1.00  0.00     0.041 A 
ATOM     75  F   UNL A   1      37.929  32.061  37.470  1.00  0.00    -0.206 F 
ATOM     76  C   UNL A   1      39.336  34.981  39.076  1.00  0.00     0.022 A 
BRANCH  73  77
ATOM     77  S   UNL A   1      41.505  36.649  38.538  1.00  0.00     0.124 S 
ATOM     78  O   UNL A   1      42.130  36.873  37.240  1.00  0.00    -0.237 OA
ATOM     79  O   UNL A   1      40.610  37.702  39.010  1.00  0.00    -0.237 OA
ATOM     80  O   UNL A   1      42.374  36.068  39.559  1.00  0.00    -0.744 OA
ENDBRANCH  73  77
ENDBRANCH  46  70
BRANCH  58  81
ATOM     81  C   UNL A   1      44.301  28.401  35.284  1.00  0.00     0.023 A 
ATOM     82  C   UNL A   1      44.116  27.401  36.254  1.00  0.00     0.031 A 
ATOM     83  C   UNL A   1      45.605  28.879  35.065  1.00  0.00     0.131 A 
ATOM     84  C   UNL A   1      45.209  26.946  37.006  1.00  0.00     0.055 A 
ATOM     85  C   UNL A   1      46.699  28.380  35.775  1.00  0.00     0.041 A 
ATOM     86  F   UNL A   1      45.839  29.836  34.154  1.00  0.00    -0.206 F 
ATOM     87  C   UNL A   1      46.502  27.417  36.760  1.00  0.00     0.022 A 
BRANCH  84  88
ATOM     88  S   UNL A   1      44.908  25.786  38.367  1.00  0.00     0.124 S 
ATOM     89  O   UNL A   1      46.223  25.706  38.994  1.00  0.00    -0.237 OA
ATOM     90  O   UNL A   1      43.874  26.468  39.139  1.00  0.00    -0.237 OA
ATOM     91  O   UNL A   1      44.469  24.567  37.688  1.00  0.00    -0.744 OA
ENDBRANCH  84  88
ENDBRANCH  58  81
ENDBRANCH  32  33
ENDBRANCH  24  27
ENDBRANCH  22  23
ENDBRANCH  21  22
ENDBRANCH   1  21
TORSDOF 19
ENDMDL
MODEL 3
REMARK VINA RESULT:     -10.8      5.714     10.815
REMARK SMILES CC[C@H](C)[C@H](C(=O)NCCCCCCNC(=O)c1ccc(-c2c3nc(c(-c4cc(S(=O)(=O)[O-])ccc4F)c4ccc([nH]4)c(-c4cc(S(=O)(=O)[O-])ccc4F)c4nc(c(-c5cc(S(=O)(=O)[O-])ccc5F)c5ccc2[nH]5)C=C4)C=C3)cc1)[NH+]1CC2(CC2)C1
REMARK SMILES IDX 12 1 11 2 10 3 9 4 8 5 6 6 7 7 5 9 3 10 4 11 2 12 1 13 81 14
REMARK SMILES IDX 82 15 86 16 83 18 84 19 85 20 13 21 14 22 15 23 16 24 17 26
REMARK SMILES IDX 18 27 19 28 80 29 20 30 79 31 21 32 22 33 23 34 73 35 24 36
REMARK SMILES IDX 78 37 72 38 74 39 25 40 77 41 71 42 70 43 26 45 58 46 38 47
REMARK SMILES IDX 57 48 39 49 42 50 56 51 75 52 40 53 41 54 55 56 76 57 43 58
REMARK SMILES IDX 27 59 28 60 36 61 29 62 35 63 37 64 34 65 30 66 31 67 32 68
REMARK SMILES IDX 33 69 59 70 60 71 68 72 61 73 67 74 69 75 66 76 62 77 63 78
REMARK SMILES IDX 64 79 65 80 44 81 45 82 53 83 46 84 52 85 54 86 51 87 47 88
REMARK SMILES IDX 48 89 49 90 50 91
REMARK H PARENT 8 8 81 17 15 25 74 44 42 55
REMARK Flexibility Score: inf
ROOT
ATOM      1  C   UNL A   1      32.329  30.024  26.198  1.00  0.00     0.002 C 
ENDROOT
BRANCH   1   2
ATOM      2  C   UNL A   1      31.895  28.831  27.054  1.00  0.00     0.002 C 
BRANCH   2   3
ATOM      3  C   UNL A   1      31.456  27.580  26.283  1.00  0.00     0.021 C 
BRANCH   3   4
ATOM      4  C   UNL A   1      32.295  26.330  26.529  1.00  0.00     0.116 C 
BRANCH   4   5
ATOM      5  N   UNL A   1      31.486  25.169  26.849  1.00  0.00    -0.351 N 
ATOM      6  C   UNL A   1      31.647  23.864  26.470  1.00  0.00     0.278 C 
ATOM      7  O   UNL A   1      31.019  23.023  27.117  1.00  0.00    -0.268 OA
ATOM      8  H   UNL A   1      30.707  25.345  27.425  1.00  0.00     0.163 HD
BRANCH   6   9
ATOM      9  C   UNL A   1      32.633  23.526  25.318  1.00  0.00     0.277 C 
BRANCH   9  10
ATOM     10  C   UNL A   1      33.576  22.335  25.769  1.00  0.00     0.054 C 
ATOM     11  C   UNL A   1      33.454  21.097  24.860  1.00  0.00     0.014 C 
BRANCH  10  12
ATOM     12  C   UNL A   1      35.066  22.735  25.904  1.00  0.00     0.006 C 
ATOM     13  C   UNL A   1      35.350  24.187  25.533  1.00  0.00     0.004 C 
ENDBRANCH  10  12
ENDBRANCH   9  10
BRANCH   9  14
ATOM     14  N   UNL A   1      31.969  23.229  24.007  1.00  0.00    -0.323 N 
ATOM     15  C   UNL A   1      31.182  24.327  23.394  1.00  0.00     0.275 C 
ATOM     16  C   UNL A   1      32.967  23.389  22.902  1.00  0.00     0.275 C 
ATOM     17  H   UNL A   1      31.487  22.361  24.238  1.00  0.00     0.348 HD
ATOM     18  C   UNL A   1      32.399  24.728  22.669  1.00  0.00     0.068 C 
ATOM     19  C   UNL A   1      33.076  26.059  22.763  1.00  0.00     0.020 C 
ATOM     20  C   UNL A   1      32.504  25.581  21.450  1.00  0.00     0.020 C 
ENDBRANCH   9  14
ENDBRANCH   6   9
ENDBRANCH   4   5
ENDBRANCH   3   4
ENDBRANCH   2   3
ENDBRANCH   1   2
BRANCH   1  21
ATOM     21  C   UNL A   1      31.923  31.401  26.727  1.00  0.00     0.021 C 
BRANCH  21  22
ATOM     22  C   UNL A   1      33.050  32.226  27.344  1.00  0.00     0.116 C 
BRANCH  22  23
ATOM     23  N   UNL A   1      32.654  33.592  27.645  1.00  0.00    -0.352 N 
ATOM     24  C   UNL A   1      33.163  34.456  28.584  1.00  0.00     0.251 C 
ATOM     25  H   UNL A   1      31.917  33.948  27.098  1.00  0.00     0.163 HD
ATOM     26  O   UNL A   1      32.614  35.537  28.782  1.00  0.00    -0.269 OA
BRANCH  24  27
ATOM     27  C   UNL A   1      34.348  34.064  29.379  1.00  0.00     0.039 A 
ATOM     28  C   UNL A   1      34.157  33.339  30.558  1.00  0.00     0.014 A 
ATOM     29  C   UNL A   1      35.639  34.383  28.950  1.00  0.00     0.014 A 
ATOM     30  C   UNL A   1      35.265  32.858  31.261  1.00  0.00     0.010 A 
ATOM     31  C   UNL A   1      36.740  33.850  29.618  1.00  0.00     0.010 A 
ATOM     32  C   UNL A   1      36.564  33.067  30.770  1.00  0.00    -0.014 A 
BRANCH  32  33
ATOM     33  C   UNL A   1      37.744  32.441  31.421  1.00  0.00     0.031 A 
ATOM     34  C   UNL A   1      38.470  31.307  30.753  1.00  0.00     0.074 A 
ATOM     35  C   UNL A   1      38.112  32.849  32.653  1.00  0.00     0.049 A 
ATOM     36  N   UNL A   1      39.458  30.577  31.205  1.00  0.00    -0.248 NA
ATOM     37  C   UNL A   1      38.005  30.927  29.412  1.00  0.00     0.031 C 
ATOM     38  C   UNL A   1      37.460  33.915  33.419  1.00  0.00     0.029 A 
ATOM     39  N   UNL A   1      39.110  32.409  33.486  1.00  0.00    -0.354 N 
ATOM     40  C   UNL A   1      39.729  29.646  30.209  1.00  0.00     0.074 A 
ATOM     41  C   UNL A   1      38.764  29.872  29.153  1.00  0.00     0.031 C 
ATOM     42  C   UNL A   1      38.085  34.056  34.598  1.00  0.00     0.029 A 
ATOM     43  C   UNL A   1      39.147  33.061  34.698  1.00  0.00     0.049 A 
ATOM     44  H   UNL A   1      39.741  31.694  33.239  1.00  0.00     0.167 HD
ATOM     45  C   UNL A   1      40.705  28.704  30.172  1.00  0.00     0.034 A 
ATOM     46  C   UNL A   1      39.933  32.866  35.776  1.00  0.00     0.034 A 
ATOM     47  C   UNL A   1      41.664  28.498  31.231  1.00  0.00     0.049 A 
ATOM     48  C   UNL A   1      40.984  31.786  35.726  1.00  0.00     0.074 A 
ATOM     49  C   UNL A   1      42.732  27.619  31.265  1.00  0.00     0.029 A 
ATOM     50  N   UNL A   1      41.664  29.169  32.447  1.00  0.00    -0.354 N 
ATOM     51  N   UNL A   1      41.264  30.952  34.751  1.00  0.00    -0.248 NA
ATOM     52  C   UNL A   1      41.826  31.625  36.918  1.00  0.00     0.031 C 
ATOM     53  C   UNL A   1      43.334  27.707  32.526  1.00  0.00     0.029 A 
ATOM     54  C   UNL A   1      42.688  28.694  33.254  1.00  0.00     0.049 A 
ATOM     55  H   UNL A   1      41.030  29.877  32.701  1.00  0.00     0.167 HD
ATOM     56  C   UNL A   1      42.331  30.182  35.207  1.00  0.00     0.074 A 
ATOM     57  C   UNL A   1      42.655  30.666  36.533  1.00  0.00     0.031 C 
ATOM     58  C   UNL A   1      42.986  29.170  34.584  1.00  0.00     0.034 A 
BRANCH  45  59
ATOM     59  C   UNL A   1      40.763  27.808  28.958  1.00  0.00     0.023 A 
ATOM     60  C   UNL A   1      41.708  28.008  27.936  1.00  0.00     0.031 A 
ATOM     61  C   UNL A   1      39.852  26.747  28.812  1.00  0.00     0.131 A 
ATOM     62  C   UNL A   1      41.677  27.204  26.786  1.00  0.00     0.055 A 
ATOM     63  C   UNL A   1      39.877  25.901  27.702  1.00  0.00     0.041 A 
ATOM     64  F   UNL A   1      38.913  26.518  29.745  1.00  0.00    -0.206 F 
ATOM     65  C   UNL A   1      40.785  26.136  26.672  1.00  0.00     0.022 A 
BRANCH  62  66
ATOM     66  S   UNL A   1      42.734  27.658  25.384  1.00  0.00     0.124 S 
ATOM     67  O   UNL A   1      42.898  26.372  24.711  1.00  0.00    -0.237 OA
ATOM     68  O   UNL A   1      41.922  28.648  24.684  1.00  0.00    -0.237 OA
ATOM     69  O   UNL A   1      43.942  28.179  26.020  1.00  0.00    -0.744 OA
ENDBRANCH  62  66
ENDBRANCH  45  59
BRANCH  46  70
ATOM     70  C   UNL A   1      39.747  33.688  37.007  1.00  0.00     0.023 A 
ATOM     71  C   UNL A   1      40.564  34.798  37.266  1.00  0.00     0.031 A 
ATOM     72  C   UNL A   1      38.777  33.344  37.966  1.00  0.00     0.131 A 
ATOM     73  C   UNL A   1      40.430  35.498  38.475  1.00  0.00     0.055 A 
ATOM     74  C   UNL A   1      38.612  34.076  39.143  1.00  0.00     0.041 A 
ATOM     75  F   UNL A   1      37.966  32.292  37.767  1.00  0.00    -0.206 F 
ATOM     76  C   UNL A   1      39.451  35.152  39.410  1.00  0.00     0.022 A 
BRANCH  73  77
ATOM     77  S   UNL A   1      41.618  36.816  38.851  1.00  0.00     0.124 S 
ATOM     78  O   UNL A   1      40.735  37.915  39.226  1.00  0.00    -0.237 OA
ATOM     79  O   UNL A   1      42.396  36.220  39.932  1.00  0.00    -0.237 OA
ATOM     80  O   UNL A   1      42.338  36.994  37.592  1.00  0.00    -0.744 OA
ENDBRANCH  73  77
ENDBRANCH  46  70
BRANCH  58  81
ATOM     81  C   UNL A   1      44.137  28.540  35.330  1.00  0.00     0.023 A 
ATOM     82  C   UNL A   1      43.936  27.496  36.249  1.00  0.00     0.031 A 
ATOM     83  C   UNL A   1      45.449  29.002  35.127  1.00  0.00     0.131 A 
ATOM     84  C   UNL A   1      45.023  26.981  36.970  1.00  0.00     0.055 A 
ATOM     85  C   UNL A   1      46.536  28.445  35.805  1.00  0.00     0.041 A 
ATOM     86  F   UNL A   1      45.699  29.999  34.264  1.00  0.00    -0.206 F 
ATOM     87  C   UNL A   1      46.324  27.437  36.740  1.00  0.00     0.022 A 
BRANCH  84  88
ATOM     88  S   UNL A   1      44.705  25.760  38.272  1.00  0.00     0.124 S 
ATOM     89  O   UNL A   1      46.056  25.356  38.647  1.00  0.00    -0.237 OA
ATOM     90  O   UNL A   1      43.975  26.541  39.265  1.00  0.00    -0.237 OA
ATOM     91  O   UNL A   1      43.916  24.732  37.593  1.00  0.00    -0.744 OA
ENDBRANCH  84  88
ENDBRANCH  58  81
ENDBRANCH  32  33
ENDBRANCH  24  27
ENDBRANCH  22  23
ENDBRANCH  21  22
ENDBRANCH   1  21
TORSDOF 19
ENDMDL
