MODEL 1
REMARK VINA RESULT:     -11.1      0.000      0.000
REMARK SMILES CC(C)NS(=O)(=O)c1cc(C(=O)NCCCCCCNC(=O)c2ccc(-c3c4nc(c(-c5cc(S(=O)(=O)[O-])ccc5F)c5ccc([nH]5)c(-c5cc(S(=O)(=O)[O-])ccc5F)c5nc(c(-c6cc(S(=O)(=O)[O-])ccc6F)c6ccc3[nH]6)C=C5)C=C4)cc2)cc(-c2ccc(CO)cc2)c1
REMARK SMILES IDX 16 1 15 2 14 3 13 4 11 5 12 6 10 8 8 9 9 10 96 11 87 12
REMARK SMILES IDX 86 13 5 14 6 15 7 16 4 17 2 19 1 20 3 21 88 22 89 23 95 24
REMARK SMILES IDX 90 25 94 26 91 27 92 28 93 29 17 31 18 32 19 33 20 34 21 35
REMARK SMILES IDX 22 37 23 38 24 39 85 40 25 41 84 42 26 43 27 44 28 45 78 46
REMARK SMILES IDX 29 47 83 48 77 49 79 50 30 51 82 52 76 53 75 54 31 56 63 57
REMARK SMILES IDX 43 58 62 59 44 60 47 61 61 62 80 63 45 64 46 65 60 67 81 68
REMARK SMILES IDX 48 69 32 70 33 71 41 72 34 73 40 74 42 75 39 76 35 77 36 78
REMARK SMILES IDX 37 79 38 80 64 81 65 82 73 83 66 84 72 85 74 86 71 87 67 88
REMARK SMILES IDX 68 89 69 90 70 91 49 92 50 93 58 94 51 95 57 96 59 97 56 98
REMARK SMILES IDX 52 99 53 100 54 101 55 102
REMARK H PARENT 13 7 4 18 93 30 20 36 79 55 47 66
REMARK Flexibility Score: inf
ROOT
ATOM      1  C   UNL A   1      34.371  25.305  25.762  1.00  0.00     0.002 C 
ENDROOT
BRANCH   1   2
ATOM      2  C   UNL A   1      35.752  24.665  25.634  1.00  0.00     0.021 C 
BRANCH   2   3
ATOM      3  C   UNL A   1      36.085  23.531  26.595  1.00  0.00     0.116 C 
BRANCH   3   4
ATOM      4  N   UNL A   1      36.962  22.505  26.057  1.00  0.00    -0.352 N 
ATOM      5  C   UNL A   1      36.723  21.507  25.135  1.00  0.00     0.251 C 
ATOM      6  O   UNL A   1      37.643  20.747  24.833  1.00  0.00    -0.269 OA
ATOM      7  H   UNL A   1      37.881  22.526  26.408  1.00  0.00     0.163 HD
BRANCH   5   8
ATOM      8  C   UNL A   1      35.374  21.273  24.547  1.00  0.00     0.041 A 
ATOM      9  C   UNL A   1      33.420  19.860  24.372  1.00  0.00     0.083 A 
ATOM     10  C   UNL A   1      34.736  20.054  24.804  1.00  0.00     0.035 A 
ATOM     11  C   UNL A   1      32.713  20.887  23.740  1.00  0.00     0.030 A 
ATOM     12  C   UNL A   1      33.341  22.112  23.478  1.00  0.00    -0.016 A 
ATOM     13  C   UNL A   1      34.704  22.239  23.793  1.00  0.00     0.022 A 
BRANCH   9  14
ATOM     14  S   UNL A   1      32.608  18.318  24.693  1.00  0.00     0.240 S 
ATOM     15  O   UNL A   1      31.603  18.098  23.675  1.00  0.00    -0.207 OA
ATOM     16  O   UNL A   1      32.274  18.292  26.098  1.00  0.00    -0.207 OA
BRANCH  14  17
ATOM     17  N   UNL A   1      33.816  17.184  24.487  1.00  0.00    -0.209 NA
ATOM     18  H   UNL A   1      33.561  16.658  23.652  1.00  0.00     0.141 HD
BRANCH  17  19
ATOM     19  C   UNL A   1      34.184  16.182  25.489  1.00  0.00     0.063 C 
ATOM     20  C   UNL A   1      33.255  14.981  25.309  1.00  0.00     0.025 C 
ATOM     21  C   UNL A   1      35.634  15.741  25.347  1.00  0.00     0.025 C 
ENDBRANCH  17  19
ENDBRANCH  14  17
ENDBRANCH   9  14
BRANCH  12  22
ATOM     22  C   UNL A   1      32.591  23.310  23.064  1.00  0.00    -0.018 A 
ATOM     23  C   UNL A   1      33.050  24.161  22.049  1.00  0.00     0.009 A 
ATOM     24  C   UNL A   1      31.463  23.713  23.802  1.00  0.00     0.009 A 
ATOM     25  C   UNL A   1      32.419  25.385  21.800  1.00  0.00     0.007 A 
ATOM     26  C   UNL A   1      30.831  24.935  23.554  1.00  0.00     0.007 A 
ATOM     27  C   UNL A   1      31.310  25.787  22.555  1.00  0.00    -0.023 A 
BRANCH  27  28
ATOM     28  C   UNL A   1      30.658  27.119  22.297  1.00  0.00     0.191 C 
BRANCH  28  29
ATOM     29  O   UNL A   1      31.645  28.102  22.029  1.00  0.00    -0.392 OA
ATOM     30  H   UNL A   1      31.973  27.993  21.123  1.00  0.00     0.211 HD
ENDBRANCH  28  29
ENDBRANCH  27  28
ENDBRANCH  12  22
ENDBRANCH   5   8
ENDBRANCH   3   4
ENDBRANCH   2   3
ENDBRANCH   1   2
BRANCH   1  31
ATOM     31  C   UNL A   1      34.024  26.417  24.771  1.00  0.00     0.002 C 
BRANCH  31  32
ATOM     32  C   UNL A   1      33.236  27.612  25.312  1.00  0.00     0.021 C 
BRANCH  32  33
ATOM     33  C   UNL A   1      33.782  29.001  24.983  1.00  0.00     0.116 C 
BRANCH  33  34
ATOM     34  N   UNL A   1      32.950  30.080  25.481  1.00  0.00    -0.352 N 
ATOM     35  C   UNL A   1      33.089  30.858  26.606  1.00  0.00     0.251 C 
ATOM     36  H   UNL A   1      32.162  30.288  24.927  1.00  0.00     0.163 HD
ATOM     37  O   UNL A   1      32.201  31.654  26.900  1.00  0.00    -0.269 OA
BRANCH  35  38
ATOM     38  C   UNL A   1      34.277  30.720  27.484  1.00  0.00     0.039 A 
ATOM     39  C   UNL A   1      34.445  29.527  28.196  1.00  0.00     0.014 A 
ATOM     40  C   UNL A   1      35.213  31.749  27.625  1.00  0.00     0.014 A 
ATOM     41  C   UNL A   1      35.588  29.334  28.978  1.00  0.00     0.010 A 
ATOM     42  C   UNL A   1      36.381  31.532  28.359  1.00  0.00     0.010 A 
ATOM     43  C   UNL A   1      36.588  30.318  29.032  1.00  0.00    -0.014 A 
BRANCH  43  44
ATOM     44  C   UNL A   1      37.867  30.078  29.752  1.00  0.00     0.031 A 
ATOM     45  C   UNL A   1      38.887  29.121  29.198  1.00  0.00     0.074 A 
ATOM     46  C   UNL A   1      38.077  30.668  30.946  1.00  0.00     0.049 A 
ATOM     47  N   UNL A   1      40.013  28.712  29.728  1.00  0.00    -0.248 NA
ATOM     48  C   UNL A   1      38.589  28.530  27.886  1.00  0.00     0.031 C 
ATOM     49  C   UNL A   1      37.148  31.589  31.606  1.00  0.00     0.029 A 
ATOM     50  N   UNL A   1      39.126  30.570  31.826  1.00  0.00    -0.354 N 
ATOM     51  C   UNL A   1      40.553  27.805  28.822  1.00  0.00     0.074 A 
ATOM     52  C   UNL A   1      39.604  27.692  27.732  1.00  0.00     0.031 C 
ATOM     53  C   UNL A   1      37.672  31.977  32.779  1.00  0.00     0.029 A 
ATOM     54  C   UNL A   1      38.949  31.301  32.979  1.00  0.00     0.049 A 
ATOM     55  H   UNL A   1      39.928  30.029  31.649  1.00  0.00     0.167 HD
ATOM     56  C   UNL A   1      41.736  27.144  28.886  1.00  0.00     0.034 A 
ATOM     57  C   UNL A   1      39.717  31.400  34.082  1.00  0.00     0.034 A 
ATOM     58  C   UNL A   1      42.675  27.274  29.975  1.00  0.00     0.049 A 
ATOM     59  C   UNL A   1      41.009  30.629  34.146  1.00  0.00     0.074 A 
ATOM     60  C   UNL A   1      43.930  26.704  30.105  1.00  0.00     0.029 A 
ATOM     61  N   UNL A   1      42.459  28.017  31.130  1.00  0.00    -0.354 N 
ATOM     62  N   UNL A   1      41.530  29.815  33.257  1.00  0.00    -0.248 NA
ATOM     63  C   UNL A   1      41.820  30.795  35.359  1.00  0.00     0.031 C 
ATOM     64  C   UNL A   1      44.443  27.045  31.362  1.00  0.00     0.029 A 
ATOM     65  C   UNL A   1      43.539  27.887  31.991  1.00  0.00     0.049 A 
ATOM     66  H   UNL A   1      41.656  28.556  31.311  1.00  0.00     0.167 HD
ATOM     67  C   UNL A   1      42.739  29.388  33.798  1.00  0.00     0.074 A 
ATOM     68  C   UNL A   1      42.878  30.049  35.080  1.00  0.00     0.031 C 
ATOM     69  C   UNL A   1      43.655  28.530  33.279  1.00  0.00     0.034 A 
BRANCH  56  70
ATOM     70  C   UNL A   1      42.063  26.196  27.756  1.00  0.00     0.023 A 
ATOM     71  C   UNL A   1      41.548  24.887  27.716  1.00  0.00     0.031 A 
ATOM     72  C   UNL A   1      42.918  26.597  26.715  1.00  0.00     0.131 A 
ATOM     73  C   UNL A   1      41.952  24.006  26.702  1.00  0.00     0.055 A 
ATOM     74  C   UNL A   1      43.254  25.740  25.665  1.00  0.00     0.041 A 
ATOM     75  F   UNL A   1      43.456  27.827  26.708  1.00  0.00    -0.206 F 
ATOM     76  C   UNL A   1      42.783  24.430  25.662  1.00  0.00     0.022 A 
BRANCH  73  77
ATOM     77  S   UNL A   1      41.489  22.258  26.839  1.00  0.00     0.124 S 
ATOM     78  O   UNL A   1      42.241  21.846  28.023  1.00  0.00    -0.237 OA
ATOM     79  O   UNL A   1      40.041  22.325  26.992  1.00  0.00    -0.237 OA
ATOM     80  O   UNL A   1      41.959  21.679  25.582  1.00  0.00    -0.744 OA
ENDBRANCH  73  77
ENDBRANCH  56  70
BRANCH  57  81
ATOM     81  C   UNL A   1      39.275  32.237  35.233  1.00  0.00     0.023 A 
ATOM     82  C   UNL A   1      38.630  31.664  36.339  1.00  0.00     0.031 A 
ATOM     83  C   UNL A   1      39.464  33.631  35.227  1.00  0.00     0.131 A 
ATOM     84  C   UNL A   1      38.159  32.485  37.376  1.00  0.00     0.055 A 
ATOM     85  C   UNL A   1      39.036  34.438  36.282  1.00  0.00     0.041 A 
ATOM     86  F   UNL A   1      40.082  34.227  34.194  1.00  0.00    -0.206 F 
ATOM     87  C   UNL A   1      38.369  33.867  37.360  1.00  0.00     0.022 A 
BRANCH  84  88
ATOM     88  S   UNL A   1      37.201  31.728  38.717  1.00  0.00     0.124 S 
ATOM     89  O   UNL A   1      38.089  31.915  39.860  1.00  0.00    -0.237 OA
ATOM     90  O   UNL A   1      35.984  32.535  38.711  1.00  0.00    -0.237 OA
ATOM     91  O   UNL A   1      37.031  30.346  38.277  1.00  0.00    -0.744 OA
ENDBRANCH  84  88
ENDBRANCH  57  81
BRANCH  69  92
ATOM     92  C   UNL A   1      44.898  28.284  34.098  1.00  0.00     0.023 A 
ATOM     93  C   UNL A   1      45.970  29.194  34.102  1.00  0.00     0.031 A 
ATOM     94  C   UNL A   1      45.021  27.113  34.866  1.00  0.00     0.131 A 
ATOM     95  C   UNL A   1      47.140  28.893  34.817  1.00  0.00     0.055 A 
ATOM     96  C   UNL A   1      46.164  26.845  35.620  1.00  0.00     0.041 A 
ATOM     97  F   UNL A   1      44.029  26.209  34.896  1.00  0.00    -0.206 F 
ATOM     98  C   UNL A   1      47.238  27.732  35.588  1.00  0.00     0.022 A 
BRANCH  95  99
ATOM     99  S   UNL A   1      48.569  29.998  34.655  1.00  0.00     0.124 S 
ATOM    100  O   UNL A   1      48.573  30.680  35.945  1.00  0.00    -0.237 OA
ATOM    101  O   UNL A   1      49.665  29.062  34.425  1.00  0.00    -0.237 OA
ATOM    102  O   UNL A   1      48.224  30.839  33.511  1.00  0.00    -0.744 OA
ENDBRANCH  95  99
ENDBRANCH  69  92
ENDBRANCH  43  44
ENDBRANCH  35  38
ENDBRANCH  33  34
ENDBRANCH  32  33
ENDBRANCH  31  32
ENDBRANCH   1  31
TORSDOF 22
ENDMDL
MODEL 2
REMARK VINA RESULT:     -11.0      4.732      7.939
REMARK SMILES CC(C)NS(=O)(=O)c1cc(C(=O)NCCCCCCNC(=O)c2ccc(-c3c4nc(c(-c5cc(S(=O)(=O)[O-])ccc5F)c5ccc([nH]5)c(-c5cc(S(=O)(=O)[O-])ccc5F)c5nc(c(-c6cc(S(=O)(=O)[O-])ccc6F)c6ccc3[nH]6)C=C5)C=C4)cc2)cc(-c2ccc(CO)cc2)c1
REMARK SMILES IDX 16 1 15 2 14 3 13 4 11 5 12 6 10 8 8 9 9 10 96 11 87 12
REMARK SMILES IDX 86 13 5 14 6 15 7 16 4 17 2 19 1 20 3 21 88 22 89 23 95 24
REMARK SMILES IDX 90 25 94 26 91 27 92 28 93 29 17 31 18 32 19 33 20 34 21 35
REMARK SMILES IDX 22 37 23 38 24 39 85 40 25 41 84 42 26 43 27 44 28 45 78 46
REMARK SMILES IDX 29 47 83 48 77 49 79 50 30 51 82 52 76 53 75 54 31 56 63 57
REMARK SMILES IDX 43 58 62 59 44 60 47 61 61 62 80 63 45 64 46 65 60 67 81 68
REMARK SMILES IDX 48 69 32 70 33 71 41 72 34 73 40 74 42 75 39 76 35 77 36 78
REMARK SMILES IDX 37 79 38 80 64 81 65 82 73 83 66 84 72 85 74 86 71 87 67 88
REMARK SMILES IDX 68 89 69 90 70 91 49 92 50 93 58 94 51 95 57 96 59 97 56 98
REMARK SMILES IDX 52 99 53 100 54 101 55 102
REMARK H PARENT 13 7 4 18 93 30 20 36 79 55 47 66
REMARK Flexibility Score: inf
ROOT
ATOM      1  C   UNL A   1      34.556  23.826  23.554  1.00  0.00     0.002 C 
ENDROOT
BRANCH   1   2
ATOM      2  C   UNL A   1      33.466  23.192  24.416  1.00  0.00     0.021 C 
BRANCH   2   3
ATOM      3  C   UNL A   1      33.376  23.644  25.868  1.00  0.00     0.116 C 
BRANCH   3   4
ATOM      4  N   UNL A   1      32.032  23.681  26.420  1.00  0.00    -0.352 N 
ATOM      5  C   UNL A   1      31.071  24.669  26.390  1.00  0.00     0.251 C 
ATOM      6  O   UNL A   1      29.990  24.460  26.937  1.00  0.00    -0.269 OA
ATOM      7  H   UNL A   1      31.762  22.861  26.893  1.00  0.00     0.163 HD
BRANCH   5   8
ATOM      8  C   UNL A   1      31.324  26.006  25.781  1.00  0.00     0.041 A 
ATOM      9  C   UNL A   1      30.586  27.767  24.298  1.00  0.00     0.083 A 
ATOM     10  C   UNL A   1      30.446  26.467  24.794  1.00  0.00     0.035 A 
ATOM     11  C   UNL A   1      31.552  28.634  24.818  1.00  0.00     0.030 A 
ATOM     12  C   UNL A   1      32.436  28.184  25.808  1.00  0.00    -0.016 A 
ATOM     13  C   UNL A   1      32.372  26.834  26.192  1.00  0.00     0.022 A 
BRANCH   9  14
ATOM     14  S   UNL A   1      29.478  28.355  23.047  1.00  0.00     0.240 S 
ATOM     15  O   UNL A   1      28.165  27.792  23.283  1.00  0.00    -0.207 OA
ATOM     16  O   UNL A   1      30.143  28.201  21.774  1.00  0.00    -0.207 OA
BRANCH  14  17
ATOM     17  N   UNL A   1      29.399  29.998  23.329  1.00  0.00    -0.209 NA
ATOM     18  H   UNL A   1      29.510  30.111  24.337  1.00  0.00     0.141 HD
BRANCH  17  19
ATOM     19  C   UNL A   1      28.261  30.843  22.961  1.00  0.00     0.063 C 
ATOM     20  C   UNL A   1      28.593  32.278  23.374  1.00  0.00     0.025 C 
ATOM     21  C   UNL A   1      27.971  30.787  21.467  1.00  0.00     0.025 C 
ENDBRANCH  17  19
ENDBRANCH  14  17
ENDBRANCH   9  14
BRANCH  12  22
ATOM     22  C   UNL A   1      33.291  29.102  26.579  1.00  0.00    -0.018 A 
ATOM     23  C   UNL A   1      32.871  30.394  26.927  1.00  0.00     0.009 A 
ATOM     24  C   UNL A   1      34.626  28.749  26.847  1.00  0.00     0.009 A 
ATOM     25  C   UNL A   1      33.764  31.309  27.496  1.00  0.00     0.007 A 
ATOM     26  C   UNL A   1      35.519  29.662  27.417  1.00  0.00     0.007 A 
ATOM     27  C   UNL A   1      35.097  30.954  27.738  1.00  0.00    -0.023 A 
BRANCH  27  28
ATOM     28  C   UNL A   1      36.055  31.957  28.324  1.00  0.00     0.191 C 
BRANCH  28  29
ATOM     29  O   UNL A   1      35.421  33.220  28.452  1.00  0.00    -0.392 OA
ATOM     30  H   UNL A   1      36.090  33.922  28.423  1.00  0.00     0.211 HD
ENDBRANCH  28  29
ENDBRANCH  27  28
ENDBRANCH  12  22
ENDBRANCH   5   8
ENDBRANCH   3   4
ENDBRANCH   2   3
ENDBRANCH   1   2
BRANCH   1  31
ATOM     31  C   UNL A   1      35.891  23.084  23.461  1.00  0.00     0.002 C 
BRANCH  31  32
ATOM     32  C   UNL A   1      36.038  21.807  24.292  1.00  0.00     0.021 C 
BRANCH  32  33
ATOM     33  C   UNL A   1      36.803  21.929  25.609  1.00  0.00     0.116 C 
BRANCH  33  34
ATOM     34  N   UNL A   1      37.861  20.947  25.755  1.00  0.00    -0.352 N 
ATOM     35  C   UNL A   1      39.172  21.109  26.137  1.00  0.00     0.251 C 
ATOM     36  H   UNL A   1      37.600  20.021  25.546  1.00  0.00     0.163 HD
ATOM     37  O   UNL A   1      39.934  20.147  26.088  1.00  0.00    -0.269 OA
BRANCH  35  38
ATOM     38  C   UNL A   1      39.680  22.434  26.569  1.00  0.00     0.039 A 
ATOM     39  C   UNL A   1      40.733  22.476  27.489  1.00  0.00     0.014 A 
ATOM     40  C   UNL A   1      39.127  23.625  26.092  1.00  0.00     0.014 A 
ATOM     41  C   UNL A   1      41.284  23.705  27.865  1.00  0.00     0.010 A 
ATOM     42  C   UNL A   1      39.716  24.848  26.422  1.00  0.00     0.010 A 
ATOM     43  C   UNL A   1      40.809  24.900  27.302  1.00  0.00    -0.014 A 
BRANCH  43  44
ATOM     44  C   UNL A   1      41.467  26.203  27.589  1.00  0.00     0.031 A 
ATOM     45  C   UNL A   1      42.834  26.506  27.039  1.00  0.00     0.074 A 
ATOM     46  C   UNL A   1      40.862  27.085  28.410  1.00  0.00     0.049 A 
ATOM     47  N   UNL A   1      43.604  27.542  27.259  1.00  0.00    -0.248 NA
ATOM     48  C   UNL A   1      43.420  25.499  26.143  1.00  0.00     0.031 C 
ATOM     49  C   UNL A   1      39.551  26.892  29.035  1.00  0.00     0.029 A 
ATOM     50  N   UNL A   1      41.273  28.309  28.875  1.00  0.00    -0.354 N 
ATOM     51  C   UNL A   1      44.772  27.307  26.539  1.00  0.00     0.074 A 
ATOM     52  C   UNL A   1      44.622  26.007  25.916  1.00  0.00     0.031 C 
ATOM     53  C   UNL A   1      39.263  27.962  29.792  1.00  0.00     0.029 A 
ATOM     54  C   UNL A   1      40.383  28.896  29.746  1.00  0.00     0.049 A 
ATOM     55  H   UNL A   1      42.123  28.728  28.610  1.00  0.00     0.167 HD
ATOM     56  C   UNL A   1      45.858  28.109  26.398  1.00  0.00     0.034 A 
ATOM     57  C   UNL A   1      40.466  30.045  30.446  1.00  0.00     0.034 A 
ATOM     58  C   UNL A   1      45.989  29.407  27.019  1.00  0.00     0.049 A 
ATOM     59  C   UNL A   1      41.697  30.901  30.301  1.00  0.00     0.074 A 
ATOM     60  C   UNL A   1      47.014  30.327  26.887  1.00  0.00     0.029 A 
ATOM     61  N   UNL A   1      45.071  29.965  27.901  1.00  0.00    -0.354 N 
ATOM     62  N   UNL A   1      42.771  30.689  29.575  1.00  0.00    -0.248 NA
ATOM     63  C   UNL A   1      41.723  32.156  31.065  1.00  0.00     0.031 C 
ATOM     64  C   UNL A   1      46.752  31.408  27.736  1.00  0.00     0.029 A 
ATOM     65  C   UNL A   1      45.526  31.197  28.349  1.00  0.00     0.049 A 
ATOM     66  H   UNL A   1      44.221  29.546  28.170  1.00  0.00     0.167 HD
ATOM     67  C   UNL A   1      43.591  31.794  29.783  1.00  0.00     0.074 A 
ATOM     68  C   UNL A   1      42.880  32.678  30.684  1.00  0.00     0.031 C 
ATOM     69  C   UNL A   1      44.821  32.057  29.269  1.00  0.00     0.034 A 
BRANCH  56  70
ATOM     70  C   UNL A   1      47.003  27.587  25.563  1.00  0.00     0.023 A 
ATOM     71  C   UNL A   1      47.211  28.019  24.241  1.00  0.00     0.031 A 
ATOM     72  C   UNL A   1      47.887  26.628  26.088  1.00  0.00     0.131 A 
ATOM     73  C   UNL A   1      48.227  27.439  23.466  1.00  0.00     0.055 A 
ATOM     74  C   UNL A   1      48.945  26.112  25.337  1.00  0.00     0.041 A 
ATOM     75  F   UNL A   1      47.728  26.162  27.337  1.00  0.00    -0.206 F 
ATOM     76  C   UNL A   1      49.112  26.506  24.012  1.00  0.00     0.022 A 
BRANCH  73  77
ATOM     77  S   UNL A   1      48.288  27.818  21.693  1.00  0.00     0.124 S 
ATOM     78  O   UNL A   1      48.631  26.515  21.126  1.00  0.00    -0.237 OA
ATOM     79  O   UNL A   1      46.936  28.295  21.426  1.00  0.00    -0.237 OA
ATOM     80  O   UNL A   1      49.339  28.828  21.594  1.00  0.00    -0.744 OA
ENDBRANCH  73  77
ENDBRANCH  56  70
BRANCH  57  81
ATOM     81  C   UNL A   1      39.369  30.443  31.371  1.00  0.00     0.023 A 
ATOM     82  C   UNL A   1      38.580  31.574  31.113  1.00  0.00     0.031 A 
ATOM     83  C   UNL A   1      39.115  29.715  32.547  1.00  0.00     0.131 A 
ATOM     84  C   UNL A   1      37.601  31.970  32.039  1.00  0.00     0.055 A 
ATOM     85  C   UNL A   1      38.109  30.084  33.441  1.00  0.00     0.041 A 
ATOM     86  F   UNL A   1      39.838  28.620  32.836  1.00  0.00    -0.206 F 
ATOM     87  C   UNL A   1      37.353  31.225  33.195  1.00  0.00     0.022 A 
BRANCH  84  88
ATOM     88  S   UNL A   1      36.703  33.518  31.746  1.00  0.00     0.124 S 
ATOM     89  O   UNL A   1      35.345  33.035  31.518  1.00  0.00    -0.237 OA
ATOM     90  O   UNL A   1      36.927  34.238  32.996  1.00  0.00    -0.237 OA
ATOM     91  O   UNL A   1      37.370  34.083  30.576  1.00  0.00    -0.744 OA
ENDBRANCH  84  88
ENDBRANCH  57  81
BRANCH  69  92
ATOM     92  C   UNL A   1      45.454  33.369  29.659  1.00  0.00     0.023 A 
ATOM     93  C   UNL A   1      45.267  34.534  28.895  1.00  0.00     0.031 A 
ATOM     94  C   UNL A   1      46.276  33.449  30.797  1.00  0.00     0.131 A 
ATOM     95  C   UNL A   1      45.935  35.717  29.248  1.00  0.00     0.055 A 
ATOM     96  C   UNL A   1      46.893  34.642  31.176  1.00  0.00     0.041 A 
ATOM     97  F   UNL A   1      46.492  32.366  31.561  1.00  0.00    -0.206 F 
ATOM     98  C   UNL A   1      46.735  35.782  30.392  1.00  0.00     0.022 A 
BRANCH  95  99
ATOM     99  S   UNL A   1      45.815  37.150  28.142  1.00  0.00     0.124 S 
ATOM    100  O   UNL A   1      46.378  38.216  28.963  1.00  0.00    -0.237 OA
ATOM    101  O   UNL A   1      46.621  36.731  26.999  1.00  0.00    -0.237 OA
ATOM    102  O   UNL A   1      44.381  37.261  27.879  1.00  0.00    -0.744 OA
ENDBRANCH  95  99
ENDBRANCH  69  92
ENDBRANCH  43  44
ENDBRANCH  35  38
ENDBRANCH  33  34
ENDBRANCH  32  33
ENDBRANCH  31  32
ENDBRANCH   1  31
TORSDOF 22
ENDMDL
MODEL 3
REMARK VINA RESULT:     -10.8      5.052     10.150
REMARK SMILES CC(C)NS(=O)(=O)c1cc(C(=O)NCCCCCCNC(=O)c2ccc(-c3c4nc(c(-c5cc(S(=O)(=O)[O-])ccc5F)c5ccc([nH]5)c(-c5cc(S(=O)(=O)[O-])ccc5F)c5nc(c(-c6cc(S(=O)(=O)[O-])ccc6F)c6ccc3[nH]6)C=C5)C=C4)cc2)cc(-c2ccc(CO)cc2)c1
REMARK SMILES IDX 16 1 15 2 14 3 13 4 11 5 12 6 10 8 8 9 9 10 96 11 87 12
REMARK SMILES IDX 86 13 5 14 6 15 7 16 4 17 2 19 1 20 3 21 88 22 89 23 95 24
REMARK SMILES IDX 90 25 94 26 91 27 92 28 93 29 17 31 18 32 19 33 20 34 21 35
REMARK SMILES IDX 22 37 23 38 24 39 85 40 25 41 84 42 26 43 27 44 28 45 78 46
REMARK SMILES IDX 29 47 83 48 77 49 79 50 30 51 82 52 76 53 75 54 31 56 63 57
REMARK SMILES IDX 43 58 62 59 44 60 47 61 61 62 80 63 45 64 46 65 60 67 81 68
REMARK SMILES IDX 48 69 32 70 33 71 41 72 34 73 40 74 42 75 39 76 35 77 36 78
REMARK SMILES IDX 37 79 38 80 64 81 65 82 73 83 66 84 72 85 74 86 71 87 67 88
REMARK SMILES IDX 68 89 69 90 70 91 49 92 50 93 58 94 51 95 57 96 59 97 56 98
REMARK SMILES IDX 52 99 53 100 54 101 55 102
REMARK H PARENT 13 7 4 18 93 30 20 36 79 55 47 66
REMARK Flexibility Score: inf
ROOT
ATOM      1  C   UNL A   1      35.823  22.899  24.613  1.00  0.00     0.002 C 
ENDROOT
BRANCH   1   2
ATOM      2  C   UNL A   1      34.809  22.268  25.565  1.00  0.00     0.021 C 
BRANCH   2   3
ATOM      3  C   UNL A   1      34.531  23.001  26.871  1.00  0.00     0.116 C 
BRANCH   3   4
ATOM      4  N   UNL A   1      33.125  23.131  27.217  1.00  0.00    -0.352 N 
ATOM      5  C   UNL A   1      32.188  24.073  26.848  1.00  0.00     0.251 C 
ATOM      6  O   UNL A   1      31.040  23.967  27.278  1.00  0.00    -0.269 OA
ATOM      7  H   UNL A   1      32.784  22.427  27.815  1.00  0.00     0.163 HD
BRANCH   5   8
ATOM      8  C   UNL A   1      32.535  25.253  26.007  1.00  0.00     0.041 A 
ATOM      9  C   UNL A   1      32.571  26.288  23.823  1.00  0.00     0.083 A 
ATOM     10  C   UNL A   1      32.374  25.157  24.621  1.00  0.00     0.035 A 
ATOM     11  C   UNL A   1      32.868  27.528  24.395  1.00  0.00     0.030 A 
ATOM     12  C   UNL A   1      33.031  27.638  25.783  1.00  0.00    -0.016 A 
ATOM     13  C   UNL A   1      32.968  26.465  26.553  1.00  0.00     0.022 A 
BRANCH   9  14
ATOM     14  S   UNL A   1      32.369  26.170  22.066  1.00  0.00     0.240 S 
ATOM     15  O   UNL A   1      33.631  26.480  21.428  1.00  0.00    -0.207 OA
ATOM     16  O   UNL A   1      31.159  26.879  21.722  1.00  0.00    -0.207 OA
BRANCH  14  17
ATOM     17  N   UNL A   1      32.040  24.553  21.814  1.00  0.00    -0.209 NA
ATOM     18  H   UNL A   1      31.410  24.278  22.567  1.00  0.00     0.141 HD
BRANCH  17  19
ATOM     19  C   UNL A   1      33.061  23.505  21.751  1.00  0.00     0.063 C 
ATOM     20  C   UNL A   1      32.547  22.305  22.547  1.00  0.00     0.025 C 
ATOM     21  C   UNL A   1      33.362  23.088  20.318  1.00  0.00     0.025 C 
ENDBRANCH  17  19
ENDBRANCH  14  17
ENDBRANCH   9  14
BRANCH  12  22
ATOM     22  C   UNL A   1      33.080  28.939  26.471  1.00  0.00    -0.018 A 
ATOM     23  C   UNL A   1      32.008  29.841  26.434  1.00  0.00     0.009 A 
ATOM     24  C   UNL A   1      34.286  29.372  27.053  1.00  0.00     0.009 A 
ATOM     25  C   UNL A   1      32.146  31.140  26.937  1.00  0.00     0.007 A 
ATOM     26  C   UNL A   1      34.426  30.668  27.557  1.00  0.00     0.007 A 
ATOM     27  C   UNL A   1      33.358  31.568  27.494  1.00  0.00    -0.023 A 
BRANCH  27  28
ATOM     28  C   UNL A   1      33.503  32.977  28.006  1.00  0.00     0.191 C 
BRANCH  28  29
ATOM     29  O   UNL A   1      32.456  33.789  27.500  1.00  0.00    -0.392 OA
ATOM     30  H   UNL A   1      32.830  34.597  27.116  1.00  0.00     0.211 HD
ENDBRANCH  28  29
ENDBRANCH  27  28
ENDBRANCH  12  22
ENDBRANCH   5   8
ENDBRANCH   3   4
ENDBRANCH   2   3
ENDBRANCH   1   2
BRANCH   1  31
ATOM     31  C   UNL A   1      36.917  21.987  24.056  1.00  0.00     0.002 C 
BRANCH  31  32
ATOM     32  C   UNL A   1      37.440  20.882  24.977  1.00  0.00     0.021 C 
BRANCH  32  33
ATOM     33  C   UNL A   1      38.714  21.187  25.762  1.00  0.00     0.116 C 
BRANCH  33  34
ATOM     34  N   UNL A   1      39.615  20.054  25.861  1.00  0.00    -0.352 N 
ATOM     35  C   UNL A   1      40.962  20.016  26.136  1.00  0.00     0.251 C 
ATOM     36  H   UNL A   1      39.198  19.176  25.706  1.00  0.00     0.163 HD
ATOM     37  O   UNL A   1      41.560  18.945  26.063  1.00  0.00    -0.269 OA
BRANCH  35  38
ATOM     38  C   UNL A   1      41.703  21.254  26.481  1.00  0.00     0.039 A 
ATOM     39  C   UNL A   1      42.119  22.093  25.442  1.00  0.00     0.014 A 
ATOM     40  C   UNL A   1      42.002  21.588  27.805  1.00  0.00     0.014 A 
ATOM     41  C   UNL A   1      42.758  23.303  25.733  1.00  0.00     0.010 A 
ATOM     42  C   UNL A   1      42.587  22.822  28.097  1.00  0.00     0.010 A 
ATOM     43  C   UNL A   1      42.959  23.698  27.065  1.00  0.00    -0.014 A 
BRANCH  43  44
ATOM     44  C   UNL A   1      43.518  25.037  27.395  1.00  0.00     0.031 A 
ATOM     45  C   UNL A   1      42.636  26.112  27.970  1.00  0.00     0.074 A 
ATOM     46  C   UNL A   1      44.807  25.307  27.107  1.00  0.00     0.049 A 
ATOM     47  N   UNL A   1      42.919  27.364  28.231  1.00  0.00    -0.248 NA
ATOM     48  C   UNL A   1      41.248  25.734  28.268  1.00  0.00     0.031 C 
ATOM     49  C   UNL A   1      45.755  24.360  26.515  1.00  0.00     0.029 A 
ATOM     50  N   UNL A   1      45.539  26.460  27.252  1.00  0.00    -0.354 N 
ATOM     51  C   UNL A   1      41.742  27.928  28.712  1.00  0.00     0.074 A 
ATOM     52  C   UNL A   1      40.732  26.890  28.659  1.00  0.00     0.031 C 
ATOM     53  C   UNL A   1      46.942  24.966  26.358  1.00  0.00     0.029 A 
ATOM     54  C   UNL A   1      46.832  26.354  26.792  1.00  0.00     0.049 A 
ATOM     55  H   UNL A   1      45.174  27.283  27.650  1.00  0.00     0.167 HD
ATOM     56  C   UNL A   1      41.529  29.188  29.169  1.00  0.00     0.034 A 
ATOM     57  C   UNL A   1      47.812  27.275  26.708  1.00  0.00     0.034 A 
ATOM     58  C   UNL A   1      42.548  30.210  29.222  1.00  0.00     0.049 A 
ATOM     59  C   UNL A   1      47.542  28.677  27.189  1.00  0.00     0.074 A 
ATOM     60  C   UNL A   1      42.456  31.495  29.730  1.00  0.00     0.029 A 
ATOM     61  N   UNL A   1      43.844  30.069  28.740  1.00  0.00    -0.354 N 
ATOM     62  N   UNL A   1      46.437  29.180  27.689  1.00  0.00    -0.248 NA
ATOM     63  C   UNL A   1      48.654  29.632  27.100  1.00  0.00     0.031 C 
ATOM     64  C   UNL A   1      43.670  32.151  29.495  1.00  0.00     0.029 A 
ATOM     65  C   UNL A   1      44.546  31.255  28.903  1.00  0.00     0.049 A 
ATOM     66  H   UNL A   1      44.210  29.248  28.339  1.00  0.00     0.167 HD
ATOM     67  C   UNL A   1      46.730  30.507  27.991  1.00  0.00     0.074 A 
ATOM     68  C   UNL A   1      48.118  30.719  27.635  1.00  0.00     0.031 C 
ATOM     69  C   UNL A   1      45.923  31.463  28.520  1.00  0.00     0.034 A 
BRANCH  56  70
ATOM     70  C   UNL A   1      40.129  29.536  29.618  1.00  0.00     0.023 A 
ATOM     71  C   UNL A   1      39.782  29.590  30.980  1.00  0.00     0.031 A 
ATOM     72  C   UNL A   1      39.123  29.799  28.672  1.00  0.00     0.131 A 
ATOM     73  C   UNL A   1      38.450  29.822  31.354  1.00  0.00     0.055 A 
ATOM     74  C   UNL A   1      37.816  30.108  29.053  1.00  0.00     0.041 A 
ATOM     75  F   UNL A   1      39.389  29.745  27.357  1.00  0.00    -0.206 F 
ATOM     76  C   UNL A   1      37.468  30.106  30.401  1.00  0.00     0.022 A 
BRANCH  73  77
ATOM     77  S   UNL A   1      37.989  29.609  33.095  1.00  0.00     0.124 S 
ATOM     78  O   UNL A   1      37.128  30.770  33.315  1.00  0.00    -0.237 OA
ATOM     79  O   UNL A   1      37.323  28.312  33.090  1.00  0.00    -0.237 OA
ATOM     80  O   UNL A   1      39.270  29.652  33.797  1.00  0.00    -0.744 OA
ENDBRANCH  73  77
ENDBRANCH  56  70
BRANCH  57  81
ATOM     81  C   UNL A   1      49.133  26.916  26.119  1.00  0.00     0.023 A 
ATOM     82  C   UNL A   1      49.509  27.378  24.849  1.00  0.00     0.031 A 
ATOM     83  C   UNL A   1      50.026  26.076  26.807  1.00  0.00     0.131 A 
ATOM     84  C   UNL A   1      50.727  26.966  24.287  1.00  0.00     0.055 A 
ATOM     85  C   UNL A   1      51.258  25.706  26.265  1.00  0.00     0.041 A 
ATOM     86  F   UNL A   1      49.716  25.611  28.029  1.00  0.00    -0.206 F 
ATOM     87  C   UNL A   1      51.609  26.142  24.991  1.00  0.00     0.022 A 
BRANCH  84  88
ATOM     88  S   UNL A   1      51.113  27.463  22.586  1.00  0.00     0.124 S 
ATOM     89  O   UNL A   1      50.862  28.900  22.632  1.00  0.00    -0.237 OA
ATOM     90  O   UNL A   1      52.510  27.059  22.463  1.00  0.00    -0.237 OA
ATOM     91  O   UNL A   1      50.170  26.689  21.782  1.00  0.00    -0.744 OA
ENDBRANCH  84  88
ENDBRANCH  57  81
BRANCH  69  92
ATOM     92  C   UNL A   1      46.543  32.816  28.765  1.00  0.00     0.023 A 
ATOM     93  C   UNL A   1      46.519  33.826  27.786  1.00  0.00     0.031 A 
ATOM     94  C   UNL A   1      47.186  33.091  29.983  1.00  0.00     0.131 A 
ATOM     95  C   UNL A   1      47.174  35.044  28.023  1.00  0.00     0.055 A 
ATOM     96  C   UNL A   1      47.788  34.325  30.235  1.00  0.00     0.041 A 
ATOM     97  F   UNL A   1      47.242  32.162  30.951  1.00  0.00    -0.206 F 
ATOM     98  C   UNL A   1      47.795  35.306  29.247  1.00  0.00     0.022 A 
BRANCH  95  99
ATOM     99  S   UNL A   1      47.279  36.254  26.675  1.00  0.00     0.124 S 
ATOM    100  O   UNL A   1      48.425  37.061  27.080  1.00  0.00    -0.237 OA
ATOM    101  O   UNL A   1      47.478  35.403  25.506  1.00  0.00    -0.237 OA
ATOM    102  O   UNL A   1      45.989  36.939  26.728  1.00  0.00    -0.744 OA
ENDBRANCH  95  99
ENDBRANCH  69  92
ENDBRANCH  43  44
ENDBRANCH  35  38
ENDBRANCH  33  34
ENDBRANCH  32  33
ENDBRANCH  31  32
ENDBRANCH   1  31
TORSDOF 22
ENDMDL
