MODEL 1
REMARK VINA RESULT:     -11.8      0.000      0.000
REMARK SMILES CCc1cc(N2CCC(O)(C(=O)NCCCCCCNC(=O)c3ccc(-c4c5nc(c(-c6cc(S(=O)(=O)[O-])ccc6F)c6ccc([nH]6)c(-c6cc(S(=O)(=O)[O-])ccc6F)c6nc(c(-c7cc(S(=O)(=O)[O-])ccc7F)c7ccc4[nH]7)C=C6)C=C5)cc3)CC2)nc(N2CCOCC2)n1
REMARK SMILES IDX 17 1 16 2 15 3 14 4 13 5 11 6 12 7 9 9 6 10 7 11 87 12 8 13
REMARK SMILES IDX 86 14 5 15 3 16 4 17 96 18 89 19 88 20 2 21 1 22 90 23 91 24
REMARK SMILES IDX 95 25 92 26 94 27 93 28 10 29 18 31 19 32 20 33 21 34 22 36
REMARK SMILES IDX 23 37 24 38 85 39 25 40 84 41 26 42 27 43 28 44 78 45 29 46
REMARK SMILES IDX 83 47 77 48 79 49 30 50 82 51 76 52 75 53 31 55 63 56 43 57
REMARK SMILES IDX 62 58 44 59 47 60 61 61 80 62 45 63 46 64 60 66 81 67 48 68
REMARK SMILES IDX 32 69 33 70 41 71 34 72 40 73 42 74 39 75 35 76 36 77 37 78
REMARK SMILES IDX 38 79 64 80 65 81 73 82 66 83 72 84 74 85 71 86 67 87 68 88
REMARK SMILES IDX 69 89 70 90 49 91 50 92 58 93 51 94 57 95 59 96 56 97 52 98
REMARK SMILES IDX 53 99 54 100 55 101
REMARK H PARENT 13 8 10 30 20 35 79 54 47 65
REMARK Flexibility Score: inf
ROOT
ATOM      1  C   UNL A   1      33.353  29.233  23.965  1.00  0.00     0.002 C 
ENDROOT
BRANCH   1   2
ATOM      2  C   UNL A   1      32.458  28.764  22.814  1.00  0.00     0.002 C 
BRANCH   2   3
ATOM      3  C   UNL A   1      30.956  28.968  23.050  1.00  0.00     0.021 C 
BRANCH   3   4
ATOM      4  C   UNL A   1      30.258  27.736  23.628  1.00  0.00     0.116 C 
BRANCH   4   5
ATOM      5  N   UNL A   1      30.685  27.518  24.996  1.00  0.00    -0.354 N 
ATOM      6  C   UNL A   1      30.923  26.354  25.669  1.00  0.00     0.252 C 
ATOM      7  O   UNL A   1      31.207  26.453  26.866  1.00  0.00    -0.272 OA
ATOM      8  H   UNL A   1      30.826  28.338  25.522  1.00  0.00     0.163 HD
BRANCH   6   9
ATOM      9  C   UNL A   1      30.845  24.984  24.939  1.00  0.00     0.146 C 
ATOM     10  N   UNL A   1      31.998  22.453  24.260  1.00  0.00    -0.356 N 
ATOM     11  C   UNL A   1      30.898  22.476  25.203  1.00  0.00     0.121 C 
ATOM     12  C   UNL A   1      32.157  23.531  23.300  1.00  0.00     0.121 C 
ATOM     13  C   UNL A   1      30.890  23.813  25.931  1.00  0.00     0.067 C 
ATOM     14  C   UNL A   1      32.046  24.888  23.976  1.00  0.00     0.067 C 
BRANCH  10  15
ATOM     15  C   UNL A   1      33.044  21.579  24.472  1.00  0.00     0.134 A 
ATOM     16  C   UNL A   1      35.254  21.181  25.172  1.00  0.00     0.048 A 
ATOM     17  C   UNL A   1      34.276  22.084  24.824  1.00  0.00     0.071 A 
ATOM     18  N   UNL A   1      35.040  19.852  25.117  1.00  0.00    -0.218 NA
ATOM     19  C   UNL A   1      33.847  19.438  24.664  1.00  0.00     0.227 A 
ATOM     20  N   UNL A   1      32.833  20.262  24.365  1.00  0.00    -0.196 NA
BRANCH  16  21
ATOM     21  C   UNL A   1      36.623  21.647  25.595  1.00  0.00     0.053 C 
ATOM     22  C   UNL A   1      37.427  22.291  24.471  1.00  0.00     0.011 C 
ENDBRANCH  16  21
BRANCH  19  23
ATOM     23  N   UNL A   1      33.652  18.100  24.495  1.00  0.00    -0.336 N 
ATOM     24  C   UNL A   1      32.372  17.486  24.796  1.00  0.00     0.148 C 
ATOM     25  C   UNL A   1      34.727  17.243  24.042  1.00  0.00     0.148 C 
ATOM     26  C   UNL A   1      32.581  16.259  25.694  1.00  0.00     0.181 C 
ATOM     27  C   UNL A   1      34.839  16.058  25.019  1.00  0.00     0.181 C 
ATOM     28  O   UNL A   1      33.581  15.367  25.160  1.00  0.00    -0.378 OA
ENDBRANCH  19  23
ENDBRANCH  10  15
BRANCH   9  29
ATOM     29  O   UNL A   1      29.617  24.955  24.196  1.00  0.00    -0.380 OA
ATOM     30  H   UNL A   1      29.652  24.241  23.541  1.00  0.00     0.212 HD
ENDBRANCH   9  29
ENDBRANCH   6   9
ENDBRANCH   4   5
ENDBRANCH   3   4
ENDBRANCH   2   3
ENDBRANCH   1   2
BRANCH   1  31
ATOM     31  C   UNL A   1      33.983  28.103  24.784  1.00  0.00     0.021 C 
BRANCH  31  32
ATOM     32  C   UNL A   1      34.177  28.436  26.259  1.00  0.00     0.116 C 
BRANCH  32  33
ATOM     33  N   UNL A   1      33.878  29.832  26.539  1.00  0.00    -0.352 N 
ATOM     34  C   UNL A   1      34.486  30.685  27.425  1.00  0.00     0.251 C 
ATOM     35  H   UNL A   1      33.135  30.218  26.020  1.00  0.00     0.163 HD
ATOM     36  O   UNL A   1      33.955  31.757  27.706  1.00  0.00    -0.269 OA
BRANCH  34  37
ATOM     37  C   UNL A   1      35.767  30.295  28.050  1.00  0.00     0.039 A 
ATOM     38  C   UNL A   1      35.752  29.675  29.301  1.00  0.00     0.014 A 
ATOM     39  C   UNL A   1      36.978  30.529  27.393  1.00  0.00     0.014 A 
ATOM     40  C   UNL A   1      36.949  29.229  29.863  1.00  0.00     0.010 A 
ATOM     41  C   UNL A   1      38.160  30.017  27.919  1.00  0.00     0.010 A 
ATOM     42  C   UNL A   1      38.158  29.358  29.158  1.00  0.00    -0.014 A 
BRANCH  42  43
ATOM     43  C   UNL A   1      39.428  28.802  29.695  1.00  0.00     0.031 A 
ATOM     44  C   UNL A   1      40.125  29.481  30.841  1.00  0.00     0.074 A 
ATOM     45  C   UNL A   1      39.985  27.726  29.104  1.00  0.00     0.049 A 
ATOM     46  N   UNL A   1      41.280  29.205  31.388  1.00  0.00    -0.248 NA
ATOM     47  C   UNL A   1      39.443  30.643  31.432  1.00  0.00     0.031 C 
ATOM     48  C   UNL A   1      39.419  27.000  27.964  1.00  0.00     0.029 A 
ATOM     49  N   UNL A   1      41.155  27.059  29.370  1.00  0.00    -0.354 N 
ATOM     50  C   UNL A   1      41.471  30.162  32.379  1.00  0.00     0.074 A 
ATOM     51  C   UNL A   1      40.339  31.063  32.313  1.00  0.00     0.031 C 
ATOM     52  C   UNL A   1      40.228  25.979  27.646  1.00  0.00     0.029 A 
ATOM     53  C   UNL A   1      41.399  26.006  28.517  1.00  0.00     0.049 A 
ATOM     54  H   UNL A   1      41.763  27.310  30.102  1.00  0.00     0.167 HD
ATOM     55  C   UNL A   1      42.486  30.266  33.273  1.00  0.00     0.034 A 
ATOM     56  C   UNL A   1      42.454  25.171  28.430  1.00  0.00     0.034 A 
ATOM     57  C   UNL A   1      43.603  29.354  33.326  1.00  0.00     0.049 A 
ATOM     58  C   UNL A   1      43.595  25.339  29.404  1.00  0.00     0.074 A 
ATOM     59  C   UNL A   1      44.655  29.335  34.225  1.00  0.00     0.029 A 
ATOM     60  N   UNL A   1      43.823  28.310  32.436  1.00  0.00    -0.354 N 
ATOM     61  N   UNL A   1      43.735  26.218  30.369  1.00  0.00    -0.248 NA
ATOM     62  C   UNL A   1      44.715  24.397  29.281  1.00  0.00     0.031 C 
ATOM     63  C   UNL A   1      45.551  28.337  33.830  1.00  0.00     0.029 A 
ATOM     64  C   UNL A   1      45.015  27.669  32.740  1.00  0.00     0.049 A 
ATOM     65  H   UNL A   1      43.221  28.061  31.699  1.00  0.00     0.167 HD
ATOM     66  C   UNL A   1      44.945  25.915  30.987  1.00  0.00     0.074 A 
ATOM     67  C   UNL A   1      45.485  24.762  30.295  1.00  0.00     0.031 C 
ATOM     68  C   UNL A   1      45.552  26.529  32.035  1.00  0.00     0.034 A 
BRANCH  55  69
ATOM     69  C   UNL A   1      42.446  31.425  34.242  1.00  0.00     0.023 A 
ATOM     70  C   UNL A   1      41.586  31.430  35.355  1.00  0.00     0.031 A 
ATOM     71  C   UNL A   1      43.267  32.549  34.043  1.00  0.00     0.131 A 
ATOM     72  C   UNL A   1      41.512  32.565  36.178  1.00  0.00     0.055 A 
ATOM     73  C   UNL A   1      43.252  33.638  34.916  1.00  0.00     0.041 A 
ATOM     74  F   UNL A   1      44.092  32.613  32.986  1.00  0.00    -0.206 F 
ATOM     75  C   UNL A   1      42.359  33.657  35.983  1.00  0.00     0.022 A 
BRANCH  72  76
ATOM     76  S   UNL A   1      40.186  32.652  37.413  1.00  0.00     0.124 S 
ATOM     77  O   UNL A   1      39.300  31.578  36.969  1.00  0.00    -0.237 OA
ATOM     78  O   UNL A   1      40.901  32.415  38.661  1.00  0.00    -0.237 OA
ATOM     79  O   UNL A   1      39.650  34.000  37.245  1.00  0.00    -0.744 OA
ENDBRANCH  72  76
ENDBRANCH  55  69
BRANCH  56  80
ATOM     80  C   UNL A   1      42.501  24.120  27.374  1.00  0.00     0.023 A 
ATOM     81  C   UNL A   1      41.799  22.913  27.521  1.00  0.00     0.031 A 
ATOM     82  C   UNL A   1      43.288  24.285  26.219  1.00  0.00     0.131 A 
ATOM     83  C   UNL A   1      41.936  21.900  26.557  1.00  0.00     0.055 A 
ATOM     84  C   UNL A   1      43.372  23.300  25.233  1.00  0.00     0.041 A 
ATOM     85  F   UNL A   1      43.981  25.419  26.027  1.00  0.00    -0.206 F 
ATOM     86  C   UNL A   1      42.704  22.093  25.408  1.00  0.00     0.022 A 
BRANCH  83  87
ATOM     87  S   UNL A   1      41.173  20.287  26.880  1.00  0.00     0.124 S 
ATOM     88  O   UNL A   1      40.002  20.335  26.012  1.00  0.00    -0.237 OA
ATOM     89  O   UNL A   1      42.231  19.366  26.482  1.00  0.00    -0.237 OA
ATOM     90  O   UNL A   1      40.890  20.326  28.313  1.00  0.00    -0.744 OA
ENDBRANCH  83  87
ENDBRANCH  56  80
BRANCH  68  91
ATOM     91  C   UNL A   1      46.851  25.935  32.525  1.00  0.00     0.023 A 
ATOM     92  C   UNL A   1      46.887  24.955  33.531  1.00  0.00     0.031 A 
ATOM     93  C   UNL A   1      48.073  26.358  31.971  1.00  0.00     0.131 A 
ATOM     94  C   UNL A   1      48.120  24.466  33.988  1.00  0.00     0.055 A 
ATOM     95  C   UNL A   1      49.293  25.820  32.383  1.00  0.00     0.041 A 
ATOM     96  F   UNL A   1      48.101  27.296  31.010  1.00  0.00    -0.206 F 
ATOM     97  C   UNL A   1      49.322  24.878  33.406  1.00  0.00     0.022 A 
BRANCH  94  98
ATOM     98  S   UNL A   1      48.141  23.350  35.418  1.00  0.00     0.124 S 
ATOM     99  O   UNL A   1      48.035  24.285  36.534  1.00  0.00    -0.237 OA
ATOM    100  O   UNL A   1      46.971  22.512  35.177  1.00  0.00    -0.237 OA
ATOM    101  O   UNL A   1      49.427  22.667  35.301  1.00  0.00    -0.744 OA
ENDBRANCH  94  98
ENDBRANCH  68  91
ENDBRANCH  42  43
ENDBRANCH  34  37
ENDBRANCH  32  33
ENDBRANCH  31  32
ENDBRANCH   1  31
TORSDOF 20
ENDMDL
MODEL 2
REMARK VINA RESULT:     -11.8      3.135      8.217
REMARK SMILES CCc1cc(N2CCC(O)(C(=O)NCCCCCCNC(=O)c3ccc(-c4c5nc(c(-c6cc(S(=O)(=O)[O-])ccc6F)c6ccc([nH]6)c(-c6cc(S(=O)(=O)[O-])ccc6F)c6nc(c(-c7cc(S(=O)(=O)[O-])ccc7F)c7ccc4[nH]7)C=C6)C=C5)cc3)CC2)nc(N2CCOCC2)n1
REMARK SMILES IDX 17 1 16 2 15 3 14 4 13 5 11 6 12 7 9 9 6 10 7 11 87 12 8 13
REMARK SMILES IDX 86 14 5 15 3 16 4 17 96 18 89 19 88 20 2 21 1 22 90 23 91 24
REMARK SMILES IDX 95 25 92 26 94 27 93 28 10 29 18 31 19 32 20 33 21 34 22 36
REMARK SMILES IDX 23 37 24 38 85 39 25 40 84 41 26 42 27 43 28 44 78 45 29 46
REMARK SMILES IDX 83 47 77 48 79 49 30 50 82 51 76 52 75 53 31 55 63 56 43 57
REMARK SMILES IDX 62 58 44 59 47 60 61 61 80 62 45 63 46 64 60 66 81 67 48 68
REMARK SMILES IDX 32 69 33 70 41 71 34 72 40 73 42 74 39 75 35 76 36 77 37 78
REMARK SMILES IDX 38 79 64 80 65 81 73 82 66 83 72 84 74 85 71 86 67 87 68 88
REMARK SMILES IDX 69 89 70 90 49 91 50 92 58 93 51 94 57 95 59 96 56 97 52 98
REMARK SMILES IDX 53 99 54 100 55 101
REMARK H PARENT 13 8 10 30 20 35 79 54 47 65
REMARK Flexibility Score: inf
ROOT
ATOM      1  C   UNL A   1      34.726  30.287  27.787  1.00  0.00     0.002 C 
ENDROOT
BRANCH   1   2
ATOM      2  C   UNL A   1      34.523  28.886  27.203  1.00  0.00     0.002 C 
BRANCH   2   3
ATOM      3  C   UNL A   1      33.078  28.376  27.256  1.00  0.00     0.021 C 
BRANCH   3   4
ATOM      4  C   UNL A   1      32.589  27.789  25.932  1.00  0.00     0.116 C 
BRANCH   4   5
ATOM      5  N   UNL A   1      31.697  28.722  25.272  1.00  0.00    -0.354 N 
ATOM      6  C   UNL A   1      31.160  28.688  24.018  1.00  0.00     0.252 C 
ATOM      7  O   UNL A   1      30.483  29.662  23.677  1.00  0.00    -0.272 OA
ATOM      8  H   UNL A   1      31.437  29.501  25.814  1.00  0.00     0.163 HD
BRANCH   6   9
ATOM      9  C   UNL A   1      31.394  27.467  23.085  1.00  0.00     0.146 C 
ATOM     10  N   UNL A   1      32.601  24.924  22.563  1.00  0.00    -0.356 N 
ATOM     11  C   UNL A   1      31.178  24.966  22.830  1.00  0.00     0.121 C 
ATOM     12  C   UNL A   1      33.280  26.097  22.044  1.00  0.00     0.121 C 
ATOM     13  C   UNL A   1      30.869  26.167  23.713  1.00  0.00     0.067 C 
ATOM     14  C   UNL A   1      32.911  27.341  22.836  1.00  0.00     0.067 C 
BRANCH  10  15
ATOM     15  C   UNL A   1      33.348  23.885  23.079  1.00  0.00     0.134 A 
ATOM     16  C   UNL A   1      35.358  23.087  24.004  1.00  0.00     0.048 A 
ATOM     17  C   UNL A   1      34.682  24.093  23.355  1.00  0.00     0.071 A 
ATOM     18  N   UNL A   1      34.761  21.919  24.311  1.00  0.00    -0.218 NA
ATOM     19  C   UNL A   1      33.490  21.753  23.916  1.00  0.00     0.227 A 
ATOM     20  N   UNL A   1      32.757  22.712  23.332  1.00  0.00    -0.196 NA
BRANCH  16  21
ATOM     21  C   UNL A   1      36.812  23.240  24.368  1.00  0.00     0.053 C 
ATOM     22  C   UNL A   1      37.053  23.462  25.857  1.00  0.00     0.011 C 
ENDBRANCH  16  21
BRANCH  19  23
ATOM     23  N   UNL A   1      32.907  20.538  24.116  1.00  0.00    -0.336 N 
ATOM     24  C   UNL A   1      33.160  19.777  25.326  1.00  0.00     0.148 C 
ATOM     25  C   UNL A   1      32.043  19.952  23.114  1.00  0.00     0.148 C 
ATOM     26  C   UNL A   1      33.551  18.337  24.965  1.00  0.00     0.181 C 
ATOM     27  C   UNL A   1      32.535  18.519  22.835  1.00  0.00     0.181 C 
ATOM     28  O   UNL A   1      32.611  17.741  24.047  1.00  0.00    -0.378 OA
ENDBRANCH  19  23
ENDBRANCH  10  15
BRANCH   9  29
ATOM     29  O   UNL A   1      30.714  27.727  21.847  1.00  0.00    -0.380 OA
ATOM     30  H   UNL A   1      31.252  27.405  21.108  1.00  0.00     0.212 HD
ENDBRANCH   9  29
ENDBRANCH   6   9
ENDBRANCH   4   5
ENDBRANCH   3   4
ENDBRANCH   2   3
ENDBRANCH   1   2
BRANCH   1  31
ATOM     31  C   UNL A   1      34.011  31.406  27.023  1.00  0.00     0.021 C 
BRANCH  31  32
ATOM     32  C   UNL A   1      32.705  31.861  27.664  1.00  0.00     0.116 C 
BRANCH  32  33
ATOM     33  N   UNL A   1      32.594  33.311  27.686  1.00  0.00    -0.352 N 
ATOM     34  C   UNL A   1      33.261  34.217  28.472  1.00  0.00     0.251 C 
ATOM     35  H   UNL A   1      31.951  33.696  27.047  1.00  0.00     0.163 HD
ATOM     36  O   UNL A   1      32.874  35.382  28.527  1.00  0.00    -0.269 OA
BRANCH  34  37
ATOM     37  C   UNL A   1      34.428  33.775  29.263  1.00  0.00     0.039 A 
ATOM     38  C   UNL A   1      34.223  32.970  30.386  1.00  0.00     0.014 A 
ATOM     39  C   UNL A   1      35.723  34.144  28.887  1.00  0.00     0.014 A 
ATOM     40  C   UNL A   1      35.323  32.480  31.092  1.00  0.00     0.010 A 
ATOM     41  C   UNL A   1      36.817  33.593  29.546  1.00  0.00     0.010 A 
ATOM     42  C   UNL A   1      36.629  32.753  30.654  1.00  0.00    -0.014 A 
BRANCH  42  43
ATOM     43  C   UNL A   1      37.812  32.160  31.333  1.00  0.00     0.031 A 
ATOM     44  C   UNL A   1      38.558  31.022  30.693  1.00  0.00     0.074 A 
ATOM     45  C   UNL A   1      38.168  32.603  32.555  1.00  0.00     0.049 A 
ATOM     46  N   UNL A   1      39.551  30.315  31.165  1.00  0.00    -0.248 NA
ATOM     47  C   UNL A   1      38.107  30.607  29.356  1.00  0.00     0.031 C 
ATOM     48  C   UNL A   1      37.501  33.680  33.291  1.00  0.00     0.029 A 
ATOM     49  N   UNL A   1      39.171  32.199  33.401  1.00  0.00    -0.354 N 
ATOM     50  C   UNL A   1      39.840  29.366  30.191  1.00  0.00     0.074 A 
ATOM     51  C   UNL A   1      38.872  29.550  29.129  1.00  0.00     0.031 C 
ATOM     52  C   UNL A   1      38.127  33.866  34.463  1.00  0.00     0.029 A 
ATOM     53  C   UNL A   1      39.202  32.887  34.593  1.00  0.00     0.049 A 
ATOM     54  H   UNL A   1      39.809  31.484  33.177  1.00  0.00     0.167 HD
ATOM     55  C   UNL A   1      40.831  28.440  30.175  1.00  0.00     0.034 A 
ATOM     56  C   UNL A   1      39.990  32.735  35.676  1.00  0.00     0.034 A 
ATOM     57  C   UNL A   1      41.789  28.276  31.242  1.00  0.00     0.049 A 
ATOM     58  C   UNL A   1      41.054  31.665  35.655  1.00  0.00     0.074 A 
ATOM     59  C   UNL A   1      42.866  27.409  31.304  1.00  0.00     0.029 A 
ATOM     60  N   UNL A   1      41.779  28.980  32.439  1.00  0.00    -0.354 N 
ATOM     61  N   UNL A   1      41.346  30.808  34.704  1.00  0.00    -0.248 NA
ATOM     62  C   UNL A   1      41.898  31.546  36.852  1.00  0.00     0.031 C 
ATOM     63  C   UNL A   1      43.454  27.529  32.567  1.00  0.00     0.029 A 
ATOM     64  C   UNL A   1      42.804  28.537  33.262  1.00  0.00     0.049 A 
ATOM     65  H   UNL A   1      41.138  29.690  32.670  1.00  0.00     0.167 HD
ATOM     66  C   UNL A   1      42.428  30.071  35.176  1.00  0.00     0.074 A 
ATOM     67  C   UNL A   1      42.745  30.594  36.489  1.00  0.00     0.031 C 
ATOM     68  C   UNL A   1      43.102  29.057  34.576  1.00  0.00     0.034 A 
BRANCH  55  69
ATOM     69  C   UNL A   1      40.906  27.517  28.981  1.00  0.00     0.023 A 
ATOM     70  C   UNL A   1      41.862  27.696  27.966  1.00  0.00     0.031 A 
ATOM     71  C   UNL A   1      39.998  26.452  28.846  1.00  0.00     0.131 A 
ATOM     72  C   UNL A   1      41.839  26.874  26.829  1.00  0.00     0.055 A 
ATOM     73  C   UNL A   1      40.036  25.583  27.755  1.00  0.00     0.041 A 
ATOM     74  F   UNL A   1      39.047  26.243  29.771  1.00  0.00    -0.206 F 
ATOM     75  C   UNL A   1      40.951  25.801  26.729  1.00  0.00     0.022 A 
BRANCH  72  76
ATOM     76  S   UNL A   1      42.885  27.323  25.416  1.00  0.00     0.124 S 
ATOM     77  O   UNL A   1      44.121  27.730  26.082  1.00  0.00    -0.237 OA
ATOM     78  O   UNL A   1      42.946  26.077  24.661  1.00  0.00    -0.237 OA
ATOM     79  O   UNL A   1      42.146  28.407  24.774  1.00  0.00    -0.744 OA
ENDBRANCH  72  76
ENDBRANCH  55  69
BRANCH  56  80
ATOM     80  C   UNL A   1      39.794  33.592  36.881  1.00  0.00     0.023 A 
ATOM     81  C   UNL A   1      39.236  33.071  38.059  1.00  0.00     0.031 A 
ATOM     82  C   UNL A   1      40.119  34.960  36.858  1.00  0.00     0.131 A 
ATOM     83  C   UNL A   1      38.973  33.920  39.146  1.00  0.00     0.055 A 
ATOM     84  C   UNL A   1      39.914  35.789  37.963  1.00  0.00     0.041 A 
ATOM     85  F   UNL A   1      40.655  35.513  35.758  1.00  0.00    -0.206 F 
ATOM     86  C   UNL A   1      39.324  35.271  39.112  1.00  0.00     0.022 A 
BRANCH  83  87
ATOM     87  S   UNL A   1      38.074  33.252  40.572  1.00  0.00     0.124 S 
ATOM     88  O   UNL A   1      36.719  33.145  40.044  1.00  0.00    -0.237 OA
ATOM     89  O   UNL A   1      38.773  31.993  40.809  1.00  0.00    -0.237 OA
ATOM     90  O   UNL A   1      38.265  34.271  41.602  1.00  0.00    -0.744 OA
ENDBRANCH  83  87
ENDBRANCH  56  80
BRANCH  68  91
ATOM     91  C   UNL A   1      44.281  28.476  35.320  1.00  0.00     0.023 A 
ATOM     92  C   UNL A   1      44.130  27.446  36.264  1.00  0.00     0.031 A 
ATOM     93  C   UNL A   1      45.579  28.962  35.076  1.00  0.00     0.131 A 
ATOM     94  C   UNL A   1      45.248  26.970  36.966  1.00  0.00     0.055 A 
ATOM     95  C   UNL A   1      46.695  28.439  35.729  1.00  0.00     0.041 A 
ATOM     96  F   UNL A   1      45.784  29.950  34.189  1.00  0.00    -0.206 F 
ATOM     97  C   UNL A   1      46.532  27.447  36.689  1.00  0.00     0.022 A 
BRANCH  94  98
ATOM     98  S   UNL A   1      44.991  25.782  38.312  1.00  0.00     0.124 S 
ATOM     99  O   UNL A   1      44.176  26.553  39.245  1.00  0.00    -0.237 OA
ATOM    100  O   UNL A   1      44.314  24.682  37.634  1.00  0.00    -0.237 OA
ATOM    101  O   UNL A   1      46.347  25.486  38.771  1.00  0.00    -0.744 OA
ENDBRANCH  94  98
ENDBRANCH  68  91
ENDBRANCH  42  43
ENDBRANCH  34  37
ENDBRANCH  32  33
ENDBRANCH  31  32
ENDBRANCH   1  31
TORSDOF 20
ENDMDL
MODEL 3
REMARK VINA RESULT:     -11.7      2.044      7.437
REMARK SMILES CCc1cc(N2CCC(O)(C(=O)NCCCCCCNC(=O)c3ccc(-c4c5nc(c(-c6cc(S(=O)(=O)[O-])ccc6F)c6ccc([nH]6)c(-c6cc(S(=O)(=O)[O-])ccc6F)c6nc(c(-c7cc(S(=O)(=O)[O-])ccc7F)c7ccc4[nH]7)C=C6)C=C5)cc3)CC2)nc(N2CCOCC2)n1
REMARK SMILES IDX 17 1 16 2 15 3 14 4 13 5 11 6 12 7 9 9 6 10 7 11 87 12 8 13
REMARK SMILES IDX 86 14 5 15 3 16 4 17 96 18 89 19 88 20 2 21 1 22 90 23 91 24
REMARK SMILES IDX 95 25 92 26 94 27 93 28 10 29 18 31 19 32 20 33 21 34 22 36
REMARK SMILES IDX 23 37 24 38 85 39 25 40 84 41 26 42 27 43 28 44 78 45 29 46
REMARK SMILES IDX 83 47 77 48 79 49 30 50 82 51 76 52 75 53 31 55 63 56 43 57
REMARK SMILES IDX 62 58 44 59 47 60 61 61 80 62 45 63 46 64 60 66 81 67 48 68
REMARK SMILES IDX 32 69 33 70 41 71 34 72 40 73 42 74 39 75 35 76 36 77 37 78
REMARK SMILES IDX 38 79 64 80 65 81 73 82 66 83 72 84 74 85 71 86 67 87 68 88
REMARK SMILES IDX 69 89 70 90 49 91 50 92 58 93 51 94 57 95 59 96 56 97 52 98
REMARK SMILES IDX 53 99 54 100 55 101
REMARK H PARENT 13 8 10 30 20 35 79 54 47 65
REMARK Flexibility Score: inf
ROOT
ATOM      1  C   UNL A   1      33.220  28.945  22.808  1.00  0.00     0.002 C 
ENDROOT
BRANCH   1   2
ATOM      2  C   UNL A   1      31.700  29.127  22.731  1.00  0.00     0.002 C 
BRANCH   2   3
ATOM      3  C   UNL A   1      30.910  27.824  22.559  1.00  0.00     0.021 C 
BRANCH   3   4
ATOM      4  C   UNL A   1      29.962  27.528  23.721  1.00  0.00     0.116 C 
BRANCH   4   5
ATOM      5  N   UNL A   1      30.650  27.710  24.984  1.00  0.00    -0.354 N 
ATOM      6  C   UNL A   1      30.925  26.810  25.973  1.00  0.00     0.252 C 
ATOM      7  O   UNL A   1      31.465  27.251  26.991  1.00  0.00    -0.272 OA
ATOM      8  H   UNL A   1      30.971  28.624  25.154  1.00  0.00     0.163 HD
BRANCH   6   9
ATOM      9  C   UNL A   1      30.575  25.305  25.799  1.00  0.00     0.146 C 
ATOM     10  N   UNL A   1      31.374  22.604  25.289  1.00  0.00    -0.356 N 
ATOM     11  C   UNL A   1      30.981  22.960  26.637  1.00  0.00     0.121 C 
ATOM     12  C   UNL A   1      30.884  23.373  24.159  1.00  0.00     0.121 C 
ATOM     13  C   UNL A   1      31.261  24.439  26.866  1.00  0.00     0.067 C 
ATOM     14  C   UNL A   1      31.048  24.865  24.398  1.00  0.00     0.067 C 
BRANCH  10  15
ATOM     15  C   UNL A   1      32.435  21.739  25.107  1.00  0.00     0.134 A 
ATOM     16  C   UNL A   1      34.751  21.331  25.107  1.00  0.00     0.048 A 
ATOM     17  C   UNL A   1      33.718  22.239  25.143  1.00  0.00     0.071 A 
ATOM     18  N   UNL A   1      34.525  20.009  24.985  1.00  0.00    -0.218 NA
ATOM     19  C   UNL A   1      33.250  19.610  24.850  1.00  0.00     0.227 A 
ATOM     20  N   UNL A   1      32.196  20.434  24.935  1.00  0.00    -0.196 NA
BRANCH  16  21
ATOM     21  C   UNL A   1      36.185  21.788  25.168  1.00  0.00     0.053 C 
ATOM     22  C   UNL A   1      36.725  22.297  23.836  1.00  0.00     0.011 C 
ENDBRANCH  16  21
BRANCH  19  23
ATOM     23  N   UNL A   1      33.011  18.291  24.612  1.00  0.00    -0.336 N 
ATOM     24  C   UNL A   1      32.782  17.362  25.703  1.00  0.00     0.148 C 
ATOM     25  C   UNL A   1      33.011  17.765  23.263  1.00  0.00     0.148 C 
ATOM     26  C   UNL A   1      33.683  16.130  25.539  1.00  0.00     0.181 C 
ATOM     27  C   UNL A   1      33.947  16.543  23.224  1.00  0.00     0.181 C 
ATOM     28  O   UNL A   1      33.579  15.564  24.216  1.00  0.00    -0.378 OA
ENDBRANCH  19  23
ENDBRANCH  10  15
BRANCH   9  29
ATOM     29  O   UNL A   1      29.148  25.174  25.898  1.00  0.00    -0.380 OA
ATOM     30  H   UNL A   1      28.729  26.012  25.650  1.00  0.00     0.212 HD
ENDBRANCH   9  29
ENDBRANCH   6   9
ENDBRANCH   4   5
ENDBRANCH   3   4
ENDBRANCH   2   3
ENDBRANCH   1   2
BRANCH   1  31
ATOM     31  C   UNL A   1      33.690  27.966  23.887  1.00  0.00     0.021 C 
BRANCH  31  32
ATOM     32  C   UNL A   1      34.162  28.636  25.173  1.00  0.00     0.116 C 
BRANCH  32  33
ATOM     33  N   UNL A   1      33.327  29.774  25.524  1.00  0.00    -0.352 N 
ATOM     34  C   UNL A   1      33.393  30.586  26.628  1.00  0.00     0.251 C 
ATOM     35  H   UNL A   1      32.616  29.992  24.879  1.00  0.00     0.163 HD
ATOM     36  O   UNL A   1      32.464  31.349  26.884  1.00  0.00    -0.269 OA
BRANCH  34  37
ATOM     37  C   UNL A   1      34.574  30.517  27.514  1.00  0.00     0.039 A 
ATOM     38  C   UNL A   1      34.765  29.383  28.305  1.00  0.00     0.014 A 
ATOM     39  C   UNL A   1      35.497  31.567  27.550  1.00  0.00     0.014 A 
ATOM     40  C   UNL A   1      35.919  29.272  29.083  1.00  0.00     0.010 A 
ATOM     41  C   UNL A   1      36.680  31.421  28.266  1.00  0.00     0.010 A 
ATOM     42  C   UNL A   1      36.906  30.271  29.038  1.00  0.00    -0.014 A 
BRANCH  42  43
ATOM     43  C   UNL A   1      38.186  30.127  29.782  1.00  0.00     0.031 A 
ATOM     44  C   UNL A   1      39.284  29.260  29.233  1.00  0.00     0.074 A 
ATOM     45  C   UNL A   1      38.328  30.724  30.982  1.00  0.00     0.049 A 
ATOM     46  N   UNL A   1      40.431  28.936  29.772  1.00  0.00    -0.248 NA
ATOM     47  C   UNL A   1      39.048  28.653  27.914  1.00  0.00     0.031 C 
ATOM     48  C   UNL A   1      37.320  31.564  31.633  1.00  0.00     0.029 A 
ATOM     49  N   UNL A   1      39.370  30.709  31.876  1.00  0.00    -0.354 N 
ATOM     50  C   UNL A   1      41.050  28.081  28.866  1.00  0.00     0.074 A 
ATOM     51  C   UNL A   1      40.121  27.889  27.772  1.00  0.00     0.031 C 
ATOM     52  C   UNL A   1      37.802  32.002  32.806  1.00  0.00     0.029 A 
ATOM     53  C   UNL A   1      39.127  31.430  33.023  1.00  0.00     0.049 A 
ATOM     54  H   UNL A   1      40.213  30.227  31.712  1.00  0.00     0.167 HD
ATOM     55  C   UNL A   1      42.285  27.525  28.933  1.00  0.00     0.034 A 
ATOM     56  C   UNL A   1      39.875  31.596  34.133  1.00  0.00     0.034 A 
ATOM     57  C   UNL A   1      43.198  27.734  30.031  1.00  0.00     0.049 A 
ATOM     58  C   UNL A   1      41.226  30.927  34.204  1.00  0.00     0.074 A 
ATOM     59  C   UNL A   1      44.493  27.266  30.173  1.00  0.00     0.029 A 
ATOM     60  N   UNL A   1      42.911  28.458  31.181  1.00  0.00    -0.354 N 
ATOM     61  N   UNL A   1      41.818  30.163  33.316  1.00  0.00    -0.248 NA
ATOM     62  C   UNL A   1      42.011  31.149  35.426  1.00  0.00     0.031 C 
ATOM     63  C   UNL A   1      44.956  27.633  31.440  1.00  0.00     0.029 A 
ATOM     64  C   UNL A   1      43.987  28.412  32.054  1.00  0.00     0.049 A 
ATOM     65  H   UNL A   1      42.067  28.934  31.351  1.00  0.00     0.167 HD
ATOM     66  C   UNL A   1      43.058  29.839  33.859  1.00  0.00     0.074 A 
ATOM     67  C   UNL A   1      43.133  30.503  35.144  1.00  0.00     0.031 C 
ATOM     68  C   UNL A   1      44.047  29.067  33.340  1.00  0.00     0.034 A 
BRANCH  55  69
ATOM     69  C   UNL A   1      42.704  26.616  27.801  1.00  0.00     0.023 A 
ATOM     70  C   UNL A   1      42.330  25.261  27.764  1.00  0.00     0.031 A 
ATOM     71  C   UNL A   1      43.502  27.104  26.753  1.00  0.00     0.131 A 
ATOM     72  C   UNL A   1      42.816  24.427  26.745  1.00  0.00     0.055 A 
ATOM     73  C   UNL A   1      43.910  26.290  25.695  1.00  0.00     0.041 A 
ATOM     74  F   UNL A   1      43.911  28.383  26.743  1.00  0.00    -0.206 F 
ATOM     75  C   UNL A   1      43.580  24.938  25.694  1.00  0.00     0.022 A 
BRANCH  72  76
ATOM     76  S   UNL A   1      42.562  22.637  26.897  1.00  0.00     0.124 S 
ATOM     77  O   UNL A   1      43.869  22.120  26.496  1.00  0.00    -0.237 OA
ATOM     78  O   UNL A   1      42.220  22.485  28.306  1.00  0.00    -0.237 OA
ATOM     79  O   UNL A   1      41.478  22.365  25.957  1.00  0.00    -0.744 OA
ENDBRANCH  72  76
ENDBRANCH  55  69
BRANCH  56  80
ATOM     80  C   UNL A   1      39.363  32.405  35.276  1.00  0.00     0.023 A 
ATOM     81  C   UNL A   1      38.767  31.791  36.389  1.00  0.00     0.031 A 
ATOM     82  C   UNL A   1      39.419  33.811  35.253  1.00  0.00     0.131 A 
ATOM     83  C   UNL A   1      38.207  32.579  37.408  1.00  0.00     0.055 A 
ATOM     84  C   UNL A   1      38.917  34.589  36.298  1.00  0.00     0.041 A 
ATOM     85  F   UNL A   1      39.978  34.451  34.213  1.00  0.00    -0.206 F 
ATOM     86  C   UNL A   1      38.292  33.972  37.377  1.00  0.00     0.022 A 
BRANCH  83  87
ATOM     87  S   UNL A   1      37.275  31.756  38.728  1.00  0.00     0.124 S 
ATOM     88  O   UNL A   1      37.193  30.390  38.225  1.00  0.00    -0.237 OA
ATOM     89  O   UNL A   1      38.138  31.965  39.885  1.00  0.00    -0.237 OA
ATOM     90  O   UNL A   1      36.009  32.487  38.756  1.00  0.00    -0.744 OA
ENDBRANCH  83  87
ENDBRANCH  56  80
BRANCH  68  91
ATOM     91  C   UNL A   1      45.316  28.937  34.148  1.00  0.00     0.023 A 
ATOM     92  C   UNL A   1      45.499  27.904  35.083  1.00  0.00     0.031 A 
ATOM     93  C   UNL A   1      46.362  29.862  33.974  1.00  0.00     0.131 A 
ATOM     94  C   UNL A   1      46.676  27.850  35.845  1.00  0.00     0.055 A 
ATOM     95  C   UNL A   1      47.557  29.765  34.687  1.00  0.00     0.041 A 
ATOM     96  F   UNL A   1      46.241  30.874  33.098  1.00  0.00    -0.206 F 
ATOM     97  C   UNL A   1      47.714  28.762  35.638  1.00  0.00     0.022 A 
BRANCH  94  98
ATOM     98  S   UNL A   1      46.798  26.624  37.177  1.00  0.00     0.124 S 
ATOM     99  O   UNL A   1      45.691  27.011  38.046  1.00  0.00    -0.237 OA
ATOM    100  O   UNL A   1      46.632  25.365  36.459  1.00  0.00    -0.237 OA
ATOM    101  O   UNL A   1      48.130  26.851  37.731  1.00  0.00    -0.744 OA
ENDBRANCH  94  98
ENDBRANCH  68  91
ENDBRANCH  42  43
ENDBRANCH  34  37
ENDBRANCH  32  33
ENDBRANCH  31  32
ENDBRANCH   1  31
TORSDOF 20
ENDMDL
