MODEL 1
REMARK VINA RESULT:     -10.9      0.000      0.000
REMARK SMILES COC(=O)[C@@H]1CN(C(=O)NC(=O)CCCC(=O)NCCCCCCNC(=O)c2ccc(-c3c4nc(c(-c5cc(S(=O)(=O)[O-])ccc5F)c5ccc([nH]5)c(-c5cc(S(=O)(=O)[O-])ccc5F)c5nc(c(-c6cc(S(=O)(=O)[O-])ccc6F)c6ccc3[nH]6)C=C5)C=C4)cc2)C[C@H]1C
REMARK SMILES IDX 20 1 19 2 18 3 16 4 17 5 15 7 14 8 13 9 11 10 8 11 9 12
REMARK SMILES IDX 10 13 12 15 7 16 5 17 6 18 92 19 91 20 93 21 3 22 4 23 2 24
REMARK SMILES IDX 1 25 21 26 22 27 23 28 24 29 25 30 26 31 27 33 28 34 29 35
REMARK SMILES IDX 90 36 30 37 89 38 31 39 32 40 33 41 83 42 34 43 88 44 82 45
REMARK SMILES IDX 84 46 35 47 87 48 81 49 80 50 36 52 68 53 48 54 67 55 49 56
REMARK SMILES IDX 52 57 66 58 85 59 50 60 51 61 65 63 86 64 53 65 37 66 38 67
REMARK SMILES IDX 46 68 39 69 45 70 47 71 44 72 40 73 41 74 42 75 43 76 69 77
REMARK SMILES IDX 70 78 78 79 71 80 77 81 79 82 76 83 72 84 73 85 74 86 75 87
REMARK SMILES IDX 54 88 55 89 63 90 56 91 62 92 64 93 61 94 57 95 58 96 59 97
REMARK SMILES IDX 60 98
REMARK H PARENT 18 6 10 14 25 32 84 51 52 62
REMARK Flexibility Score: inf
ROOT
ATOM      1  C   UNL A   1      38.471  23.956  26.711  1.00  0.00     0.021 C 
ENDROOT
BRANCH   1   2
ATOM      2  C   UNL A   1      37.304  23.704  25.742  1.00  0.00     0.116 C 
BRANCH   2   3
ATOM      3  N   UNL A   1      36.384  22.484  26.334  1.00  0.00    -0.356 N 
ATOM      4  C   UNL A   1      34.548  22.144  26.959  1.00  0.00     0.220 C 
ATOM      5  O   UNL A   1      34.062  21.141  27.534  1.00  0.00    -0.275 OA
ATOM      6  H   UNL A   1      36.919  21.660  26.399  1.00  0.00     0.163 HD
BRANCH   4   7
ATOM      7  C   UNL A   1      33.159  23.316  26.868  1.00  0.00     0.100 C 
BRANCH   7   8
ATOM      8  C   UNL A   1      31.763  23.269  26.148  1.00  0.00     0.020 C 
BRANCH   8   9
ATOM      9  C   UNL A   1      31.470  22.890  24.682  1.00  0.00     0.101 C 
BRANCH   9  10
ATOM     10  C   UNL A   1      32.383  21.987  23.900  1.00  0.00     0.227 C 
ATOM     11  C   UNL A   1      34.077  23.653  23.129  1.00  0.00     0.324 C 
ATOM     12  O   UNL A   1      35.293  23.734  22.940  1.00  0.00    -0.248 OA
ATOM     13  N   UNL A   1      33.559  22.438  23.400  1.00  0.00    -0.278 N 
ATOM     14  H   UNL A   1      34.181  21.706  23.184  1.00  0.00     0.174 HD
ATOM     15  O   UNL A   1      32.042  20.830  23.641  1.00  0.00    -0.275 OA
BRANCH  11  16
ATOM     16  N   UNL A   1      33.280  24.761  23.031  1.00  0.00    -0.323 N 
ATOM     17  C   UNL A   1      31.613  27.470  22.375  1.00  0.00     0.123 C 
ATOM     18  C   UNL A   1      31.972  25.562  21.742  1.00  0.00     0.137 C 
ATOM     19  C   UNL A   1      32.673  27.738  24.095  1.00  0.00     0.021 C 
ATOM     20  C   UNL A   1      33.679  26.032  24.439  1.00  0.00     0.125 C 
ATOM     21  C   UNL A   1      33.659  28.946  24.075  1.00  0.00     0.010 C 
BRANCH  17  22
ATOM     22  C   UNL A   1      30.184  27.992  22.468  1.00  0.00     0.310 C 
ATOM     23  O   UNL A   1      29.339  27.405  23.142  1.00  0.00    -0.252 OA
BRANCH  22  24
ATOM     24  O   UNL A   1      29.896  29.218  21.975  1.00  0.00    -0.469 OA
ATOM     25  C   UNL A   1      29.279  30.287  22.698  1.00  0.00     0.282 C 
ENDBRANCH  22  24
ENDBRANCH  17  22
ENDBRANCH  11  16
ENDBRANCH   9  10
ENDBRANCH   8   9
ENDBRANCH   7   8
ENDBRANCH   4   7
ENDBRANCH   2   3
ENDBRANCH   1   2
BRANCH   1  26
ATOM     26  C   UNL A   1      39.758  23.265  26.297  1.00  0.00     0.002 C 
BRANCH  26  27
ATOM     27  C   UNL A   1      40.117  22.084  27.199  1.00  0.00     0.002 C 
BRANCH  27  28
ATOM     28  C   UNL A   1      40.362  20.772  26.446  1.00  0.00     0.021 C 
BRANCH  28  29
ATOM     29  C   UNL A   1      41.412  19.873  27.090  1.00  0.00     0.116 C 
BRANCH  29  30
ATOM     30  N   UNL A   1      42.394  19.439  26.114  1.00  0.00    -0.352 N 
ATOM     31  C   UNL A   1      43.253  20.204  25.376  1.00  0.00     0.251 C 
ATOM     32  H   UNL A   1      42.449  18.467  25.966  1.00  0.00     0.163 HD
ATOM     33  O   UNL A   1      43.793  19.734  24.382  1.00  0.00    -0.269 OA
BRANCH  31  34
ATOM     34  C   UNL A   1      43.505  21.592  25.800  1.00  0.00     0.039 A 
ATOM     35  C   UNL A   1      43.900  21.833  27.114  1.00  0.00     0.014 A 
ATOM     36  C   UNL A   1      43.345  22.648  24.894  1.00  0.00     0.014 A 
ATOM     37  C   UNL A   1      44.141  23.142  27.519  1.00  0.00     0.010 A 
ATOM     38  C   UNL A   1      43.682  23.938  25.274  1.00  0.00     0.010 A 
ATOM     39  C   UNL A   1      44.046  24.201  26.602  1.00  0.00    -0.014 A 
BRANCH  39  40
ATOM     40  C   UNL A   1      44.270  25.599  27.043  1.00  0.00     0.031 A 
ATOM     41  C   UNL A   1      45.646  26.200  26.952  1.00  0.00     0.074 A 
ATOM     42  C   UNL A   1      43.240  26.310  27.537  1.00  0.00     0.049 A 
ATOM     43  N   UNL A   1      46.045  27.402  27.275  1.00  0.00    -0.248 NA
ATOM     44  C   UNL A   1      46.721  25.324  26.465  1.00  0.00     0.031 C 
ATOM     45  C   UNL A   1      41.877  25.803  27.719  1.00  0.00     0.029 A 
ATOM     46  N   UNL A   1      43.173  27.608  27.971  1.00  0.00    -0.354 N 
ATOM     47  C   UNL A   1      47.417  27.421  27.045  1.00  0.00     0.074 A 
ATOM     48  C   UNL A   1      47.789  26.087  26.630  1.00  0.00     0.031 C 
ATOM     49  C   UNL A   1      41.101  26.791  28.188  1.00  0.00     0.029 A 
ATOM     50  C   UNL A   1      41.918  27.984  28.389  1.00  0.00     0.049 A 
ATOM     51  H   UNL A   1      43.949  28.212  27.982  1.00  0.00     0.167 HD
ATOM     52  C   UNL A   1      48.278  28.463  27.144  1.00  0.00     0.034 A 
ATOM     53  C   UNL A   1      41.480  29.156  28.887  1.00  0.00     0.034 A 
ATOM     54  C   UNL A   1      47.874  29.786  27.555  1.00  0.00     0.049 A 
ATOM     55  C   UNL A   1      42.454  30.300  29.000  1.00  0.00     0.074 A 
ATOM     56  C   UNL A   1      48.639  30.935  27.631  1.00  0.00     0.029 A 
ATOM     57  N   UNL A   1      46.595  30.133  27.978  1.00  0.00    -0.354 N 
ATOM     58  N   UNL A   1      43.735  30.325  28.710  1.00  0.00    -0.248 NA
ATOM     59  C   UNL A   1      41.920  31.574  29.490  1.00  0.00     0.031 C 
ATOM     60  C   UNL A   1      47.852  31.948  28.189  1.00  0.00     0.029 A 
ATOM     61  C   UNL A   1      46.563  31.466  28.359  1.00  0.00     0.049 A 
ATOM     62  H   UNL A   1      45.824  29.520  28.002  1.00  0.00     0.167 HD
ATOM     63  C   UNL A   1      44.154  31.630  28.956  1.00  0.00     0.074 A 
ATOM     64  C   UNL A   1      42.982  32.360  29.399  1.00  0.00     0.031 C 
ATOM     65  C   UNL A   1      45.391  32.176  28.820  1.00  0.00     0.034 A 
BRANCH  52  66
ATOM     66  C   UNL A   1      49.737  28.192  26.847  1.00  0.00     0.023 A 
ATOM     67  C   UNL A   1      50.305  28.465  25.588  1.00  0.00     0.031 A 
ATOM     68  C   UNL A   1      50.561  27.603  27.820  1.00  0.00     0.131 A 
ATOM     69  C   UNL A   1      51.619  28.058  25.309  1.00  0.00     0.055 A 
ATOM     70  C   UNL A   1      51.899  27.293  27.568  1.00  0.00     0.041 A 
ATOM     71  F   UNL A   1      50.074  27.292  29.033  1.00  0.00    -0.206 F 
ATOM     72  C   UNL A   1      52.430  27.502  26.299  1.00  0.00     0.022 A 
BRANCH  69  73
ATOM     73  S   UNL A   1      52.186  28.092  23.585  1.00  0.00     0.124 S 
ATOM     74  O   UNL A   1      51.235  29.023  22.981  1.00  0.00    -0.237 OA
ATOM     75  O   UNL A   1      53.556  28.572  23.713  1.00  0.00    -0.237 OA
ATOM     76  O   UNL A   1      52.046  26.703  23.151  1.00  0.00    -0.744 OA
ENDBRANCH  69  73
ENDBRANCH  52  66
BRANCH  53  77
ATOM     77  C   UNL A   1      40.060  29.296  29.323  1.00  0.00     0.023 A 
ATOM     78  C   UNL A   1      39.700  29.242  30.678  1.00  0.00     0.031 A 
ATOM     79  C   UNL A   1      39.037  29.480  28.374  1.00  0.00     0.131 A 
ATOM     80  C   UNL A   1      38.347  29.334  31.045  1.00  0.00     0.055 A 
ATOM     81  C   UNL A   1      37.701  29.628  28.749  1.00  0.00     0.041 A 
ATOM     82  F   UNL A   1      39.328  29.544  27.065  1.00  0.00    -0.206 F 
ATOM     83  C   UNL A   1      37.348  29.544  30.091  1.00  0.00     0.022 A 
BRANCH  80  84
ATOM     84  S   UNL A   1      37.898  29.099  32.786  1.00  0.00     0.124 S 
ATOM     85  O   UNL A   1      36.653  29.853  32.876  1.00  0.00    -0.237 OA
ATOM     86  O   UNL A   1      37.779  27.648  32.876  1.00  0.00    -0.237 OA
ATOM     87  O   UNL A   1      39.031  29.675  33.510  1.00  0.00    -0.744 OA
ENDBRANCH  80  84
ENDBRANCH  53  77
BRANCH  65  88
ATOM     88  C   UNL A   1      45.525  33.653  29.116  1.00  0.00     0.023 A 
ATOM     89  C   UNL A   1      45.117  34.636  28.199  1.00  0.00     0.031 A 
ATOM     90  C   UNL A   1      46.092  34.080  30.331  1.00  0.00     0.131 A 
ATOM     91  C   UNL A   1      45.350  35.991  28.477  1.00  0.00     0.055 A 
ATOM     92  C   UNL A   1      46.245  35.433  30.637  1.00  0.00     0.041 A 
ATOM     93  F   UNL A   1      46.507  33.188  31.244  1.00  0.00    -0.206 F 
ATOM     94  C   UNL A   1      45.890  36.397  29.700  1.00  0.00     0.022 A 
BRANCH  91  95
ATOM     95  S   UNL A   1      45.062  37.209  27.164  1.00  0.00     0.124 S 
ATOM     96  O   UNL A   1      44.968  38.453  27.923  1.00  0.00    -0.237 OA
ATOM     97  O   UNL A   1      46.252  37.059  26.333  1.00  0.00    -0.237 OA
ATOM     98  O   UNL A   1      43.814  36.763  26.548  1.00  0.00    -0.744 OA
ENDBRANCH  91  95
ENDBRANCH  65  88
ENDBRANCH  39  40
ENDBRANCH  31  34
ENDBRANCH  29  30
ENDBRANCH  28  29
ENDBRANCH  27  28
ENDBRANCH  26  27
ENDBRANCH   1  26
TORSDOF 22
ENDMDL
MODEL 2
REMARK VINA RESULT:     -10.4      5.663     11.318
REMARK SMILES COC(=O)[C@@H]1CN(C(=O)NC(=O)CCCC(=O)NCCCCCCNC(=O)c2ccc(-c3c4nc(c(-c5cc(S(=O)(=O)[O-])ccc5F)c5ccc([nH]5)c(-c5cc(S(=O)(=O)[O-])ccc5F)c5nc(c(-c6cc(S(=O)(=O)[O-])ccc6F)c6ccc3[nH]6)C=C5)C=C4)cc2)C[C@H]1C
REMARK SMILES IDX 20 1 19 2 18 3 16 4 17 5 15 7 14 8 13 9 11 10 8 11 9 12
REMARK SMILES IDX 10 13 12 15 7 16 5 17 6 18 92 19 91 20 93 21 3 22 4 23 2 24
REMARK SMILES IDX 1 25 21 26 22 27 23 28 24 29 25 30 26 31 27 33 28 34 29 35
REMARK SMILES IDX 90 36 30 37 89 38 31 39 32 40 33 41 83 42 34 43 88 44 82 45
REMARK SMILES IDX 84 46 35 47 87 48 81 49 80 50 36 52 68 53 48 54 67 55 49 56
REMARK SMILES IDX 52 57 66 58 85 59 50 60 51 61 65 63 86 64 53 65 37 66 38 67
REMARK SMILES IDX 46 68 39 69 45 70 47 71 44 72 40 73 41 74 42 75 43 76 69 77
REMARK SMILES IDX 70 78 78 79 71 80 77 81 79 82 76 83 72 84 73 85 74 86 75 87
REMARK SMILES IDX 54 88 55 89 63 90 56 91 62 92 64 93 61 94 57 95 58 96 59 97
REMARK SMILES IDX 60 98
REMARK H PARENT 18 6 10 14 25 32 84 51 52 62
REMARK Flexibility Score: inf
ROOT
ATOM      1  C   UNL A   1      33.683  30.085  27.190  1.00  0.00     0.021 C 
ENDROOT
BRANCH   1   2
ATOM      2  C   UNL A   1      33.630  29.062  26.043  1.00  0.00     0.116 C 
BRANCH   2   3
ATOM      3  N   UNL A   1      33.169  27.613  26.653  1.00  0.00    -0.356 N 
ATOM      4  C   UNL A   1      31.706  26.305  26.496  1.00  0.00     0.220 C 
ATOM      5  O   UNL A   1      31.454  25.286  27.184  1.00  0.00    -0.275 OA
ATOM      6  H   UNL A   1      33.835  27.295  27.305  1.00  0.00     0.163 HD
BRANCH   4   7
ATOM      7  C   UNL A   1      30.339  26.376  25.297  1.00  0.00     0.100 C 
BRANCH   7   8
ATOM      8  C   UNL A   1      29.962  25.498  24.049  1.00  0.00     0.020 C 
BRANCH   8   9
ATOM      9  C   UNL A   1      30.921  24.802  23.061  1.00  0.00     0.101 C 
BRANCH   9  10
ATOM     10  C   UNL A   1      31.744  25.580  22.074  1.00  0.00     0.227 C 
ATOM     11  C   UNL A   1      33.098  23.728  21.088  1.00  0.00     0.324 C 
ATOM     12  O   UNL A   1      33.557  23.381  19.996  1.00  0.00    -0.248 OA
ATOM     13  N   UNL A   1      32.548  24.956  21.180  1.00  0.00    -0.278 N 
ATOM     14  H   UNL A   1      32.786  25.534  20.419  1.00  0.00     0.174 HD
ATOM     15  O   UNL A   1      31.751  26.814  22.105  1.00  0.00    -0.275 OA
BRANCH  11  16
ATOM     16  N   UNL A   1      33.180  22.901  22.175  1.00  0.00    -0.323 N 
ATOM     17  C   UNL A   1      33.826  20.846  24.605  1.00  0.00     0.123 C 
ATOM     18  C   UNL A   1      34.353  22.637  23.777  1.00  0.00     0.137 C 
ATOM     19  C   UNL A   1      32.278  20.111  23.503  1.00  0.00     0.021 C 
ATOM     20  C   UNL A   1      31.933  21.424  22.021  1.00  0.00     0.125 C 
ATOM     21  C   UNL A   1      32.512  18.687  22.912  1.00  0.00     0.010 C 
BRANCH  17  22
ATOM     22  C   UNL A   1      33.596  20.732  26.107  1.00  0.00     0.310 C 
ATOM     23  O   UNL A   1      33.260  19.665  26.616  1.00  0.00    -0.252 OA
BRANCH  22  24
ATOM     24  O   UNL A   1      33.964  21.756  26.910  1.00  0.00    -0.469 OA
ATOM     25  C   UNL A   1      33.179  22.316  27.967  1.00  0.00     0.282 C 
ENDBRANCH  22  24
ENDBRANCH  17  22
ENDBRANCH  11  16
ENDBRANCH   9  10
ENDBRANCH   8   9
ENDBRANCH   7   8
ENDBRANCH   4   7
ENDBRANCH   2   3
ENDBRANCH   1   2
BRANCH   1  26
ATOM     26  C   UNL A   1      35.096  30.431  27.623  1.00  0.00     0.002 C 
BRANCH  26  27
ATOM     27  C   UNL A   1      35.274  31.916  27.943  1.00  0.00     0.002 C 
BRANCH  27  28
ATOM     28  C   UNL A   1      33.962  32.703  28.019  1.00  0.00     0.021 C 
BRANCH  28  29
ATOM     29  C   UNL A   1      34.140  34.216  27.950  1.00  0.00     0.116 C 
BRANCH  29  30
ATOM     30  N   UNL A   1      33.505  34.867  29.080  1.00  0.00    -0.352 N 
ATOM     31  C   UNL A   1      33.705  34.640  30.413  1.00  0.00     0.251 C 
ATOM     32  H   UNL A   1      32.845  35.563  28.858  1.00  0.00     0.163 HD
ATOM     33  O   UNL A   1      32.884  35.034  31.232  1.00  0.00    -0.269 OA
BRANCH  31  34
ATOM     34  C   UNL A   1      34.916  33.913  30.832  1.00  0.00     0.039 A 
ATOM     35  C   UNL A   1      34.773  32.709  31.517  1.00  0.00     0.014 A 
ATOM     36  C   UNL A   1      36.185  34.431  30.548  1.00  0.00     0.014 A 
ATOM     37  C   UNL A   1      35.913  32.017  31.915  1.00  0.00     0.010 A 
ATOM     38  C   UNL A   1      37.316  33.690  30.858  1.00  0.00     0.010 A 
ATOM     39  C   UNL A   1      37.191  32.494  31.579  1.00  0.00    -0.014 A 
BRANCH  39  40
ATOM     40  C   UNL A   1      38.404  31.774  32.032  1.00  0.00     0.031 A 
ATOM     41  C   UNL A   1      39.021  32.111  33.362  1.00  0.00     0.074 A 
ATOM     42  C   UNL A   1      38.951  30.834  31.239  1.00  0.00     0.049 A 
ATOM     43  N   UNL A   1      40.072  31.592  33.941  1.00  0.00    -0.248 NA
ATOM     44  C   UNL A   1      38.394  33.200  34.126  1.00  0.00     0.031 C 
ATOM     45  C   UNL A   1      38.462  30.469  29.906  1.00  0.00     0.029 A 
ATOM     46  N   UNL A   1      40.029  30.012  31.436  1.00  0.00    -0.354 N 
ATOM     47  C   UNL A   1      40.239  32.299  35.127  1.00  0.00     0.074 A 
ATOM     48  C   UNL A   1      39.229  33.333  35.144  1.00  0.00     0.031 C 
ATOM     49  C   UNL A   1      39.214  29.468  29.424  1.00  0.00     0.029 A 
ATOM     50  C   UNL A   1      40.267  29.156  30.386  1.00  0.00     0.049 A 
ATOM     51  H   UNL A   1      40.581  30.033  32.250  1.00  0.00     0.167 HD
ATOM     52  C   UNL A   1      41.136  32.085  36.121  1.00  0.00     0.034 A 
ATOM     53  C   UNL A   1      41.230  28.230  30.216  1.00  0.00     0.034 A 
ATOM     54  C   UNL A   1      42.129  31.039  36.078  1.00  0.00     0.049 A 
ATOM     55  C   UNL A   1      42.224  28.014  31.328  1.00  0.00     0.074 A 
ATOM     56  C   UNL A   1      43.046  30.683  37.049  1.00  0.00     0.029 A 
ATOM     57  N   UNL A   1      42.347  30.191  34.997  1.00  0.00    -0.354 N 
ATOM     58  N   UNL A   1      42.327  28.641  32.477  1.00  0.00    -0.248 NA
ATOM     59  C   UNL A   1      43.218  26.956  31.125  1.00  0.00     0.031 C 
ATOM     60  C   UNL A   1      43.878  29.690  36.521  1.00  0.00     0.029 A 
ATOM     61  C   UNL A   1      43.413  29.346  35.261  1.00  0.00     0.049 A 
ATOM     62  H   UNL A   1      41.819  30.192  34.165  1.00  0.00     0.167 HD
ATOM     63  C   UNL A   1      43.383  28.031  33.149  1.00  0.00     0.074 A 
ATOM     64  C   UNL A   1      43.867  26.976  32.280  1.00  0.00     0.031 C 
ATOM     65  C   UNL A   1      43.900  28.312  34.375  1.00  0.00     0.034 A 
BRANCH  52  66
ATOM     66  C   UNL A   1      41.104  33.028  37.304  1.00  0.00     0.023 A 
ATOM     67  C   UNL A   1      40.421  32.711  38.493  1.00  0.00     0.031 A 
ATOM     68  C   UNL A   1      41.720  34.289  37.222  1.00  0.00     0.131 A 
ATOM     69  C   UNL A   1      40.289  33.674  39.505  1.00  0.00     0.055 A 
ATOM     70  C   UNL A   1      41.670  35.206  38.274  1.00  0.00     0.041 A 
ATOM     71  F   UNL A   1      42.363  34.665  36.106  1.00  0.00    -0.206 F 
ATOM     72  C   UNL A   1      40.934  34.908  39.417  1.00  0.00     0.022 A 
BRANCH  69  73
ATOM     73  S   UNL A   1      39.106  33.363  40.846  1.00  0.00     0.124 S 
ATOM     74  O   UNL A   1      39.064  31.902  40.867  1.00  0.00    -0.237 OA
ATOM     75  O   UNL A   1      39.749  34.001  41.988  1.00  0.00    -0.237 OA
ATOM     76  O   UNL A   1      37.879  34.006  40.378  1.00  0.00    -0.744 OA
ENDBRANCH  69  73
ENDBRANCH  52  66
BRANCH  53  77
ATOM     77  C   UNL A   1      41.303  27.455  28.944  1.00  0.00     0.023 A 
ATOM     78  C   UNL A   1      42.289  27.717  27.980  1.00  0.00     0.031 A 
ATOM     79  C   UNL A   1      40.370  26.437  28.675  1.00  0.00     0.131 A 
ATOM     80  C   UNL A   1      42.297  26.995  26.776  1.00  0.00     0.055 A 
ATOM     81  C   UNL A   1      40.418  25.683  27.501  1.00  0.00     0.041 A 
ATOM     82  F   UNL A   1      39.410  26.142  29.566  1.00  0.00    -0.206 F 
ATOM     83  C   UNL A   1      41.379  25.969  26.538  1.00  0.00     0.022 A 
BRANCH  80  84
ATOM     84  S   UNL A   1      43.480  27.466  25.485  1.00  0.00     0.124 S 
ATOM     85  O   UNL A   1      44.240  26.233  25.315  1.00  0.00    -0.237 OA
ATOM     86  O   UNL A   1      42.597  27.833  24.383  1.00  0.00    -0.237 OA
ATOM     87  O   UNL A   1      44.216  28.576  26.087  1.00  0.00    -0.744 OA
ENDBRANCH  80  84
ENDBRANCH  53  77
BRANCH  65  88
ATOM     88  C   UNL A   1      45.025  27.427  34.863  1.00  0.00     0.023 A 
ATOM     89  C   UNL A   1      44.786  26.264  35.615  1.00  0.00     0.031 A 
ATOM     90  C   UNL A   1      46.361  27.770  34.588  1.00  0.00     0.131 A 
ATOM     91  C   UNL A   1      45.864  25.529  36.127  1.00  0.00     0.055 A 
ATOM     92  C   UNL A   1      47.429  26.989  35.032  1.00  0.00     0.041 A 
ATOM     93  F   UNL A   1      46.654  28.874  33.881  1.00  0.00    -0.206 F 
ATOM     94  C   UNL A   1      47.184  25.871  35.821  1.00  0.00     0.022 A 
BRANCH  91  95
ATOM     95  S   UNL A   1      45.525  24.199  37.313  1.00  0.00     0.124 S 
ATOM     96  O   UNL A   1      46.749  24.184  38.108  1.00  0.00    -0.237 OA
ATOM     97  O   UNL A   1      44.329  24.685  37.992  1.00  0.00    -0.237 OA
ATOM     98  O   UNL A   1      45.323  23.026  36.464  1.00  0.00    -0.744 OA
ENDBRANCH  91  95
ENDBRANCH  65  88
ENDBRANCH  39  40
ENDBRANCH  31  34
ENDBRANCH  29  30
ENDBRANCH  28  29
ENDBRANCH  27  28
ENDBRANCH  26  27
ENDBRANCH   1  26
TORSDOF 22
ENDMDL
MODEL 3
REMARK VINA RESULT:     -10.4      1.765      2.061
REMARK SMILES COC(=O)[C@@H]1CN(C(=O)NC(=O)CCCC(=O)NCCCCCCNC(=O)c2ccc(-c3c4nc(c(-c5cc(S(=O)(=O)[O-])ccc5F)c5ccc([nH]5)c(-c5cc(S(=O)(=O)[O-])ccc5F)c5nc(c(-c6cc(S(=O)(=O)[O-])ccc6F)c6ccc3[nH]6)C=C5)C=C4)cc2)C[C@H]1C
REMARK SMILES IDX 20 1 19 2 18 3 16 4 17 5 15 7 14 8 13 9 11 10 8 11 9 12
REMARK SMILES IDX 10 13 12 15 7 16 5 17 6 18 92 19 91 20 93 21 3 22 4 23 2 24
REMARK SMILES IDX 1 25 21 26 22 27 23 28 24 29 25 30 26 31 27 33 28 34 29 35
REMARK SMILES IDX 90 36 30 37 89 38 31 39 32 40 33 41 83 42 34 43 88 44 82 45
REMARK SMILES IDX 84 46 35 47 87 48 81 49 80 50 36 52 68 53 48 54 67 55 49 56
REMARK SMILES IDX 52 57 66 58 85 59 50 60 51 61 65 63 86 64 53 65 37 66 38 67
REMARK SMILES IDX 46 68 39 69 45 70 47 71 44 72 40 73 41 74 42 75 43 76 69 77
REMARK SMILES IDX 70 78 78 79 71 80 77 81 79 82 76 83 72 84 73 85 74 86 75 87
REMARK SMILES IDX 54 88 55 89 63 90 56 91 62 92 64 93 61 94 57 95 58 96 59 97
REMARK SMILES IDX 60 98
REMARK H PARENT 18 6 10 14 25 32 84 51 52 62
REMARK Flexibility Score: inf
ROOT
ATOM      1  C   UNL A   1      38.535  24.023  26.721  1.00  0.00     0.021 C 
ENDROOT
BRANCH   1   2
ATOM      2  C   UNL A   1      37.349  23.787  25.772  1.00  0.00     0.116 C 
BRANCH   2   3
ATOM      3  N   UNL A   1      36.400  22.607  26.401  1.00  0.00    -0.356 N 
ATOM      4  C   UNL A   1      34.549  22.319  27.004  1.00  0.00     0.220 C 
ATOM      5  O   UNL A   1      34.038  21.349  27.614  1.00  0.00    -0.275 OA
ATOM      6  H   UNL A   1      36.922  21.780  26.512  1.00  0.00     0.163 HD
BRANCH   4   7
ATOM      7  C   UNL A   1      33.178  23.504  26.835  1.00  0.00     0.100 C 
BRANCH   7   8
ATOM      8  C   UNL A   1      31.755  23.409  26.174  1.00  0.00     0.020 C 
BRANCH   8   9
ATOM      9  C   UNL A   1      31.409  22.955  24.741  1.00  0.00     0.101 C 
BRANCH   9  10
ATOM     10  C   UNL A   1      32.289  22.007  23.976  1.00  0.00     0.227 C 
ATOM     11  C   UNL A   1      34.031  23.601  23.162  1.00  0.00     0.324 C 
ATOM     12  O   UNL A   1      35.249  23.639  22.966  1.00  0.00    -0.248 OA
ATOM     13  N   UNL A   1      33.477  22.409  23.461  1.00  0.00    -0.278 N 
ATOM     14  H   UNL A   1      34.075  21.653  23.259  1.00  0.00     0.174 HD
ATOM     15  O   UNL A   1      31.910  20.856  23.744  1.00  0.00    -0.275 OA
BRANCH  11  16
ATOM     16  N   UNL A   1      33.269  24.732  23.042  1.00  0.00    -0.323 N 
ATOM     17  C   UNL A   1      31.629  27.435  22.304  1.00  0.00     0.123 C 
ATOM     18  C   UNL A   1      31.829  25.453  21.852  1.00  0.00     0.137 C 
ATOM     19  C   UNL A   1      32.921  27.834  23.828  1.00  0.00     0.021 C 
ATOM     20  C   UNL A   1      33.901  26.126  24.232  1.00  0.00     0.125 C 
ATOM     21  C   UNL A   1      33.938  28.980  23.543  1.00  0.00     0.010 C 
BRANCH  17  22
ATOM     22  C   UNL A   1      30.246  28.037  22.522  1.00  0.00     0.310 C 
ATOM     23  O   UNL A   1      29.376  27.418  23.133  1.00  0.00    -0.252 OA
BRANCH  22  24
ATOM     24  O   UNL A   1      30.037  29.339  22.223  1.00  0.00    -0.469 OA
ATOM     25  C   UNL A   1      28.776  29.935  21.909  1.00  0.00     0.282 C 
ENDBRANCH  22  24
ENDBRANCH  17  22
ENDBRANCH  11  16
ENDBRANCH   9  10
ENDBRANCH   8   9
ENDBRANCH   7   8
ENDBRANCH   4   7
ENDBRANCH   2   3
ENDBRANCH   1   2
BRANCH   1  26
ATOM     26  C   UNL A   1      39.790  23.271  26.314  1.00  0.00     0.002 C 
BRANCH  26  27
ATOM     27  C   UNL A   1      40.088  22.075  27.220  1.00  0.00     0.002 C 
BRANCH  27  28
ATOM     28  C   UNL A   1      40.228  20.744  26.474  1.00  0.00     0.021 C 
BRANCH  28  29
ATOM     29  C   UNL A   1      41.122  19.729  27.177  1.00  0.00     0.116 C 
BRANCH  29  30
ATOM     30  N   UNL A   1      42.113  19.188  26.265  1.00  0.00    -0.352 N 
ATOM     31  C   UNL A   1      43.040  19.863  25.523  1.00  0.00     0.251 C 
ATOM     32  H   UNL A   1      42.117  18.208  26.171  1.00  0.00     0.163 HD
ATOM     33  O   UNL A   1      43.588  19.310  24.576  1.00  0.00    -0.269 OA
BRANCH  31  34
ATOM     34  C   UNL A   1      43.356  21.256  25.882  1.00  0.00     0.039 A 
ATOM     35  C   UNL A   1      43.781  21.537  27.178  1.00  0.00     0.014 A 
ATOM     36  C   UNL A   1      43.225  22.278  24.933  1.00  0.00     0.014 A 
ATOM     37  C   UNL A   1      44.082  22.850  27.524  1.00  0.00     0.010 A 
ATOM     38  C   UNL A   1      43.621  23.568  25.253  1.00  0.00     0.010 A 
ATOM     39  C   UNL A   1      44.016  23.873  26.562  1.00  0.00    -0.014 A 
BRANCH  39  40
ATOM     40  C   UNL A   1      44.304  25.277  26.940  1.00  0.00     0.031 A 
ATOM     41  C   UNL A   1      45.696  25.825  26.777  1.00  0.00     0.074 A 
ATOM     42  C   UNL A   1      43.318  26.044  27.440  1.00  0.00     0.049 A 
ATOM     43  N   UNL A   1      46.148  27.023  27.038  1.00  0.00    -0.248 NA
ATOM     44  C   UNL A   1      46.722  24.892  26.289  1.00  0.00     0.031 C 
ATOM     45  C   UNL A   1      41.945  25.594  27.689  1.00  0.00     0.029 A 
ATOM     46  N   UNL A   1      43.312  27.359  27.824  1.00  0.00    -0.354 N 
ATOM     47  C   UNL A   1      47.510  26.983  26.760  1.00  0.00     0.074 A 
ATOM     48  C   UNL A   1      47.821  25.621  26.386  1.00  0.00     0.031 C 
ATOM     49  C   UNL A   1      41.222  26.627  28.145  1.00  0.00     0.029 A 
ATOM     50  C   UNL A   1      42.087  27.796  28.270  1.00  0.00     0.049 A 
ATOM     51  H   UNL A   1      44.108  27.935  27.784  1.00  0.00     0.167 HD
ATOM     52  C   UNL A   1      48.410  27.997  26.788  1.00  0.00     0.034 A 
ATOM     53  C   UNL A   1      41.707  29.002  28.735  1.00  0.00     0.034 A 
ATOM     54  C   UNL A   1      48.068  29.348  27.159  1.00  0.00     0.049 A 
ATOM     55  C   UNL A   1      42.724  30.113  28.769  1.00  0.00     0.074 A 
ATOM     56  C   UNL A   1      48.874  30.471  27.163  1.00  0.00     0.029 A 
ATOM     57  N   UNL A   1      46.818  29.757  27.612  1.00  0.00    -0.354 N 
ATOM     58  N   UNL A   1      43.994  30.081  28.434  1.00  0.00    -0.248 NA
ATOM     59  C   UNL A   1      42.253  31.423  29.226  1.00  0.00     0.031 C 
ATOM     60  C   UNL A   1      48.144  31.532  27.706  1.00  0.00     0.029 A 
ATOM     61  C   UNL A   1      46.846  31.104  27.940  1.00  0.00     0.049 A 
ATOM     62  H   UNL A   1      46.027  29.174  27.687  1.00  0.00     0.167 HD
ATOM     63  C   UNL A   1      44.467  31.378  28.613  1.00  0.00     0.074 A 
ATOM     64  C   UNL A   1      43.338  32.166  29.066  1.00  0.00     0.031 C 
ATOM     65  C   UNL A   1      45.717  31.873  28.413  1.00  0.00     0.034 A 
BRANCH  52  66
ATOM     66  C   UNL A   1      49.847  27.662  26.452  1.00  0.00     0.023 A 
ATOM     67  C   UNL A   1      50.802  27.387  27.449  1.00  0.00     0.031 A 
ATOM     68  C   UNL A   1      50.283  27.669  25.116  1.00  0.00     0.131 A 
ATOM     69  C   UNL A   1      52.153  27.232  27.103  1.00  0.00     0.055 A 
ATOM     70  C   UNL A   1      51.612  27.413  24.770  1.00  0.00     0.041 A 
ATOM     71  F   UNL A   1      49.429  27.951  24.118  1.00  0.00    -0.206 F 
ATOM     72  C   UNL A   1      52.560  27.212  25.768  1.00  0.00     0.022 A 
BRANCH  69  73
ATOM     73  S   UNL A   1      53.393  27.247  28.428  1.00  0.00     0.124 S 
ATOM     74  O   UNL A   1      53.502  28.677  28.711  1.00  0.00    -0.237 OA
ATOM     75  O   UNL A   1      52.761  26.438  29.462  1.00  0.00    -0.237 OA
ATOM     76  O   UNL A   1      54.573  26.654  27.802  1.00  0.00    -0.744 OA
ENDBRANCH  69  73
ENDBRANCH  52  66
BRANCH  53  77
ATOM     77  C   UNL A   1      40.310  29.210  29.214  1.00  0.00     0.023 A 
ATOM     78  C   UNL A   1      39.997  29.221  30.582  1.00  0.00     0.031 A 
ATOM     79  C   UNL A   1      39.261  29.394  28.295  1.00  0.00     0.131 A 
ATOM     80  C   UNL A   1      38.662  29.376  30.991  1.00  0.00     0.055 A 
ATOM     81  C   UNL A   1      37.945  29.604  28.709  1.00  0.00     0.041 A 
ATOM     82  F   UNL A   1      39.507  29.397  26.975  1.00  0.00    -0.206 F 
ATOM     83  C   UNL A   1      37.638  29.585  30.065  1.00  0.00     0.022 A 
BRANCH  80  84
ATOM     84  S   UNL A   1      38.269  29.225  32.755  1.00  0.00     0.124 S 
ATOM     85  O   UNL A   1      39.567  29.476  33.372  1.00  0.00    -0.237 OA
ATOM     86  O   UNL A   1      37.261  30.266  32.931  1.00  0.00    -0.237 OA
ATOM     87  O   UNL A   1      37.774  27.856  32.877  1.00  0.00    -0.744 OA
ENDBRANCH  80  84
ENDBRANCH  53  77
BRANCH  65  88
ATOM     88  C   UNL A   1      45.912  33.355  28.645  1.00  0.00     0.023 A 
ATOM     89  C   UNL A   1      46.304  33.869  29.893  1.00  0.00     0.031 A 
ATOM     90  C   UNL A   1      45.680  34.268  27.600  1.00  0.00     0.131 A 
ATOM     91  C   UNL A   1      46.378  35.256  30.085  1.00  0.00     0.055 A 
ATOM     92  C   UNL A   1      45.835  35.644  27.775  1.00  0.00     0.041 A 
ATOM     93  F   UNL A   1      45.296  33.838  26.387  1.00  0.00    -0.206 F 
ATOM     94  C   UNL A   1      46.169  36.146  29.028  1.00  0.00     0.022 A 
BRANCH  91  95
ATOM     95  S   UNL A   1      46.619  35.888  31.768  1.00  0.00     0.124 S 
ATOM     96  O   UNL A   1      45.343  36.549  32.027  1.00  0.00    -0.237 OA
ATOM     97  O   UNL A   1      46.870  34.667  32.527  1.00  0.00    -0.237 OA
ATOM     98  O   UNL A   1      47.766  36.784  31.637  1.00  0.00    -0.744 OA
ENDBRANCH  91  95
ENDBRANCH  65  88
ENDBRANCH  39  40
ENDBRANCH  31  34
ENDBRANCH  29  30
ENDBRANCH  28  29
ENDBRANCH  27  28
ENDBRANCH  26  27
ENDBRANCH   1  26
TORSDOF 22
ENDMDL
