MODEL 1
REMARK VINA RESULT:     -11.5      0.000      0.000
REMARK SMILES O=C(NCCCCCCNC(=O)c1cccc2cccc([S@](=O)c3ccccc3CO)c12)c1ccc(-c2c3nc(c(-c4cc(S(=O)(=O)[O-])ccc4F)c4ccc([nH]4)c(-c4cc(S(=O)(=O)[O-])ccc4F)c4nc(c(-c5cc(S(=O)(=O)[O-])ccc5F)c5ccc2[nH]5)C=C4)C=C3)cc1
REMARK SMILES IDX 7 1 6 2 5 3 4 4 3 5 1 6 2 7 33 9 34 10 95 11 35 12 94 13
REMARK SMILES IDX 36 14 37 15 38 16 88 17 39 18 93 19 87 20 89 21 40 22 92 23
REMARK SMILES IDX 86 24 85 25 41 27 73 28 53 29 72 30 54 31 57 32 71 33 90 34
REMARK SMILES IDX 55 35 56 36 70 38 91 39 58 40 42 41 43 42 51 43 44 44 50 45
REMARK SMILES IDX 52 46 49 47 45 48 46 49 47 50 48 51 74 52 75 53 83 54 76 55
REMARK SMILES IDX 82 56 84 57 81 58 77 59 78 60 79 61 80 62 59 63 60 64 68 65
REMARK SMILES IDX 61 66 67 67 69 68 66 69 62 70 63 71 64 72 65 73 8 74 9 75
REMARK SMILES IDX 10 76 11 77 12 79 13 80 14 81 32 82 15 83 17 84 21 85 16 86
REMARK SMILES IDX 18 87 20 88 19 89 22 90 23 91 24 92 25 93 29 94 26 95 28 96
REMARK SMILES IDX 27 97 30 98 31 99
REMARK H PARENT 3 8 89 26 57 37 10 78 31 100
REMARK Flexibility Score: inf
ROOT
ATOM      1  C   UNL A   1      33.081  29.345  26.019  1.00  0.00     0.002 C 
ENDROOT
BRANCH   1   2
ATOM      2  C   UNL A   1      31.840  30.184  25.699  1.00  0.00     0.002 C 
BRANCH   2   3
ATOM      3  C   UNL A   1      31.625  31.434  26.553  1.00  0.00     0.021 C 
BRANCH   3   4
ATOM      4  C   UNL A   1      32.886  32.099  27.092  1.00  0.00     0.116 C 
BRANCH   4   5
ATOM      5  N   UNL A   1      32.698  33.502  27.425  1.00  0.00    -0.352 N 
ATOM      6  O   UNL A   1      32.938  35.413  28.595  1.00  0.00    -0.269 OA
ATOM      7  C   UNL A   1      33.321  34.269  28.387  1.00  0.00     0.251 C 
ATOM      8  H   UNL A   1      32.026  33.975  26.883  1.00  0.00     0.163 HD
BRANCH   7   9
ATOM      9  C   UNL A   1      34.433  33.703  29.189  1.00  0.00     0.039 A 
ATOM     10  C   UNL A   1      35.757  34.076  28.951  1.00  0.00     0.014 A 
ATOM     11  C   UNL A   1      34.141  32.788  30.205  1.00  0.00     0.014 A 
ATOM     12  C   UNL A   1      36.791  33.424  29.617  1.00  0.00     0.010 A 
ATOM     13  C   UNL A   1      35.180  32.196  30.935  1.00  0.00     0.010 A 
ATOM     14  C   UNL A   1      36.517  32.479  30.620  1.00  0.00    -0.014 A 
BRANCH  14  15
ATOM     15  C   UNL A   1      37.648  31.830  31.339  1.00  0.00     0.031 A 
ATOM     16  C   UNL A   1      38.492  30.776  30.671  1.00  0.00     0.074 A 
ATOM     17  C   UNL A   1      37.939  32.232  32.592  1.00  0.00     0.049 A 
ATOM     18  N   UNL A   1      39.545  30.147  31.132  1.00  0.00    -0.248 NA
ATOM     19  C   UNL A   1      38.096  30.368  29.317  1.00  0.00     0.031 C 
ATOM     20  C   UNL A   1      37.187  33.238  33.346  1.00  0.00     0.029 A 
ATOM     21  N   UNL A   1      38.952  31.870  33.442  1.00  0.00    -0.354 N 
ATOM     22  C   UNL A   1      39.927  29.256  30.134  1.00  0.00     0.074 A 
ATOM     23  C   UNL A   1      38.969  29.404  29.058  1.00  0.00     0.031 C 
ATOM     24  C   UNL A   1      37.798  33.454  34.521  1.00  0.00     0.029 A 
ATOM     25  C   UNL A   1      38.946  32.560  34.632  1.00  0.00     0.049 A 
ATOM     26  H   UNL A   1      39.621  31.181  33.223  1.00  0.00     0.167 HD
ATOM     27  C   UNL A   1      40.983  28.403  30.114  1.00  0.00     0.034 A 
ATOM     28  C   UNL A   1      39.764  32.481  35.699  1.00  0.00     0.034 A 
ATOM     29  C   UNL A   1      41.935  28.273  31.193  1.00  0.00     0.049 A 
ATOM     30  C   UNL A   1      40.910  31.506  35.663  1.00  0.00     0.074 A 
ATOM     31  C   UNL A   1      43.065  27.473  31.258  1.00  0.00     0.029 A 
ATOM     32  N   UNL A   1      41.866  28.951  32.405  1.00  0.00    -0.354 N 
ATOM     33  N   UNL A   1      41.273  30.691  34.700  1.00  0.00    -0.248 NA
ATOM     34  C   UNL A   1      41.757  31.443  36.859  1.00  0.00     0.031 C 
ATOM     35  C   UNL A   1      43.638  27.618  32.528  1.00  0.00     0.029 A 
ATOM     36  C   UNL A   1      42.911  28.563  33.232  1.00  0.00     0.049 A 
ATOM     37  H   UNL A   1      41.175  29.612  32.641  1.00  0.00     0.167 HD
ATOM     38  C   UNL A   1      42.405  30.034  35.167  1.00  0.00     0.074 A 
ATOM     39  C   UNL A   1      42.674  30.563  36.490  1.00  0.00     0.031 C 
ATOM     40  C   UNL A   1      43.157  29.081  34.559  1.00  0.00     0.034 A 
BRANCH  27  41
ATOM     41  C   UNL A   1      41.133  27.510  28.904  1.00  0.00     0.023 A 
ATOM     42  C   UNL A   1      42.127  27.731  27.933  1.00  0.00     0.031 A 
ATOM     43  C   UNL A   1      40.248  26.434  28.702  1.00  0.00     0.131 A 
ATOM     44  C   UNL A   1      42.166  26.941  26.774  1.00  0.00     0.055 A 
ATOM     45  C   UNL A   1      40.341  25.602  27.584  1.00  0.00     0.041 A 
ATOM     46  F   UNL A   1      39.268  26.182  29.582  1.00  0.00    -0.206 F 
ATOM     47  C   UNL A   1      41.294  25.862  26.603  1.00  0.00     0.022 A 
BRANCH  44  48
ATOM     48  S   UNL A   1      43.276  27.432  25.425  1.00  0.00     0.124 S 
ATOM     49  O   UNL A   1      42.347  28.064  24.491  1.00  0.00    -0.237 OA
ATOM     50  O   UNL A   1      44.212  28.326  26.097  1.00  0.00    -0.237 OA
ATOM     51  O   UNL A   1      43.842  26.165  24.968  1.00  0.00    -0.744 OA
ENDBRANCH  44  48
ENDBRANCH  27  41
BRANCH  28  52
ATOM     52  C   UNL A   1      39.523  33.334  36.894  1.00  0.00     0.023 A 
ATOM     53  C   UNL A   1      38.829  32.838  38.009  1.00  0.00     0.031 A 
ATOM     54  C   UNL A   1      39.964  34.669  36.930  1.00  0.00     0.131 A 
ATOM     55  C   UNL A   1      38.566  33.681  39.099  1.00  0.00     0.055 A 
ATOM     56  C   UNL A   1      39.744  35.489  38.037  1.00  0.00     0.041 A 
ATOM     57  F   UNL A   1      40.636  35.190  35.891  1.00  0.00    -0.206 F 
ATOM     58  C   UNL A   1      39.032  34.998  39.127  1.00  0.00     0.022 A 
BRANCH  55  59
ATOM     59  S   UNL A   1      37.546  33.050  40.459  1.00  0.00     0.124 S 
ATOM     60  O   UNL A   1      37.599  34.154  41.409  1.00  0.00    -0.237 OA
ATOM     61  O   UNL A   1      36.263  32.832  39.800  1.00  0.00    -0.237 OA
ATOM     62  O   UNL A   1      38.245  31.835  40.873  1.00  0.00    -0.744 OA
ENDBRANCH  55  59
ENDBRANCH  28  52
BRANCH  40  63
ATOM     63  C   UNL A   1      44.361  28.583  35.318  1.00  0.00     0.023 A 
ATOM     64  C   UNL A   1      44.258  27.566  36.284  1.00  0.00     0.031 A 
ATOM     65  C   UNL A   1      45.623  29.166  35.103  1.00  0.00     0.131 A 
ATOM     66  C   UNL A   1      45.382  27.208  37.044  1.00  0.00     0.055 A 
ATOM     67  C   UNL A   1      46.750  28.763  35.820  1.00  0.00     0.041 A 
ATOM     68  F   UNL A   1      45.778  30.144  34.196  1.00  0.00    -0.206 F 
ATOM     69  C   UNL A   1      46.630  27.789  36.808  1.00  0.00     0.022 A 
BRANCH  66  70
ATOM     70  S   UNL A   1      45.168  26.044  38.420  1.00  0.00     0.124 S 
ATOM     71  O   UNL A   1      46.343  26.324  39.239  1.00  0.00    -0.237 OA
ATOM     72  O   UNL A   1      43.886  26.458  38.981  1.00  0.00    -0.237 OA
ATOM     73  O   UNL A   1      45.165  24.737  37.767  1.00  0.00    -0.744 OA
ENDBRANCH  66  70
ENDBRANCH  40  63
ENDBRANCH  14  15
ENDBRANCH   7   9
ENDBRANCH   4   5
ENDBRANCH   3   4
ENDBRANCH   2   3
ENDBRANCH   1   2
BRANCH   1  74
ATOM     74  C   UNL A   1      32.860  28.097  26.879  1.00  0.00     0.021 C 
BRANCH  74  75
ATOM     75  C   UNL A   1      31.426  27.837  27.335  1.00  0.00     0.116 C 
BRANCH  75  76
ATOM     76  N   UNL A   1      31.062  26.429  27.338  1.00  0.00    -0.352 N 
ATOM     77  C   UNL A   1      30.687  25.625  26.281  1.00  0.00     0.251 C 
ATOM     78  H   UNL A   1      31.085  25.988  28.218  1.00  0.00     0.163 HD
ATOM     79  O   UNL A   1      30.488  24.423  26.427  1.00  0.00    -0.269 OA
BRANCH  77  80
ATOM     80  C   UNL A   1      30.653  26.201  24.925  1.00  0.00     0.048 A 
ATOM     81  C   UNL A   1      29.428  26.848  24.643  1.00  0.00     0.014 A 
ATOM     82  C   UNL A   1      31.758  26.179  23.997  1.00  0.00     0.011 A 
ATOM     83  C   UNL A   1      29.211  27.449  23.419  1.00  0.00     0.001 A 
ATOM     84  C   UNL A   1      31.483  26.857  22.762  1.00  0.00    -0.016 A 
ATOM     85  C   UNL A   1      33.080  25.586  24.095  1.00  0.00     0.052 A 
ATOM     86  C   UNL A   1      30.238  27.452  22.491  1.00  0.00     0.009 A 
ATOM     87  C   UNL A   1      32.438  26.963  21.743  1.00  0.00     0.009 A 
ATOM     88  C   UNL A   1      34.000  25.707  23.020  1.00  0.00     0.019 A 
ATOM     89  C   UNL A   1      33.694  26.402  21.867  1.00  0.00     0.002 A 
BRANCH  85  90
ATOM     90  S   UNL A   1      33.771  24.541  25.408  1.00  0.00     0.086 S 
ATOM     91  O   UNL A   1      35.234  24.785  25.539  1.00  0.00    -0.249 OA
BRANCH  90  92
ATOM     92  C   UNL A   1      33.440  22.861  24.769  1.00  0.00     0.049 A 
ATOM     93  C   UNL A   1      32.779  22.694  23.534  1.00  0.00     0.018 A 
ATOM     94  C   UNL A   1      33.609  21.712  25.579  1.00  0.00    -0.006 A 
ATOM     95  C   UNL A   1      32.263  21.458  23.125  1.00  0.00     0.001 A 
ATOM     96  C   UNL A   1      33.057  20.478  25.158  1.00  0.00     0.007 A 
ATOM     97  C   UNL A   1      32.383  20.352  23.949  1.00  0.00     0.000 A 
BRANCH  94  98
ATOM     98  C   UNL A   1      34.295  21.698  26.921  1.00  0.00     0.192 C 
BRANCH  98  99
ATOM     99  O   UNL A   1      35.677  21.985  26.738  1.00  0.00    -0.392 OA
ATOM    100  H   UNL A   1      35.888  22.838  27.149  1.00  0.00     0.211 HD
ENDBRANCH  98  99
ENDBRANCH  94  98
ENDBRANCH  90  92
ENDBRANCH  85  90
ENDBRANCH  77  80
ENDBRANCH  75  76
ENDBRANCH  74  75
ENDBRANCH   1  74
TORSDOF 20
ENDMDL
MODEL 2
REMARK VINA RESULT:     -11.4      5.994      9.465
REMARK SMILES O=C(NCCCCCCNC(=O)c1cccc2cccc([S@](=O)c3ccccc3CO)c12)c1ccc(-c2c3nc(c(-c4cc(S(=O)(=O)[O-])ccc4F)c4ccc([nH]4)c(-c4cc(S(=O)(=O)[O-])ccc4F)c4nc(c(-c5cc(S(=O)(=O)[O-])ccc5F)c5ccc2[nH]5)C=C4)C=C3)cc1
REMARK SMILES IDX 7 1 6 2 5 3 4 4 3 5 1 6 2 7 33 9 34 10 95 11 35 12 94 13
REMARK SMILES IDX 36 14 37 15 38 16 88 17 39 18 93 19 87 20 89 21 40 22 92 23
REMARK SMILES IDX 86 24 85 25 41 27 73 28 53 29 72 30 54 31 57 32 71 33 90 34
REMARK SMILES IDX 55 35 56 36 70 38 91 39 58 40 42 41 43 42 51 43 44 44 50 45
REMARK SMILES IDX 52 46 49 47 45 48 46 49 47 50 48 51 74 52 75 53 83 54 76 55
REMARK SMILES IDX 82 56 84 57 81 58 77 59 78 60 79 61 80 62 59 63 60 64 68 65
REMARK SMILES IDX 61 66 67 67 69 68 66 69 62 70 63 71 64 72 65 73 8 74 9 75
REMARK SMILES IDX 10 76 11 77 12 79 13 80 14 81 32 82 15 83 17 84 21 85 16 86
REMARK SMILES IDX 18 87 20 88 19 89 22 90 23 91 24 92 25 93 29 94 26 95 28 96
REMARK SMILES IDX 27 97 30 98 31 99
REMARK H PARENT 3 8 89 26 57 37 10 78 31 100
REMARK Flexibility Score: inf
ROOT
ATOM      1  C   UNL A   1      37.160  22.278  24.592  1.00  0.00     0.002 C 
ENDROOT
BRANCH   1   2
ATOM      2  C   UNL A   1      36.827  20.805  24.854  1.00  0.00     0.002 C 
BRANCH   2   3
ATOM      3  C   UNL A   1      38.016  19.858  25.015  1.00  0.00     0.021 C 
BRANCH   3   4
ATOM      4  C   UNL A   1      39.170  20.375  25.866  1.00  0.00     0.116 C 
BRANCH   4   5
ATOM      5  N   UNL A   1      40.298  19.459  25.922  1.00  0.00    -0.352 N 
ATOM      6  O   UNL A   1      42.455  18.819  26.053  1.00  0.00    -0.269 OA
ATOM      7  C   UNL A   1      41.631  19.717  26.165  1.00  0.00     0.251 C 
ATOM      8  H   UNL A   1      40.078  18.513  25.761  1.00  0.00     0.163 HD
BRANCH   7   9
ATOM      9  C   UNL A   1      42.071  21.084  26.537  1.00  0.00     0.039 A 
ATOM     10  C   UNL A   1      42.321  21.426  27.867  1.00  0.00     0.014 A 
ATOM     11  C   UNL A   1      42.245  22.039  25.530  1.00  0.00     0.014 A 
ATOM     12  C   UNL A   1      42.592  22.749  28.204  1.00  0.00     0.010 A 
ATOM     13  C   UNL A   1      42.601  23.352  25.862  1.00  0.00     0.010 A 
ATOM     14  C   UNL A   1      42.739  23.729  27.207  1.00  0.00    -0.014 A 
BRANCH  14  15
ATOM     15  C   UNL A   1      43.067  25.127  27.601  1.00  0.00     0.031 A 
ATOM     16  C   UNL A   1      44.447  25.691  27.393  1.00  0.00     0.074 A 
ATOM     17  C   UNL A   1      42.091  25.904  28.112  1.00  0.00     0.049 A 
ATOM     18  N   UNL A   1      44.889  26.901  27.631  1.00  0.00    -0.248 NA
ATOM     19  C   UNL A   1      45.465  24.775  26.861  1.00  0.00     0.031 C 
ATOM     20  C   UNL A   1      40.717  25.465  28.370  1.00  0.00     0.029 A 
ATOM     21  N   UNL A   1      42.091  27.224  28.481  1.00  0.00    -0.354 N 
ATOM     22  C   UNL A   1      46.239  26.890  27.295  1.00  0.00     0.074 A 
ATOM     23  C   UNL A   1      46.549  25.540  26.871  1.00  0.00     0.031 C 
ATOM     24  C   UNL A   1      39.994  26.512  28.797  1.00  0.00     0.029 A 
ATOM     25  C   UNL A   1      40.864  27.678  28.906  1.00  0.00     0.049 A 
ATOM     26  H   UNL A   1      42.893  27.795  28.445  1.00  0.00     0.167 HD
ATOM     27  C   UNL A   1      47.133  27.912  27.328  1.00  0.00     0.034 A 
ATOM     28  C   UNL A   1      40.479  28.892  29.343  1.00  0.00     0.034 A 
ATOM     29  C   UNL A   1      46.806  29.255  27.746  1.00  0.00     0.049 A 
ATOM     30  C   UNL A   1      41.496  30.000  29.398  1.00  0.00     0.074 A 
ATOM     31  C   UNL A   1      47.623  30.374  27.776  1.00  0.00     0.029 A 
ATOM     32  N   UNL A   1      45.565  29.665  28.220  1.00  0.00    -0.354 N 
ATOM     33  N   UNL A   1      42.762  29.978  29.050  1.00  0.00    -0.248 NA
ATOM     34  C   UNL A   1      41.030  31.296  29.903  1.00  0.00     0.031 C 
ATOM     35  C   UNL A   1      46.897  31.438  28.328  1.00  0.00     0.029 A 
ATOM     36  C   UNL A   1      45.605  31.006  28.575  1.00  0.00     0.049 A 
ATOM     37  H   UNL A   1      44.772  29.085  28.294  1.00  0.00     0.167 HD
ATOM     38  C   UNL A   1      43.237  31.265  29.275  1.00  0.00     0.074 A 
ATOM     39  C   UNL A   1      42.116  32.041  29.769  1.00  0.00     0.031 C 
ATOM     40  C   UNL A   1      44.486  31.763  29.088  1.00  0.00     0.034 A 
BRANCH  27  41
ATOM     41  C   UNL A   1      48.561  27.599  26.945  1.00  0.00     0.023 A 
ATOM     42  C   UNL A   1      49.045  27.802  25.640  1.00  0.00     0.031 A 
ATOM     43  C   UNL A   1      49.449  27.061  27.896  1.00  0.00     0.131 A 
ATOM     44  C   UNL A   1      50.347  27.402  25.302  1.00  0.00     0.055 A 
ATOM     45  C   UNL A   1      50.769  26.738  27.573  1.00  0.00     0.041 A 
ATOM     46  F   UNL A   1      49.044  26.828  29.153  1.00  0.00    -0.206 F 
ATOM     47  C   UNL A   1      51.221  26.893  26.266  1.00  0.00     0.022 A 
BRANCH  44  48
ATOM     48  S   UNL A   1      50.835  27.420  23.555  1.00  0.00     0.124 S 
ATOM     49  O   UNL A   1      50.974  28.852  23.299  1.00  0.00    -0.237 OA
ATOM     50  O   UNL A   1      52.074  26.651  23.566  1.00  0.00    -0.237 OA
ATOM     51  O   UNL A   1      49.709  26.780  22.877  1.00  0.00    -0.744 OA
ENDBRANCH  44  48
ENDBRANCH  27  41
BRANCH  28  52
ATOM     52  C   UNL A   1      39.074  29.121  29.777  1.00  0.00     0.023 A 
ATOM     53  C   UNL A   1      38.120  29.648  28.892  1.00  0.00     0.031 A 
ATOM     54  C   UNL A   1      38.667  28.836  31.093  1.00  0.00     0.131 A 
ATOM     55  C   UNL A   1      36.817  29.907  29.343  1.00  0.00     0.055 A 
ATOM     56  C   UNL A   1      37.358  29.048  31.523  1.00  0.00     0.041 A 
ATOM     57  F   UNL A   1      39.541  28.326  31.977  1.00  0.00    -0.206 F 
ATOM     58  C   UNL A   1      36.426  29.597  30.648  1.00  0.00     0.022 A 
BRANCH  55  59
ATOM     59  S   UNL A   1      35.653  30.718  28.214  1.00  0.00     0.124 S 
ATOM     60  O   UNL A   1      34.614  31.172  29.132  1.00  0.00    -0.237 OA
ATOM     61  O   UNL A   1      36.483  31.761  27.620  1.00  0.00    -0.237 OA
ATOM     62  O   UNL A   1      35.257  29.646  27.304  1.00  0.00    -0.744 OA
ENDBRANCH  55  59
ENDBRANCH  28  52
BRANCH  40  63
ATOM     63  C   UNL A   1      44.682  33.228  29.391  1.00  0.00     0.023 A 
ATOM     64  C   UNL A   1      44.313  34.228  28.474  1.00  0.00     0.031 A 
ATOM     65  C   UNL A   1      45.288  33.626  30.596  1.00  0.00     0.131 A 
ATOM     66  C   UNL A   1      44.611  35.571  28.748  1.00  0.00     0.055 A 
ATOM     67  C   UNL A   1      45.527  34.969  30.889  1.00  0.00     0.041 A 
ATOM     68  F   UNL A   1      45.664  32.713  31.506  1.00  0.00    -0.206 F 
ATOM     69  C   UNL A   1      45.202  35.950  29.956  1.00  0.00     0.022 A 
BRANCH  66  70
ATOM     70  S   UNL A   1      44.312  36.811  27.457  1.00  0.00     0.124 S 
ATOM     71  O   UNL A   1      43.743  37.916  28.223  1.00  0.00    -0.237 OA
ATOM     72  O   UNL A   1      45.650  37.030  26.919  1.00  0.00    -0.237 OA
ATOM     73  O   UNL A   1      43.381  36.144  26.549  1.00  0.00    -0.744 OA
ENDBRANCH  66  70
ENDBRANCH  40  63
ENDBRANCH  14  15
ENDBRANCH   7   9
ENDBRANCH   4   5
ENDBRANCH   3   4
ENDBRANCH   2   3
ENDBRANCH   1   2
BRANCH   1  74
ATOM     74  C   UNL A   1      36.767  23.274  25.687  1.00  0.00     0.021 C 
BRANCH  74  75
ATOM     75  C   UNL A   1      35.675  24.278  25.326  1.00  0.00     0.116 C 
BRANCH  75  76
ATOM     76  N   UNL A   1      35.330  24.280  23.913  1.00  0.00    -0.352 N 
ATOM     77  C   UNL A   1      34.204  23.781  23.292  1.00  0.00     0.251 C 
ATOM     78  H   UNL A   1      35.993  24.696  23.316  1.00  0.00     0.163 HD
ATOM     79  O   UNL A   1      34.012  23.933  22.089  1.00  0.00    -0.269 OA
BRANCH  77  80
ATOM     80  C   UNL A   1      33.148  23.167  24.117  1.00  0.00     0.048 A 
ATOM     81  C   UNL A   1      33.258  21.759  24.177  1.00  0.00     0.014 A 
ATOM     82  C   UNL A   1      32.145  23.905  24.847  1.00  0.00     0.011 A 
ATOM     83  C   UNL A   1      32.357  21.009  24.905  1.00  0.00     0.001 A 
ATOM     84  C   UNL A   1      31.267  23.070  25.617  1.00  0.00    -0.016 A 
ATOM     85  C   UNL A   1      31.871  25.329  24.927  1.00  0.00     0.052 A 
ATOM     86  C   UNL A   1      31.372  21.668  25.620  1.00  0.00     0.009 A 
ATOM     87  C   UNL A   1      30.242  23.601  26.411  1.00  0.00     0.009 A 
ATOM     88  C   UNL A   1      30.804  25.808  25.732  1.00  0.00     0.019 A 
ATOM     89  C   UNL A   1      30.011  24.961  26.480  1.00  0.00     0.002 A 
BRANCH  85  90
ATOM     90  S   UNL A   1      32.644  26.695  24.017  1.00  0.00     0.086 S 
ATOM     91  O   UNL A   1      33.744  27.291  24.826  1.00  0.00    -0.249 OA
BRANCH  90  92
ATOM     92  C   UNL A   1      31.253  27.866  23.835  1.00  0.00     0.049 A 
ATOM     93  C   UNL A   1      30.308  27.684  22.803  1.00  0.00     0.018 A 
ATOM     94  C   UNL A   1      31.215  29.090  24.546  1.00  0.00    -0.006 A 
ATOM     95  C   UNL A   1      29.390  28.680  22.449  1.00  0.00     0.001 A 
ATOM     96  C   UNL A   1      30.295  30.093  24.154  1.00  0.00     0.007 A 
ATOM     97  C   UNL A   1      29.397  29.895  23.111  1.00  0.00     0.000 A 
BRANCH  94  98
ATOM     98  C   UNL A   1      32.137  29.455  25.681  1.00  0.00     0.192 C 
BRANCH  98  99
ATOM     99  O   UNL A   1      33.295  30.090  25.152  1.00  0.00    -0.392 OA
ATOM    100  H   UNL A   1      33.545  30.835  25.721  1.00  0.00     0.211 HD
ENDBRANCH  98  99
ENDBRANCH  94  98
ENDBRANCH  90  92
ENDBRANCH  85  90
ENDBRANCH  77  80
ENDBRANCH  75  76
ENDBRANCH  74  75
ENDBRANCH   1  74
TORSDOF 20
ENDMDL
MODEL 3
REMARK VINA RESULT:     -11.4      5.812     10.866
REMARK SMILES O=C(NCCCCCCNC(=O)c1cccc2cccc([S@](=O)c3ccccc3CO)c12)c1ccc(-c2c3nc(c(-c4cc(S(=O)(=O)[O-])ccc4F)c4ccc([nH]4)c(-c4cc(S(=O)(=O)[O-])ccc4F)c4nc(c(-c5cc(S(=O)(=O)[O-])ccc5F)c5ccc2[nH]5)C=C4)C=C3)cc1
REMARK SMILES IDX 7 1 6 2 5 3 4 4 3 5 1 6 2 7 33 9 34 10 95 11 35 12 94 13
REMARK SMILES IDX 36 14 37 15 38 16 88 17 39 18 93 19 87 20 89 21 40 22 92 23
REMARK SMILES IDX 86 24 85 25 41 27 73 28 53 29 72 30 54 31 57 32 71 33 90 34
REMARK SMILES IDX 55 35 56 36 70 38 91 39 58 40 42 41 43 42 51 43 44 44 50 45
REMARK SMILES IDX 52 46 49 47 45 48 46 49 47 50 48 51 74 52 75 53 83 54 76 55
REMARK SMILES IDX 82 56 84 57 81 58 77 59 78 60 79 61 80 62 59 63 60 64 68 65
REMARK SMILES IDX 61 66 67 67 69 68 66 69 62 70 63 71 64 72 65 73 8 74 9 75
REMARK SMILES IDX 10 76 11 77 12 79 13 80 14 81 32 82 15 83 17 84 21 85 16 86
REMARK SMILES IDX 18 87 20 88 19 89 22 90 23 91 24 92 25 93 29 94 26 95 28 96
REMARK SMILES IDX 27 97 30 98 31 99
REMARK H PARENT 3 8 89 26 57 37 10 78 31 100
REMARK Flexibility Score: inf
ROOT
ATOM      1  C   UNL A   1      36.923  21.791  24.200  1.00  0.00     0.002 C 
ENDROOT
BRANCH   1   2
ATOM      2  C   UNL A   1      36.725  20.444  24.900  1.00  0.00     0.002 C 
BRANCH   2   3
ATOM      3  C   UNL A   1      37.966  19.562  25.043  1.00  0.00     0.021 C 
BRANCH   3   4
ATOM      4  C   UNL A   1      39.166  20.206  25.728  1.00  0.00     0.116 C 
BRANCH   4   5
ATOM      5  N   UNL A   1      40.238  19.266  26.012  1.00  0.00    -0.352 N 
ATOM      6  O   UNL A   1      42.339  18.572  26.440  1.00  0.00    -0.269 OA
ATOM      7  C   UNL A   1      41.552  19.506  26.355  1.00  0.00     0.251 C 
ATOM      8  H   UNL A   1      39.989  18.315  25.951  1.00  0.00     0.163 HD
BRANCH   7   9
ATOM      9  C   UNL A   1      42.020  20.892  26.594  1.00  0.00     0.039 A 
ATOM     10  C   UNL A   1      42.240  21.368  27.888  1.00  0.00     0.014 A 
ATOM     11  C   UNL A   1      42.251  21.730  25.498  1.00  0.00     0.014 A 
ATOM     12  C   UNL A   1      42.538  22.712  28.091  1.00  0.00     0.010 A 
ATOM     13  C   UNL A   1      42.635  23.061  25.701  1.00  0.00     0.010 A 
ATOM     14  C   UNL A   1      42.743  23.576  27.002  1.00  0.00    -0.014 A 
BRANCH  14  15
ATOM     15  C   UNL A   1      43.099  24.999  27.257  1.00  0.00     0.031 A 
ATOM     16  C   UNL A   1      42.118  25.943  27.900  1.00  0.00     0.074 A 
ATOM     17  C   UNL A   1      44.338  25.427  26.942  1.00  0.00     0.049 A 
ATOM     18  N   UNL A   1      42.280  27.197  28.241  1.00  0.00    -0.248 NA
ATOM     19  C   UNL A   1      40.778  25.414  28.186  1.00  0.00     0.031 C 
ATOM     20  C   UNL A   1      45.372  24.607  26.306  1.00  0.00     0.029 A 
ATOM     21  N   UNL A   1      44.949  26.638  27.135  1.00  0.00    -0.354 N 
ATOM     22  C   UNL A   1      41.062  27.615  28.765  1.00  0.00     0.074 A 
ATOM     23  C   UNL A   1      40.159  26.486  28.662  1.00  0.00     0.031 C 
ATOM     24  C   UNL A   1      46.505  25.320  26.215  1.00  0.00     0.029 A 
ATOM     25  C   UNL A   1      46.263  26.665  26.726  1.00  0.00     0.049 A 
ATOM     26  H   UNL A   1      44.492  27.417  27.527  1.00  0.00     0.167 HD
ATOM     27  C   UNL A   1      40.729  28.822  29.290  1.00  0.00     0.034 A 
ATOM     28  C   UNL A   1      47.171  27.659  26.750  1.00  0.00     0.034 A 
ATOM     29  C   UNL A   1      41.644  29.936  29.393  1.00  0.00     0.049 A 
ATOM     30  C   UNL A   1      46.769  28.996  27.311  1.00  0.00     0.074 A 
ATOM     31  C   UNL A   1      41.424  31.186  29.948  1.00  0.00     0.029 A 
ATOM     32  N   UNL A   1      42.952  29.941  28.920  1.00  0.00    -0.354 N 
ATOM     33  N   UNL A   1      45.619  29.364  27.828  1.00  0.00    -0.248 NA
ATOM     34  C   UNL A   1      47.789  30.050  27.293  1.00  0.00     0.031 C 
ATOM     35  C   UNL A   1      42.572  31.965  29.751  1.00  0.00     0.029 A 
ATOM     36  C   UNL A   1      43.536  31.181  29.140  1.00  0.00     0.049 A 
ATOM     37  H   UNL A   1      43.398  29.175  28.491  1.00  0.00     0.167 HD
ATOM     38  C   UNL A   1      45.787  30.688  28.216  1.00  0.00     0.074 A 
ATOM     39  C   UNL A   1      47.154  31.046  27.892  1.00  0.00     0.031 C 
ATOM     40  C   UNL A   1      44.893  31.533  28.792  1.00  0.00     0.034 A 
BRANCH  27  41
ATOM     41  C   UNL A   1      39.302  29.012  29.750  1.00  0.00     0.023 A 
ATOM     42  C   UNL A   1      38.320  29.580  28.918  1.00  0.00     0.031 A 
ATOM     43  C   UNL A   1      38.921  28.643  31.054  1.00  0.00     0.131 A 
ATOM     44  C   UNL A   1      37.034  29.831  29.419  1.00  0.00     0.055 A 
ATOM     45  C   UNL A   1      37.618  28.824  31.522  1.00  0.00     0.041 A 
ATOM     46  F   UNL A   1      39.815  28.111  31.901  1.00  0.00    -0.206 F 
ATOM     47  C   UNL A   1      36.668  29.436  30.708  1.00  0.00     0.022 A 
BRANCH  44  48
ATOM     48  S   UNL A   1      35.887  30.815  28.413  1.00  0.00     0.124 S 
ATOM     49  O   UNL A   1      35.072  31.462  29.438  1.00  0.00    -0.237 OA
ATOM     50  O   UNL A   1      36.789  31.688  27.670  1.00  0.00    -0.237 OA
ATOM     51  O   UNL A   1      35.187  29.813  27.612  1.00  0.00    -0.744 OA
ENDBRANCH  44  48
ENDBRANCH  27  41
BRANCH  28  52
ATOM     52  C   UNL A   1      48.541  27.434  26.215  1.00  0.00     0.023 A 
ATOM     53  C   UNL A   1      49.612  27.135  27.072  1.00  0.00     0.031 A 
ATOM     54  C   UNL A   1      48.806  27.537  24.838  1.00  0.00     0.131 A 
ATOM     55  C   UNL A   1      50.905  26.983  26.547  1.00  0.00     0.055 A 
ATOM     56  C   UNL A   1      50.083  27.336  24.315  1.00  0.00     0.041 A 
ATOM     57  F   UNL A   1      47.815  27.816  23.976  1.00  0.00    -0.206 F 
ATOM     58  C   UNL A   1      51.145  27.067  25.173  1.00  0.00     0.022 A 
BRANCH  55  59
ATOM     59  S   UNL A   1      52.286  26.738  27.696  1.00  0.00     0.124 S 
ATOM     60  O   UNL A   1      51.644  26.006  28.781  1.00  0.00    -0.237 OA
ATOM     61  O   UNL A   1      53.229  25.981  26.881  1.00  0.00    -0.237 OA
ATOM     62  O   UNL A   1      52.702  28.100  28.023  1.00  0.00    -0.744 OA
ENDBRANCH  55  59
ENDBRANCH  28  52
BRANCH  40  63
ATOM     63  C   UNL A   1      45.393  32.915  29.134  1.00  0.00     0.023 A 
ATOM     64  C   UNL A   1      45.318  33.976  28.214  1.00  0.00     0.031 A 
ATOM     65  C   UNL A   1      45.992  33.161  30.381  1.00  0.00     0.131 A 
ATOM     66  C   UNL A   1      45.892  35.217  28.532  1.00  0.00     0.055 A 
ATOM     67  C   UNL A   1      46.507  34.415  30.715  1.00  0.00     0.041 A 
ATOM     68  F   UNL A   1      46.093  32.183  31.296  1.00  0.00    -0.206 F 
ATOM     69  C   UNL A   1      46.473  35.447  29.781  1.00  0.00     0.022 A 
BRANCH  66  70
ATOM     70  S   UNL A   1      45.964  36.497  27.247  1.00  0.00     0.124 S 
ATOM     71  O   UNL A   1      46.314  35.720  26.063  1.00  0.00    -0.237 OA
ATOM     72  O   UNL A   1      44.612  37.043  27.276  1.00  0.00    -0.237 OA
ATOM     73  O   UNL A   1      47.007  37.403  27.724  1.00  0.00    -0.744 OA
ENDBRANCH  66  70
ENDBRANCH  40  63
ENDBRANCH  14  15
ENDBRANCH   7   9
ENDBRANCH   4   5
ENDBRANCH   3   4
ENDBRANCH   2   3
ENDBRANCH   1   2
BRANCH   1  74
ATOM     74  C   UNL A   1      36.863  23.040  25.086  1.00  0.00     0.021 C 
BRANCH  74  75
ATOM     75  C   UNL A   1      35.724  24.016  24.799  1.00  0.00     0.116 C 
BRANCH  75  76
ATOM     76  N   UNL A   1      35.253  23.973  23.424  1.00  0.00    -0.352 N 
ATOM     77  C   UNL A   1      34.063  23.483  22.928  1.00  0.00     0.251 C 
ATOM     78  H   UNL A   1      35.869  24.346  22.753  1.00  0.00     0.163 HD
ATOM     79  O   UNL A   1      33.766  23.593  21.742  1.00  0.00    -0.269 OA
BRANCH  77  80
ATOM     80  C   UNL A   1      33.072  22.932  23.868  1.00  0.00     0.048 A 
ATOM     81  C   UNL A   1      33.194  21.532  24.026  1.00  0.00     0.014 A 
ATOM     82  C   UNL A   1      32.117  23.721  24.610  1.00  0.00     0.011 A 
ATOM     83  C   UNL A   1      32.351  20.837  24.869  1.00  0.00     0.001 A 
ATOM     84  C   UNL A   1      31.301  22.945  25.501  1.00  0.00    -0.016 A 
ATOM     85  C   UNL A   1      31.841  25.147  24.602  1.00  0.00     0.052 A 
ATOM     86  C   UNL A   1      31.415  21.548  25.601  1.00  0.00     0.009 A 
ATOM     87  C   UNL A   1      30.331  23.533  26.323  1.00  0.00     0.009 A 
ATOM     88  C   UNL A   1      30.830  25.684  25.442  1.00  0.00     0.019 A 
ATOM     89  C   UNL A   1      30.097  24.894  26.306  1.00  0.00     0.002 A 
BRANCH  85  90
ATOM     90  S   UNL A   1      32.540  26.441  23.540  1.00  0.00     0.086 S 
ATOM     91  O   UNL A   1      33.836  26.916  24.099  1.00  0.00    -0.249 OA
BRANCH  90  92
ATOM     92  C   UNL A   1      31.263  27.745  23.641  1.00  0.00     0.049 A 
ATOM     93  C   UNL A   1      30.218  27.785  22.694  1.00  0.00     0.018 A 
ATOM     94  C   UNL A   1      31.412  28.865  24.496  1.00  0.00    -0.006 A 
ATOM     95  C   UNL A   1      29.378  28.896  22.556  1.00  0.00     0.001 A 
ATOM     96  C   UNL A   1      30.567  29.988  24.322  1.00  0.00     0.007 A 
ATOM     97  C   UNL A   1      29.566  30.009  23.357  1.00  0.00     0.000 A 
BRANCH  94  98
ATOM     98  C   UNL A   1      32.460  28.995  25.569  1.00  0.00     0.192 C 
BRANCH  98  99
ATOM     99  O   UNL A   1      33.609  29.631  25.022  1.00  0.00    -0.392 OA
ATOM    100  H   UNL A   1      34.079  30.112  25.722  1.00  0.00     0.211 HD
ENDBRANCH  98  99
ENDBRANCH  94  98
ENDBRANCH  90  92
ENDBRANCH  85  90
ENDBRANCH  77  80
ENDBRANCH  75  76
ENDBRANCH  74  75
ENDBRANCH   1  74
TORSDOF 20
ENDMDL
