MODEL 1
REMARK VINA RESULT:     -11.4      0.000      0.000
REMARK SMILES O=C(CN1C(=O)CN(C(=O)OCC2c3ccccc3-c3ccccc32)c2ccccc21)NCCCCCCNC(=O)c1ccc(-c2c3nc(c(-c4cc(S(=O)(=O)[O-])ccc4F)c4ccc([nH]4)c(-c4cc(S(=O)(=O)[O-])ccc4F)c4nc(c(-c5cc(S(=O)(=O)[O-])ccc5F)c5ccc2[nH]5)C=C4)C=C3)cc1
REMARK SMILES IDX 34 1 33 2 32 3 1 4 2 5 3 7 4 8 5 9 31 10 6 11 7 12 26 13
REMARK SMILES IDX 30 14 8 15 27 16 29 17 28 18 9 19 10 20 11 21 12 22 13 23
REMARK SMILES IDX 14 24 25 25 15 26 19 27 20 28 24 29 16 30 18 31 21 32 23 33
REMARK SMILES IDX 17 34 22 35 35 36 36 37 37 38 38 39 39 40 40 41 41 43 42 44
REMARK SMILES IDX 43 45 104 46 44 47 103 48 45 49 46 50 47 51 97 52 48 53
REMARK SMILES IDX 102 54 96 55 98 56 49 57 101 58 95 59 94 60 50 62 82 63
REMARK SMILES IDX 62 64 81 65 63 66 66 67 80 68 99 69 64 70 65 71 79 73 100 74
REMARK SMILES IDX 67 75 51 76 52 77 60 78 53 79 59 80 61 81 58 82 54 83 55 84
REMARK SMILES IDX 56 85 57 86 83 87 84 88 92 89 85 90 91 91 93 92 90 93 86 94
REMARK SMILES IDX 87 95 88 96 89 97 68 98 69 99 77 100 70 101 76 102 78 103
REMARK SMILES IDX 75 104 71 105 72 106 73 107 74 108
REMARK H PARENT 32 6 39 42 98 61 66 72
REMARK Flexibility Score: inf
ROOT
ATOM      1  C   UNL A   1      33.810  33.957  32.633  1.00  0.00     0.021 C 
ENDROOT
BRANCH   1   2
ATOM      2  C   UNL A   1      34.012  35.187  31.739  1.00  0.00     0.116 C 
BRANCH   2   3
ATOM      3  N   UNL A   1      34.390  34.785  30.401  1.00  0.00    -0.355 N 
ATOM      4  O   UNL A   1      32.564  35.548  29.250  1.00  0.00    -0.273 OA
ATOM      5  C   UNL A   1      33.633  34.943  29.264  1.00  0.00     0.240 C 
ATOM      6  H   UNL A   1      35.272  34.359  30.295  1.00  0.00     0.163 HD
BRANCH   5   7
ATOM      7  C   UNL A   1      34.249  34.281  28.010  1.00  0.00     0.225 C 
BRANCH   7   8
ATOM      8  N   UNL A   1      33.920  32.857  27.874  1.00  0.00    -0.299 N 
ATOM      9  C   UNL A   1      32.682  32.539  27.325  1.00  0.00     0.247 C 
ATOM     10  C   UNL A   1      34.890  31.835  28.126  1.00  0.00     0.068 A 
ATOM     11  O   UNL A   1      31.785  33.370  27.166  1.00  0.00    -0.272 OA
ATOM     12  C   UNL A   1      32.387  31.060  27.187  1.00  0.00     0.229 C 
ATOM     13  C   UNL A   1      34.770  30.576  27.495  1.00  0.00     0.071 A 
ATOM     14  C   UNL A   1      36.020  32.096  28.922  1.00  0.00     0.028 A 
ATOM     15  N   UNL A   1      33.540  30.235  26.841  1.00  0.00    -0.266 N 
ATOM     16  C   UNL A   1      35.891  29.729  27.500  1.00  0.00     0.029 A 
ATOM     17  C   UNL A   1      37.106  31.223  28.940  1.00  0.00     0.002 A 
ATOM     18  C   UNL A   1      37.057  30.062  28.190  1.00  0.00     0.002 A 
BRANCH  15  19
ATOM     19  C   UNL A   1      33.386  29.158  25.971  1.00  0.00     0.414 C 
ATOM     20  O   UNL A   1      33.998  28.096  26.019  1.00  0.00    -0.224 OA
BRANCH  19  21
ATOM     21  O   UNL A   1      32.513  29.428  24.951  1.00  0.00    -0.448 OA
BRANCH  21  22
ATOM     22  C   UNL A   1      33.027  29.191  23.625  1.00  0.00     0.248 C 
BRANCH  22  23
ATOM     23  C   UNL A   1      32.107  28.295  22.758  1.00  0.00     0.088 C 
ATOM     24  C   UNL A   1      31.926  26.905  23.370  1.00  0.00    -0.029 A 
ATOM     25  C   UNL A   1      30.656  28.748  22.611  1.00  0.00    -0.029 A 
ATOM     26  C   UNL A   1      32.895  25.940  23.611  1.00  0.00     0.005 A 
ATOM     27  C   UNL A   1      30.561  26.650  23.613  1.00  0.00    -0.014 A 
ATOM     28  C   UNL A   1      29.787  27.794  23.185  1.00  0.00    -0.014 A 
ATOM     29  C   UNL A   1      30.154  29.893  22.010  1.00  0.00     0.005 A 
ATOM     30  C   UNL A   1      32.483  24.704  24.111  1.00  0.00     0.000 A 
ATOM     31  C   UNL A   1      30.155  25.424  24.113  1.00  0.00     0.009 A 
ATOM     32  C   UNL A   1      28.422  28.025  23.241  1.00  0.00     0.009 A 
ATOM     33  C   UNL A   1      28.780  30.132  22.076  1.00  0.00     0.000 A 
ATOM     34  C   UNL A   1      31.126  24.448  24.361  1.00  0.00     0.001 A 
ATOM     35  C   UNL A   1      27.923  29.212  22.699  1.00  0.00     0.001 A 
ENDBRANCH  22  23
ENDBRANCH  21  22
ENDBRANCH  19  21
ENDBRANCH  15  19
ENDBRANCH   7   8
ENDBRANCH   5   7
ENDBRANCH   2   3
ENDBRANCH   1   2
BRANCH   1  36
ATOM     36  C   UNL A   1      34.730  32.760  32.332  1.00  0.00     0.002 C 
BRANCH  36  37
ATOM     37  C   UNL A   1      36.155  32.868  32.879  1.00  0.00     0.002 C 
BRANCH  37  38
ATOM     38  C   UNL A   1      37.045  31.654  32.617  1.00  0.00     0.021 C 
BRANCH  38  39
ATOM     39  C   UNL A   1      37.671  31.028  33.861  1.00  0.00     0.116 C 
BRANCH  39  40
ATOM     40  N   UNL A   1      38.024  29.628  33.675  1.00  0.00    -0.352 N 
ATOM     41  C   UNL A   1      39.013  29.080  32.890  1.00  0.00     0.251 C 
ATOM     42  H   UNL A   1      37.481  28.983  34.184  1.00  0.00     0.163 HD
ATOM     43  O   UNL A   1      39.075  27.863  32.745  1.00  0.00    -0.269 OA
BRANCH  41  44
ATOM     44  C   UNL A   1      39.968  29.969  32.191  1.00  0.00     0.039 A 
ATOM     45  C   UNL A   1      40.987  30.580  32.924  1.00  0.00     0.014 A 
ATOM     46  C   UNL A   1      39.882  30.162  30.809  1.00  0.00     0.014 A 
ATOM     47  C   UNL A   1      41.977  31.308  32.257  1.00  0.00     0.010 A 
ATOM     48  C   UNL A   1      40.909  30.823  30.139  1.00  0.00     0.010 A 
ATOM     49  C   UNL A   1      41.975  31.390  30.855  1.00  0.00    -0.014 A 
BRANCH  49  50
ATOM     50  C   UNL A   1      43.095  32.031  30.115  1.00  0.00     0.031 A 
ATOM     51  C   UNL A   1      44.324  31.240  29.763  1.00  0.00     0.074 A 
ATOM     52  C   UNL A   1      43.041  33.350  29.841  1.00  0.00     0.049 A 
ATOM     53  N   UNL A   1      45.443  31.644  29.219  1.00  0.00    -0.248 NA
ATOM     54  C   UNL A   1      44.300  29.811  30.103  1.00  0.00     0.031 C 
ATOM     55  C   UNL A   1      41.926  34.238  30.178  1.00  0.00     0.029 A 
ATOM     56  N   UNL A   1      43.952  34.180  29.236  1.00  0.00    -0.354 N 
ATOM     57  C   UNL A   1      46.260  30.521  29.154  1.00  0.00     0.074 A 
ATOM     58  C   UNL A   1      45.530  29.440  29.784  1.00  0.00     0.031 C 
ATOM     59  C   UNL A   1      42.215  35.482  29.770  1.00  0.00     0.029 A 
ATOM     60  C   UNL A   1      43.552  35.496  29.186  1.00  0.00     0.049 A 
ATOM     61  H   UNL A   1      44.811  33.864  28.872  1.00  0.00     0.167 HD
ATOM     62  C   UNL A   1      47.493  30.396  28.599  1.00  0.00     0.034 A 
ATOM     63  C   UNL A   1      44.196  36.595  28.744  1.00  0.00     0.034 A 
ATOM     64  C   UNL A   1      48.208  31.489  27.983  1.00  0.00     0.049 A 
ATOM     65  C   UNL A   1      45.579  36.447  28.166  1.00  0.00     0.074 A 
ATOM     66  C   UNL A   1      49.434  31.466  27.341  1.00  0.00     0.029 A 
ATOM     67  N   UNL A   1      47.769  32.808  27.946  1.00  0.00    -0.354 N 
ATOM     68  N   UNL A   1      46.316  35.365  28.055  1.00  0.00    -0.248 NA
ATOM     69  C   UNL A   1      46.214  37.665  27.647  1.00  0.00     0.031 C 
ATOM     70  C   UNL A   1      49.769  32.776  26.983  1.00  0.00     0.029 A 
ATOM     71  C   UNL A   1      48.717  33.611  27.328  1.00  0.00     0.049 A 
ATOM     72  H   UNL A   1      46.910  33.126  28.305  1.00  0.00     0.167 HD
ATOM     73  C   UNL A   1      47.495  35.770  27.437  1.00  0.00     0.074 A 
ATOM     74  C   UNL A   1      47.363  37.191  27.183  1.00  0.00     0.031 C 
ATOM     75  C   UNL A   1      48.586  35.033  27.106  1.00  0.00     0.034 A 
BRANCH  62  76
ATOM     76  C   UNL A   1      48.143  29.034  28.667  1.00  0.00     0.023 A 
ATOM     77  C   UNL A   1      48.004  28.100  27.624  1.00  0.00     0.031 A 
ATOM     78  C   UNL A   1      48.869  28.640  29.805  1.00  0.00     0.131 A 
ATOM     79  C   UNL A   1      48.491  26.794  27.781  1.00  0.00     0.055 A 
ATOM     80  C   UNL A   1      49.432  27.366  29.916  1.00  0.00     0.041 A 
ATOM     81  F   UNL A   1      49.023  29.477  30.843  1.00  0.00    -0.206 F 
ATOM     82  C   UNL A   1      49.226  26.427  28.909  1.00  0.00     0.022 A 
BRANCH  79  83
ATOM     83  S   UNL A   1      47.988  25.537  26.572  1.00  0.00     0.124 S 
ATOM     84  O   UNL A   1      49.019  25.686  25.546  1.00  0.00    -0.237 OA
ATOM     85  O   UNL A   1      48.038  24.309  27.356  1.00  0.00    -0.237 OA
ATOM     86  O   UNL A   1      46.651  25.967  26.167  1.00  0.00    -0.744 OA
ENDBRANCH  79  83
ENDBRANCH  62  76
BRANCH  63  87
ATOM     87  C   UNL A   1      43.552  37.933  28.861  1.00  0.00     0.023 A 
ATOM     88  C   UNL A   1      42.764  38.457  27.823  1.00  0.00     0.031 A 
ATOM     89  C   UNL A   1      43.726  38.716  30.018  1.00  0.00     0.131 A 
ATOM     90  C   UNL A   1      42.206  39.739  27.950  1.00  0.00     0.055 A 
ATOM     91  C   UNL A   1      43.129  39.970  30.158  1.00  0.00     0.041 A 
ATOM     92  F   UNL A   1      44.463  38.257  31.041  1.00  0.00    -0.206 F 
ATOM     93  C   UNL A   1      42.372  40.493  29.114  1.00  0.00     0.022 A 
BRANCH  90  94
ATOM     94  S   UNL A   1      41.304  40.438  26.539  1.00  0.00     0.124 S 
ATOM     95  O   UNL A   1      42.349  41.203  25.867  1.00  0.00    -0.237 OA
ATOM     96  O   UNL A   1      40.844  39.238  25.850  1.00  0.00    -0.237 OA
ATOM     97  O   UNL A   1      40.252  41.234  27.168  1.00  0.00    -0.744 OA
ENDBRANCH  90  94
ENDBRANCH  63  87
BRANCH  75  98
ATOM     98  C   UNL A   1      49.714  35.756  26.408  1.00  0.00     0.023 A 
ATOM     99  C   UNL A   1      50.782  36.323  27.125  1.00  0.00     0.031 A 
ATOM    100  C   UNL A   1      49.717  35.881  25.008  1.00  0.00     0.131 A 
ATOM    101  C   UNL A   1      51.783  37.033  26.443  1.00  0.00     0.055 A 
ATOM    102  C   UNL A   1      50.745  36.538  24.330  1.00  0.00     0.041 A 
ATOM    103  F   UNL A   1      48.719  35.362  24.274  1.00  0.00    -0.206 F 
ATOM    104  C   UNL A   1      51.780  37.128  25.049  1.00  0.00     0.022 A 
BRANCH 101 105
ATOM    105  S   UNL A   1      53.049  37.903  27.408  1.00  0.00     0.124 S 
ATOM    106  O   UNL A   1      54.264  37.188  27.027  1.00  0.00    -0.237 OA
ATOM    107  O   UNL A   1      52.933  39.272  26.915  1.00  0.00    -0.237 OA
ATOM    108  O   UNL A   1      52.622  37.706  28.792  1.00  0.00    -0.744 OA
ENDBRANCH 101 105
ENDBRANCH  75  98
ENDBRANCH  49  50
ENDBRANCH  41  44
ENDBRANCH  39  40
ENDBRANCH  38  39
ENDBRANCH  37  38
ENDBRANCH  36  37
ENDBRANCH   1  36
TORSDOF 21
ENDMDL
MODEL 2
REMARK VINA RESULT:     -11.3      6.660     12.585
REMARK SMILES O=C(CN1C(=O)CN(C(=O)OCC2c3ccccc3-c3ccccc32)c2ccccc21)NCCCCCCNC(=O)c1ccc(-c2c3nc(c(-c4cc(S(=O)(=O)[O-])ccc4F)c4ccc([nH]4)c(-c4cc(S(=O)(=O)[O-])ccc4F)c4nc(c(-c5cc(S(=O)(=O)[O-])ccc5F)c5ccc2[nH]5)C=C4)C=C3)cc1
REMARK SMILES IDX 34 1 33 2 32 3 1 4 2 5 3 7 4 8 5 9 31 10 6 11 7 12 26 13
REMARK SMILES IDX 30 14 8 15 27 16 29 17 28 18 9 19 10 20 11 21 12 22 13 23
REMARK SMILES IDX 14 24 25 25 15 26 19 27 20 28 24 29 16 30 18 31 21 32 23 33
REMARK SMILES IDX 17 34 22 35 35 36 36 37 37 38 38 39 39 40 40 41 41 43 42 44
REMARK SMILES IDX 43 45 104 46 44 47 103 48 45 49 46 50 47 51 97 52 48 53
REMARK SMILES IDX 102 54 96 55 98 56 49 57 101 58 95 59 94 60 50 62 82 63
REMARK SMILES IDX 62 64 81 65 63 66 66 67 80 68 99 69 64 70 65 71 79 73 100 74
REMARK SMILES IDX 67 75 51 76 52 77 60 78 53 79 59 80 61 81 58 82 54 83 55 84
REMARK SMILES IDX 56 85 57 86 83 87 84 88 92 89 85 90 91 91 93 92 90 93 86 94
REMARK SMILES IDX 87 95 88 96 89 97 68 98 69 99 77 100 70 101 76 102 78 103
REMARK SMILES IDX 75 104 71 105 72 106 73 107 74 108
REMARK H PARENT 32 6 39 42 98 61 66 72
REMARK Flexibility Score: inf
ROOT
ATOM      1  C   UNL A   1      40.508  22.111  27.503  1.00  0.00     0.021 C 
ENDROOT
BRANCH   1   2
ATOM      2  C   UNL A   1      40.200  21.333  26.217  1.00  0.00     0.116 C 
BRANCH   2   3
ATOM      3  N   UNL A   1      38.960  21.792  25.630  1.00  0.00    -0.355 N 
ATOM      4  O   UNL A   1      38.076  19.777  24.996  1.00  0.00    -0.273 OA
ATOM      5  C   UNL A   1      38.012  21.003  25.021  1.00  0.00     0.240 C 
ATOM      6  H   UNL A   1      38.777  22.759  25.672  1.00  0.00     0.163 HD
BRANCH   5   7
ATOM      7  C   UNL A   1      36.865  21.805  24.364  1.00  0.00     0.225 C 
BRANCH   7   8
ATOM      8  N   UNL A   1      35.716  22.024  25.251  1.00  0.00    -0.299 N 
ATOM      9  C   UNL A   1      35.708  23.192  26.007  1.00  0.00     0.247 C 
ATOM     10  C   UNL A   1      34.568  21.170  25.217  1.00  0.00     0.068 A 
ATOM     11  O   UNL A   1      36.697  23.916  26.133  1.00  0.00    -0.272 OA
ATOM     12  C   UNL A   1      34.498  23.388  26.897  1.00  0.00     0.229 C 
ATOM     13  C   UNL A   1      33.308  21.663  25.627  1.00  0.00     0.071 A 
ATOM     14  C   UNL A   1      34.655  19.868  24.690  1.00  0.00     0.028 A 
ATOM     15  N   UNL A   1      33.239  22.908  26.335  1.00  0.00    -0.266 N 
ATOM     16  C   UNL A   1      32.166  20.923  25.274  1.00  0.00     0.029 A 
ATOM     17  C   UNL A   1      33.509  19.138  24.382  1.00  0.00     0.002 A 
ATOM     18  C   UNL A   1      32.264  19.687  24.632  1.00  0.00     0.002 A 
BRANCH  15  19
ATOM     19  C   UNL A   1      32.065  23.621  26.556  1.00  0.00     0.414 C 
ATOM     20  O   UNL A   1      31.260  23.429  27.463  1.00  0.00    -0.224 OA
BRANCH  19  21
ATOM     21  O   UNL A   1      31.821  24.547  25.578  1.00  0.00    -0.448 OA
BRANCH  21  22
ATOM     22  C   UNL A   1      31.512  25.874  26.051  1.00  0.00     0.248 C 
BRANCH  22  23
ATOM     23  C   UNL A   1      32.122  26.999  25.177  1.00  0.00     0.088 C 
ATOM     24  C   UNL A   1      31.047  27.759  24.399  1.00  0.00    -0.029 A 
ATOM     25  C   UNL A   1      32.816  28.139  25.920  1.00  0.00    -0.029 A 
ATOM     26  C   UNL A   1      30.179  27.269  23.432  1.00  0.00     0.005 A 
ATOM     27  C   UNL A   1      31.079  29.129  24.728  1.00  0.00    -0.014 A 
ATOM     28  C   UNL A   1      32.136  29.355  25.689  1.00  0.00    -0.014 A 
ATOM     29  C   UNL A   1      33.952  28.101  26.713  1.00  0.00     0.005 A 
ATOM     30  C   UNL A   1      29.326  28.172  22.795  1.00  0.00     0.000 A 
ATOM     31  C   UNL A   1      30.230  30.023  24.097  1.00  0.00     0.009 A 
ATOM     32  C   UNL A   1      32.537  30.520  26.324  1.00  0.00     0.009 A 
ATOM     33  C   UNL A   1      34.351  29.272  27.363  1.00  0.00     0.000 A 
ATOM     34  C   UNL A   1      29.350  29.536  23.124  1.00  0.00     0.001 A 
ATOM     35  C   UNL A   1      33.640  30.468  27.180  1.00  0.00     0.001 A 
ENDBRANCH  22  23
ENDBRANCH  21  22
ENDBRANCH  19  21
ENDBRANCH  15  19
ENDBRANCH   7   8
ENDBRANCH   5   7
ENDBRANCH   2   3
ENDBRANCH   1   2
BRANCH   1  36
ATOM     36  C   UNL A   1      41.607  23.183  27.381  1.00  0.00     0.002 C 
BRANCH  36  37
ATOM     37  C   UNL A   1      42.339  23.230  26.038  1.00  0.00     0.002 C 
BRANCH  37  38
ATOM     38  C   UNL A   1      43.863  23.254  26.131  1.00  0.00     0.021 C 
BRANCH  38  39
ATOM     39  C   UNL A   1      44.505  24.620  25.900  1.00  0.00     0.116 C 
BRANCH  39  40
ATOM     40  N   UNL A   1      43.620  25.556  25.223  1.00  0.00    -0.352 N 
ATOM     41  C   UNL A   1      42.884  26.591  25.752  1.00  0.00     0.251 C 
ATOM     42  H   UNL A   1      43.539  25.432  24.249  1.00  0.00     0.163 HD
ATOM     43  O   UNL A   1      42.078  27.191  25.048  1.00  0.00    -0.269 OA
BRANCH  41  44
ATOM     44  C   UNL A   1      43.040  26.943  27.181  1.00  0.00     0.039 A 
ATOM     45  C   UNL A   1      42.004  26.649  28.070  1.00  0.00     0.014 A 
ATOM     46  C   UNL A   1      44.224  27.521  27.647  1.00  0.00     0.014 A 
ATOM     47  C   UNL A   1      42.193  26.846  29.441  1.00  0.00     0.010 A 
ATOM     48  C   UNL A   1      44.438  27.647  29.017  1.00  0.00     0.010 A 
ATOM     49  C   UNL A   1      43.430  27.297  29.929  1.00  0.00    -0.014 A 
BRANCH  49  50
ATOM     50  C   UNL A   1      43.705  27.374  31.389  1.00  0.00     0.031 A 
ATOM     51  C   UNL A   1      43.497  28.663  32.134  1.00  0.00     0.074 A 
ATOM     52  C   UNL A   1      44.229  26.306  32.024  1.00  0.00     0.049 A 
ATOM     53  N   UNL A   1      43.780  28.957  33.377  1.00  0.00    -0.248 NA
ATOM     54  C   UNL A   1      42.927  29.777  31.365  1.00  0.00     0.031 C 
ATOM     55  C   UNL A   1      44.526  25.015  31.398  1.00  0.00     0.029 A 
ATOM     56  N   UNL A   1      44.625  26.140  33.327  1.00  0.00    -0.354 N 
ATOM     57  C   UNL A   1      43.427  30.292  33.540  1.00  0.00     0.074 A 
ATOM     58  C   UNL A   1      42.980  30.764  32.246  1.00  0.00     0.031 C 
ATOM     59  C   UNL A   1      45.049  24.190  32.319  1.00  0.00     0.029 A 
ATOM     60  C   UNL A   1      45.170  24.903  33.586  1.00  0.00     0.049 A 
ATOM     61  H   UNL A   1      44.528  26.840  34.014  1.00  0.00     0.167 HD
ATOM     62  C   UNL A   1      43.450  31.047  34.668  1.00  0.00     0.034 A 
ATOM     63  C   UNL A   1      45.728  24.404  34.708  1.00  0.00     0.034 A 
ATOM     64  C   UNL A   1      43.906  30.560  35.949  1.00  0.00     0.049 A 
ATOM     65  C   UNL A   1      45.781  25.267  35.941  1.00  0.00     0.074 A 
ATOM     66  C   UNL A   1      43.921  31.216  37.167  1.00  0.00     0.029 A 
ATOM     67  N   UNL A   1      44.447  29.299  36.174  1.00  0.00    -0.354 N 
ATOM     68  N   UNL A   1      45.385  26.510  36.097  1.00  0.00    -0.248 NA
ATOM     69  C   UNL A   1      46.347  24.659  37.152  1.00  0.00     0.031 C 
ATOM     70  C   UNL A   1      44.535  30.383  38.110  1.00  0.00     0.029 A 
ATOM     71  C   UNL A   1      44.834  29.174  37.502  1.00  0.00     0.049 A 
ATOM     72  H   UNL A   1      44.542  28.596  35.492  1.00  0.00     0.167 HD
ATOM     73  C   UNL A   1      45.640  26.826  37.428  1.00  0.00     0.074 A 
ATOM     74  C   UNL A   1      46.204  25.637  38.035  1.00  0.00     0.031 C 
ATOM     75  C   UNL A   1      45.422  27.992  38.089  1.00  0.00     0.034 A 
BRANCH  62  76
ATOM     76  C   UNL A   1      42.991  32.482  34.546  1.00  0.00     0.023 A 
ATOM     77  C   UNL A   1      41.640  32.838  34.710  1.00  0.00     0.031 A 
ATOM     78  C   UNL A   1      43.901  33.501  34.212  1.00  0.00     0.131 A 
ATOM     79  C   UNL A   1      41.222  34.150  34.441  1.00  0.00     0.055 A 
ATOM     80  C   UNL A   1      43.492  34.825  34.038  1.00  0.00     0.041 A 
ATOM     81  F   UNL A   1      45.200  33.223  34.024  1.00  0.00    -0.206 F 
ATOM     82  C   UNL A   1      42.142  35.153  34.131  1.00  0.00     0.022 A 
BRANCH  79  83
ATOM     83  S   UNL A   1      39.441  34.480  34.326  1.00  0.00     0.124 S 
ATOM     84  O   UNL A   1      39.274  34.699  32.890  1.00  0.00    -0.237 OA
ATOM     85  O   UNL A   1      38.859  33.255  34.859  1.00  0.00    -0.237 OA
ATOM     86  O   UNL A   1      39.260  35.671  35.154  1.00  0.00    -0.744 OA
ENDBRANCH  79  83
ENDBRANCH  62  76
BRANCH  63  87
ATOM     87  C   UNL A   1      46.309  23.032  34.705  1.00  0.00     0.023 A 
ATOM     88  C   UNL A   1      47.686  22.824  34.532  1.00  0.00     0.031 A 
ATOM     89  C   UNL A   1      45.485  21.903  34.867  1.00  0.00     0.131 A 
ATOM     90  C   UNL A   1      48.194  21.515  34.493  1.00  0.00     0.055 A 
ATOM     91  C   UNL A   1      46.002  20.607  34.876  1.00  0.00     0.041 A 
ATOM     92  F   UNL A   1      44.163  22.049  35.044  1.00  0.00    -0.206 F 
ATOM     93  C   UNL A   1      47.365  20.407  34.677  1.00  0.00     0.022 A 
BRANCH  90  94
ATOM     94  S   UNL A   1      49.958  21.279  34.136  1.00  0.00     0.124 S 
ATOM     95  O   UNL A   1      50.469  20.850  35.433  1.00  0.00    -0.237 OA
ATOM     96  O   UNL A   1      49.922  20.261  33.092  1.00  0.00    -0.237 OA
ATOM     97  O   UNL A   1      50.396  22.602  33.697  1.00  0.00    -0.744 OA
ENDBRANCH  90  94
ENDBRANCH  63  87
BRANCH  75  98
ATOM     98  C   UNL A   1      45.777  28.023  39.557  1.00  0.00     0.023 A 
ATOM     99  C   UNL A   1      46.931  28.677  40.024  1.00  0.00     0.031 A 
ATOM    100  C   UNL A   1      44.951  27.386  40.499  1.00  0.00     0.131 A 
ATOM    101  C   UNL A   1      47.254  28.636  41.389  1.00  0.00     0.055 A 
ATOM    102  C   UNL A   1      45.246  27.399  41.864  1.00  0.00     0.041 A 
ATOM    103  F   UNL A   1      43.838  26.743  40.109  1.00  0.00    -0.206 F 
ATOM    104  C   UNL A   1      46.409  28.017  42.314  1.00  0.00     0.022 A 
BRANCH 101 105
ATOM    105  S   UNL A   1      48.837  29.334  41.934  1.00  0.00     0.124 S 
ATOM    106  O   UNL A   1      48.459  30.698  42.291  1.00  0.00    -0.237 OA
ATOM    107  O   UNL A   1      49.198  28.460  43.046  1.00  0.00    -0.237 OA
ATOM    108  O   UNL A   1      49.690  29.216  40.752  1.00  0.00    -0.744 OA
ENDBRANCH 101 105
ENDBRANCH  75  98
ENDBRANCH  49  50
ENDBRANCH  41  44
ENDBRANCH  39  40
ENDBRANCH  38  39
ENDBRANCH  37  38
ENDBRANCH  36  37
ENDBRANCH   1  36
TORSDOF 21
ENDMDL
MODEL 3
REMARK VINA RESULT:     -11.2      4.768      9.536
REMARK SMILES O=C(CN1C(=O)CN(C(=O)OCC2c3ccccc3-c3ccccc32)c2ccccc21)NCCCCCCNC(=O)c1ccc(-c2c3nc(c(-c4cc(S(=O)(=O)[O-])ccc4F)c4ccc([nH]4)c(-c4cc(S(=O)(=O)[O-])ccc4F)c4nc(c(-c5cc(S(=O)(=O)[O-])ccc5F)c5ccc2[nH]5)C=C4)C=C3)cc1
REMARK SMILES IDX 34 1 33 2 32 3 1 4 2 5 3 7 4 8 5 9 31 10 6 11 7 12 26 13
REMARK SMILES IDX 30 14 8 15 27 16 29 17 28 18 9 19 10 20 11 21 12 22 13 23
REMARK SMILES IDX 14 24 25 25 15 26 19 27 20 28 24 29 16 30 18 31 21 32 23 33
REMARK SMILES IDX 17 34 22 35 35 36 36 37 37 38 38 39 39 40 40 41 41 43 42 44
REMARK SMILES IDX 43 45 104 46 44 47 103 48 45 49 46 50 47 51 97 52 48 53
REMARK SMILES IDX 102 54 96 55 98 56 49 57 101 58 95 59 94 60 50 62 82 63
REMARK SMILES IDX 62 64 81 65 63 66 66 67 80 68 99 69 64 70 65 71 79 73 100 74
REMARK SMILES IDX 67 75 51 76 52 77 60 78 53 79 59 80 61 81 58 82 54 83 55 84
REMARK SMILES IDX 56 85 57 86 83 87 84 88 92 89 85 90 91 91 93 92 90 93 86 94
REMARK SMILES IDX 87 95 88 96 89 97 68 98 69 99 77 100 70 101 76 102 78 103
REMARK SMILES IDX 75 104 71 105 72 106 73 107 74 108
REMARK H PARENT 32 6 39 42 98 61 66 72
REMARK Flexibility Score: inf
ROOT
ATOM      1  C   UNL A   1      41.527  24.654  28.162  1.00  0.00     0.021 C 
ENDROOT
BRANCH   1   2
ATOM      2  C   UNL A   1      40.543  25.000  27.037  1.00  0.00     0.116 C 
BRANCH   2   3
ATOM      3  N   UNL A   1      40.310  26.428  26.988  1.00  0.00    -0.355 N 
ATOM      4  O   UNL A   1      39.265  26.706  29.007  1.00  0.00    -0.273 OA
ATOM      5  C   UNL A   1      39.651  27.173  27.939  1.00  0.00     0.240 C 
ATOM      6  H   UNL A   1      40.655  26.910  26.202  1.00  0.00     0.163 HD
BRANCH   5   7
ATOM      7  C   UNL A   1      39.435  28.648  27.532  1.00  0.00     0.225 C 
BRANCH   7   8
ATOM      8  N   UNL A   1      38.751  29.448  28.554  1.00  0.00    -0.299 N 
ATOM      9  C   UNL A   1      37.360  29.434  28.548  1.00  0.00     0.247 C 
ATOM     10  C   UNL A   1      39.469  30.077  29.621  1.00  0.00     0.068 A 
ATOM     11  O   UNL A   1      36.697  28.979  27.614  1.00  0.00    -0.272 OA
ATOM     12  C   UNL A   1      36.692  30.260  29.628  1.00  0.00     0.229 C 
ATOM     13  C   UNL A   1      38.817  30.353  30.844  1.00  0.00     0.071 A 
ATOM     14  C   UNL A   1      40.846  30.339  29.506  1.00  0.00     0.028 A 
ATOM     15  N   UNL A   1      37.387  30.269  30.911  1.00  0.00    -0.266 N 
ATOM     16  C   UNL A   1      39.615  30.657  31.961  1.00  0.00     0.029 A 
ATOM     17  C   UNL A   1      41.612  30.674  30.620  1.00  0.00     0.002 A 
ATOM     18  C   UNL A   1      41.001  30.786  31.856  1.00  0.00     0.002 A 
BRANCH  15  19
ATOM     19  C   UNL A   1      36.656  30.256  32.096  1.00  0.00     0.414 C 
ATOM     20  O   UNL A   1      36.676  29.374  32.950  1.00  0.00    -0.224 OA
BRANCH  19  21
ATOM     21  O   UNL A   1      35.800  31.320  32.197  1.00  0.00    -0.448 OA
BRANCH  21  22
ATOM     22  C   UNL A   1      36.303  32.443  32.950  1.00  0.00     0.248 C 
BRANCH  22  23
ATOM     23  C   UNL A   1      36.525  33.713  32.091  1.00  0.00     0.088 C 
ATOM     24  C   UNL A   1      37.998  33.901  31.726  1.00  0.00    -0.029 A 
ATOM     25  C   UNL A   1      35.871  33.726  30.711  1.00  0.00    -0.029 A 
ATOM     26  C   UNL A   1      39.075  34.105  32.579  1.00  0.00     0.005 A 
ATOM     27  C   UNL A   1      38.157  33.929  30.326  1.00  0.00    -0.014 A 
ATOM     28  C   UNL A   1      36.859  33.781  29.704  1.00  0.00    -0.014 A 
ATOM     29  C   UNL A   1      34.524  33.705  30.381  1.00  0.00     0.005 A 
ATOM     30  C   UNL A   1      40.330  34.330  32.012  1.00  0.00     0.000 A 
ATOM     31  C   UNL A   1      39.405  34.149  29.765  1.00  0.00     0.009 A 
ATOM     32  C   UNL A   1      36.508  33.725  28.365  1.00  0.00     0.009 A 
ATOM     33  C   UNL A   1      34.169  33.636  29.032  1.00  0.00     0.000 A 
ATOM     34  C   UNL A   1      40.494  34.352  30.618  1.00  0.00     0.001 A 
ATOM     35  C   UNL A   1      35.154  33.631  28.033  1.00  0.00     0.001 A 
ENDBRANCH  22  23
ENDBRANCH  21  22
ENDBRANCH  19  21
ENDBRANCH  15  19
ENDBRANCH   7   8
ENDBRANCH   5   7
ENDBRANCH   2   3
ENDBRANCH   1   2
BRANCH   1  36
ATOM     36  C   UNL A   1      43.014  24.885  27.837  1.00  0.00     0.002 C 
BRANCH  36  37
ATOM     37  C   UNL A   1      43.963  23.757  28.248  1.00  0.00     0.002 C 
BRANCH  37  38
ATOM     38  C   UNL A   1      44.555  22.953  27.091  1.00  0.00     0.021 C 
BRANCH  38  39
ATOM     39  C   UNL A   1      44.226  23.484  25.698  1.00  0.00     0.116 C 
BRANCH  39  40
ATOM     40  N   UNL A   1      45.407  23.668  24.868  1.00  0.00    -0.352 N 
ATOM     41  C   UNL A   1      46.285  24.727  24.832  1.00  0.00     0.251 C 
ATOM     42  H   UNL A   1      45.606  22.931  24.245  1.00  0.00     0.163 HD
ATOM     43  O   UNL A   1      47.150  24.775  23.962  1.00  0.00    -0.269 OA
BRANCH  41  44
ATOM     44  C   UNL A   1      46.151  25.822  25.818  1.00  0.00     0.039 A 
ATOM     45  C   UNL A   1      45.118  26.750  25.666  1.00  0.00     0.014 A 
ATOM     46  C   UNL A   1      47.014  25.904  26.915  1.00  0.00     0.014 A 
ATOM     47  C   UNL A   1      44.893  27.703  26.663  1.00  0.00     0.010 A 
ATOM     48  C   UNL A   1      46.742  26.805  27.941  1.00  0.00     0.010 A 
ATOM     49  C   UNL A   1      45.669  27.704  27.833  1.00  0.00    -0.014 A 
BRANCH  49  50
ATOM     50  C   UNL A   1      45.355  28.609  28.971  1.00  0.00     0.031 A 
ATOM     51  C   UNL A   1      44.921  28.043  30.294  1.00  0.00     0.074 A 
ATOM     52  C   UNL A   1      45.373  29.944  28.782  1.00  0.00     0.049 A 
ATOM     53  N   UNL A   1      44.503  28.667  31.365  1.00  0.00    -0.248 NA
ATOM     54  C   UNL A   1      44.925  26.579  30.411  1.00  0.00     0.031 C 
ATOM     55  C   UNL A   1      45.726  30.614  27.528  1.00  0.00     0.029 A 
ATOM     56  N   UNL A   1      45.068  30.977  29.633  1.00  0.00    -0.354 N 
ATOM     57  C   UNL A   1      44.190  27.672  32.285  1.00  0.00     0.074 A 
ATOM     58  C   UNL A   1      44.397  26.406  31.613  1.00  0.00     0.031 C 
ATOM     59  C   UNL A   1      45.625  31.942  27.695  1.00  0.00     0.029 A 
ATOM     60  C   UNL A   1      45.156  32.219  29.048  1.00  0.00     0.049 A 
ATOM     61  H   UNL A   1      44.812  30.841  30.575  1.00  0.00     0.167 HD
ATOM     62  C   UNL A   1      43.791  27.802  33.576  1.00  0.00     0.034 A 
ATOM     63  C   UNL A   1      44.867  33.443  29.535  1.00  0.00     0.034 A 
ATOM     64  C   UNL A   1      43.583  29.074  34.227  1.00  0.00     0.049 A 
ATOM     65  C   UNL A   1      44.388  33.568  30.958  1.00  0.00     0.074 A 
ATOM     66  C   UNL A   1      43.235  29.325  35.542  1.00  0.00     0.029 A 
ATOM     67  N   UNL A   1      43.686  30.313  33.604  1.00  0.00    -0.354 N 
ATOM     68  N   UNL A   1      44.156  32.619  31.837  1.00  0.00    -0.248 NA
ATOM     69  C   UNL A   1      44.141  34.926  31.457  1.00  0.00     0.031 C 
ATOM     70  C   UNL A   1      43.057  30.704  35.697  1.00  0.00     0.029 A 
ATOM     71  C   UNL A   1      43.370  31.326  34.498  1.00  0.00     0.049 A 
ATOM     72  H   UNL A   1      43.946  30.452  32.665  1.00  0.00     0.167 HD
ATOM     73  C   UNL A   1      43.752  33.269  32.999  1.00  0.00     0.074 A 
ATOM     74  C   UNL A   1      43.791  34.690  32.714  1.00  0.00     0.031 C 
ATOM     75  C   UNL A   1      43.386  32.739  34.195  1.00  0.00     0.034 A 
BRANCH  62  76
ATOM     76  C   UNL A   1      43.532  26.528  34.347  1.00  0.00     0.023 A 
ATOM     77  C   UNL A   1      44.578  25.654  34.697  1.00  0.00     0.031 A 
ATOM     78  C   UNL A   1      42.223  26.152  34.695  1.00  0.00     0.131 A 
ATOM     79  C   UNL A   1      44.290  24.410  35.278  1.00  0.00     0.055 A 
ATOM     80  C   UNL A   1      41.951  24.953  35.358  1.00  0.00     0.041 A 
ATOM     81  F   UNL A   1      41.179  26.932  34.374  1.00  0.00    -0.206 F 
ATOM     82  C   UNL A   1      42.986  24.064  35.634  1.00  0.00     0.022 A 
BRANCH  79  83
ATOM     83  S   UNL A   1      45.622  23.183  35.390  1.00  0.00     0.124 S 
ATOM     84  O   UNL A   1      45.399  22.393  34.181  1.00  0.00    -0.237 OA
ATOM     85  O   UNL A   1      46.818  24.017  35.398  1.00  0.00    -0.237 OA
ATOM     86  O   UNL A   1      45.339  22.484  36.642  1.00  0.00    -0.744 OA
ENDBRANCH  79  83
ENDBRANCH  62  76
BRANCH  63  87
ATOM     87  C   UNL A   1      44.991  34.642  28.659  1.00  0.00     0.023 A 
ATOM     88  C   UNL A   1      46.226  35.284  28.473  1.00  0.00     0.031 A 
ATOM     89  C   UNL A   1      43.866  35.169  27.999  1.00  0.00     0.131 A 
ATOM     90  C   UNL A   1      46.299  36.436  27.674  1.00  0.00     0.055 A 
ATOM     91  C   UNL A   1      43.954  36.287  27.167  1.00  0.00     0.041 A 
ATOM     92  F   UNL A   1      42.665  34.587  28.138  1.00  0.00    -0.206 F 
ATOM     93  C   UNL A   1      45.176  36.933  27.009  1.00  0.00     0.022 A 
BRANCH  90  94
ATOM     94  S   UNL A   1      47.882  37.316  27.562  1.00  0.00     0.124 S 
ATOM     95  O   UNL A   1      48.039  37.463  26.119  1.00  0.00    -0.237 OA
ATOM     96  O   UNL A   1      47.602  38.540  28.304  1.00  0.00    -0.237 OA
ATOM     97  O   UNL A   1      48.825  36.402  28.204  1.00  0.00    -0.744 OA
ENDBRANCH  90  94
ENDBRANCH  63  87
BRANCH  75  98
ATOM     98  C   UNL A   1      43.022  33.711  35.291  1.00  0.00     0.023 A 
ATOM     99  C   UNL A   1      41.688  34.085  35.534  1.00  0.00     0.031 A 
ATOM    100  C   UNL A   1      44.024  34.273  36.101  1.00  0.00     0.131 A 
ATOM    101  C   UNL A   1      41.398  35.033  36.527  1.00  0.00     0.055 A 
ATOM    102  C   UNL A   1      43.723  35.171  37.127  1.00  0.00     0.041 A 
ATOM    103  F   UNL A   1      45.315  33.954  35.912  1.00  0.00    -0.206 F 
ATOM    104  C   UNL A   1      42.405  35.564  37.337  1.00  0.00     0.022 A 
BRANCH 101 105
ATOM    105  S   UNL A   1      39.692  35.628  36.696  1.00  0.00     0.124 S 
ATOM    106  O   UNL A   1      38.924  34.484  36.212  1.00  0.00    -0.237 OA
ATOM    107  O   UNL A   1      39.595  35.902  38.126  1.00  0.00    -0.237 OA
ATOM    108  O   UNL A   1      39.653  36.809  35.835  1.00  0.00    -0.744 OA
ENDBRANCH 101 105
ENDBRANCH  75  98
ENDBRANCH  49  50
ENDBRANCH  41  44
ENDBRANCH  39  40
ENDBRANCH  38  39
ENDBRANCH  37  38
ENDBRANCH  36  37
ENDBRANCH   1  36
TORSDOF 21
ENDMDL
