MODEL 1
REMARK VINA RESULT:     -12.0      0.000      0.000
REMARK SMILES CC(=O)c1nnn(-c2ccc(C(=O)NCCCCCCNC(=O)c3ccc(-c4c5nc(c(-c6cc(S(=O)(=O)[O-])ccc6F)c6ccc([nH]6)c(-c6cc(S(=O)(=O)[O-])ccc6F)c6nc(c(-c7cc(S(=O)(=O)[O-])ccc7F)c7ccc4[nH]7)C=C6)C=C5)cc3)cc2)c1C
REMARK SMILES IDX 18 1 17 2 16 3 15 4 14 5 12 6 13 7 11 9 8 10 9 11 88 12
REMARK SMILES IDX 10 13 87 14 7 15 4 16 5 17 89 18 6 19 90 20 2 21 1 22 3 23
REMARK SMILES IDX 19 24 20 25 21 26 22 27 23 29 24 30 25 31 86 32 26 33 85 34
REMARK SMILES IDX 27 35 28 36 29 37 79 38 30 39 84 40 78 41 80 42 31 43 83 44
REMARK SMILES IDX 77 45 76 46 32 48 64 49 44 50 63 51 45 52 48 53 62 54 81 55
REMARK SMILES IDX 46 56 47 57 61 59 82 60 49 61 33 62 34 63 42 64 35 65 41 66
REMARK SMILES IDX 43 67 40 68 36 69 37 70 38 71 39 72 65 73 66 74 74 75 67 76
REMARK SMILES IDX 73 77 75 78 72 79 68 80 69 81 70 82 71 83 50 84 51 85 59 86
REMARK SMILES IDX 52 87 58 88 60 89 57 90 53 91 54 92 55 93 56 94
REMARK H PARENT 14 8 21 28 80 47 48 58
REMARK Flexibility Score: inf
ROOT
ATOM      1  C   UNL A   1      33.451  27.837  26.591  1.00  0.00     0.002 C 
ENDROOT
BRANCH   1   2
ATOM      2  C   UNL A   1      31.972  27.646  26.968  1.00  0.00     0.002 C 
BRANCH   2   3
ATOM      3  C   UNL A   1      31.238  26.516  26.233  1.00  0.00     0.021 C 
BRANCH   3   4
ATOM      4  C   UNL A   1      32.103  25.271  26.021  1.00  0.00     0.116 C 
BRANCH   4   5
ATOM      5  N   UNL A   1      31.555  24.447  24.958  1.00  0.00    -0.352 N 
ATOM      6  C   UNL A   1      32.098  23.495  24.132  1.00  0.00     0.251 C 
ATOM      7  O   UNL A   1      31.344  22.941  23.331  1.00  0.00    -0.269 OA
ATOM      8  H   UNL A   1      30.598  24.604  24.796  1.00  0.00     0.163 HD
BRANCH   6   9
ATOM      9  C   UNL A   1      33.511  23.032  24.235  1.00  0.00     0.039 A 
ATOM     10  C   UNL A   1      36.120  22.267  24.866  1.00  0.00     0.067 A 
ATOM     11  C   UNL A   1      35.061  21.469  25.296  1.00  0.00     0.029 A 
ATOM     12  C   UNL A   1      35.898  23.347  24.008  1.00  0.00     0.029 A 
ATOM     13  C   UNL A   1      33.756  21.879  25.005  1.00  0.00     0.016 A 
ATOM     14  C   UNL A   1      34.595  23.686  23.648  1.00  0.00     0.016 A 
BRANCH  10  15
ATOM     15  N   UNL A   1      37.417  22.036  25.356  1.00  0.00    -0.217 N 
ATOM     16  C   UNL A   1      39.262  21.126  26.063  1.00  0.00     0.151 A 
ATOM     17  N   UNL A   1      39.248  22.454  26.411  1.00  0.00    -0.126 NA
ATOM     18  C   UNL A   1      38.131  20.847  25.311  1.00  0.00     0.073 A 
ATOM     19  N   UNL A   1      38.180  23.020  25.864  1.00  0.00    -0.061 NA
ATOM     20  C   UNL A   1      37.681  19.666  24.535  1.00  0.00     0.069 C 
BRANCH  16  21
ATOM     21  C   UNL A   1      40.377  20.262  26.426  1.00  0.00     0.181 C 
ATOM     22  C   UNL A   1      41.079  20.516  27.735  1.00  0.00     0.095 C 
ATOM     23  O   UNL A   1      40.730  19.326  25.710  1.00  0.00    -0.293 OA
ENDBRANCH  16  21
ENDBRANCH  10  15
ENDBRANCH   6   9
ENDBRANCH   4   5
ENDBRANCH   3   4
ENDBRANCH   2   3
ENDBRANCH   1   2
BRANCH   1  24
ATOM     24  C   UNL A   1      34.064  29.211  26.899  1.00  0.00     0.021 C 
BRANCH  24  25
ATOM     25  C   UNL A   1      35.494  29.144  27.413  1.00  0.00     0.116 C 
BRANCH  25  26
ATOM     26  N   UNL A   1      35.619  29.655  28.781  1.00  0.00    -0.352 N 
ATOM     27  C   UNL A   1      36.597  29.393  29.730  1.00  0.00     0.251 C 
ATOM     28  H   UNL A   1      34.907  30.272  29.067  1.00  0.00     0.163 HD
ATOM     29  O   UNL A   1      36.359  29.546  30.916  1.00  0.00    -0.269 OA
BRANCH  27  30
ATOM     30  C   UNL A   1      37.925  28.936  29.272  1.00  0.00     0.039 A 
ATOM     31  C   UNL A   1      38.571  29.482  28.159  1.00  0.00     0.014 A 
ATOM     32  C   UNL A   1      38.531  27.924  30.004  1.00  0.00     0.014 A 
ATOM     33  C   UNL A   1      39.851  29.022  27.840  1.00  0.00     0.010 A 
ATOM     34  C   UNL A   1      39.861  27.672  29.852  1.00  0.00     0.010 A 
ATOM     35  C   UNL A   1      40.488  28.116  28.704  1.00  0.00    -0.014 A 
BRANCH  35  36
ATOM     36  C   UNL A   1      41.866  27.680  28.524  1.00  0.00     0.031 A 
ATOM     37  C   UNL A   1      41.974  26.424  27.751  1.00  0.00     0.074 A 
ATOM     38  C   UNL A   1      42.933  28.471  28.785  1.00  0.00     0.049 A 
ATOM     39  N   UNL A   1      42.216  25.245  28.213  1.00  0.00    -0.248 NA
ATOM     40  C   UNL A   1      41.538  26.431  26.343  1.00  0.00     0.031 C 
ATOM     41  C   UNL A   1      42.945  29.865  29.250  1.00  0.00     0.029 A 
ATOM     42  N   UNL A   1      44.255  28.225  28.585  1.00  0.00    -0.354 N 
ATOM     43  C   UNL A   1      42.268  24.418  27.098  1.00  0.00     0.074 A 
ATOM     44  C   UNL A   1      41.570  25.127  26.061  1.00  0.00     0.031 C 
ATOM     45  C   UNL A   1      44.178  30.395  29.081  1.00  0.00     0.029 A 
ATOM     46  C   UNL A   1      45.085  29.346  28.648  1.00  0.00     0.049 A 
ATOM     47  H   UNL A   1      44.602  27.321  28.408  1.00  0.00     0.167 HD
ATOM     48  C   UNL A   1      43.151  23.382  27.048  1.00  0.00     0.034 A 
ATOM     49  C   UNL A   1      46.415  29.407  28.353  1.00  0.00     0.034 A 
ATOM     50  C   UNL A   1      43.699  23.118  28.366  1.00  0.00     0.049 A 
ATOM     51  C   UNL A   1      46.929  28.018  28.465  1.00  0.00     0.074 A 
ATOM     52  C   UNL A   1      43.149  22.826  29.601  1.00  0.00     0.029 A 
ATOM     53  N   UNL A   1      44.977  23.567  28.634  1.00  0.00    -0.354 N 
ATOM     54  N   UNL A   1      46.956  27.359  29.592  1.00  0.00    -0.248 NA
ATOM     55  C   UNL A   1      46.909  27.188  27.269  1.00  0.00     0.031 C 
ATOM     56  C   UNL A   1      43.911  23.593  30.533  1.00  0.00     0.029 A 
ATOM     57  C   UNL A   1      44.951  24.221  29.843  1.00  0.00     0.049 A 
ATOM     58  H   UNL A   1      45.768  23.441  28.061  1.00  0.00     0.167 HD
ATOM     59  C   UNL A   1      46.501  26.088  29.277  1.00  0.00     0.074 A 
ATOM     60  C   UNL A   1      46.580  26.013  27.816  1.00  0.00     0.031 C 
ATOM     61  C   UNL A   1      45.823  25.330  30.191  1.00  0.00     0.034 A 
BRANCH  48  62
ATOM     62  C   UNL A   1      43.830  22.884  25.787  1.00  0.00     0.023 A 
ATOM     63  C   UNL A   1      43.943  21.488  25.646  1.00  0.00     0.031 A 
ATOM     64  C   UNL A   1      44.599  23.652  24.882  1.00  0.00     0.131 A 
ATOM     65  C   UNL A   1      44.870  20.923  24.757  1.00  0.00     0.055 A 
ATOM     66  C   UNL A   1      45.471  23.081  23.950  1.00  0.00     0.041 A 
ATOM     67  F   UNL A   1      44.629  24.987  24.891  1.00  0.00    -0.206 F 
ATOM     68  C   UNL A   1      45.641  21.711  23.908  1.00  0.00     0.022 A 
BRANCH  65  69
ATOM     69  S   UNL A   1      45.183  19.145  24.874  1.00  0.00     0.124 S 
ATOM     70  O   UNL A   1      45.535  18.822  23.496  1.00  0.00    -0.237 OA
ATOM     71  O   UNL A   1      46.270  19.098  25.846  1.00  0.00    -0.237 OA
ATOM     72  O   UNL A   1      43.906  18.608  25.338  1.00  0.00    -0.744 OA
ENDBRANCH  65  69
ENDBRANCH  48  62
BRANCH  49  73
ATOM     73  C   UNL A   1      47.167  30.509  27.674  1.00  0.00     0.023 A 
ATOM     74  C   UNL A   1      46.540  31.622  27.062  1.00  0.00     0.031 A 
ATOM     75  C   UNL A   1      48.566  30.600  27.852  1.00  0.00     0.131 A 
ATOM     76  C   UNL A   1      47.305  32.752  26.668  1.00  0.00     0.055 A 
ATOM     77  C   UNL A   1      49.312  31.718  27.467  1.00  0.00     0.041 A 
ATOM     78  F   UNL A   1      49.248  29.638  28.493  1.00  0.00    -0.206 F 
ATOM     79  C   UNL A   1      48.684  32.804  26.883  1.00  0.00     0.022 A 
BRANCH  76  80
ATOM     80  S   UNL A   1      46.506  34.228  25.943  1.00  0.00     0.124 S 
ATOM     81  O   UNL A   1      46.212  35.034  27.122  1.00  0.00    -0.237 OA
ATOM     82  O   UNL A   1      47.538  34.738  25.047  1.00  0.00    -0.237 OA
ATOM     83  O   UNL A   1      45.328  33.682  25.265  1.00  0.00    -0.744 OA
ENDBRANCH  76  80
ENDBRANCH  49  73
BRANCH  61  84
ATOM     84  C   UNL A   1      45.824  25.778  31.644  1.00  0.00     0.023 A 
ATOM     85  C   UNL A   1      46.881  25.576  32.565  1.00  0.00     0.031 A 
ATOM     86  C   UNL A   1      44.730  26.549  32.076  1.00  0.00     0.131 A 
ATOM     87  C   UNL A   1      46.805  26.127  33.862  1.00  0.00     0.055 A 
ATOM     88  C   UNL A   1      44.670  27.112  33.349  1.00  0.00     0.041 A 
ATOM     89  F   UNL A   1      43.704  26.799  31.244  1.00  0.00    -0.206 F 
ATOM     90  C   UNL A   1      45.705  26.898  34.250  1.00  0.00     0.022 A 
BRANCH  87  91
ATOM     91  S   UNL A   1      48.126  25.834  35.087  1.00  0.00     0.124 S 
ATOM     92  O   UNL A   1      47.402  25.702  36.345  1.00  0.00    -0.237 OA
ATOM     93  O   UNL A   1      48.759  24.618  34.583  1.00  0.00    -0.237 OA
ATOM     94  O   UNL A   1      48.957  27.036  34.985  1.00  0.00    -0.744 OA
ENDBRANCH  87  91
ENDBRANCH  61  84
ENDBRANCH  35  36
ENDBRANCH  27  30
ENDBRANCH  25  26
ENDBRANCH  24  25
ENDBRANCH   1  24
TORSDOF 18
ENDMDL
MODEL 2
REMARK VINA RESULT:     -11.9      1.533      2.613
REMARK SMILES CC(=O)c1nnn(-c2ccc(C(=O)NCCCCCCNC(=O)c3ccc(-c4c5nc(c(-c6cc(S(=O)(=O)[O-])ccc6F)c6ccc([nH]6)c(-c6cc(S(=O)(=O)[O-])ccc6F)c6nc(c(-c7cc(S(=O)(=O)[O-])ccc7F)c7ccc4[nH]7)C=C6)C=C5)cc3)cc2)c1C
REMARK SMILES IDX 18 1 17 2 16 3 15 4 14 5 12 6 13 7 11 9 8 10 9 11 88 12
REMARK SMILES IDX 10 13 87 14 7 15 4 16 5 17 89 18 6 19 90 20 2 21 1 22 3 23
REMARK SMILES IDX 19 24 20 25 21 26 22 27 23 29 24 30 25 31 86 32 26 33 85 34
REMARK SMILES IDX 27 35 28 36 29 37 79 38 30 39 84 40 78 41 80 42 31 43 83 44
REMARK SMILES IDX 77 45 76 46 32 48 64 49 44 50 63 51 45 52 48 53 62 54 81 55
REMARK SMILES IDX 46 56 47 57 61 59 82 60 49 61 33 62 34 63 42 64 35 65 41 66
REMARK SMILES IDX 43 67 40 68 36 69 37 70 38 71 39 72 65 73 66 74 74 75 67 76
REMARK SMILES IDX 73 77 75 78 72 79 68 80 69 81 70 82 71 83 50 84 51 85 59 86
REMARK SMILES IDX 52 87 58 88 60 89 57 90 53 91 54 92 55 93 56 94
REMARK H PARENT 14 8 21 28 80 47 48 58
REMARK Flexibility Score: inf
ROOT
ATOM      1  C   UNL A   1      33.209  30.574  27.343  1.00  0.00     0.002 C 
ENDROOT
BRANCH   1   2
ATOM      2  C   UNL A   1      31.929  30.498  26.492  1.00  0.00     0.002 C 
BRANCH   2   3
ATOM      3  C   UNL A   1      31.492  29.087  26.074  1.00  0.00     0.021 C 
BRANCH   3   4
ATOM      4  C   UNL A   1      31.207  28.962  24.576  1.00  0.00     0.116 C 
BRANCH   4   5
ATOM      5  N   UNL A   1      32.396  29.279  23.805  1.00  0.00    -0.352 N 
ATOM      6  C   UNL A   1      33.496  28.550  23.429  1.00  0.00     0.251 C 
ATOM      7  O   UNL A   1      34.341  29.113  22.733  1.00  0.00    -0.269 OA
ATOM      8  H   UNL A   1      32.418  30.210  23.487  1.00  0.00     0.163 HD
BRANCH   6   9
ATOM      9  C   UNL A   1      33.656  27.098  23.729  1.00  0.00     0.039 A 
ATOM     10  C   UNL A   1      33.522  24.345  24.165  1.00  0.00     0.067 A 
ATOM     11  C   UNL A   1      33.520  24.820  22.855  1.00  0.00     0.029 A 
ATOM     12  C   UNL A   1      33.739  25.211  25.239  1.00  0.00     0.029 A 
ATOM     13  C   UNL A   1      33.552  26.203  22.646  1.00  0.00     0.016 A 
ATOM     14  C   UNL A   1      33.867  26.581  25.007  1.00  0.00     0.016 A 
BRANCH  10  15
ATOM     15  N   UNL A   1      33.230  22.994  24.423  1.00  0.00    -0.217 N 
ATOM     16  C   UNL A   1      33.260  20.822  24.516  1.00  0.00     0.151 A 
ATOM     17  N   UNL A   1      32.014  21.274  24.873  1.00  0.00    -0.126 NA
ATOM     18  C   UNL A   1      34.089  21.912  24.299  1.00  0.00     0.073 A 
ATOM     19  N   UNL A   1      32.050  22.598  24.933  1.00  0.00    -0.061 NA
ATOM     20  C   UNL A   1      35.545  22.062  24.057  1.00  0.00     0.069 C 
BRANCH  16  21
ATOM     21  C   UNL A   1      33.562  19.398  24.473  1.00  0.00     0.181 C 
ATOM     22  C   UNL A   1      32.505  18.459  23.950  1.00  0.00     0.095 C 
ATOM     23  O   UNL A   1      34.657  18.958  24.822  1.00  0.00    -0.293 OA
ENDBRANCH  16  21
ENDBRANCH  10  15
ENDBRANCH   6   9
ENDBRANCH   4   5
ENDBRANCH   3   4
ENDBRANCH   2   3
ENDBRANCH   1   2
BRANCH   1  24
ATOM     24  C   UNL A   1      34.497  30.049  26.689  1.00  0.00     0.021 C 
BRANCH  24  25
ATOM     25  C   UNL A   1      35.319  29.145  27.594  1.00  0.00     0.116 C 
BRANCH  25  26
ATOM     26  N   UNL A   1      35.485  29.704  28.938  1.00  0.00    -0.352 N 
ATOM     27  C   UNL A   1      36.492  29.476  29.866  1.00  0.00     0.251 C 
ATOM     28  H   UNL A   1      34.782  30.331  29.225  1.00  0.00     0.163 HD
ATOM     29  O   UNL A   1      36.290  29.671  31.052  1.00  0.00    -0.269 OA
BRANCH  27  30
ATOM     30  C   UNL A   1      37.806  29.003  29.384  1.00  0.00     0.039 A 
ATOM     31  C   UNL A   1      38.405  29.490  28.219  1.00  0.00     0.014 A 
ATOM     32  C   UNL A   1      38.448  28.039  30.148  1.00  0.00     0.014 A 
ATOM     33  C   UNL A   1      39.676  29.022  27.878  1.00  0.00     0.010 A 
ATOM     34  C   UNL A   1      39.774  27.788  29.961  1.00  0.00     0.010 A 
ATOM     35  C   UNL A   1      40.354  28.171  28.766  1.00  0.00    -0.014 A 
BRANCH  35  36
ATOM     36  C   UNL A   1      41.727  27.735  28.558  1.00  0.00     0.031 A 
ATOM     37  C   UNL A   1      41.820  26.470  27.797  1.00  0.00     0.074 A 
ATOM     38  C   UNL A   1      42.799  28.531  28.785  1.00  0.00     0.049 A 
ATOM     39  N   UNL A   1      42.075  25.297  28.266  1.00  0.00    -0.248 NA
ATOM     40  C   UNL A   1      41.350  26.461  26.400  1.00  0.00     0.031 C 
ATOM     41  C   UNL A   1      42.819  29.930  29.235  1.00  0.00     0.029 A 
ATOM     42  N   UNL A   1      44.116  28.285  28.557  1.00  0.00    -0.354 N 
ATOM     43  C   UNL A   1      42.101  24.458  27.160  1.00  0.00     0.074 A 
ATOM     44  C   UNL A   1      41.379  25.154  26.132  1.00  0.00     0.031 C 
ATOM     45  C   UNL A   1      44.047  30.460  29.030  1.00  0.00     0.029 A 
ATOM     46  C   UNL A   1      44.945  29.407  28.588  1.00  0.00     0.049 A 
ATOM     47  H   UNL A   1      44.461  27.379  28.382  1.00  0.00     0.167 HD
ATOM     48  C   UNL A   1      42.985  23.423  27.100  1.00  0.00     0.034 A 
ATOM     49  C   UNL A   1      46.268  29.468  28.261  1.00  0.00     0.034 A 
ATOM     50  C   UNL A   1      43.565  23.175  28.408  1.00  0.00     0.049 A 
ATOM     51  C   UNL A   1      46.787  28.080  28.376  1.00  0.00     0.074 A 
ATOM     52  C   UNL A   1      43.044  22.895  29.658  1.00  0.00     0.029 A 
ATOM     53  N   UNL A   1      44.848  23.629  28.640  1.00  0.00    -0.354 N 
ATOM     54  N   UNL A   1      46.842  27.435  29.510  1.00  0.00    -0.248 NA
ATOM     55  C   UNL A   1      46.740  27.237  27.190  1.00  0.00     0.031 C 
ATOM     56  C   UNL A   1      43.827  23.674  30.564  1.00  0.00     0.029 A 
ATOM     57  C   UNL A   1      44.849  24.296  29.842  1.00  0.00     0.049 A 
ATOM     58  H   UNL A   1      45.625  23.497  28.050  1.00  0.00     0.167 HD
ATOM     59  C   UNL A   1      46.382  26.159  29.219  1.00  0.00     0.074 A 
ATOM     60  C   UNL A   1      46.427  26.068  27.758  1.00  0.00     0.031 C 
ATOM     61  C   UNL A   1      45.727  25.411  30.157  1.00  0.00     0.034 A 
BRANCH  48  62
ATOM     62  C   UNL A   1      43.635  22.912  25.829  1.00  0.00     0.023 A 
ATOM     63  C   UNL A   1      43.726  21.514  25.690  1.00  0.00     0.031 A 
ATOM     64  C   UNL A   1      44.400  23.666  24.909  1.00  0.00     0.131 A 
ATOM     65  C   UNL A   1      44.629  20.934  24.787  1.00  0.00     0.055 A 
ATOM     66  C   UNL A   1      45.247  23.080  23.964  1.00  0.00     0.041 A 
ATOM     67  F   UNL A   1      44.450  25.001  24.914  1.00  0.00    -0.206 F 
ATOM     68  C   UNL A   1      45.397  21.708  23.923  1.00  0.00     0.022 A 
BRANCH  65  69
ATOM     69  S   UNL A   1      44.918  19.152  24.904  1.00  0.00     0.124 S 
ATOM     70  O   UNL A   1      44.773  18.744  23.511  1.00  0.00    -0.237 OA
ATOM     71  O   UNL A   1      46.269  19.104  25.453  1.00  0.00    -0.237 OA
ATOM     72  O   UNL A   1      43.861  18.697  25.804  1.00  0.00    -0.744 OA
ENDBRANCH  65  69
ENDBRANCH  48  62
BRANCH  49  73
ATOM     73  C   UNL A   1      47.001  30.563  27.552  1.00  0.00     0.023 A 
ATOM     74  C   UNL A   1      46.369  31.720  27.033  1.00  0.00     0.031 A 
ATOM     75  C   UNL A   1      48.413  30.595  27.608  1.00  0.00     0.131 A 
ATOM     76  C   UNL A   1      47.142  32.832  26.608  1.00  0.00     0.055 A 
ATOM     77  C   UNL A   1      49.168  31.696  27.193  1.00  0.00     0.041 A 
ATOM     78  F   UNL A   1      49.109  29.586  28.155  1.00  0.00    -0.206 F 
ATOM     79  C   UNL A   1      48.535  32.825  26.701  1.00  0.00     0.022 A 
BRANCH  76  80
ATOM     80  S   UNL A   1      46.343  34.361  26.003  1.00  0.00     0.124 S 
ATOM     81  O   UNL A   1      45.638  34.835  27.187  1.00  0.00    -0.237 OA
ATOM     82  O   UNL A   1      47.481  35.159  25.559  1.00  0.00    -0.237 OA
ATOM     83  O   UNL A   1      45.474  33.890  24.922  1.00  0.00    -0.744 OA
ENDBRANCH  76  80
ENDBRANCH  49  73
BRANCH  61  84
ATOM     84  C   UNL A   1      45.762  25.874  31.605  1.00  0.00     0.023 A 
ATOM     85  C   UNL A   1      46.845  25.696  32.499  1.00  0.00     0.031 A 
ATOM     86  C   UNL A   1      44.670  26.637  32.058  1.00  0.00     0.131 A 
ATOM     87  C   UNL A   1      46.797  26.261  33.792  1.00  0.00     0.055 A 
ATOM     88  C   UNL A   1      44.636  27.213  33.326  1.00  0.00     0.041 A 
ATOM     89  F   UNL A   1      43.619  26.864  31.252  1.00  0.00    -0.206 F 
ATOM     90  C   UNL A   1      45.698  27.022  34.201  1.00  0.00     0.022 A 
BRANCH  87  91
ATOM     91  S   UNL A   1      48.154  25.998  34.983  1.00  0.00     0.124 S 
ATOM     92  O   UNL A   1      48.624  27.348  35.271  1.00  0.00    -0.237 OA
ATOM     93  O   UNL A   1      47.482  25.307  36.081  1.00  0.00    -0.237 OA
ATOM     94  O   UNL A   1      49.104  25.168  34.238  1.00  0.00    -0.744 OA
ENDBRANCH  87  91
ENDBRANCH  61  84
ENDBRANCH  35  36
ENDBRANCH  27  30
ENDBRANCH  25  26
ENDBRANCH  24  25
ENDBRANCH   1  24
TORSDOF 18
ENDMDL
MODEL 3
REMARK VINA RESULT:     -11.8      2.945      7.331
REMARK SMILES CC(=O)c1nnn(-c2ccc(C(=O)NCCCCCCNC(=O)c3ccc(-c4c5nc(c(-c6cc(S(=O)(=O)[O-])ccc6F)c6ccc([nH]6)c(-c6cc(S(=O)(=O)[O-])ccc6F)c6nc(c(-c7cc(S(=O)(=O)[O-])ccc7F)c7ccc4[nH]7)C=C6)C=C5)cc3)cc2)c1C
REMARK SMILES IDX 18 1 17 2 16 3 15 4 14 5 12 6 13 7 11 9 8 10 9 11 88 12
REMARK SMILES IDX 10 13 87 14 7 15 4 16 5 17 89 18 6 19 90 20 2 21 1 22 3 23
REMARK SMILES IDX 19 24 20 25 21 26 22 27 23 29 24 30 25 31 86 32 26 33 85 34
REMARK SMILES IDX 27 35 28 36 29 37 79 38 30 39 84 40 78 41 80 42 31 43 83 44
REMARK SMILES IDX 77 45 76 46 32 48 64 49 44 50 63 51 45 52 48 53 62 54 81 55
REMARK SMILES IDX 46 56 47 57 61 59 82 60 49 61 33 62 34 63 42 64 35 65 41 66
REMARK SMILES IDX 43 67 40 68 36 69 37 70 38 71 39 72 65 73 66 74 74 75 67 76
REMARK SMILES IDX 73 77 75 78 72 79 68 80 69 81 70 82 71 83 50 84 51 85 59 86
REMARK SMILES IDX 52 87 58 88 60 89 57 90 53 91 54 92 55 93 56 94
REMARK H PARENT 14 8 21 28 80 47 48 58
REMARK Flexibility Score: inf
ROOT
ATOM      1  C   UNL A   1      34.217  29.040  26.875  1.00  0.00     0.002 C 
ENDROOT
BRANCH   1   2
ATOM      2  C   UNL A   1      33.506  28.471  25.635  1.00  0.00     0.002 C 
BRANCH   2   3
ATOM      3  C   UNL A   1      32.862  29.507  24.703  1.00  0.00     0.021 C 
BRANCH   3   4
ATOM      4  C   UNL A   1      31.363  29.692  24.949  1.00  0.00     0.116 C 
BRANCH   4   5
ATOM      5  N   UNL A   1      30.643  29.730  23.689  1.00  0.00    -0.352 N 
ATOM      6  C   UNL A   1      30.412  28.798  22.709  1.00  0.00     0.251 C 
ATOM      7  O   UNL A   1      29.719  29.140  21.750  1.00  0.00    -0.269 OA
ATOM      8  H   UNL A   1      30.237  30.606  23.498  1.00  0.00     0.163 HD
BRANCH   6   9
ATOM      9  C   UNL A   1      30.862  27.380  22.807  1.00  0.00     0.039 A 
ATOM     10  C   UNL A   1      31.757  24.811  23.429  1.00  0.00     0.067 A 
ATOM     11  C   UNL A   1      30.481  25.197  23.838  1.00  0.00     0.029 A 
ATOM     12  C   UNL A   1      32.519  25.631  22.595  1.00  0.00     0.029 A 
ATOM     13  C   UNL A   1      30.055  26.498  23.551  1.00  0.00     0.016 A 
ATOM     14  C   UNL A   1      32.038  26.890  22.238  1.00  0.00     0.016 A 
BRANCH  10  15
ATOM     15  N   UNL A   1      32.319  23.619  23.918  1.00  0.00    -0.217 N 
ATOM     16  C   UNL A   1      33.521  22.142  24.969  1.00  0.00     0.151 A 
ATOM     17  N   UNL A   1      32.873  21.537  23.921  1.00  0.00    -0.126 NA
ATOM     18  C   UNL A   1      33.119  23.467  25.041  1.00  0.00     0.073 A 
ATOM     19  N   UNL A   1      32.050  22.420  23.371  1.00  0.00    -0.061 NA
ATOM     20  C   UNL A   1      33.337  24.553  26.028  1.00  0.00     0.069 C 
BRANCH  16  21
ATOM     21  C   UNL A   1      34.413  21.390  25.841  1.00  0.00     0.181 C 
ATOM     22  C   UNL A   1      34.153  21.419  27.325  1.00  0.00     0.095 C 
ATOM     23  O   UNL A   1      35.341  20.717  25.392  1.00  0.00    -0.293 OA
ENDBRANCH  16  21
ENDBRANCH  10  15
ENDBRANCH   6   9
ENDBRANCH   4   5
ENDBRANCH   3   4
ENDBRANCH   2   3
ENDBRANCH   1   2
BRANCH   1  24
ATOM     24  C   UNL A   1      33.573  30.274  27.527  1.00  0.00     0.021 C 
BRANCH  24  25
ATOM     25  C   UNL A   1      34.497  31.479  27.606  1.00  0.00     0.116 C 
BRANCH  25  26
ATOM     26  N   UNL A   1      34.415  32.161  28.900  1.00  0.00    -0.352 N 
ATOM     27  C   UNL A   1      35.161  31.953  30.051  1.00  0.00     0.251 C 
ATOM     28  H   UNL A   1      33.732  32.867  28.962  1.00  0.00     0.163 HD
ATOM     29  O   UNL A   1      34.720  32.286  31.138  1.00  0.00    -0.269 OA
BRANCH  27  30
ATOM     30  C   UNL A   1      36.496  31.331  29.928  1.00  0.00     0.039 A 
ATOM     31  C   UNL A   1      37.672  32.078  29.826  1.00  0.00     0.014 A 
ATOM     32  C   UNL A   1      36.547  29.944  29.923  1.00  0.00     0.014 A 
ATOM     33  C   UNL A   1      38.891  31.397  29.772  1.00  0.00     0.010 A 
ATOM     34  C   UNL A   1      37.730  29.302  30.136  1.00  0.00     0.010 A 
ATOM     35  C   UNL A   1      38.903  30.001  29.934  1.00  0.00    -0.014 A 
BRANCH  35  36
ATOM     36  C   UNL A   1      40.130  29.222  30.021  1.00  0.00     0.031 A 
ATOM     37  C   UNL A   1      40.481  28.855  31.410  1.00  0.00     0.074 A 
ATOM     38  C   UNL A   1      40.728  28.660  28.944  1.00  0.00     0.049 A 
ATOM     39  N   UNL A   1      41.391  29.390  32.150  1.00  0.00    -0.248 NA
ATOM     40  C   UNL A   1      39.573  27.956  32.144  1.00  0.00     0.031 C 
ATOM     41  C   UNL A   1      40.290  28.680  27.541  1.00  0.00     0.029 A 
ATOM     42  N   UNL A   1      41.817  27.848  28.891  1.00  0.00    -0.354 N 
ATOM     43  C   UNL A   1      41.366  28.672  33.338  1.00  0.00     0.074 A 
ATOM     44  C   UNL A   1      40.078  28.037  33.377  1.00  0.00     0.031 C 
ATOM     45  C   UNL A   1      40.969  27.747  26.835  1.00  0.00     0.029 A 
ATOM     46  C   UNL A   1      41.997  27.172  27.684  1.00  0.00     0.049 A 
ATOM     47  H   UNL A   1      42.434  27.744  29.652  1.00  0.00     0.167 HD
ATOM     48  C   UNL A   1      42.521  28.413  34.013  1.00  0.00     0.034 A 
ATOM     49  C   UNL A   1      42.917  26.202  27.408  1.00  0.00     0.034 A 
ATOM     50  C   UNL A   1      43.600  29.244  33.508  1.00  0.00     0.049 A 
ATOM     51  C   UNL A   1      44.001  26.361  28.411  1.00  0.00     0.074 A 
ATOM     52  C   UNL A   1      43.780  30.607  33.357  1.00  0.00     0.029 A 
ATOM     53  N   UNL A   1      44.523  28.659  32.665  1.00  0.00    -0.354 N 
ATOM     54  N   UNL A   1      44.766  27.418  28.468  1.00  0.00    -0.248 NA
ATOM     55  C   UNL A   1      43.888  25.617  29.657  1.00  0.00     0.031 C 
ATOM     56  C   UNL A   1      44.410  30.755  32.084  1.00  0.00     0.029 A 
ATOM     57  C   UNL A   1      44.684  29.483  31.576  1.00  0.00     0.049 A 
ATOM     58  H   UNL A   1      44.986  27.803  32.817  1.00  0.00     0.167 HD
ATOM     59  C   UNL A   1      44.853  27.726  29.817  1.00  0.00     0.074 A 
ATOM     60  C   UNL A   1      44.373  26.527  30.507  1.00  0.00     0.031 C 
ATOM     61  C   UNL A   1      45.016  29.016  30.241  1.00  0.00     0.034 A 
BRANCH  48  62
ATOM     62  C   UNL A   1      42.791  27.157  34.817  1.00  0.00     0.023 A 
ATOM     63  C   UNL A   1      43.650  26.210  34.229  1.00  0.00     0.031 A 
ATOM     64  C   UNL A   1      42.072  26.707  35.948  1.00  0.00     0.131 A 
ATOM     65  C   UNL A   1      43.667  24.876  34.667  1.00  0.00     0.055 A 
ATOM     66  C   UNL A   1      42.144  25.393  36.423  1.00  0.00     0.041 A 
ATOM     67  F   UNL A   1      41.196  27.465  36.612  1.00  0.00    -0.206 F 
ATOM     68  C   UNL A   1      42.915  24.458  35.760  1.00  0.00     0.022 A 
BRANCH  65  69
ATOM     69  S   UNL A   1      44.545  23.661  33.655  1.00  0.00     0.124 S 
ATOM     70  O   UNL A   1      45.675  24.449  33.174  1.00  0.00    -0.237 OA
ATOM     71  O   UNL A   1      44.851  22.624  34.633  1.00  0.00    -0.237 OA
ATOM     72  O   UNL A   1      43.560  23.294  32.640  1.00  0.00    -0.744 OA
ENDBRANCH  65  69
ENDBRANCH  48  62
BRANCH  49  73
ATOM     73  C   UNL A   1      42.749  24.976  26.566  1.00  0.00     0.023 A 
ATOM     74  C   UNL A   1      43.736  24.504  25.666  1.00  0.00     0.031 A 
ATOM     75  C   UNL A   1      41.681  24.092  26.841  1.00  0.00     0.131 A 
ATOM     76  C   UNL A   1      43.629  23.208  25.096  1.00  0.00     0.055 A 
ATOM     77  C   UNL A   1      41.584  22.815  26.280  1.00  0.00     0.041 A 
ATOM     78  F   UNL A   1      40.735  24.406  27.740  1.00  0.00    -0.206 F 
ATOM     79  C   UNL A   1      42.564  22.362  25.413  1.00  0.00     0.022 A 
BRANCH  76  80
ATOM     80  S   UNL A   1      44.927  22.552  23.989  1.00  0.00     0.124 S 
ATOM     81  O   UNL A   1      45.427  21.406  24.738  1.00  0.00    -0.237 OA
ATOM     82  O   UNL A   1      44.184  22.259  22.768  1.00  0.00    -0.237 OA
ATOM     83  O   UNL A   1      45.873  23.665  23.872  1.00  0.00    -0.744 OA
ENDBRANCH  76  80
ENDBRANCH  49  73
BRANCH  61  84
ATOM     84  C   UNL A   1      45.388  30.073  29.213  1.00  0.00     0.023 A 
ATOM     85  C   UNL A   1      46.698  30.339  28.746  1.00  0.00     0.031 A 
ATOM     86  C   UNL A   1      44.330  30.768  28.599  1.00  0.00     0.131 A 
ATOM     87  C   UNL A   1      46.905  31.280  27.713  1.00  0.00     0.055 A 
ATOM     88  C   UNL A   1      44.536  31.678  27.564  1.00  0.00     0.041 A 
ATOM     89  F   UNL A   1      43.061  30.546  28.978  1.00  0.00    -0.206 F 
ATOM     90  C   UNL A   1      45.825  31.942  27.121  1.00  0.00     0.022 A 
BRANCH  87  91
ATOM     91  S   UNL A   1      48.587  31.683  27.133  1.00  0.00     0.124 S 
ATOM     92  O   UNL A   1      48.367  32.741  26.154  1.00  0.00    -0.237 OA
ATOM     93  O   UNL A   1      49.260  32.084  28.367  1.00  0.00    -0.237 OA
ATOM     94  O   UNL A   1      49.064  30.419  26.568  1.00  0.00    -0.744 OA
ENDBRANCH  87  91
ENDBRANCH  61  84
ENDBRANCH  35  36
ENDBRANCH  27  30
ENDBRANCH  25  26
ENDBRANCH  24  25
ENDBRANCH   1  24
TORSDOF 18
ENDMDL
