MODEL 1
REMARK VINA RESULT:     -10.1      0.000      0.000
REMARK SMILES C[C@H](C[NH3+])S[C@H](C)c1ccc(C(=O)NCCCCCCNC(=O)c2ccc(-c3c4nc(c(-c5cc(S(=O)(=O)[O-])ccc5F)c5ccc([nH]5)c(-c5cc(S(=O)(=O)[O-])ccc5F)c5nc(c(-c6cc(S(=O)(=O)[O-])ccc6F)c6ccc3[nH]6)C=C5)C=C4)cc2)o1
REMARK SMILES IDX 16 1 15 2 14 3 12 4 13 5 11 7 8 8 9 9 87 10 10 11 6 12 7 13
REMARK SMILES IDX 5 14 2 15 1 16 3 17 4 18 17 22 18 23 19 24 20 25 21 26 22 27
REMARK SMILES IDX 23 29 24 30 25 31 86 32 26 33 85 34 27 35 28 36 29 37 79 38
REMARK SMILES IDX 30 39 84 40 78 41 80 42 31 43 83 44 77 45 76 46 32 48 64 49
REMARK SMILES IDX 44 50 63 51 45 52 48 53 62 54 81 55 46 56 47 57 61 59 82 60
REMARK SMILES IDX 49 61 33 62 34 63 42 64 35 65 41 66 43 67 40 68 36 69 37 70
REMARK SMILES IDX 38 71 39 72 65 73 66 74 74 75 67 76 73 77 75 78 72 79 68 80
REMARK SMILES IDX 69 81 70 82 71 83 50 84 51 85 59 86 52 87 58 88 60 89 57 90
REMARK SMILES IDX 53 91 54 92 55 93 56 94
REMARK H PARENT 14 6 4 19 4 20 4 21 21 28 80 47 48 58
REMARK Flexibility Score: inf
ROOT
ATOM      1  C   UNL A   1      33.493  20.075  24.752  1.00  0.00     0.021 C 
ENDROOT
BRANCH   1   2
ATOM      2  C   UNL A   1      32.278  20.984  24.563  1.00  0.00     0.116 C 
BRANCH   2   3
ATOM      3  N   UNL A   1      31.836  21.542  25.824  1.00  0.00    -0.349 N 
ATOM      4  C   UNL A   1      31.979  22.801  26.364  1.00  0.00     0.286 C 
ATOM      5  O   UNL A   1      31.376  22.998  27.423  1.00  0.00    -0.266 OA
ATOM      6  H   UNL A   1      31.345  20.909  26.398  1.00  0.00     0.163 HD
BRANCH   4   7
ATOM      7  C   UNL A   1      32.780  23.825  25.715  1.00  0.00     0.191 A 
ATOM      8  C   UNL A   1      33.241  25.183  24.018  1.00  0.00     0.117 A 
ATOM      9  C   UNL A   1      34.188  25.432  24.989  1.00  0.00     0.047 A 
ATOM     10  O   UNL A   1      32.396  24.202  24.445  1.00  0.00    -0.455 OA
ATOM     11  C   UNL A   1      33.870  24.595  26.083  1.00  0.00     0.056 A 
BRANCH   8  12
ATOM     12  C   UNL A   1      32.946  25.803  22.691  1.00  0.00     0.110 C 
ATOM     13  C   UNL A   1      31.610  25.278  22.161  1.00  0.00     0.028 C 
BRANCH  12  14
ATOM     14  S   UNL A   1      32.838  27.625  22.870  1.00  0.00    -0.142 SA
BRANCH  14  15
ATOM     15  C   UNL A   1      31.312  27.854  23.869  1.00  0.00     0.099 C 
ATOM     16  C   UNL A   1      30.149  28.320  22.996  1.00  0.00     0.025 C 
BRANCH  15  17
ATOM     17  C   UNL A   1      31.475  28.647  25.189  1.00  0.00     0.273 C 
BRANCH  17  18
ATOM     18  N   UNL A   1      31.850  30.057  25.060  1.00  0.00    -0.357 N 
ATOM     19  H   UNL A   1      32.857  30.154  25.189  1.00  0.00     0.344 HD
ATOM     20  H   UNL A   1      31.362  30.604  25.769  1.00  0.00     0.344 HD
ATOM     21  H   UNL A   1      31.592  30.393  24.133  1.00  0.00     0.344 HD
ENDBRANCH  17  18
ENDBRANCH  15  17
ENDBRANCH  14  15
ENDBRANCH  12  14
ENDBRANCH   8  12
ENDBRANCH   4   7
ENDBRANCH   2   3
ENDBRANCH   1   2
BRANCH   1  22
ATOM     22  C   UNL A   1      34.779  20.836  25.104  1.00  0.00     0.002 C 
BRANCH  22  23
ATOM     23  C   UNL A   1      35.296  21.786  24.014  1.00  0.00     0.002 C 
BRANCH  23  24
ATOM     24  C   UNL A   1      36.624  22.479  24.328  1.00  0.00     0.021 C 
BRANCH  24  25
ATOM     25  C   UNL A   1      37.026  22.439  25.800  1.00  0.00     0.116 C 
BRANCH  25  26
ATOM     26  N   UNL A   1      38.064  21.449  26.046  1.00  0.00    -0.352 N 
ATOM     27  C   UNL A   1      39.381  21.638  26.388  1.00  0.00     0.251 C 
ATOM     28  H   UNL A   1      37.783  20.511  25.954  1.00  0.00     0.163 HD
ATOM     29  O   UNL A   1      40.167  20.699  26.320  1.00  0.00    -0.269 OA
BRANCH  27  30
ATOM     30  C   UNL A   1      39.846  22.973  26.821  1.00  0.00     0.039 A 
ATOM     31  C   UNL A   1      40.701  23.072  27.922  1.00  0.00     0.014 A 
ATOM     32  C   UNL A   1      39.427  24.128  26.154  1.00  0.00     0.014 A 
ATOM     33  C   UNL A   1      41.179  24.324  28.319  1.00  0.00     0.010 A 
ATOM     34  C   UNL A   1      39.958  25.365  26.507  1.00  0.00     0.010 A 
ATOM     35  C   UNL A   1      40.835  25.477  27.597  1.00  0.00    -0.014 A 
BRANCH  35  36
ATOM     36  C   UNL A   1      41.365  26.814  27.972  1.00  0.00     0.031 A 
ATOM     37  C   UNL A   1      42.794  27.168  27.665  1.00  0.00     0.074 A 
ATOM     38  C   UNL A   1      40.583  27.679  28.647  1.00  0.00     0.049 A 
ATOM     39  N   UNL A   1      43.475  28.235  27.996  1.00  0.00    -0.248 NA
ATOM     40  C   UNL A   1      43.569  26.170  26.913  1.00  0.00     0.031 C 
ATOM     41  C   UNL A   1      39.190  27.436  29.030  1.00  0.00     0.029 A 
ATOM     42  N   UNL A   1      40.848  28.930  29.143  1.00  0.00    -0.354 N 
ATOM     43  C   UNL A   1      44.761  28.031  27.507  1.00  0.00     0.074 A 
ATOM     44  C   UNL A   1      44.778  26.710  26.916  1.00  0.00     0.031 C 
ATOM     45  C   UNL A   1      38.720  28.512  29.681  1.00  0.00     0.029 A 
ATOM     46  C   UNL A   1      39.786  29.500  29.806  1.00  0.00     0.049 A 
ATOM     47  H   UNL A   1      41.719  29.378  29.035  1.00  0.00     0.167 HD
ATOM     48  C   UNL A   1      45.822  28.877  27.528  1.00  0.00     0.034 A 
ATOM     49  C   UNL A   1      39.688  30.677  30.454  1.00  0.00     0.034 A 
ATOM     50  C   UNL A   1      45.783  30.195  28.114  1.00  0.00     0.049 A 
ATOM     51  C   UNL A   1      40.888  31.588  30.495  1.00  0.00     0.074 A 
ATOM     52  C   UNL A   1      46.780  31.154  28.150  1.00  0.00     0.029 A 
ATOM     53  N   UNL A   1      44.689  30.738  28.778  1.00  0.00    -0.354 N 
ATOM     54  N   UNL A   1      42.087  31.400  29.992  1.00  0.00    -0.248 NA
ATOM     55  C   UNL A   1      40.719  32.875  31.183  1.00  0.00     0.031 C 
ATOM     56  C   UNL A   1      46.314  32.245  28.892  1.00  0.00     0.029 A 
ATOM     57  C   UNL A   1      44.997  32.005  29.252  1.00  0.00     0.049 A 
ATOM     58  H   UNL A   1      43.820  30.289  28.894  1.00  0.00     0.167 HD
ATOM     59  C   UNL A   1      42.803  32.560  30.274  1.00  0.00     0.074 A 
ATOM     60  C   UNL A   1      41.899  33.444  30.981  1.00  0.00     0.031 C 
ATOM     61  C   UNL A   1      44.088  32.870  29.967  1.00  0.00     0.034 A 
BRANCH  48  62
ATOM     62  C   UNL A   1      47.116  28.380  26.923  1.00  0.00     0.023 A 
ATOM     63  C   UNL A   1      47.313  28.342  25.531  1.00  0.00     0.031 A 
ATOM     64  C   UNL A   1      48.149  27.895  27.744  1.00  0.00     0.131 A 
ATOM     65  C   UNL A   1      48.470  27.749  25.002  1.00  0.00     0.055 A 
ATOM     66  C   UNL A   1      49.337  27.390  27.213  1.00  0.00     0.041 A 
ATOM     67  F   UNL A   1      48.014  27.886  29.080  1.00  0.00    -0.206 F 
ATOM     68  C   UNL A   1      49.495  27.296  25.833  1.00  0.00     0.022 A 
BRANCH  65  69
ATOM     69  S   UNL A   1      48.534  27.425  23.219  1.00  0.00     0.124 S 
ATOM     70  O   UNL A   1      47.351  28.141  22.746  1.00  0.00    -0.237 OA
ATOM     71  O   UNL A   1      49.821  27.995  22.840  1.00  0.00    -0.237 OA
ATOM     72  O   UNL A   1      48.446  25.968  23.132  1.00  0.00    -0.744 OA
ENDBRANCH  65  69
ENDBRANCH  48  62
BRANCH  49  73
ATOM     73  C   UNL A   1      38.413  31.064  31.123  1.00  0.00     0.023 A 
ATOM     74  C   UNL A   1      37.377  31.677  30.402  1.00  0.00     0.031 A 
ATOM     75  C   UNL A   1      38.223  30.852  32.500  1.00  0.00     0.131 A 
ATOM     76  C   UNL A   1      36.214  32.097  31.067  1.00  0.00     0.055 A 
ATOM     77  C   UNL A   1      37.044  31.225  33.148  1.00  0.00     0.041 A 
ATOM     78  F   UNL A   1      39.180  30.263  33.235  1.00  0.00    -0.206 F 
ATOM     79  C   UNL A   1      36.035  31.862  32.433  1.00  0.00     0.022 A 
BRANCH  76  80
ATOM     80  S   UNL A   1      34.965  33.023  30.133  1.00  0.00     0.124 S 
ATOM     81  O   UNL A   1      33.999  33.352  31.176  1.00  0.00    -0.237 OA
ATOM     82  O   UNL A   1      35.746  34.137  29.606  1.00  0.00    -0.237 OA
ATOM     83  O   UNL A   1      34.504  32.060  29.135  1.00  0.00    -0.744 OA
ENDBRANCH  76  80
ENDBRANCH  49  73
BRANCH  61  84
ATOM     84  C   UNL A   1      44.574  34.247  30.355  1.00  0.00     0.023 A 
ATOM     85  C   UNL A   1      44.460  35.347  29.487  1.00  0.00     0.031 A 
ATOM     86  C   UNL A   1      45.162  34.456  31.615  1.00  0.00     0.131 A 
ATOM     87  C   UNL A   1      44.976  36.595  29.870  1.00  0.00     0.055 A 
ATOM     88  C   UNL A   1      45.620  35.712  32.014  1.00  0.00     0.041 A 
ATOM     89  F   UNL A   1      45.299  33.439  32.482  1.00  0.00    -0.206 F 
ATOM     90  C   UNL A   1      45.540  36.788  31.135  1.00  0.00     0.022 A 
BRANCH  87  91
ATOM     91  S   UNL A   1      44.983  37.945  28.659  1.00  0.00     0.124 S 
ATOM     92  O   UNL A   1      46.372  37.948  28.215  1.00  0.00    -0.237 OA
ATOM     93  O   UNL A   1      44.001  37.490  27.679  1.00  0.00    -0.237 OA
ATOM     94  O   UNL A   1      44.580  39.111  29.443  1.00  0.00    -0.744 OA
ENDBRANCH  87  91
ENDBRANCH  61  84
ENDBRANCH  35  36
ENDBRANCH  27  30
ENDBRANCH  25  26
ENDBRANCH  24  25
ENDBRANCH  23  24
ENDBRANCH  22  23
ENDBRANCH   1  22
TORSDOF 21
ENDMDL
MODEL 2
REMARK VINA RESULT:      -9.9      2.287      2.647
REMARK SMILES C[C@H](C[NH3+])S[C@H](C)c1ccc(C(=O)NCCCCCCNC(=O)c2ccc(-c3c4nc(c(-c5cc(S(=O)(=O)[O-])ccc5F)c5ccc([nH]5)c(-c5cc(S(=O)(=O)[O-])ccc5F)c5nc(c(-c6cc(S(=O)(=O)[O-])ccc6F)c6ccc3[nH]6)C=C5)C=C4)cc2)o1
REMARK SMILES IDX 16 1 15 2 14 3 12 4 13 5 11 7 8 8 9 9 87 10 10 11 6 12 7 13
REMARK SMILES IDX 5 14 2 15 1 16 3 17 4 18 17 22 18 23 19 24 20 25 21 26 22 27
REMARK SMILES IDX 23 29 24 30 25 31 86 32 26 33 85 34 27 35 28 36 29 37 79 38
REMARK SMILES IDX 30 39 84 40 78 41 80 42 31 43 83 44 77 45 76 46 32 48 64 49
REMARK SMILES IDX 44 50 63 51 45 52 48 53 62 54 81 55 46 56 47 57 61 59 82 60
REMARK SMILES IDX 49 61 33 62 34 63 42 64 35 65 41 66 43 67 40 68 36 69 37 70
REMARK SMILES IDX 38 71 39 72 65 73 66 74 74 75 67 76 73 77 75 78 72 79 68 80
REMARK SMILES IDX 69 81 70 82 71 83 50 84 51 85 59 86 52 87 58 88 60 89 57 90
REMARK SMILES IDX 53 91 54 92 55 93 56 94
REMARK H PARENT 14 6 4 19 4 20 4 21 21 28 80 47 48 58
REMARK Flexibility Score: inf
ROOT
ATOM      1  C   UNL A   1      33.566  20.070  24.627  1.00  0.00     0.021 C 
ENDROOT
BRANCH   1   2
ATOM      2  C   UNL A   1      32.179  20.638  24.934  1.00  0.00     0.116 C 
BRANCH   2   3
ATOM      3  N   UNL A   1      32.186  21.407  26.162  1.00  0.00    -0.349 N 
ATOM      4  C   UNL A   1      32.189  22.766  26.386  1.00  0.00     0.286 C 
ATOM      5  O   UNL A   1      32.071  23.112  27.565  1.00  0.00    -0.266 OA
ATOM      6  H   UNL A   1      32.188  20.862  26.982  1.00  0.00     0.163 HD
BRANCH   4   7
ATOM      7  C   UNL A   1      32.312  23.721  25.297  1.00  0.00     0.191 A 
ATOM      8  C   UNL A   1      31.908  25.689  24.349  1.00  0.00     0.117 A 
ATOM      9  C   UNL A   1      32.711  24.989  23.473  1.00  0.00     0.047 A 
ATOM     10  O   UNL A   1      31.651  24.923  25.446  1.00  0.00    -0.455 OA
ATOM     11  C   UNL A   1      32.999  23.753  24.095  1.00  0.00     0.056 A 
BRANCH   8  12
ATOM     12  C   UNL A   1      31.357  27.078  24.347  1.00  0.00     0.110 C 
ATOM     13  C   UNL A   1      29.854  27.036  24.065  1.00  0.00     0.028 C 
BRANCH  12  14
ATOM     14  S   UNL A   1      31.632  27.855  25.985  1.00  0.00    -0.142 SA
BRANCH  14  15
ATOM     15  C   UNL A   1      33.077  28.952  25.686  1.00  0.00     0.099 C 
ATOM     16  C   UNL A   1      33.452  28.976  24.206  1.00  0.00     0.025 C 
BRANCH  15  17
ATOM     17  C   UNL A   1      34.279  28.771  26.644  1.00  0.00     0.273 C 
BRANCH  17  18
ATOM     18  N   UNL A   1      34.196  29.463  27.933  1.00  0.00    -0.357 N 
ATOM     19  H   UNL A   1      33.597  30.283  27.840  1.00  0.00     0.344 HD
ATOM     20  H   UNL A   1      35.130  29.753  28.223  1.00  0.00     0.344 HD
ATOM     21  H   UNL A   1      33.803  28.832  28.632  1.00  0.00     0.344 HD
ENDBRANCH  17  18
ENDBRANCH  15  17
ENDBRANCH  14  15
ENDBRANCH  12  14
ENDBRANCH   8  12
ENDBRANCH   4   7
ENDBRANCH   2   3
ENDBRANCH   1   2
BRANCH   1  22
ATOM     22  C   UNL A   1      34.688  20.708  25.457  1.00  0.00     0.002 C 
BRANCH  22  23
ATOM     23  C   UNL A   1      35.973  21.030  24.681  1.00  0.00     0.002 C 
BRANCH  23  24
ATOM     24  C   UNL A   1      36.333  22.516  24.600  1.00  0.00     0.021 C 
BRANCH  24  25
ATOM     25  C   UNL A   1      37.146  23.035  25.783  1.00  0.00     0.116 C 
BRANCH  25  26
ATOM     26  N   UNL A   1      38.270  22.162  26.085  1.00  0.00    -0.352 N 
ATOM     27  C   UNL A   1      39.547  22.491  26.472  1.00  0.00     0.251 C 
ATOM     28  H   UNL A   1      38.091  21.199  26.000  1.00  0.00     0.163 HD
ATOM     29  O   UNL A   1      40.427  21.637  26.450  1.00  0.00    -0.269 OA
BRANCH  27  30
ATOM     30  C   UNL A   1      39.855  23.874  26.898  1.00  0.00     0.039 A 
ATOM     31  C   UNL A   1      39.940  24.163  28.262  1.00  0.00     0.014 A 
ATOM     32  C   UNL A   1      40.043  24.887  25.953  1.00  0.00     0.014 A 
ATOM     33  C   UNL A   1      40.268  25.456  28.678  1.00  0.00     0.010 A 
ATOM     34  C   UNL A   1      40.437  26.156  26.367  1.00  0.00     0.010 A 
ATOM     35  C   UNL A   1      40.548  26.456  27.733  1.00  0.00    -0.014 A 
BRANCH  35  36
ATOM     36  C   UNL A   1      40.942  27.828  28.149  1.00  0.00     0.031 A 
ATOM     37  C   UNL A   1      42.394  28.219  28.164  1.00  0.00     0.074 A 
ATOM     38  C   UNL A   1      40.002  28.693  28.577  1.00  0.00     0.049 A 
ATOM     39  N   UNL A   1      42.952  29.325  28.587  1.00  0.00    -0.248 NA
ATOM     40  C   UNL A   1      43.348  27.216  27.667  1.00  0.00     0.031 C 
ATOM     41  C   UNL A   1      38.565  28.417  28.638  1.00  0.00     0.029 A 
ATOM     42  N   UNL A   1      40.113  29.975  29.053  1.00  0.00    -0.354 N 
ATOM     43  C   UNL A   1      44.321  29.146  28.421  1.00  0.00     0.074 A 
ATOM     44  C   UNL A   1      44.509  27.800  27.922  1.00  0.00     0.031 C 
ATOM     45  C   UNL A   1      37.929  29.504  29.104  1.00  0.00     0.029 A 
ATOM     46  C   UNL A   1      38.911  30.536  29.420  1.00  0.00     0.049 A 
ATOM     47  H   UNL A   1      40.973  30.449  29.126  1.00  0.00     0.167 HD
ATOM     48  C   UNL A   1      45.326  30.030  28.643  1.00  0.00     0.034 A 
ATOM     49  C   UNL A   1      38.635  31.737  29.964  1.00  0.00     0.034 A 
ATOM     50  C   UNL A   1      45.118  31.372  29.132  1.00  0.00     0.049 A 
ATOM     51  C   UNL A   1      39.769  32.693  30.234  1.00  0.00     0.074 A 
ATOM     52  C   UNL A   1      46.055  32.367  29.347  1.00  0.00     0.029 A 
ATOM     53  N   UNL A   1      43.886  31.904  29.494  1.00  0.00    -0.354 N 
ATOM     54  N   UNL A   1      41.057  32.526  30.033  1.00  0.00    -0.248 NA
ATOM     55  C   UNL A   1      39.412  34.003  30.793  1.00  0.00     0.031 C 
ATOM     56  C   UNL A   1      45.401  33.474  29.901  1.00  0.00     0.029 A 
ATOM     57  C   UNL A   1      44.043  33.202  29.958  1.00  0.00     0.049 A 
ATOM     58  H   UNL A   1      43.025  31.429  29.429  1.00  0.00     0.167 HD
ATOM     59  C   UNL A   1      41.658  33.723  30.411  1.00  0.00     0.074 A 
ATOM     60  C   UNL A   1      40.592  34.605  30.841  1.00  0.00     0.031 C 
ATOM     61  C   UNL A   1      42.971  34.066  30.395  1.00  0.00     0.034 A 
BRANCH  48  62
ATOM     62  C   UNL A   1      46.737  29.554  28.383  1.00  0.00     0.023 A 
ATOM     63  C   UNL A   1      47.512  28.955  29.393  1.00  0.00     0.031 A 
ATOM     64  C   UNL A   1      47.335  29.741  27.124  1.00  0.00     0.131 A 
ATOM     65  C   UNL A   1      48.861  28.651  29.156  1.00  0.00     0.055 A 
ATOM     66  C   UNL A   1      48.651  29.351  26.867  1.00  0.00     0.041 A 
ATOM     67  F   UNL A   1      46.656  30.324  26.124  1.00  0.00    -0.206 F 
ATOM     68  C   UNL A   1      49.429  28.821  27.892  1.00  0.00     0.022 A 
BRANCH  65  69
ATOM     69  S   UNL A   1      49.903  28.193  30.568  1.00  0.00     0.124 S 
ATOM     70  O   UNL A   1      49.592  29.256  31.520  1.00  0.00    -0.237 OA
ATOM     71  O   UNL A   1      49.407  26.864  30.908  1.00  0.00    -0.237 OA
ATOM     72  O   UNL A   1      51.258  28.233  30.021  1.00  0.00    -0.744 OA
ENDBRANCH  65  69
ENDBRANCH  48  62
BRANCH  49  73
ATOM     73  C   UNL A   1      37.230  32.107  30.296  1.00  0.00     0.023 A 
ATOM     74  C   UNL A   1      36.331  32.503  29.294  1.00  0.00     0.031 A 
ATOM     75  C   UNL A   1      36.772  32.098  31.626  1.00  0.00     0.131 A 
ATOM     76  C   UNL A   1      35.034  32.915  29.639  1.00  0.00     0.055 A 
ATOM     77  C   UNL A   1      35.466  32.460  31.960  1.00  0.00     0.041 A 
ATOM     78  F   UNL A   1      37.590  31.721  32.623  1.00  0.00    -0.206 F 
ATOM     79  C   UNL A   1      34.592  32.883  30.964  1.00  0.00     0.022 A 
BRANCH  76  80
ATOM     80  S   UNL A   1      33.953  33.565  28.335  1.00  0.00     0.124 S 
ATOM     81  O   UNL A   1      33.492  32.340  27.693  1.00  0.00    -0.237 OA
ATOM     82  O   UNL A   1      32.957  34.300  29.108  1.00  0.00    -0.237 OA
ATOM     83  O   UNL A   1      34.851  34.394  27.532  1.00  0.00    -0.744 OA
ENDBRANCH  76  80
ENDBRANCH  49  73
BRANCH  61  84
ATOM     84  C   UNL A   1      43.318  35.476  30.811  1.00  0.00     0.023 A 
ATOM     85  C   UNL A   1      43.439  36.518  29.875  1.00  0.00     0.031 A 
ATOM     86  C   UNL A   1      43.533  35.775  32.168  1.00  0.00     0.131 A 
ATOM     87  C   UNL A   1      43.818  37.800  30.304  1.00  0.00     0.055 A 
ATOM     88  C   UNL A   1      43.851  37.066  32.595  1.00  0.00     0.041 A 
ATOM     89  F   UNL A   1      43.433  34.818  33.104  1.00  0.00    -0.206 F 
ATOM     90  C   UNL A   1      44.007  38.084  31.659  1.00  0.00     0.022 A 
BRANCH  87  91
ATOM     91  S   UNL A   1      44.146  39.075  29.056  1.00  0.00     0.124 S 
ATOM     92  O   UNL A   1      44.172  40.290  29.863  1.00  0.00    -0.237 OA
ATOM     93  O   UNL A   1      45.429  38.648  28.505  1.00  0.00    -0.237 OA
ATOM     94  O   UNL A   1      43.011  38.961  28.142  1.00  0.00    -0.744 OA
ENDBRANCH  87  91
ENDBRANCH  61  84
ENDBRANCH  35  36
ENDBRANCH  27  30
ENDBRANCH  25  26
ENDBRANCH  24  25
ENDBRANCH  23  24
ENDBRANCH  22  23
ENDBRANCH   1  22
TORSDOF 21
ENDMDL
MODEL 3
REMARK VINA RESULT:      -9.9      4.717      9.726
REMARK SMILES C[C@H](C[NH3+])S[C@H](C)c1ccc(C(=O)NCCCCCCNC(=O)c2ccc(-c3c4nc(c(-c5cc(S(=O)(=O)[O-])ccc5F)c5ccc([nH]5)c(-c5cc(S(=O)(=O)[O-])ccc5F)c5nc(c(-c6cc(S(=O)(=O)[O-])ccc6F)c6ccc3[nH]6)C=C5)C=C4)cc2)o1
REMARK SMILES IDX 16 1 15 2 14 3 12 4 13 5 11 7 8 8 9 9 87 10 10 11 6 12 7 13
REMARK SMILES IDX 5 14 2 15 1 16 3 17 4 18 17 22 18 23 19 24 20 25 21 26 22 27
REMARK SMILES IDX 23 29 24 30 25 31 86 32 26 33 85 34 27 35 28 36 29 37 79 38
REMARK SMILES IDX 30 39 84 40 78 41 80 42 31 43 83 44 77 45 76 46 32 48 64 49
REMARK SMILES IDX 44 50 63 51 45 52 48 53 62 54 81 55 46 56 47 57 61 59 82 60
REMARK SMILES IDX 49 61 33 62 34 63 42 64 35 65 41 66 43 67 40 68 36 69 37 70
REMARK SMILES IDX 38 71 39 72 65 73 66 74 74 75 67 76 73 77 75 78 72 79 68 80
REMARK SMILES IDX 69 81 70 82 71 83 50 84 51 85 59 86 52 87 58 88 60 89 57 90
REMARK SMILES IDX 53 91 54 92 55 93 56 94
REMARK H PARENT 14 6 4 19 4 20 4 21 21 28 80 47 48 58
REMARK Flexibility Score: inf
ROOT
ATOM      1  C   UNL A   1      30.297  27.834  24.054  1.00  0.00     0.021 C 
ENDROOT
BRANCH   1   2
ATOM      2  C   UNL A   1      30.568  27.388  22.616  1.00  0.00     0.116 C 
BRANCH   2   3
ATOM      3  N   UNL A   1      31.901  27.765  22.191  1.00  0.00    -0.349 N 
ATOM      4  C   UNL A   1      33.089  27.068  22.191  1.00  0.00     0.286 C 
ATOM      5  O   UNL A   1      34.039  27.636  21.645  1.00  0.00    -0.266 OA
ATOM      6  H   UNL A   1      31.970  28.682  21.839  1.00  0.00     0.163 HD
BRANCH   4   7
ATOM      7  C   UNL A   1      33.201  25.748  22.789  1.00  0.00     0.191 A 
ATOM      8  C   UNL A   1      32.906  24.312  24.458  1.00  0.00     0.117 A 
ATOM      9  C   UNL A   1      33.481  23.602  23.426  1.00  0.00     0.047 A 
ATOM     10  O   UNL A   1      32.747  25.613  24.085  1.00  0.00    -0.455 OA
ATOM     11  C   UNL A   1      33.632  24.508  22.351  1.00  0.00     0.056 A 
BRANCH   8  12
ATOM     12  C   UNL A   1      32.391  23.924  25.806  1.00  0.00     0.110 C 
ATOM     13  C   UNL A   1      31.207  24.818  26.182  1.00  0.00     0.028 C 
BRANCH  12  14
ATOM     14  S   UNL A   1      31.830  22.179  25.775  1.00  0.00    -0.142 SA
BRANCH  14  15
ATOM     15  C   UNL A   1      33.306  21.259  26.372  1.00  0.00     0.099 C 
ATOM     16  C   UNL A   1      34.196  22.150  27.236  1.00  0.00     0.025 C 
BRANCH  15  17
ATOM     17  C   UNL A   1      34.071  20.434  25.309  1.00  0.00     0.273 C 
BRANCH  17  18
ATOM     18  N   UNL A   1      33.261  19.815  24.257  1.00  0.00    -0.357 N 
ATOM     19  H   UNL A   1      33.163  20.465  23.477  1.00  0.00     0.344 HD
ATOM     20  H   UNL A   1      32.338  19.588  24.628  1.00  0.00     0.344 HD
ATOM     21  H   UNL A   1      33.718  18.963  23.934  1.00  0.00     0.344 HD
ENDBRANCH  17  18
ENDBRANCH  15  17
ENDBRANCH  14  15
ENDBRANCH  12  14
ENDBRANCH   8  12
ENDBRANCH   4   7
ENDBRANCH   2   3
ENDBRANCH   1   2
BRANCH   1  22
ATOM     22  C   UNL A   1      31.160  29.022  24.502  1.00  0.00     0.002 C 
BRANCH  22  23
ATOM     23  C   UNL A   1      31.642  28.966  25.959  1.00  0.00     0.002 C 
BRANCH  23  24
ATOM     24  C   UNL A   1      32.914  28.150  26.196  1.00  0.00     0.021 C 
BRANCH  24  25
ATOM     25  C   UNL A   1      34.206  28.961  26.140  1.00  0.00     0.116 C 
BRANCH  25  26
ATOM     26  N   UNL A   1      33.998  30.331  26.582  1.00  0.00    -0.352 N 
ATOM     27  C   UNL A   1      34.633  31.027  27.582  1.00  0.00     0.251 C 
ATOM     28  H   UNL A   1      33.305  30.831  26.096  1.00  0.00     0.163 HD
ATOM     29  O   UNL A   1      34.165  32.091  27.974  1.00  0.00    -0.269 OA
BRANCH  27  30
ATOM     30  C   UNL A   1      35.867  30.483  28.191  1.00  0.00     0.039 A 
ATOM     31  C   UNL A   1      35.769  29.696  29.342  1.00  0.00     0.014 A 
ATOM     32  C   UNL A   1      37.120  30.761  27.636  1.00  0.00     0.014 A 
ATOM     33  C   UNL A   1      36.922  29.144  29.905  1.00  0.00     0.010 A 
ATOM     34  C   UNL A   1      38.259  30.154  28.157  1.00  0.00     0.010 A 
ATOM     35  C   UNL A   1      38.173  29.344  29.300  1.00  0.00    -0.014 A 
BRANCH  35  36
ATOM     36  C   UNL A   1      39.410  28.732  29.855  1.00  0.00     0.031 A 
ATOM     37  C   UNL A   1      40.061  29.329  31.072  1.00  0.00     0.074 A 
ATOM     38  C   UNL A   1      39.980  27.687  29.225  1.00  0.00     0.049 A 
ATOM     39  N   UNL A   1      41.190  29.011  31.649  1.00  0.00    -0.248 NA
ATOM     40  C   UNL A   1      39.361  30.459  31.701  1.00  0.00     0.031 C 
ATOM     41  C   UNL A   1      39.458  27.042  28.018  1.00  0.00     0.029 A 
ATOM     42  N   UNL A   1      41.129  26.990  29.502  1.00  0.00    -0.354 N 
ATOM     43  C   UNL A   1      41.345  29.909  32.701  1.00  0.00     0.074 A 
ATOM     44  C   UNL A   1      40.225  30.823  32.636  1.00  0.00     0.031 C 
ATOM     45  C   UNL A   1      40.274  26.032  27.673  1.00  0.00     0.029 A 
ATOM     46  C   UNL A   1      41.399  25.987  28.601  1.00  0.00     0.049 A 
ATOM     47  H   UNL A   1      41.707  27.191  30.274  1.00  0.00     0.167 HD
ATOM     48  C   UNL A   1      42.318  29.951  33.646  1.00  0.00     0.034 A 
ATOM     49  C   UNL A   1      42.443  25.138  28.522  1.00  0.00     0.034 A 
ATOM     50  C   UNL A   1      43.423  29.023  33.699  1.00  0.00     0.049 A 
ATOM     51  C   UNL A   1      43.531  25.223  29.562  1.00  0.00     0.074 A 
ATOM     52  C   UNL A   1      44.437  28.942  34.636  1.00  0.00     0.029 A 
ATOM     53  N   UNL A   1      43.664  28.020  32.767  1.00  0.00    -0.354 N 
ATOM     54  N   UNL A   1      43.643  26.051  30.576  1.00  0.00    -0.248 NA
ATOM     55  C   UNL A   1      44.627  24.252  29.453  1.00  0.00     0.031 C 
ATOM     56  C   UNL A   1      45.326  27.938  34.236  1.00  0.00     0.029 A 
ATOM     57  C   UNL A   1      44.826  27.336  33.092  1.00  0.00     0.049 A 
ATOM     58  H   UNL A   1      43.092  27.822  31.990  1.00  0.00     0.167 HD
ATOM     59  C   UNL A   1      44.805  25.677  31.244  1.00  0.00     0.074 A 
ATOM     60  C   UNL A   1      45.352  24.544  30.524  1.00  0.00     0.031 C 
ATOM     61  C   UNL A   1      45.365  26.215  32.357  1.00  0.00     0.034 A 
BRANCH  48  62
ATOM     62  C   UNL A   1      42.237  31.056  34.674  1.00  0.00     0.023 A 
ATOM     63  C   UNL A   1      42.833  32.312  34.456  1.00  0.00     0.031 A 
ATOM     64  C   UNL A   1      41.598  30.840  35.907  1.00  0.00     0.131 A 
ATOM     65  C   UNL A   1      42.856  33.265  35.485  1.00  0.00     0.055 A 
ATOM     66  C   UNL A   1      41.546  31.827  36.894  1.00  0.00     0.041 A 
ATOM     67  F   UNL A   1      41.028  29.657  36.185  1.00  0.00    -0.206 F 
ATOM     68  C   UNL A   1      42.195  33.043  36.693  1.00  0.00     0.022 A 
BRANCH  65  69
ATOM     69  S   UNL A   1      43.910  34.728  35.281  1.00  0.00     0.124 S 
ATOM     70  O   UNL A   1      43.319  35.354  34.101  1.00  0.00    -0.237 OA
ATOM     71  O   UNL A   1      43.719  35.433  36.543  1.00  0.00    -0.237 OA
ATOM     72  O   UNL A   1      45.243  34.164  35.076  1.00  0.00    -0.744 OA
ENDBRANCH  65  69
ENDBRANCH  48  62
BRANCH  49  73
ATOM     73  C   UNL A   1      42.517  24.138  27.420  1.00  0.00     0.023 A 
ATOM     74  C   UNL A   1      41.698  22.998  27.422  1.00  0.00     0.031 A 
ATOM     75  C   UNL A   1      43.430  24.291  26.361  1.00  0.00     0.131 A 
ATOM     76  C   UNL A   1      41.836  22.035  26.411  1.00  0.00     0.055 A 
ATOM     77  C   UNL A   1      43.528  23.356  25.329  1.00  0.00     0.041 A 
ATOM     78  F   UNL A   1      44.232  25.367  26.306  1.00  0.00    -0.206 F 
ATOM     79  C   UNL A   1      42.736  22.213  25.357  1.00  0.00     0.022 A 
BRANCH  76  80
ATOM     80  S   UNL A   1      40.871  20.503  26.532  1.00  0.00     0.124 S 
ATOM     81  O   UNL A   1      39.546  20.955  26.122  1.00  0.00    -0.237 OA
ATOM     82  O   UNL A   1      41.570  19.631  25.595  1.00  0.00    -0.237 OA
ATOM     83  O   UNL A   1      40.998  20.132  27.939  1.00  0.00    -0.744 OA
ENDBRANCH  76  80
ENDBRANCH  49  73
BRANCH  61  84
ATOM     84  C   UNL A   1      46.610  25.547  32.890  1.00  0.00     0.023 A 
ATOM     85  C   UNL A   1      46.552  24.530  33.859  1.00  0.00     0.031 A 
ATOM     86  C   UNL A   1      47.876  25.941  32.421  1.00  0.00     0.131 A 
ATOM     87  C   UNL A   1      47.739  23.978  34.365  1.00  0.00     0.055 A 
ATOM     88  C   UNL A   1      49.051  25.347  32.884  1.00  0.00     0.041 A 
ATOM     89  F   UNL A   1      47.991  26.911  31.498  1.00  0.00    -0.206 F 
ATOM     90  C   UNL A   1      48.987  24.368  33.871  1.00  0.00     0.022 A 
BRANCH  87  91
ATOM     91  S   UNL A   1      47.637  22.804  35.743  1.00  0.00     0.124 S 
ATOM     92  O   UNL A   1      47.548  23.695  36.895  1.00  0.00    -0.237 OA
ATOM     93  O   UNL A   1      46.427  22.052  35.423  1.00  0.00    -0.237 OA
ATOM     94  O   UNL A   1      48.882  22.045  35.641  1.00  0.00    -0.744 OA
ENDBRANCH  87  91
ENDBRANCH  61  84
ENDBRANCH  35  36
ENDBRANCH  27  30
ENDBRANCH  25  26
ENDBRANCH  24  25
ENDBRANCH  23  24
ENDBRANCH  22  23
ENDBRANCH   1  22
TORSDOF 21
ENDMDL
