MODEL 1
REMARK VINA RESULT:     -12.1      0.000      0.000
REMARK SMILES COc1ccc2[nH]c(C(=O)c3cc(C)ccn3)c(CC(=O)NCCCCCCNC(=O)c3ccc(-c4c5nc(c(-c6cc(S(=O)(=O)[O-])ccc6F)c6ccc([nH]6)c(-c6cc(S(=O)(=O)[O-])ccc6F)c6nc(c(-c7cc(S(=O)(=O)[O-])ccc7F)c7ccc4[nH]7)C=C6)C=C5)cc3)c2c1
REMARK SMILES IDX 25 1 24 2 23 3 22 4 20 5 21 6 19 8 18 9 3 10 4 11 96 12 5 13
REMARK SMILES IDX 95 14 6 15 7 16 8 17 2 19 1 20 9 21 10 22 11 23 12 24 17 25
REMARK SMILES IDX 13 26 16 27 14 28 15 29 26 30 27 31 28 32 29 33 30 34 31 36
REMARK SMILES IDX 32 37 33 38 94 39 34 40 93 41 35 42 36 43 37 44 87 45 38 46
REMARK SMILES IDX 92 47 86 48 88 49 39 50 91 51 85 52 84 53 40 55 72 56 52 57
REMARK SMILES IDX 71 58 53 59 56 60 70 61 89 62 54 63 55 64 69 66 90 67 57 68
REMARK SMILES IDX 41 69 42 70 50 71 43 72 49 73 51 74 48 75 44 76 45 77 46 78
REMARK SMILES IDX 47 79 73 80 74 81 82 82 75 83 81 84 83 85 80 86 76 87 77 88
REMARK SMILES IDX 78 89 79 90 58 91 59 92 67 93 60 94 66 95 68 96 65 97 61 98
REMARK SMILES IDX 62 99 63 100 64 101
REMARK H PARENT 22 7 7 18 29 35 88 54 56 65
REMARK Flexibility Score: inf
ROOT
ATOM      1  C   UNL A   1      35.104  23.381  23.264  1.00  0.00     0.002 C 
ENDROOT
BRANCH   1   2
ATOM      2  C   UNL A   1      34.717  24.647  24.040  1.00  0.00     0.021 C 
BRANCH   2   3
ATOM      3  C   UNL A   1      33.744  25.566  23.300  1.00  0.00     0.116 C 
BRANCH   3   4
ATOM      4  N   UNL A   1      33.933  26.958  23.647  1.00  0.00    -0.356 N 
ATOM      5  C   UNL A   1      33.436  27.677  24.695  1.00  0.00     0.224 C 
ATOM      6  O   UNL A   1      33.901  28.810  24.862  1.00  0.00    -0.275 OA
ATOM      7  H   UNL A   1      34.510  27.466  23.031  1.00  0.00     0.163 HD
BRANCH   5   8
ATOM      8  C   UNL A   1      32.468  27.065  25.702  1.00  0.00     0.138 C 
BRANCH   8   9
ATOM      9  C   UNL A   1      31.119  26.668  25.161  1.00  0.00    -0.002 A 
ATOM     10  C   UNL A   1      29.328  29.389  23.144  1.00  0.00     0.119 A 
ATOM     11  C   UNL A   1      28.152  28.673  22.938  1.00  0.00     0.048 A 
ATOM     12  C   UNL A   1      30.404  28.804  23.816  1.00  0.00     0.057 A 
ATOM     13  C   UNL A   1      28.010  27.369  23.430  1.00  0.00     0.030 A 
ATOM     14  C   UNL A   1      30.275  27.505  24.353  1.00  0.00     0.008 A 
ATOM     15  C   UNL A   1      29.085  26.818  24.139  1.00  0.00     0.046 A 
ATOM     16  N   UNL A   1      29.217  25.593  24.743  1.00  0.00    -0.352 N 
ATOM     17  C   UNL A   1      30.470  25.439  25.300  1.00  0.00     0.093 A 
ATOM     18  H   UNL A   1      28.508  24.911  24.775  1.00  0.00     0.167 HD
BRANCH  10  19
ATOM     19  O   UNL A   1      29.539  30.662  22.683  1.00  0.00    -0.497 OA
ATOM     20  C   UNL A   1      28.362  31.468  22.653  1.00  0.00     0.278 C 
ENDBRANCH  10  19
BRANCH  17  21
ATOM     21  C   UNL A   1      30.966  24.220  25.931  1.00  0.00     0.227 C 
ATOM     22  O   UNL A   1      31.019  24.061  27.150  1.00  0.00    -0.285 OA
BRANCH  21  23
ATOM     23  C   UNL A   1      31.505  23.128  25.077  1.00  0.00     0.113 A 
ATOM     24  C   UNL A   1      32.263  22.110  25.652  1.00  0.00     0.036 A 
ATOM     25  N   UNL A   1      31.189  23.180  23.760  1.00  0.00    -0.253 NA
ATOM     26  C   UNL A   1      32.731  21.085  24.829  1.00  0.00    -0.047 A 
ATOM     27  C   UNL A   1      31.630  22.165  22.992  1.00  0.00     0.112 A 
ATOM     28  C   UNL A   1      33.550  19.957  25.378  1.00  0.00     0.044 C 
ATOM     29  C   UNL A   1      32.395  21.113  23.472  1.00  0.00     0.023 A 
ENDBRANCH  21  23
ENDBRANCH  17  21
ENDBRANCH   8   9
ENDBRANCH   5   8
ENDBRANCH   3   4
ENDBRANCH   2   3
ENDBRANCH   1   2
BRANCH   1  30
ATOM     30  C   UNL A   1      36.577  22.969  23.364  1.00  0.00     0.002 C 
BRANCH  30  31
ATOM     31  C   UNL A   1      36.858  21.726  24.215  1.00  0.00     0.021 C 
BRANCH  31  32
ATOM     32  C   UNL A   1      37.358  22.011  25.630  1.00  0.00     0.116 C 
BRANCH  32  33
ATOM     33  N   UNL A   1      38.404  21.086  26.040  1.00  0.00    -0.352 N 
ATOM     34  C   UNL A   1      39.657  21.345  26.537  1.00  0.00     0.251 C 
ATOM     35  H   UNL A   1      38.179  20.132  25.946  1.00  0.00     0.163 HD
ATOM     36  O   UNL A   1      40.466  20.426  26.648  1.00  0.00    -0.269 OA
BRANCH  34  37
ATOM     37  C   UNL A   1      40.042  22.724  26.917  1.00  0.00     0.039 A 
ATOM     38  C   UNL A   1      40.947  22.905  27.967  1.00  0.00     0.014 A 
ATOM     39  C   UNL A   1      39.502  23.833  26.261  1.00  0.00     0.014 A 
ATOM     40  C   UNL A   1      41.360  24.195  28.315  1.00  0.00     0.010 A 
ATOM     41  C   UNL A   1      39.958  25.113  26.569  1.00  0.00     0.010 A 
ATOM     42  C   UNL A   1      40.895  25.308  27.597  1.00  0.00    -0.014 A 
BRANCH  42  43
ATOM     43  C   UNL A   1      41.388  26.678  27.895  1.00  0.00     0.031 A 
ATOM     44  C   UNL A   1      42.800  27.067  27.556  1.00  0.00     0.074 A 
ATOM     45  C   UNL A   1      40.585  27.546  28.541  1.00  0.00     0.049 A 
ATOM     46  N   UNL A   1      43.438  28.180  27.813  1.00  0.00    -0.248 NA
ATOM     47  C   UNL A   1      43.610  26.056  26.860  1.00  0.00     0.031 C 
ATOM     48  C   UNL A   1      39.210  27.269  28.965  1.00  0.00     0.029 A 
ATOM     49  N   UNL A   1      40.811  28.829  28.970  1.00  0.00    -0.354 N 
ATOM     50  C   UNL A   1      44.729  28.001  27.327  1.00  0.00     0.074 A 
ATOM     51  C   UNL A   1      44.793  26.650  26.807  1.00  0.00     0.031 C 
ATOM     52  C   UNL A   1      38.713  28.353  29.580  1.00  0.00     0.029 A 
ATOM     53  C   UNL A   1      39.743  29.387  29.632  1.00  0.00     0.049 A 
ATOM     54  H   UNL A   1      41.659  29.307  28.818  1.00  0.00     0.167 HD
ATOM     55  C   UNL A   1      45.757  28.886  27.298  1.00  0.00     0.034 A 
ATOM     56  C   UNL A   1      39.609  30.588  30.229  1.00  0.00     0.034 A 
ATOM     57  C   UNL A   1      45.670  30.234  27.808  1.00  0.00     0.049 A 
ATOM     58  C   UNL A   1      40.766  31.553  30.194  1.00  0.00     0.074 A 
ATOM     59  C   UNL A   1      46.625  31.236  27.764  1.00  0.00     0.029 A 
ATOM     60  N   UNL A   1      44.569  30.768  28.465  1.00  0.00    -0.354 N 
ATOM     61  N   UNL A   1      41.963  31.388  29.679  1.00  0.00    -0.248 NA
ATOM     62  C   UNL A   1      40.550  32.866  30.813  1.00  0.00     0.031 C 
ATOM     63  C   UNL A   1      46.125  32.351  28.449  1.00  0.00     0.029 A 
ATOM     64  C   UNL A   1      44.833  32.071  28.861  1.00  0.00     0.049 A 
ATOM     65  H   UNL A   1      43.722  30.291  28.626  1.00  0.00     0.167 HD
ATOM     66  C   UNL A   1      42.635  32.587  29.894  1.00  0.00     0.074 A 
ATOM     67  C   UNL A   1      41.705  33.468  30.571  1.00  0.00     0.031 C 
ATOM     68  C   UNL A   1      43.905  32.931  29.559  1.00  0.00     0.034 A 
BRANCH  55  69
ATOM     69  C   UNL A   1      47.069  28.407  26.724  1.00  0.00     0.023 A 
ATOM     70  C   UNL A   1      47.273  28.300  25.336  1.00  0.00     0.031 A 
ATOM     71  C   UNL A   1      48.120  28.018  27.574  1.00  0.00     0.131 A 
ATOM     72  C   UNL A   1      48.463  27.742  24.844  1.00  0.00     0.055 A 
ATOM     73  C   UNL A   1      49.333  27.541  27.075  1.00  0.00     0.041 A 
ATOM     74  F   UNL A   1      47.978  28.080  28.907  1.00  0.00    -0.206 F 
ATOM     75  C   UNL A   1      49.504  27.384  25.703  1.00  0.00     0.022 A 
BRANCH  72  76
ATOM     76  S   UNL A   1      48.567  27.350  23.075  1.00  0.00     0.124 S 
ATOM     77  O   UNL A   1      47.482  28.162  22.530  1.00  0.00    -0.237 OA
ATOM     78  O   UNL A   1      49.919  27.778  22.737  1.00  0.00    -0.237 OA
ATOM     79  O   UNL A   1      48.338  25.907  23.030  1.00  0.00    -0.744 OA
ENDBRANCH  72  76
ENDBRANCH  55  69
BRANCH  56  80
ATOM     80  C   UNL A   1      38.340  30.945  30.922  1.00  0.00     0.023 A 
ATOM     81  C   UNL A   1      37.315  31.625  30.250  1.00  0.00     0.031 A 
ATOM     82  C   UNL A   1      38.148  30.629  32.279  1.00  0.00     0.131 A 
ATOM     83  C   UNL A   1      36.155  32.002  30.945  1.00  0.00     0.055 A 
ATOM     84  C   UNL A   1      36.974  30.967  32.954  1.00  0.00     0.041 A 
ATOM     85  F   UNL A   1      39.097  29.970  32.964  1.00  0.00    -0.206 F 
ATOM     86  C   UNL A   1      35.973  31.667  32.288  1.00  0.00     0.022 A 
BRANCH  83  87
ATOM     87  S   UNL A   1      34.909  32.996  30.079  1.00  0.00     0.124 S 
ATOM     88  O   UNL A   1      34.388  32.041  29.108  1.00  0.00    -0.237 OA
ATOM     89  O   UNL A   1      34.008  33.364  31.166  1.00  0.00    -0.237 OA
ATOM     90  O   UNL A   1      35.685  34.100  29.517  1.00  0.00    -0.744 OA
ENDBRANCH  83  87
ENDBRANCH  56  80
BRANCH  68  91
ATOM     91  C   UNL A   1      44.343  34.332  29.901  1.00  0.00     0.023 A 
ATOM     92  C   UNL A   1      44.035  35.424  29.070  1.00  0.00     0.031 A 
ATOM     93  C   UNL A   1      45.096  34.576  31.063  1.00  0.00     0.131 A 
ATOM     94  C   UNL A   1      44.523  36.701  29.385  1.00  0.00     0.055 A 
ATOM     95  C   UNL A   1      45.531  35.858  31.400  1.00  0.00     0.041 A 
ATOM     96  F   UNL A   1      45.420  33.570  31.891  1.00  0.00    -0.206 F 
ATOM     97  C   UNL A   1      45.256  36.927  30.552  1.00  0.00     0.022 A 
BRANCH  94  98
ATOM     98  S   UNL A   1      44.257  38.051  28.203  1.00  0.00     0.124 S 
ATOM     99  O   UNL A   1      43.140  38.769  28.808  1.00  0.00    -0.237 OA
ATOM    100  O   UNL A   1      45.543  38.740  28.221  1.00  0.00    -0.237 OA
ATOM    101  O   UNL A   1      43.945  37.358  26.954  1.00  0.00    -0.744 OA
ENDBRANCH  94  98
ENDBRANCH  68  91
ENDBRANCH  42  43
ENDBRANCH  34  37
ENDBRANCH  32  33
ENDBRANCH  31  32
ENDBRANCH  30  31
ENDBRANCH   1  30
TORSDOF 20
ENDMDL
MODEL 2
REMARK VINA RESULT:     -11.9      1.608      7.414
REMARK SMILES COc1ccc2[nH]c(C(=O)c3cc(C)ccn3)c(CC(=O)NCCCCCCNC(=O)c3ccc(-c4c5nc(c(-c6cc(S(=O)(=O)[O-])ccc6F)c6ccc([nH]6)c(-c6cc(S(=O)(=O)[O-])ccc6F)c6nc(c(-c7cc(S(=O)(=O)[O-])ccc7F)c7ccc4[nH]7)C=C6)C=C5)cc3)c2c1
REMARK SMILES IDX 25 1 24 2 23 3 22 4 20 5 21 6 19 8 18 9 3 10 4 11 96 12 5 13
REMARK SMILES IDX 95 14 6 15 7 16 8 17 2 19 1 20 9 21 10 22 11 23 12 24 17 25
REMARK SMILES IDX 13 26 16 27 14 28 15 29 26 30 27 31 28 32 29 33 30 34 31 36
REMARK SMILES IDX 32 37 33 38 94 39 34 40 93 41 35 42 36 43 37 44 87 45 38 46
REMARK SMILES IDX 92 47 86 48 88 49 39 50 91 51 85 52 84 53 40 55 72 56 52 57
REMARK SMILES IDX 71 58 53 59 56 60 70 61 89 62 54 63 55 64 69 66 90 67 57 68
REMARK SMILES IDX 41 69 42 70 50 71 43 72 49 73 51 74 48 75 44 76 45 77 46 78
REMARK SMILES IDX 47 79 73 80 74 81 82 82 75 83 81 84 83 85 80 86 76 87 77 88
REMARK SMILES IDX 78 89 79 90 58 91 59 92 67 93 60 94 66 95 68 96 65 97 61 98
REMARK SMILES IDX 62 99 63 100 64 101
REMARK H PARENT 22 7 7 18 29 35 88 54 56 65
REMARK Flexibility Score: inf
ROOT
ATOM      1  C   UNL A   1      34.998  23.382  23.134  1.00  0.00     0.002 C 
ENDROOT
BRANCH   1   2
ATOM      2  C   UNL A   1      34.442  24.622  23.847  1.00  0.00     0.021 C 
BRANCH   2   3
ATOM      3  C   UNL A   1      33.645  25.563  22.944  1.00  0.00     0.116 C 
BRANCH   3   4
ATOM      4  N   UNL A   1      33.833  26.954  23.298  1.00  0.00    -0.356 N 
ATOM      5  C   UNL A   1      33.399  27.648  24.390  1.00  0.00     0.224 C 
ATOM      6  O   UNL A   1      33.854  28.788  24.541  1.00  0.00    -0.275 OA
ATOM      7  H   UNL A   1      34.354  27.481  22.650  1.00  0.00     0.163 HD
BRANCH   5   8
ATOM      8  C   UNL A   1      32.517  27.004  25.454  1.00  0.00     0.138 C 
BRANCH   8   9
ATOM      9  C   UNL A   1      31.118  26.647  25.022  1.00  0.00    -0.002 A 
ATOM     10  C   UNL A   1      29.321  29.353  22.989  1.00  0.00     0.119 A 
ATOM     11  C   UNL A   1      28.103  28.686  22.896  1.00  0.00     0.048 A 
ATOM     12  C   UNL A   1      30.412  28.750  23.620  1.00  0.00     0.057 A 
ATOM     13  C   UNL A   1      27.935  27.416  23.462  1.00  0.00     0.030 A 
ATOM     14  C   UNL A   1      30.261  27.485  24.228  1.00  0.00     0.008 A 
ATOM     15  C   UNL A   1      29.030  26.848  24.127  1.00  0.00     0.046 A 
ATOM     16  N   UNL A   1      29.146  25.647  24.783  1.00  0.00    -0.352 N 
ATOM     17  C   UNL A   1      30.425  25.460  25.265  1.00  0.00     0.093 A 
ATOM     18  H   UNL A   1      28.410  25.003  24.895  1.00  0.00     0.167 HD
BRANCH  10  19
ATOM     19  O   UNL A   1      29.558  30.591  22.452  1.00  0.00    -0.497 OA
ATOM     20  C   UNL A   1      28.500  31.075  21.626  1.00  0.00     0.278 C 
ENDBRANCH  10  19
BRANCH  17  21
ATOM     21  C   UNL A   1      30.907  24.249  25.924  1.00  0.00     0.227 C 
ATOM     22  O   UNL A   1      30.957  24.118  27.146  1.00  0.00    -0.285 OA
BRANCH  21  23
ATOM     23  C   UNL A   1      31.432  23.132  25.095  1.00  0.00     0.113 A 
ATOM     24  C   UNL A   1      32.140  22.095  25.700  1.00  0.00     0.036 A 
ATOM     25  N   UNL A   1      31.154  23.181  23.769  1.00  0.00    -0.253 NA
ATOM     26  C   UNL A   1      32.596  21.047  24.899  1.00  0.00    -0.047 A 
ATOM     27  C   UNL A   1      31.582  22.144  23.023  1.00  0.00     0.112 A 
ATOM     28  C   UNL A   1      33.360  19.897  25.482  1.00  0.00     0.044 C 
ATOM     29  C   UNL A   1      32.298  21.072  23.534  1.00  0.00     0.023 A 
ENDBRANCH  21  23
ENDBRANCH  17  21
ENDBRANCH   8   9
ENDBRANCH   5   8
ENDBRANCH   3   4
ENDBRANCH   2   3
ENDBRANCH   1   2
BRANCH   1  30
ATOM     30  C   UNL A   1      36.390  22.928  23.585  1.00  0.00     0.002 C 
BRANCH  30  31
ATOM     31  C   UNL A   1      36.455  21.540  24.231  1.00  0.00     0.021 C 
BRANCH  31  32
ATOM     32  C   UNL A   1      37.021  21.513  25.649  1.00  0.00     0.116 C 
BRANCH  32  33
ATOM     33  N   UNL A   1      38.048  20.496  25.812  1.00  0.00    -0.352 N 
ATOM     34  C   UNL A   1      39.374  20.634  26.140  1.00  0.00     0.251 C 
ATOM     35  H   UNL A   1      37.747  19.570  25.665  1.00  0.00     0.163 HD
ATOM     36  O   UNL A   1      40.125  19.666  26.044  1.00  0.00    -0.269 OA
BRANCH  34  37
ATOM     37  C   UNL A   1      39.904  21.943  26.585  1.00  0.00     0.039 A 
ATOM     38  C   UNL A   1      40.903  21.969  27.563  1.00  0.00     0.014 A 
ATOM     39  C   UNL A   1      39.407  23.140  26.061  1.00  0.00     0.014 A 
ATOM     40  C   UNL A   1      41.449  23.191  27.966  1.00  0.00     0.010 A 
ATOM     41  C   UNL A   1      39.993  24.352  26.421  1.00  0.00     0.010 A 
ATOM     42  C   UNL A   1      41.023  24.391  27.375  1.00  0.00    -0.014 A 
BRANCH  42  43
ATOM     43  C   UNL A   1      41.652  25.690  27.729  1.00  0.00     0.031 A 
ATOM     44  C   UNL A   1      40.870  26.732  28.481  1.00  0.00     0.074 A 
ATOM     45  C   UNL A   1      42.903  25.958  27.307  1.00  0.00     0.049 A 
ATOM     46  N   UNL A   1      41.215  27.952  28.805  1.00  0.00    -0.248 NA
ATOM     47  C   UNL A   1      39.511  26.360  28.895  1.00  0.00     0.031 C 
ATOM     48  C   UNL A   1      43.745  25.045  26.530  1.00  0.00     0.029 A 
ATOM     49  N   UNL A   1      43.680  27.079  27.455  1.00  0.00    -0.354 N 
ATOM     50  C   UNL A   1      40.110  28.501  29.448  1.00  0.00     0.074 A 
ATOM     51  C   UNL A   1      39.069  27.494  29.417  1.00  0.00     0.031 C 
ATOM     52  C   UNL A   1      44.924  25.638  26.282  1.00  0.00     0.029 A 
ATOM     53  C   UNL A   1      44.908  26.985  26.844  1.00  0.00     0.049 A 
ATOM     54  H   UNL A   1      43.385  27.877  27.952  1.00  0.00     0.167 HD
ATOM     55  C   UNL A   1      39.984  29.723  30.026  1.00  0.00     0.034 A 
ATOM     56  C   UNL A   1      45.905  27.885  26.734  1.00  0.00     0.034 A 
ATOM     57  C   UNL A   1      41.038  30.708  30.059  1.00  0.00     0.049 A 
ATOM     58  C   UNL A   1      45.741  29.239  27.375  1.00  0.00     0.074 A 
ATOM     59  C   UNL A   1      41.042  31.946  30.681  1.00  0.00     0.029 A 
ATOM     60  N   UNL A   1      42.273  30.576  29.437  1.00  0.00    -0.354 N 
ATOM     61  N   UNL A   1      44.710  29.723  28.029  1.00  0.00    -0.248 NA
ATOM     62  C   UNL A   1      46.876  30.163  27.269  1.00  0.00     0.031 C 
ATOM     63  C   UNL A   1      42.251  32.585  30.380  1.00  0.00     0.029 A 
ATOM     64  C   UNL A   1      43.031  31.720  29.630  1.00  0.00     0.049 A 
ATOM     65  H   UNL A   1      42.568  29.783  28.933  1.00  0.00     0.167 HD
ATOM     66  C   UNL A   1      45.083  31.001  28.431  1.00  0.00     0.074 A 
ATOM     67  C   UNL A   1      46.438  31.205  27.959  1.00  0.00     0.031 C 
ATOM     68  C   UNL A   1      44.372  31.922  29.131  1.00  0.00     0.034 A 
BRANCH  55  69
ATOM     69  C   UNL A   1      38.647  30.064  30.639  1.00  0.00     0.023 A 
ATOM     70  C   UNL A   1      37.649  30.737  29.911  1.00  0.00     0.031 A 
ATOM     71  C   UNL A   1      38.375  29.743  31.982  1.00  0.00     0.131 A 
ATOM     72  C   UNL A   1      36.466  31.139  30.548  1.00  0.00     0.055 A 
ATOM     73  C   UNL A   1      37.161  30.074  32.588  1.00  0.00     0.041 A 
ATOM     74  F   UNL A   1      39.294  29.118  32.734  1.00  0.00    -0.206 F 
ATOM     75  C   UNL A   1      36.205  30.791  31.875  1.00  0.00     0.022 A 
BRANCH  72  76
ATOM     76  S   UNL A   1      35.342  32.255  29.663  1.00  0.00     0.124 S 
ATOM     77  O   UNL A   1      34.819  31.377  28.619  1.00  0.00    -0.237 OA
ATOM     78  O   UNL A   1      34.398  32.641  30.705  1.00  0.00    -0.237 OA
ATOM     79  O   UNL A   1      36.221  33.321  29.189  1.00  0.00    -0.744 OA
ENDBRANCH  72  76
ENDBRANCH  55  69
BRANCH  56  80
ATOM     80  C   UNL A   1      47.142  27.546  25.977  1.00  0.00     0.023 A 
ATOM     81  C   UNL A   1      47.244  27.808  24.603  1.00  0.00     0.031 A 
ATOM     82  C   UNL A   1      48.233  26.931  26.618  1.00  0.00     0.131 A 
ATOM     83  C   UNL A   1      48.397  27.421  23.903  1.00  0.00     0.055 A 
ATOM     84  C   UNL A   1      49.396  26.590  25.925  1.00  0.00     0.041 A 
ATOM     85  F   UNL A   1      48.187  26.668  27.933  1.00  0.00    -0.206 F 
ATOM     86  C   UNL A   1      49.478  26.825  24.556  1.00  0.00     0.022 A 
BRANCH  83  87
ATOM     87  S   UNL A   1      48.439  27.654  22.104  1.00  0.00     0.124 S 
ATOM     88  O   UNL A   1      49.565  28.567  21.948  1.00  0.00    -0.237 OA
ATOM     89  O   UNL A   1      48.647  26.290  21.628  1.00  0.00    -0.237 OA
ATOM     90  O   UNL A   1      47.126  28.222  21.804  1.00  0.00    -0.744 OA
ENDBRANCH  83  87
ENDBRANCH  56  80
BRANCH  68  91
ATOM     91  C   UNL A   1      45.068  33.221  29.447  1.00  0.00     0.023 A 
ATOM     92  C   UNL A   1      45.819  33.389  30.625  1.00  0.00     0.031 A 
ATOM     93  C   UNL A   1      44.962  34.314  28.568  1.00  0.00     0.131 A 
ATOM     94  C   UNL A   1      46.391  34.635  30.917  1.00  0.00     0.055 A 
ATOM     95  C   UNL A   1      45.580  35.535  28.839  1.00  0.00     0.041 A 
ATOM     96  F   UNL A   1      44.256  34.210  27.432  1.00  0.00    -0.206 F 
ATOM     97  C   UNL A   1      46.289  35.705  30.025  1.00  0.00     0.022 A 
BRANCH  94  98
ATOM     98  S   UNL A   1      47.202  34.866  32.523  1.00  0.00     0.124 S 
ATOM     99  O   UNL A   1      48.095  35.988  32.254  1.00  0.00    -0.237 OA
ATOM    100  O   UNL A   1      46.074  35.146  33.405  1.00  0.00    -0.237 OA
ATOM    101  O   UNL A   1      47.867  33.586  32.759  1.00  0.00    -0.744 OA
ENDBRANCH  94  98
ENDBRANCH  68  91
ENDBRANCH  42  43
ENDBRANCH  34  37
ENDBRANCH  32  33
ENDBRANCH  31  32
ENDBRANCH  30  31
ENDBRANCH   1  30
TORSDOF 20
ENDMDL
MODEL 3
REMARK VINA RESULT:     -11.8      5.425      8.827
REMARK SMILES COc1ccc2[nH]c(C(=O)c3cc(C)ccn3)c(CC(=O)NCCCCCCNC(=O)c3ccc(-c4c5nc(c(-c6cc(S(=O)(=O)[O-])ccc6F)c6ccc([nH]6)c(-c6cc(S(=O)(=O)[O-])ccc6F)c6nc(c(-c7cc(S(=O)(=O)[O-])ccc7F)c7ccc4[nH]7)C=C6)C=C5)cc3)c2c1
REMARK SMILES IDX 25 1 24 2 23 3 22 4 20 5 21 6 19 8 18 9 3 10 4 11 96 12 5 13
REMARK SMILES IDX 95 14 6 15 7 16 8 17 2 19 1 20 9 21 10 22 11 23 12 24 17 25
REMARK SMILES IDX 13 26 16 27 14 28 15 29 26 30 27 31 28 32 29 33 30 34 31 36
REMARK SMILES IDX 32 37 33 38 94 39 34 40 93 41 35 42 36 43 37 44 87 45 38 46
REMARK SMILES IDX 92 47 86 48 88 49 39 50 91 51 85 52 84 53 40 55 72 56 52 57
REMARK SMILES IDX 71 58 53 59 56 60 70 61 89 62 54 63 55 64 69 66 90 67 57 68
REMARK SMILES IDX 41 69 42 70 50 71 43 72 49 73 51 74 48 75 44 76 45 77 46 78
REMARK SMILES IDX 47 79 73 80 74 81 82 82 75 83 81 84 83 85 80 86 76 87 77 88
REMARK SMILES IDX 78 89 79 90 58 91 59 92 67 93 60 94 66 95 68 96 65 97 61 98
REMARK SMILES IDX 62 99 63 100 64 101
REMARK H PARENT 22 7 7 18 29 35 88 54 56 65
REMARK Flexibility Score: inf
ROOT
ATOM      1  C   UNL A   1      31.934  29.661  27.145  1.00  0.00     0.002 C 
ENDROOT
BRANCH   1   2
ATOM      2  C   UNL A   1      31.725  28.210  27.598  1.00  0.00     0.021 C 
BRANCH   2   3
ATOM      3  C   UNL A   1      31.731  27.188  26.461  1.00  0.00     0.116 C 
BRANCH   3   4
ATOM      4  N   UNL A   1      31.171  25.916  26.864  1.00  0.00    -0.356 N 
ATOM      5  C   UNL A   1      31.610  24.647  26.622  1.00  0.00     0.224 C 
ATOM      6  O   UNL A   1      31.045  23.736  27.237  1.00  0.00    -0.275 OA
ATOM      7  H   UNL A   1      30.343  25.975  27.395  1.00  0.00     0.163 HD
BRANCH   5   8
ATOM      8  C   UNL A   1      32.834  24.371  25.756  1.00  0.00     0.138 C 
BRANCH   8   9
ATOM      9  C   UNL A   1      32.567  23.704  24.431  1.00  0.00    -0.002 A 
ATOM     10  C   UNL A   1      32.333  19.882  24.573  1.00  0.00     0.119 A 
ATOM     11  C   UNL A   1      32.190  19.690  23.201  1.00  0.00     0.048 A 
ATOM     12  C   UNL A   1      32.407  21.172  25.102  1.00  0.00     0.057 A 
ATOM     13  C   UNL A   1      32.154  20.781  22.324  1.00  0.00     0.030 A 
ATOM     14  C   UNL A   1      32.408  22.288  24.238  1.00  0.00     0.008 A 
ATOM     15  C   UNL A   1      32.273  22.064  22.872  1.00  0.00     0.046 A 
ATOM     16  N   UNL A   1      32.293  23.294  22.262  1.00  0.00    -0.352 N 
ATOM     17  C   UNL A   1      32.386  24.313  23.188  1.00  0.00     0.093 A 
ATOM     18  H   UNL A   1      32.247  23.431  21.288  1.00  0.00     0.167 HD
BRANCH  10  19
ATOM     19  O   UNL A   1      32.366  18.863  25.488  1.00  0.00    -0.497 OA
ATOM     20  C   UNL A   1      32.604  17.578  24.915  1.00  0.00     0.278 C 
ENDBRANCH  10  19
BRANCH  17  21
ATOM     21  C   UNL A   1      32.333  25.738  22.877  1.00  0.00     0.227 C 
ATOM     22  O   UNL A   1      33.310  26.388  22.507  1.00  0.00    -0.285 OA
BRANCH  21  23
ATOM     23  C   UNL A   1      31.059  26.479  23.078  1.00  0.00     0.113 A 
ATOM     24  C   UNL A   1      30.919  27.767  22.567  1.00  0.00     0.036 A 
ATOM     25  N   UNL A   1      30.076  25.819  23.740  1.00  0.00    -0.253 NA
ATOM     26  C   UNL A   1      29.702  28.425  22.748  1.00  0.00    -0.047 A 
ATOM     27  C   UNL A   1      28.902  26.466  23.878  1.00  0.00     0.112 A 
ATOM     28  C   UNL A   1      29.479  29.810  22.223  1.00  0.00     0.044 C 
ATOM     29  C   UNL A   1      28.671  27.750  23.409  1.00  0.00     0.023 A 
ENDBRANCH  21  23
ENDBRANCH  17  21
ENDBRANCH   8   9
ENDBRANCH   5   8
ENDBRANCH   3   4
ENDBRANCH   2   3
ENDBRANCH   1   2
BRANCH   1  30
ATOM     30  C   UNL A   1      33.353  30.210  27.319  1.00  0.00     0.002 C 
BRANCH  30  31
ATOM     31  C   UNL A   1      33.451  31.589  27.980  1.00  0.00     0.021 C 
BRANCH  31  32
ATOM     32  C   UNL A   1      33.436  32.772  27.014  1.00  0.00     0.116 C 
BRANCH  32  33
ATOM     33  N   UNL A   1      32.931  33.985  27.638  1.00  0.00    -0.352 N 
ATOM     34  C   UNL A   1      33.291  34.576  28.824  1.00  0.00     0.251 C 
ATOM     35  H   UNL A   1      32.225  34.453  27.134  1.00  0.00     0.163 HD
ATOM     36  O   UNL A   1      32.614  35.500  29.270  1.00  0.00    -0.269 OA
BRANCH  34  37
ATOM     37  C   UNL A   1      34.473  34.092  29.574  1.00  0.00     0.039 A 
ATOM     38  C   UNL A   1      34.273  33.343  30.737  1.00  0.00     0.014 A 
ATOM     39  C   UNL A   1      35.771  34.390  29.149  1.00  0.00     0.014 A 
ATOM     40  C   UNL A   1      35.373  32.838  31.437  1.00  0.00     0.010 A 
ATOM     41  C   UNL A   1      36.864  33.837  29.814  1.00  0.00     0.010 A 
ATOM     42  C   UNL A   1      36.677  33.052  30.963  1.00  0.00    -0.014 A 
BRANCH  42  43
ATOM     43  C   UNL A   1      37.852  32.451  31.645  1.00  0.00     0.031 A 
ATOM     44  C   UNL A   1      38.630  31.346  30.984  1.00  0.00     0.074 A 
ATOM     45  C   UNL A   1      38.172  32.850  32.892  1.00  0.00     0.049 A 
ATOM     46  N   UNL A   1      39.627  30.640  31.453  1.00  0.00    -0.248 NA
ATOM     47  C   UNL A   1      38.208  30.967  29.629  1.00  0.00     0.031 C 
ATOM     48  C   UNL A   1      37.463  33.881  33.655  1.00  0.00     0.029 A 
ATOM     49  N   UNL A   1      39.161  32.428  33.744  1.00  0.00    -0.354 N 
ATOM     50  C   UNL A   1      39.945  29.722  30.457  1.00  0.00     0.074 A 
ATOM     51  C   UNL A   1      38.995  29.930  29.383  1.00  0.00     0.031 C 
ATOM     52  C   UNL A   1      38.049  34.018  34.856  1.00  0.00     0.029 A 
ATOM     53  C   UNL A   1      39.145  33.061  34.965  1.00  0.00     0.049 A 
ATOM     54  H   UNL A   1      39.819  31.736  33.504  1.00  0.00     0.167 HD
ATOM     55  C   UNL A   1      40.946  28.806  30.434  1.00  0.00     0.034 A 
ATOM     56  C   UNL A   1      39.916  32.882  36.056  1.00  0.00     0.034 A 
ATOM     57  C   UNL A   1      41.892  28.623  31.509  1.00  0.00     0.049 A 
ATOM     58  C   UNL A   1      41.015  31.853  36.012  1.00  0.00     0.074 A 
ATOM     59  C   UNL A   1      42.987  27.777  31.559  1.00  0.00     0.029 A 
ATOM     60  N   UNL A   1      41.852  29.288  32.728  1.00  0.00    -0.354 N 
ATOM     61  N   UNL A   1      41.338  31.030  35.041  1.00  0.00    -0.248 NA
ATOM     62  C   UNL A   1      41.857  31.734  37.209  1.00  0.00     0.031 C 
ATOM     63  C   UNL A   1      43.568  27.884  32.829  1.00  0.00     0.029 A 
ATOM     64  C   UNL A   1      42.879  28.847  33.548  1.00  0.00     0.049 A 
ATOM     65  H   UNL A   1      41.189  29.974  32.974  1.00  0.00     0.167 HD
ATOM     66  C   UNL A   1      42.437  30.312  35.503  1.00  0.00     0.074 A 
ATOM     67  C   UNL A   1      42.728  30.809  36.832  1.00  0.00     0.031 C 
ATOM     68  C   UNL A   1      43.143  29.333  34.883  1.00  0.00     0.034 A 
BRANCH  55  69
ATOM     69  C   UNL A   1      41.042  27.916  29.218  1.00  0.00     0.023 A 
ATOM     70  C   UNL A   1      42.052  28.086  28.254  1.00  0.00     0.031 A 
ATOM     71  C   UNL A   1      40.090  26.903  29.000  1.00  0.00     0.131 A 
ATOM     72  C   UNL A   1      42.040  27.315  27.082  1.00  0.00     0.055 A 
ATOM     73  C   UNL A   1      40.132  26.083  27.870  1.00  0.00     0.041 A 
ATOM     74  F   UNL A   1      39.091  26.704  29.874  1.00  0.00    -0.206 F 
ATOM     75  C   UNL A   1      41.101  26.299  26.894  1.00  0.00     0.022 A 
BRANCH  72  76
ATOM     76  S   UNL A   1      43.175  27.764  25.740  1.00  0.00     0.124 S 
ATOM     77  O   UNL A   1      43.927  28.860  26.346  1.00  0.00    -0.237 OA
ATOM     78  O   UNL A   1      43.912  26.525  25.524  1.00  0.00    -0.237 OA
ATOM     79  O   UNL A   1      42.281  28.158  24.653  1.00  0.00    -0.744 OA
ENDBRANCH  72  76
ENDBRANCH  55  69
BRANCH  56  80
ATOM     80  C   UNL A   1      39.670  33.682  37.287  1.00  0.00     0.023 A 
ATOM     81  C   UNL A   1      38.905  33.167  38.344  1.00  0.00     0.031 A 
ATOM     82  C   UNL A   1      40.179  34.988  37.411  1.00  0.00     0.131 A 
ATOM     83  C   UNL A   1      38.638  33.967  39.466  1.00  0.00     0.055 A 
ATOM     84  C   UNL A   1      39.948  35.762  38.550  1.00  0.00     0.041 A 
ATOM     85  F   UNL A   1      40.925  35.522  36.431  1.00  0.00    -0.206 F 
ATOM     86  C   UNL A   1      39.164  35.256  39.581  1.00  0.00     0.022 A 
BRANCH  83  87
ATOM     87  S   UNL A   1      37.535  33.317  40.752  1.00  0.00     0.124 S 
ATOM     88  O   UNL A   1      38.408  32.376  41.444  1.00  0.00    -0.237 OA
ATOM     89  O   UNL A   1      37.183  34.528  41.488  1.00  0.00    -0.237 OA
ATOM     90  O   UNL A   1      36.443  32.715  39.991  1.00  0.00    -0.744 OA
ENDBRANCH  83  87
ENDBRANCH  56  80
BRANCH  68  91
ATOM     91  C   UNL A   1      44.317  28.760  35.636  1.00  0.00     0.023 A 
ATOM     92  C   UNL A   1      44.192  27.605  36.429  1.00  0.00     0.031 A 
ATOM     93  C   UNL A   1      45.573  29.390  35.577  1.00  0.00     0.131 A 
ATOM     94  C   UNL A   1      45.289  27.146  37.171  1.00  0.00     0.055 A 
ATOM     95  C   UNL A   1      46.675  28.895  36.275  1.00  0.00     0.041 A 
ATOM     96  F   UNL A   1      45.748  30.496  34.838  1.00  0.00    -0.206 F 
ATOM     97  C   UNL A   1      46.534  27.774  37.088  1.00  0.00     0.022 A 
BRANCH  94  98
ATOM     98  S   UNL A   1      45.046  25.760  38.317  1.00  0.00     0.124 S 
ATOM     99  O   UNL A   1      46.225  24.941  38.057  1.00  0.00    -0.237 OA
ATOM    100  O   UNL A   1      45.008  26.429  39.613  1.00  0.00    -0.237 OA
ATOM    101  O   UNL A   1      43.778  25.176  37.885  1.00  0.00    -0.744 OA
ENDBRANCH  94  98
ENDBRANCH  68  91
ENDBRANCH  42  43
ENDBRANCH  34  37
ENDBRANCH  32  33
ENDBRANCH  31  32
ENDBRANCH  30  31
ENDBRANCH   1  30
TORSDOF 20
ENDMDL
