MODEL 1
REMARK VINA RESULT:     -10.7      0.000      0.000
REMARK SMILES CCO[C@@H]1CCC[C@]([NH3+])(C(=O)NCCCCCCNC(=O)c2ccc(-c3c4nc(c(-c5cc(S(=O)(=O)[O-])ccc5F)c5ccc([nH]5)c(-c5cc(S(=O)(=O)[O-])ccc5F)c5nc(c(-c6cc(S(=O)(=O)[O-])ccc6F)c6ccc3[nH]6)C=C5)C=C4)cc2)C1
REMARK SMILES IDX 16 1 15 2 14 3 13 4 12 5 10 6 11 7 8 9 4 10 5 11 85 12 6 13
REMARK SMILES IDX 7 14 3 15 2 16 1 17 9 18 17 22 18 23 19 24 20 25 21 27 22 28
REMARK SMILES IDX 23 29 84 30 24 31 83 32 25 33 26 34 27 35 77 36 28 37 82 38
REMARK SMILES IDX 76 39 78 40 29 41 81 42 75 43 74 44 30 46 62 47 42 48 61 49
REMARK SMILES IDX 43 50 46 51 60 52 79 53 44 54 45 55 59 57 80 58 47 59 31 60
REMARK SMILES IDX 32 61 40 62 33 63 39 64 41 65 38 66 34 67 35 68 36 69 37 70
REMARK SMILES IDX 63 71 64 72 72 73 65 74 71 75 73 76 70 77 66 78 67 79 68 80
REMARK SMILES IDX 69 81 48 82 49 83 57 84 50 85 56 86 58 87 55 88 51 89 52 90
REMARK SMILES IDX 53 91 54 92
REMARK H PARENT 12 8 9 19 9 20 9 21 19 26 78 45 46 56
REMARK Flexibility Score: inf
ROOT
ATOM      1  C   UNL A   1      35.035  20.556  25.195  1.00  0.00     0.002 C 
ENDROOT
BRANCH   1   2
ATOM      2  C   UNL A   1      33.844  19.817  24.573  1.00  0.00     0.002 C 
BRANCH   2   3
ATOM      3  C   UNL A   1      32.510  20.041  25.298  1.00  0.00     0.021 C 
BRANCH   3   4
ATOM      4  C   UNL A   1      31.824  21.349  24.900  1.00  0.00     0.116 C 
BRANCH   4   5
ATOM      5  N   UNL A   1      30.975  21.815  25.985  1.00  0.00    -0.351 N 
ATOM      6  C   UNL A   1      30.885  23.035  26.589  1.00  0.00     0.281 C 
ATOM      7  O   UNL A   1      30.079  23.139  27.519  1.00  0.00    -0.268 OA
ATOM      8  H   UNL A   1      30.360  21.135  26.343  1.00  0.00     0.163 HD
BRANCH   6   9
ATOM      9  C   UNL A   1      31.706  24.259  26.071  1.00  0.00     0.176 C 
ATOM     10  C   UNL A   1      32.284  25.682  24.046  1.00  0.00     0.125 C 
ATOM     11  C   UNL A   1      33.780  25.415  24.242  1.00  0.00     0.032 C 
ATOM     12  C   UNL A   1      31.502  24.472  24.560  1.00  0.00     0.111 C 
ATOM     13  C   UNL A   1      34.127  25.084  25.694  1.00  0.00     0.010 C 
ATOM     14  C   UNL A   1      33.218  24.003  26.294  1.00  0.00     0.079 C 
BRANCH  10  15
ATOM     15  O   UNL A   1      32.035  25.875  22.651  1.00  0.00    -0.378 OA
BRANCH  15  16
ATOM     16  C   UNL A   1      31.642  27.205  22.294  1.00  0.00     0.157 C 
ATOM     17  C   UNL A   1      30.260  27.581  22.799  1.00  0.00     0.035 C 
ENDBRANCH  15  16
ENDBRANCH  10  15
BRANCH   9  18
ATOM     18  N   UNL A   1      31.283  25.440  26.871  1.00  0.00    -0.345 N 
ATOM     19  H   UNL A   1      30.718  25.131  27.661  1.00  0.00     0.345 HD
ATOM     20  H   UNL A   1      30.734  26.068  26.284  1.00  0.00     0.345 HD
ATOM     21  H   UNL A   1      32.108  25.931  27.214  1.00  0.00     0.345 HD
ENDBRANCH   9  18
ENDBRANCH   6   9
ENDBRANCH   4   5
ENDBRANCH   3   4
ENDBRANCH   2   3
ENDBRANCH   1   2
BRANCH   1  22
ATOM     22  C   UNL A   1      35.545  21.745  24.377  1.00  0.00     0.021 C 
BRANCH  22  23
ATOM     23  C   UNL A   1      37.047  21.984  24.493  1.00  0.00     0.116 C 
BRANCH  23  24
ATOM     24  N   UNL A   1      37.725  20.850  25.103  1.00  0.00    -0.352 N 
ATOM     25  C   UNL A   1      38.892  20.822  25.827  1.00  0.00     0.251 C 
ATOM     26  H   UNL A   1      37.285  19.979  24.979  1.00  0.00     0.163 HD
ATOM     27  O   UNL A   1      39.440  19.749  26.057  1.00  0.00    -0.269 OA
BRANCH  25  28
ATOM     28  C   UNL A   1      39.488  22.088  26.304  1.00  0.00     0.039 A 
ATOM     29  C   UNL A   1      40.600  22.038  27.148  1.00  0.00     0.014 A 
ATOM     30  C   UNL A   1      38.948  23.320  25.924  1.00  0.00     0.014 A 
ATOM     31  C   UNL A   1      41.207  23.226  27.560  1.00  0.00     0.010 A 
ATOM     32  C   UNL A   1      39.601  24.499  26.272  1.00  0.00     0.010 A 
ATOM     33  C   UNL A   1      40.735  24.466  27.097  1.00  0.00    -0.014 A 
BRANCH  33  34
ATOM     34  C   UNL A   1      41.415  25.735  27.467  1.00  0.00     0.031 A 
ATOM     35  C   UNL A   1      40.688  26.772  28.280  1.00  0.00     0.074 A 
ATOM     36  C   UNL A   1      42.665  25.975  27.024  1.00  0.00     0.049 A 
ATOM     37  N   UNL A   1      41.083  27.965  28.645  1.00  0.00    -0.248 NA
ATOM     38  C   UNL A   1      39.325  26.431  28.719  1.00  0.00     0.031 C 
ATOM     39  C   UNL A   1      43.457  25.062  26.198  1.00  0.00     0.029 A 
ATOM     40  N   UNL A   1      43.487  27.060  27.196  1.00  0.00    -0.354 N 
ATOM     41  C   UNL A   1      40.018  28.521  29.345  1.00  0.00     0.074 A 
ATOM     42  C   UNL A   1      38.937  27.558  29.295  1.00  0.00     0.031 C 
ATOM     43  C   UNL A   1      44.659  25.611  25.963  1.00  0.00     0.029 A 
ATOM     44  C   UNL A   1      44.707  26.937  26.570  1.00  0.00     0.049 A 
ATOM     45  H   UNL A   1      43.229  27.854  27.720  1.00  0.00     0.167 HD
ATOM     46  C   UNL A   1      39.954  29.713  29.988  1.00  0.00     0.034 A 
ATOM     47  C   UNL A   1      45.739  27.799  26.482  1.00  0.00     0.034 A 
ATOM     48  C   UNL A   1      41.045  30.658  30.031  1.00  0.00     0.049 A 
ATOM     49  C   UNL A   1      45.631  29.136  27.171  1.00  0.00     0.074 A 
ATOM     50  C   UNL A   1      41.107  31.872  30.694  1.00  0.00     0.029 A 
ATOM     51  N   UNL A   1      42.260  30.504  29.375  1.00  0.00    -0.354 N 
ATOM     52  N   UNL A   1      44.633  29.627  27.871  1.00  0.00    -0.248 NA
ATOM     53  C   UNL A   1      46.790  30.030  27.067  1.00  0.00     0.031 C 
ATOM     54  C   UNL A   1      42.323  32.485  30.374  1.00  0.00     0.029 A 
ATOM     55  C   UNL A   1      43.062  31.616  29.587  1.00  0.00     0.049 A 
ATOM     56  H   UNL A   1      42.516  29.720  28.837  1.00  0.00     0.167 HD
ATOM     57  C   UNL A   1      45.062  30.874  28.319  1.00  0.00     0.074 A 
ATOM     58  C   UNL A   1      46.411  31.051  27.822  1.00  0.00     0.031 C 
ATOM     59  C   UNL A   1      44.402  31.787  29.076  1.00  0.00     0.034 A 
BRANCH  46  60
ATOM     60  C   UNL A   1      38.654  30.070  30.670  1.00  0.00     0.023 A 
ATOM     61  C   UNL A   1      37.644  30.789  30.007  1.00  0.00     0.031 A 
ATOM     62  C   UNL A   1      38.427  29.706  32.009  1.00  0.00     0.131 A 
ATOM     63  C   UNL A   1      36.493  31.187  30.703  1.00  0.00     0.055 A 
ATOM     64  C   UNL A   1      37.241  30.028  32.670  1.00  0.00     0.041 A 
ATOM     65  F   UNL A   1      39.362  29.038  32.704  1.00  0.00    -0.206 F 
ATOM     66  C   UNL A   1      36.271  30.786  32.022  1.00  0.00     0.022 A 
BRANCH  63  67
ATOM     67  S   UNL A   1      35.362  32.361  29.908  1.00  0.00     0.124 S 
ATOM     68  O   UNL A   1      36.269  33.451  29.554  1.00  0.00    -0.237 OA
ATOM     69  O   UNL A   1      34.833  31.584  28.794  1.00  0.00    -0.237 OA
ATOM     70  O   UNL A   1      34.401  32.679  30.961  1.00  0.00    -0.744 OA
ENDBRANCH  63  67
ENDBRANCH  46  60
BRANCH  47  71
ATOM     71  C   UNL A   1      46.960  27.439  25.703  1.00  0.00     0.023 A 
ATOM     72  C   UNL A   1      47.100  27.819  24.359  1.00  0.00     0.031 A 
ATOM     73  C   UNL A   1      47.986  26.668  26.278  1.00  0.00     0.131 A 
ATOM     74  C   UNL A   1      48.214  27.386  23.621  1.00  0.00     0.055 A 
ATOM     75  C   UNL A   1      49.121  26.291  25.558  1.00  0.00     0.041 A 
ATOM     76  F   UNL A   1      47.905  26.279  27.561  1.00  0.00    -0.206 F 
ATOM     77  C   UNL A   1      49.232  26.638  24.215  1.00  0.00     0.022 A 
BRANCH  74  78
ATOM     78  S   UNL A   1      48.262  27.731  21.840  1.00  0.00     0.124 S 
ATOM     79  O   UNL A   1      46.986  28.405  21.634  1.00  0.00    -0.237 OA
ATOM     80  O   UNL A   1      49.455  28.564  21.726  1.00  0.00    -0.237 OA
ATOM     81  O   UNL A   1      48.372  26.403  21.241  1.00  0.00    -0.744 OA
ENDBRANCH  74  78
ENDBRANCH  47  71
BRANCH  59  82
ATOM     82  C   UNL A   1      45.155  33.042  29.454  1.00  0.00     0.023 A 
ATOM     83  C   UNL A   1      45.899  33.134  30.643  1.00  0.00     0.031 A 
ATOM     84  C   UNL A   1      45.115  34.168  28.611  1.00  0.00     0.131 A 
ATOM     85  C   UNL A   1      46.524  34.343  30.985  1.00  0.00     0.055 A 
ATOM     86  C   UNL A   1      45.797  35.345  28.923  1.00  0.00     0.041 A 
ATOM     87  F   UNL A   1      44.417  34.140  27.465  1.00  0.00    -0.206 F 
ATOM     88  C   UNL A   1      46.496  35.442  30.122  1.00  0.00     0.022 A 
BRANCH  85  89
ATOM     89  S   UNL A   1      47.292  34.494  32.621  1.00  0.00     0.124 S 
ATOM     90  O   UNL A   1      48.654  34.042  32.360  1.00  0.00    -0.237 OA
ATOM     91  O   UNL A   1      47.136  35.917  32.908  1.00  0.00    -0.237 OA
ATOM     92  O   UNL A   1      46.493  33.602  33.459  1.00  0.00    -0.744 OA
ENDBRANCH  85  89
ENDBRANCH  59  82
ENDBRANCH  33  34
ENDBRANCH  25  28
ENDBRANCH  23  24
ENDBRANCH  22  23
ENDBRANCH   1  22
TORSDOF 19
ENDMDL
MODEL 2
REMARK VINA RESULT:     -10.7      4.773      7.433
REMARK SMILES CCO[C@@H]1CCC[C@]([NH3+])(C(=O)NCCCCCCNC(=O)c2ccc(-c3c4nc(c(-c5cc(S(=O)(=O)[O-])ccc5F)c5ccc([nH]5)c(-c5cc(S(=O)(=O)[O-])ccc5F)c5nc(c(-c6cc(S(=O)(=O)[O-])ccc6F)c6ccc3[nH]6)C=C5)C=C4)cc2)C1
REMARK SMILES IDX 16 1 15 2 14 3 13 4 12 5 10 6 11 7 8 9 4 10 5 11 85 12 6 13
REMARK SMILES IDX 7 14 3 15 2 16 1 17 9 18 17 22 18 23 19 24 20 25 21 27 22 28
REMARK SMILES IDX 23 29 84 30 24 31 83 32 25 33 26 34 27 35 77 36 28 37 82 38
REMARK SMILES IDX 76 39 78 40 29 41 81 42 75 43 74 44 30 46 62 47 42 48 61 49
REMARK SMILES IDX 43 50 46 51 60 52 79 53 44 54 45 55 59 57 80 58 47 59 31 60
REMARK SMILES IDX 32 61 40 62 33 63 39 64 41 65 38 66 34 67 35 68 36 69 37 70
REMARK SMILES IDX 63 71 64 72 72 73 65 74 71 75 73 76 70 77 66 78 67 79 68 80
REMARK SMILES IDX 69 81 48 82 49 83 57 84 50 85 56 86 58 87 55 88 51 89 52 90
REMARK SMILES IDX 53 91 54 92
REMARK H PARENT 12 8 9 19 9 20 9 21 19 26 78 45 46 56
REMARK Flexibility Score: inf
ROOT
ATOM      1  C   UNL A   1      31.760  27.464  26.834  1.00  0.00     0.002 C 
ENDROOT
BRANCH   1   2
ATOM      2  C   UNL A   1      31.746  27.355  25.304  1.00  0.00     0.002 C 
BRANCH   2   3
ATOM      3  C   UNL A   1      30.448  26.780  24.722  1.00  0.00     0.021 C 
BRANCH   3   4
ATOM      4  C   UNL A   1      30.506  25.267  24.506  1.00  0.00     0.116 C 
BRANCH   4   5
ATOM      5  N   UNL A   1      30.140  24.575  25.732  1.00  0.00    -0.351 N 
ATOM      6  C   UNL A   1      30.707  23.502  26.356  1.00  0.00     0.281 C 
ATOM      7  O   UNL A   1      30.159  23.104  27.389  1.00  0.00    -0.268 OA
ATOM      8  H   UNL A   1      29.350  24.944  26.189  1.00  0.00     0.163 HD
BRANCH   6   9
ATOM      9  C   UNL A   1      32.032  22.864  25.829  1.00  0.00     0.176 C 
ATOM     10  C   UNL A   1      34.548  23.149  25.614  1.00  0.00     0.125 C 
ATOM     11  C   UNL A   1      34.470  22.992  24.092  1.00  0.00     0.032 C 
ATOM     12  C   UNL A   1      33.241  23.775  26.105  1.00  0.00     0.111 C 
ATOM     13  C   UNL A   1      33.248  22.186  23.651  1.00  0.00     0.010 C 
ATOM     14  C   UNL A   1      31.944  22.678  24.293  1.00  0.00     0.079 C 
BRANCH  10  15
ATOM     15  O   UNL A   1      35.652  24.002  25.927  1.00  0.00    -0.378 OA
BRANCH  15  16
ATOM     16  C   UNL A   1      36.874  23.664  25.259  1.00  0.00     0.157 C 
ATOM     17  C   UNL A   1      38.113  23.939  26.094  1.00  0.00     0.035 C 
ENDBRANCH  15  16
ENDBRANCH  10  15
BRANCH   9  18
ATOM     18  N   UNL A   1      32.165  21.533  26.479  1.00  0.00    -0.345 N 
ATOM     19  H   UNL A   1      32.544  20.864  25.811  1.00  0.00     0.345 HD
ATOM     20  H   UNL A   1      31.249  21.217  26.797  1.00  0.00     0.345 HD
ATOM     21  H   UNL A   1      32.795  21.607  27.279  1.00  0.00     0.345 HD
ENDBRANCH   9  18
ENDBRANCH   6   9
ENDBRANCH   4   5
ENDBRANCH   3   4
ENDBRANCH   2   3
ENDBRANCH   1   2
BRANCH   1  22
ATOM     22  C   UNL A   1      32.032  28.872  27.370  1.00  0.00     0.021 C 
BRANCH  22  23
ATOM     23  C   UNL A   1      33.332  29.491  26.869  1.00  0.00     0.116 C 
BRANCH  23  24
ATOM     24  N   UNL A   1      33.394  30.916  27.157  1.00  0.00    -0.352 N 
ATOM     25  C   UNL A   1      34.297  31.609  27.925  1.00  0.00     0.251 C 
ATOM     26  H   UNL A   1      32.689  31.461  26.740  1.00  0.00     0.163 HD
ATOM     27  O   UNL A   1      34.056  32.767  28.252  1.00  0.00    -0.269 OA
BRANCH  25  28
ATOM     28  C   UNL A   1      35.542  30.947  28.370  1.00  0.00     0.039 A 
ATOM     29  C   UNL A   1      36.762  31.377  27.846  1.00  0.00     0.014 A 
ATOM     30  C   UNL A   1      35.503  29.902  29.298  1.00  0.00     0.014 A 
ATOM     31  C   UNL A   1      37.950  30.799  28.299  1.00  0.00     0.010 A 
ATOM     32  C   UNL A   1      36.691  29.382  29.805  1.00  0.00     0.010 A 
ATOM     33  C   UNL A   1      37.927  29.822  29.309  1.00  0.00    -0.014 A 
BRANCH  33  34
ATOM     34  C   UNL A   1      39.185  29.249  29.855  1.00  0.00     0.031 A 
ATOM     35  C   UNL A   1      39.813  29.845  31.086  1.00  0.00     0.074 A 
ATOM     36  C   UNL A   1      39.789  28.231  29.211  1.00  0.00     0.049 A 
ATOM     37  N   UNL A   1      40.940  29.533  31.675  1.00  0.00    -0.248 NA
ATOM     38  C   UNL A   1      39.092  30.957  31.724  1.00  0.00     0.031 C 
ATOM     39  C   UNL A   1      39.295  27.595  27.988  1.00  0.00     0.029 A 
ATOM     40  N   UNL A   1      40.952  27.557  29.486  1.00  0.00    -0.354 N 
ATOM     41  C   UNL A   1      41.067  30.413  32.743  1.00  0.00     0.074 A 
ATOM     42  C   UNL A   1      39.935  31.313  32.680  1.00  0.00     0.031 C 
ATOM     43  C   UNL A   1      40.131  26.605  27.638  1.00  0.00     0.029 A 
ATOM     44  C   UNL A   1      41.249  26.569  28.574  1.00  0.00     0.049 A 
ATOM     45  H   UNL A   1      41.521  27.759  30.265  1.00  0.00     0.167 HD
ATOM     46  C   UNL A   1      42.027  30.452  33.702  1.00  0.00     0.034 A 
ATOM     47  C   UNL A   1      42.309  25.740  28.492  1.00  0.00     0.034 A 
ATOM     48  C   UNL A   1      43.146  29.542  33.751  1.00  0.00     0.049 A 
ATOM     49  C   UNL A   1      43.384  25.829  29.546  1.00  0.00     0.074 A 
ATOM     50  C   UNL A   1      44.148  29.460  34.703  1.00  0.00     0.029 A 
ATOM     51  N   UNL A   1      43.421  28.563  32.803  1.00  0.00    -0.354 N 
ATOM     52  N   UNL A   1      43.465  26.636  30.579  1.00  0.00    -0.248 NA
ATOM     53  C   UNL A   1      44.506  24.889  29.428  1.00  0.00     0.031 C 
ATOM     54  C   UNL A   1      45.068  28.490  34.290  1.00  0.00     0.029 A 
ATOM     55  C   UNL A   1      44.595  27.900  33.128  1.00  0.00     0.049 A 
ATOM     56  H   UNL A   1      42.864  28.369  32.015  1.00  0.00     0.167 HD
ATOM     57  C   UNL A   1      44.629  26.276  31.252  1.00  0.00     0.074 A 
ATOM     58  C   UNL A   1      45.208  25.171  30.516  1.00  0.00     0.031 C 
ATOM     59  C   UNL A   1      45.169  26.806  32.380  1.00  0.00     0.034 A 
BRANCH  46  60
ATOM     60  C   UNL A   1      41.919  31.532  34.753  1.00  0.00     0.023 A 
ATOM     61  C   UNL A   1      40.929  31.497  35.751  1.00  0.00     0.031 A 
ATOM     62  C   UNL A   1      42.806  32.623  34.748  1.00  0.00     0.131 A 
ATOM     63  C   UNL A   1      40.800  32.567  36.649  1.00  0.00     0.055 A 
ATOM     64  C   UNL A   1      42.728  33.642  35.699  1.00  0.00     0.041 A 
ATOM     65  F   UNL A   1      43.759  32.726  33.808  1.00  0.00    -0.206 F 
ATOM     66  C   UNL A   1      41.711  33.626  36.649  1.00  0.00     0.022 A 
BRANCH  63  67
ATOM     67  S   UNL A   1      39.335  32.629  37.717  1.00  0.00     0.124 S 
ATOM     68  O   UNL A   1      38.837  33.978  37.456  1.00  0.00    -0.237 OA
ATOM     69  O   UNL A   1      38.521  31.536  37.200  1.00  0.00    -0.237 OA
ATOM     70  O   UNL A   1      39.880  32.424  39.058  1.00  0.00    -0.744 OA
ENDBRANCH  63  67
ENDBRANCH  46  60
BRANCH  47  71
ATOM     71  C   UNL A   1      42.420  24.763  27.370  1.00  0.00     0.023 A 
ATOM     72  C   UNL A   1      41.845  23.486  27.461  1.00  0.00     0.031 A 
ATOM     73  C   UNL A   1      43.145  25.076  26.206  1.00  0.00     0.131 A 
ATOM     74  C   UNL A   1      42.047  22.552  26.431  1.00  0.00     0.055 A 
ATOM     75  C   UNL A   1      43.292  24.165  25.158  1.00  0.00     0.041 A 
ATOM     76  F   UNL A   1      43.715  26.284  26.064  1.00  0.00    -0.206 F 
ATOM     77  C   UNL A   1      42.752  22.888  25.275  1.00  0.00     0.022 A 
BRANCH  74  78
ATOM     78  S   UNL A   1      41.455  20.854  26.673  1.00  0.00     0.124 S 
ATOM     79  O   UNL A   1      40.009  21.038  26.655  1.00  0.00    -0.237 OA
ATOM     80  O   UNL A   1      42.030  20.166  25.522  1.00  0.00    -0.237 OA
ATOM     81  O   UNL A   1      42.022  20.479  27.967  1.00  0.00    -0.744 OA
ENDBRANCH  74  78
ENDBRANCH  47  71
BRANCH  59  82
ATOM     82  C   UNL A   1      46.427  26.161  32.911  1.00  0.00     0.023 A 
ATOM     83  C   UNL A   1      46.388  25.069  33.795  1.00  0.00     0.031 A 
ATOM     84  C   UNL A   1      47.688  26.657  32.532  1.00  0.00     0.131 A 
ATOM     85  C   UNL A   1      47.581  24.547  34.317  1.00  0.00     0.055 A 
ATOM     86  C   UNL A   1      48.874  26.089  33.000  1.00  0.00     0.041 A 
ATOM     87  F   UNL A   1      47.789  27.701  31.695  1.00  0.00    -0.206 F 
ATOM     88  C   UNL A   1      48.825  25.036  33.909  1.00  0.00     0.022 A 
BRANCH  85  89
ATOM     89  S   UNL A   1      47.486  23.284  35.616  1.00  0.00     0.124 S 
ATOM     90  O   UNL A   1      46.116  23.444  36.093  1.00  0.00    -0.237 OA
ATOM     91  O   UNL A   1      47.765  22.056  34.879  1.00  0.00    -0.237 OA
ATOM     92  O   UNL A   1      48.524  23.688  36.563  1.00  0.00    -0.744 OA
ENDBRANCH  85  89
ENDBRANCH  59  82
ENDBRANCH  33  34
ENDBRANCH  25  28
ENDBRANCH  23  24
ENDBRANCH  22  23
ENDBRANCH   1  22
TORSDOF 19
ENDMDL
MODEL 3
REMARK VINA RESULT:     -10.7      2.109      8.224
REMARK SMILES CCO[C@@H]1CCC[C@]([NH3+])(C(=O)NCCCCCCNC(=O)c2ccc(-c3c4nc(c(-c5cc(S(=O)(=O)[O-])ccc5F)c5ccc([nH]5)c(-c5cc(S(=O)(=O)[O-])ccc5F)c5nc(c(-c6cc(S(=O)(=O)[O-])ccc6F)c6ccc3[nH]6)C=C5)C=C4)cc2)C1
REMARK SMILES IDX 16 1 15 2 14 3 13 4 12 5 10 6 11 7 8 9 4 10 5 11 85 12 6 13
REMARK SMILES IDX 7 14 3 15 2 16 1 17 9 18 17 22 18 23 19 24 20 25 21 27 22 28
REMARK SMILES IDX 23 29 84 30 24 31 83 32 25 33 26 34 27 35 77 36 28 37 82 38
REMARK SMILES IDX 76 39 78 40 29 41 81 42 75 43 74 44 30 46 62 47 42 48 61 49
REMARK SMILES IDX 43 50 46 51 60 52 79 53 44 54 45 55 59 57 80 58 47 59 31 60
REMARK SMILES IDX 32 61 40 62 33 63 39 64 41 65 38 66 34 67 35 68 36 69 37 70
REMARK SMILES IDX 63 71 64 72 72 73 65 74 71 75 73 76 70 77 66 78 67 79 68 80
REMARK SMILES IDX 69 81 48 82 49 83 57 84 50 85 56 86 58 87 55 88 51 89 52 90
REMARK SMILES IDX 53 91 54 92
REMARK H PARENT 12 8 9 19 9 20 9 21 19 26 78 45 46 56
REMARK Flexibility Score: inf
ROOT
ATOM      1  C   UNL A   1      36.426  22.757  23.438  1.00  0.00     0.002 C 
ENDROOT
BRANCH   1   2
ATOM      2  C   UNL A   1      35.233  23.719  23.489  1.00  0.00     0.002 C 
BRANCH   2   3
ATOM      3  C   UNL A   1      34.899  24.240  24.894  1.00  0.00     0.021 C 
BRANCH   3   4
ATOM      4  C   UNL A   1      33.608  25.059  24.938  1.00  0.00     0.116 C 
BRANCH   4   5
ATOM      5  N   UNL A   1      32.888  24.788  26.172  1.00  0.00    -0.351 N 
ATOM      6  C   UNL A   1      32.013  23.792  26.496  1.00  0.00     0.281 C 
ATOM      7  O   UNL A   1      31.525  23.825  27.630  1.00  0.00    -0.268 OA
ATOM      8  H   UNL A   1      33.063  25.430  26.897  1.00  0.00     0.163 HD
BRANCH   6   9
ATOM      9  C   UNL A   1      31.709  22.625  25.503  1.00  0.00     0.176 C 
ATOM     10  C   UNL A   1      32.537  20.416  24.558  1.00  0.00     0.125 C 
ATOM     11  C   UNL A   1      32.472  20.964  23.128  1.00  0.00     0.032 C 
ATOM     12  C   UNL A   1      32.835  21.576  25.510  1.00  0.00     0.111 C 
ATOM     13  C   UNL A   1      31.457  22.098  22.985  1.00  0.00     0.010 C 
ATOM     14  C   UNL A   1      31.615  23.182  24.059  1.00  0.00     0.079 C 
BRANCH  10  15
ATOM     15  O   UNL A   1      33.581  19.441  24.625  1.00  0.00    -0.378 OA
BRANCH  15  16
ATOM     16  C   UNL A   1      33.137  18.084  24.509  1.00  0.00     0.157 C 
ATOM     17  C   UNL A   1      33.817  17.322  23.385  1.00  0.00     0.035 C 
ENDBRANCH  15  16
ENDBRANCH  10  15
BRANCH   9  18
ATOM     18  N   UNL A   1      30.395  22.048  25.895  1.00  0.00    -0.345 N 
ATOM     19  H   UNL A   1      29.654  22.490  25.352  1.00  0.00     0.345 HD
ATOM     20  H   UNL A   1      30.235  22.213  26.888  1.00  0.00     0.345 HD
ATOM     21  H   UNL A   1      30.397  21.044  25.714  1.00  0.00     0.345 HD
ENDBRANCH   9  18
ENDBRANCH   6   9
ENDBRANCH   4   5
ENDBRANCH   3   4
ENDBRANCH   2   3
ENDBRANCH   1   2
BRANCH   1  22
ATOM     22  C   UNL A   1      36.449  21.710  24.554  1.00  0.00     0.021 C 
BRANCH  22  23
ATOM     23  C   UNL A   1      37.228  22.137  25.794  1.00  0.00     0.116 C 
BRANCH  23  24
ATOM     24  N   UNL A   1      38.292  21.195  26.109  1.00  0.00    -0.352 N 
ATOM     25  C   UNL A   1      39.586  21.444  26.497  1.00  0.00     0.251 C 
ATOM     26  H   UNL A   1      38.050  20.245  26.034  1.00  0.00     0.163 HD
ATOM     27  O   UNL A   1      40.410  20.536  26.487  1.00  0.00    -0.269 OA
BRANCH  25  28
ATOM     28  C   UNL A   1      39.979  22.810  26.904  1.00  0.00     0.039 A 
ATOM     29  C   UNL A   1      40.870  22.971  27.967  1.00  0.00     0.014 A 
ATOM     30  C   UNL A   1      39.466  23.929  26.240  1.00  0.00     0.014 A 
ATOM     31  C   UNL A   1      41.293  24.253  28.325  1.00  0.00     0.010 A 
ATOM     32  C   UNL A   1      39.949  25.198  26.548  1.00  0.00     0.010 A 
ATOM     33  C   UNL A   1      40.864  25.375  27.596  1.00  0.00    -0.014 A 
BRANCH  33  34
ATOM     34  C   UNL A   1      41.363  26.738  27.916  1.00  0.00     0.031 A 
ATOM     35  C   UNL A   1      42.778  27.123  27.577  1.00  0.00     0.074 A 
ATOM     36  C   UNL A   1      40.559  27.607  28.561  1.00  0.00     0.049 A 
ATOM     37  N   UNL A   1      43.417  28.235  27.836  1.00  0.00    -0.248 NA
ATOM     38  C   UNL A   1      43.588  26.114  26.879  1.00  0.00     0.031 C 
ATOM     39  C   UNL A   1      39.181  27.334  28.974  1.00  0.00     0.029 A 
ATOM     40  N   UNL A   1      40.784  28.891  28.990  1.00  0.00    -0.354 N 
ATOM     41  C   UNL A   1      44.705  28.057  27.342  1.00  0.00     0.074 A 
ATOM     42  C   UNL A   1      44.772  26.704  26.829  1.00  0.00     0.031 C 
ATOM     43  C   UNL A   1      38.675  28.427  29.567  1.00  0.00     0.029 A 
ATOM     44  C   UNL A   1      39.705  29.458  29.630  1.00  0.00     0.049 A 
ATOM     45  H   UNL A   1      41.638  29.363  28.852  1.00  0.00     0.167 HD
ATOM     46  C   UNL A   1      45.729  28.945  27.300  1.00  0.00     0.034 A 
ATOM     47  C   UNL A   1      39.567  30.665  30.214  1.00  0.00     0.034 A 
ATOM     48  C   UNL A   1      45.641  30.292  27.812  1.00  0.00     0.049 A 
ATOM     49  C   UNL A   1      40.732  31.622  30.191  1.00  0.00     0.074 A 
ATOM     50  C   UNL A   1      46.599  31.291  27.776  1.00  0.00     0.029 A 
ATOM     51  N   UNL A   1      44.537  30.827  28.464  1.00  0.00    -0.354 N 
ATOM     52  N   UNL A   1      41.930  31.455  29.676  1.00  0.00    -0.248 NA
ATOM     53  C   UNL A   1      40.525  32.933  30.819  1.00  0.00     0.031 C 
ATOM     54  C   UNL A   1      46.106  32.398  28.475  1.00  0.00     0.029 A 
ATOM     55  C   UNL A   1      44.804  32.127  28.868  1.00  0.00     0.049 A 
ATOM     56  H   UNL A   1      43.688  30.353  28.618  1.00  0.00     0.167 HD
ATOM     57  C   UNL A   1      42.605  32.654  29.888  1.00  0.00     0.074 A 
ATOM     58  C   UNL A   1      41.677  33.538  30.563  1.00  0.00     0.031 C 
ATOM     59  C   UNL A   1      43.875  32.996  29.551  1.00  0.00     0.034 A 
BRANCH  46  60
ATOM     60  C   UNL A   1      47.037  28.476  26.706  1.00  0.00     0.023 A 
ATOM     61  C   UNL A   1      47.218  28.358  25.316  1.00  0.00     0.031 A 
ATOM     62  C   UNL A   1      48.112  28.121  27.539  1.00  0.00     0.131 A 
ATOM     63  C   UNL A   1      48.412  27.826  24.807  1.00  0.00     0.055 A 
ATOM     64  C   UNL A   1      49.330  27.675  27.022  1.00  0.00     0.041 A 
ATOM     65  F   UNL A   1      47.994  28.190  28.875  1.00  0.00    -0.206 F 
ATOM     66  C   UNL A   1      49.481  27.510  25.649  1.00  0.00     0.022 A 
BRANCH  63  67
ATOM     67  S   UNL A   1      48.492  27.410  23.043  1.00  0.00     0.124 S 
ATOM     68  O   UNL A   1      49.839  27.860  22.695  1.00  0.00    -0.237 OA
ATOM     69  O   UNL A   1      48.282  25.968  23.049  1.00  0.00    -0.237 OA
ATOM     70  O   UNL A   1      47.411  28.198  22.456  1.00  0.00    -0.744 OA
ENDBRANCH  63  67
ENDBRANCH  46  60
BRANCH  47  71
ATOM     71  C   UNL A   1      38.287  31.039  30.883  1.00  0.00     0.023 A 
ATOM     72  C   UNL A   1      37.265  31.695  30.180  1.00  0.00     0.031 A 
ATOM     73  C   UNL A   1      38.084  30.787  32.252  1.00  0.00     0.131 A 
ATOM     74  C   UNL A   1      36.111  32.122  30.856  1.00  0.00     0.055 A 
ATOM     75  C   UNL A   1      36.909  31.159  32.907  1.00  0.00     0.041 A 
ATOM     76  F   UNL A   1      39.027  30.159  32.974  1.00  0.00    -0.206 F 
ATOM     77  C   UNL A   1      35.919  31.845  32.210  1.00  0.00     0.022 A 
BRANCH  74  78
ATOM     78  S   UNL A   1      34.904  33.137  29.958  1.00  0.00     0.124 S 
ATOM     79  O   UNL A   1      34.026  33.577  31.035  1.00  0.00    -0.237 OA
ATOM     80  O   UNL A   1      35.755  34.162  29.362  1.00  0.00    -0.237 OA
ATOM     81  O   UNL A   1      34.310  32.196  29.010  1.00  0.00    -0.744 OA
ENDBRANCH  74  78
ENDBRANCH  47  71
BRANCH  59  82
ATOM     82  C   UNL A   1      44.316  34.406  29.866  1.00  0.00     0.023 A 
ATOM     83  C   UNL A   1      44.015  35.487  29.020  1.00  0.00     0.031 A 
ATOM     84  C   UNL A   1      45.060  34.668  31.032  1.00  0.00     0.131 A 
ATOM     85  C   UNL A   1      44.505  36.767  29.319  1.00  0.00     0.055 A 
ATOM     86  C   UNL A   1      45.485  35.956  31.360  1.00  0.00     0.041 A 
ATOM     87  F   UNL A   1      45.381  33.675  31.876  1.00  0.00    -0.206 F 
ATOM     88  C   UNL A   1      45.220  37.013  30.494  1.00  0.00     0.022 A 
BRANCH  85  89
ATOM     89  S   UNL A   1      44.284  38.092  28.099  1.00  0.00     0.124 S 
ATOM     90  O   UNL A   1      43.918  37.343  26.902  1.00  0.00    -0.237 OA
ATOM     91  O   UNL A   1      43.222  38.894  28.699  1.00  0.00    -0.237 OA
ATOM     92  O   UNL A   1      45.595  38.736  28.051  1.00  0.00    -0.744 OA
ENDBRANCH  85  89
ENDBRANCH  59  82
ENDBRANCH  33  34
ENDBRANCH  25  28
ENDBRANCH  23  24
ENDBRANCH  22  23
ENDBRANCH   1  22
TORSDOF 19
ENDMDL
