MODEL 1
REMARK VINA RESULT:     -11.0      0.000      0.000
REMARK SMILES CC[NH2+][C@]1(C(=O)NCCCCCCNC(=O)c2ccc(-c3c4nc(c(-c5cc(S(=O)(=O)[O-])ccc5F)c5ccc([nH]5)c(-c5cc(S(=O)(=O)[O-])ccc5F)c5nc(c(-c6cc(S(=O)(=O)[O-])ccc6F)c6ccc3[nH]6)C=C5)C=C4)cc2)CC[C@@H](Sc2ccccc2C)C1
REMARK SMILES IDX 11 1 10 2 9 3 8 4 7 5 5 6 6 7 4 9 80 10 91 11 81 12 82 13
REMARK SMILES IDX 3 14 2 17 1 18 83 19 84 20 85 21 89 22 86 23 88 24 90 25
REMARK SMILES IDX 87 26 12 27 13 28 14 29 15 30 16 32 17 33 18 34 79 35 19 36
REMARK SMILES IDX 78 37 20 38 21 39 22 40 72 41 23 42 77 43 71 44 73 45 24 46
REMARK SMILES IDX 76 47 70 48 69 49 25 51 57 52 37 53 56 54 38 55 41 56 55 57
REMARK SMILES IDX 74 58 39 59 40 60 54 62 75 63 42 64 26 65 27 66 35 67 28 68
REMARK SMILES IDX 34 69 36 70 33 71 29 72 30 73 31 74 32 75 58 76 59 77 67 78
REMARK SMILES IDX 60 79 66 80 68 81 65 82 61 83 62 84 63 85 64 86 43 87 44 88
REMARK SMILES IDX 52 89 45 90 51 91 53 92 50 93 46 94 47 95 48 96 49 97
REMARK H PARENT 7 8 3 15 3 16 14 31 73 50 41 61
REMARK Flexibility Score: inf
ROOT
ATOM      1  C   UNL A   1      31.783  30.837  26.503  1.00  0.00     0.002 C 
ENDROOT
BRANCH   1   2
ATOM      2  C   UNL A   1      32.917  30.118  27.239  1.00  0.00     0.002 C 
BRANCH   2   3
ATOM      3  C   UNL A   1      32.884  28.590  27.126  1.00  0.00     0.021 C 
BRANCH   3   4
ATOM      4  C   UNL A   1      31.471  28.016  27.053  1.00  0.00     0.116 C 
BRANCH   4   5
ATOM      5  N   UNL A   1      31.497  26.583  27.245  1.00  0.00    -0.351 N 
ATOM      6  C   UNL A   1      31.501  25.573  26.326  1.00  0.00     0.281 C 
ATOM      7  O   UNL A   1      31.347  24.430  26.765  1.00  0.00    -0.268 OA
ATOM      8  H   UNL A   1      31.516  26.290  28.185  1.00  0.00     0.163 HD
BRANCH   6   9
ATOM      9  C   UNL A   1      31.714  25.889  24.806  1.00  0.00     0.176 C 
ATOM     10  C   UNL A   1      33.204  26.215  24.573  1.00  0.00     0.080 C 
ATOM     11  C   UNL A   1      31.559  24.596  23.981  1.00  0.00     0.094 C 
ATOM     12  C   UNL A   1      33.522  25.809  23.139  1.00  0.00     0.022 C 
ATOM     13  C   UNL A   1      32.512  24.717  22.793  1.00  0.00     0.058 C 
BRANCH   9  14
ATOM     14  N   UNL A   1      30.651  26.810  24.346  1.00  0.00    -0.334 N 
ATOM     15  H   UNL A   1      30.078  26.292  23.679  1.00  0.00     0.347 HD
ATOM     16  H   UNL A   1      30.198  27.106  25.209  1.00  0.00     0.347 HD
BRANCH  14  17
ATOM     17  C   UNL A   1      31.023  28.059  23.704  1.00  0.00     0.257 C 
ATOM     18  C   UNL A   1      30.274  28.191  22.382  1.00  0.00     0.071 C 
ENDBRANCH  14  17
ENDBRANCH   9  14
BRANCH  13  19
ATOM     19  S   UNL A   1      33.187  23.087  22.250  1.00  0.00    -0.122 SA
BRANCH  19  20
ATOM     20  C   UNL A   1      34.327  22.627  23.558  1.00  0.00     0.010 A 
ATOM     21  C   UNL A   1      35.666  23.018  23.378  1.00  0.00     0.015 A 
ATOM     22  C   UNL A   1      34.001  21.815  24.661  1.00  0.00    -0.038 A 
ATOM     23  C   UNL A   1      36.655  22.671  24.301  1.00  0.00     0.001 A 
ATOM     24  C   UNL A   1      35.002  21.512  25.606  1.00  0.00     0.004 A 
ATOM     25  C   UNL A   1      32.643  21.219  24.917  1.00  0.00     0.045 C 
ATOM     26  C   UNL A   1      36.318  21.931  25.427  1.00  0.00     0.000 A 
ENDBRANCH  19  20
ENDBRANCH  13  19
ENDBRANCH   6   9
ENDBRANCH   4   5
ENDBRANCH   3   4
ENDBRANCH   2   3
ENDBRANCH   1   2
BRANCH   1  27
ATOM     27  C   UNL A   1      31.652  32.328  26.828  1.00  0.00     0.021 C 
BRANCH  27  28
ATOM     28  C   UNL A   1      32.959  32.997  27.240  1.00  0.00     0.116 C 
BRANCH  28  29
ATOM     29  N   UNL A   1      32.721  34.263  27.914  1.00  0.00    -0.352 N 
ATOM     30  C   UNL A   1      33.265  34.740  29.081  1.00  0.00     0.251 C 
ATOM     31  H   UNL A   1      32.079  34.864  27.471  1.00  0.00     0.163 HD
ATOM     32  O   UNL A   1      32.764  35.712  29.634  1.00  0.00    -0.269 OA
BRANCH  30  33
ATOM     33  C   UNL A   1      34.438  34.059  29.670  1.00  0.00     0.039 A 
ATOM     34  C   UNL A   1      35.716  34.537  29.371  1.00  0.00     0.014 A 
ATOM     35  C   UNL A   1      34.277  32.956  30.513  1.00  0.00     0.014 A 
ATOM     36  C   UNL A   1      36.830  33.943  29.968  1.00  0.00     0.010 A 
ATOM     37  C   UNL A   1      35.380  32.417  31.166  1.00  0.00     0.010 A 
ATOM     38  C   UNL A   1      36.669  32.904  30.899  1.00  0.00    -0.014 A 
BRANCH  38  39
ATOM     39  C   UNL A   1      37.838  32.325  31.610  1.00  0.00     0.031 A 
ATOM     40  C   UNL A   1      38.645  31.226  30.977  1.00  0.00     0.074 A 
ATOM     41  C   UNL A   1      38.134  32.750  32.854  1.00  0.00     0.049 A 
ATOM     42  N   UNL A   1      39.662  30.560  31.461  1.00  0.00    -0.248 NA
ATOM     43  C   UNL A   1      38.229  30.797  29.635  1.00  0.00     0.031 C 
ATOM     44  C   UNL A   1      37.392  33.776  33.590  1.00  0.00     0.029 A 
ATOM     45  N   UNL A   1      39.126  32.371  33.721  1.00  0.00    -0.354 N 
ATOM     46  C   UNL A   1      40.004  29.628  30.487  1.00  0.00     0.074 A 
ATOM     47  C   UNL A   1      39.035  29.770  29.419  1.00  0.00     0.031 C 
ATOM     48  C   UNL A   1      37.970  33.962  34.787  1.00  0.00     0.029 A 
ATOM     49  C   UNL A   1      39.089  33.035  34.925  1.00  0.00     0.049 A 
ATOM     50  H   UNL A   1      39.801  31.687  33.503  1.00  0.00     0.167 HD
ATOM     51  C   UNL A   1      41.043  28.755  30.473  1.00  0.00     0.034 A 
ATOM     52  C   UNL A   1      39.858  32.902  36.024  1.00  0.00     0.034 A 
ATOM     53  C   UNL A   1      41.992  28.628  31.555  1.00  0.00     0.049 A 
ATOM     54  C   UNL A   1      40.983  31.902  36.008  1.00  0.00     0.074 A 
ATOM     55  C   UNL A   1      43.117  27.825  31.625  1.00  0.00     0.029 A 
ATOM     56  N   UNL A   1      41.919  29.309  32.765  1.00  0.00    -0.354 N 
ATOM     57  N   UNL A   1      41.337  31.074  35.053  1.00  0.00    -0.248 NA
ATOM     58  C   UNL A   1      41.816  31.827  37.213  1.00  0.00     0.031 C 
ATOM     59  C   UNL A   1      43.669  27.953  32.905  1.00  0.00     0.029 A 
ATOM     60  C   UNL A   1      42.948  28.908  33.604  1.00  0.00     0.049 A 
ATOM     61  H   UNL A   1      41.235  29.980  32.993  1.00  0.00     0.167 HD
ATOM     62  C   UNL A   1      42.450  30.392  35.535  1.00  0.00     0.074 A 
ATOM     63  C   UNL A   1      42.717  30.921  36.858  1.00  0.00     0.031 C 
ATOM     64  C   UNL A   1      43.188  29.420  34.936  1.00  0.00     0.034 A 
BRANCH  51  65
ATOM     65  C   UNL A   1      41.170  27.850  29.267  1.00  0.00     0.023 A 
ATOM     66  C   UNL A   1      42.168  28.051  28.295  1.00  0.00     0.031 A 
ATOM     67  C   UNL A   1      40.249  26.810  29.053  1.00  0.00     0.131 A 
ATOM     68  C   UNL A   1      42.155  27.300  27.111  1.00  0.00     0.055 A 
ATOM     69  C   UNL A   1      40.305  25.999  27.916  1.00  0.00     0.041 A 
ATOM     70  F   UNL A   1      39.261  26.578  29.930  1.00  0.00    -0.206 F 
ATOM     71  C   UNL A   1      41.247  26.256  26.925  1.00  0.00     0.022 A 
BRANCH  68  72
ATOM     72  S   UNL A   1      43.212  27.838  25.737  1.00  0.00     0.124 S 
ATOM     73  O   UNL A   1      43.804  29.059  26.282  1.00  0.00    -0.237 OA
ATOM     74  O   UNL A   1      44.118  26.707  25.574  1.00  0.00    -0.237 OA
ATOM     75  O   UNL A   1      42.270  28.049  24.641  1.00  0.00    -0.744 OA
ENDBRANCH  68  72
ENDBRANCH  51  65
BRANCH  52  76
ATOM     76  C   UNL A   1      39.570  33.725  37.233  1.00  0.00     0.023 A 
ATOM     77  C   UNL A   1      38.819  33.214  38.302  1.00  0.00     0.031 A 
ATOM     78  C   UNL A   1      40.051  35.044  37.334  1.00  0.00     0.131 A 
ATOM     79  C   UNL A   1      38.548  34.024  39.416  1.00  0.00     0.055 A 
ATOM     80  C   UNL A   1      39.821  35.828  38.465  1.00  0.00     0.041 A 
ATOM     81  F   UNL A   1      40.780  35.579  36.342  1.00  0.00    -0.206 F 
ATOM     82  C   UNL A   1      39.057  35.322  39.512  1.00  0.00     0.022 A 
BRANCH  79  83
ATOM     83  S   UNL A   1      37.468  33.377  40.722  1.00  0.00     0.124 S 
ATOM     84  O   UNL A   1      36.360  32.828  39.947  1.00  0.00    -0.237 OA
ATOM     85  O   UNL A   1      38.335  32.407  41.380  1.00  0.00    -0.237 OA
ATOM     86  O   UNL A   1      37.148  34.561  41.516  1.00  0.00    -0.744 OA
ENDBRANCH  79  83
ENDBRANCH  52  76
BRANCH  64  87
ATOM     87  C   UNL A   1      44.373  28.885  35.708  1.00  0.00     0.023 A 
ATOM     88  C   UNL A   1      44.231  27.879  36.679  1.00  0.00     0.031 A 
ATOM     89  C   UNL A   1      45.661  29.399  35.473  1.00  0.00     0.131 A 
ATOM     90  C   UNL A   1      45.346  27.462  37.422  1.00  0.00     0.055 A 
ATOM     91  C   UNL A   1      46.778  28.929  36.166  1.00  0.00     0.041 A 
ATOM     92  F   UNL A   1      45.858  30.365  34.561  1.00  0.00    -0.206 F 
ATOM     93  C   UNL A   1      46.622  27.965  37.157  1.00  0.00     0.022 A 
BRANCH  90  94
ATOM     94  S   UNL A   1      45.090  26.326  38.814  1.00  0.00     0.124 S 
ATOM     95  O   UNL A   1      43.658  26.465  39.057  1.00  0.00    -0.237 OA
ATOM     96  O   UNL A   1      45.522  25.048  38.258  1.00  0.00    -0.237 OA
ATOM     97  O   UNL A   1      45.953  26.870  39.862  1.00  0.00    -0.744 OA
ENDBRANCH  90  94
ENDBRANCH  64  87
ENDBRANCH  38  39
ENDBRANCH  30  33
ENDBRANCH  28  29
ENDBRANCH  27  28
ENDBRANCH   1  27
TORSDOF 20
ENDMDL
MODEL 2
REMARK VINA RESULT:     -11.0      1.778      3.241
REMARK SMILES CC[NH2+][C@]1(C(=O)NCCCCCCNC(=O)c2ccc(-c3c4nc(c(-c5cc(S(=O)(=O)[O-])ccc5F)c5ccc([nH]5)c(-c5cc(S(=O)(=O)[O-])ccc5F)c5nc(c(-c6cc(S(=O)(=O)[O-])ccc6F)c6ccc3[nH]6)C=C5)C=C4)cc2)CC[C@@H](Sc2ccccc2C)C1
REMARK SMILES IDX 11 1 10 2 9 3 8 4 7 5 5 6 6 7 4 9 80 10 91 11 81 12 82 13
REMARK SMILES IDX 3 14 2 17 1 18 83 19 84 20 85 21 89 22 86 23 88 24 90 25
REMARK SMILES IDX 87 26 12 27 13 28 14 29 15 30 16 32 17 33 18 34 79 35 19 36
REMARK SMILES IDX 78 37 20 38 21 39 22 40 72 41 23 42 77 43 71 44 73 45 24 46
REMARK SMILES IDX 76 47 70 48 69 49 25 51 57 52 37 53 56 54 38 55 41 56 55 57
REMARK SMILES IDX 74 58 39 59 40 60 54 62 75 63 42 64 26 65 27 66 35 67 28 68
REMARK SMILES IDX 34 69 36 70 33 71 29 72 30 73 31 74 32 75 58 76 59 77 67 78
REMARK SMILES IDX 60 79 66 80 68 81 65 82 61 83 62 84 63 85 64 86 43 87 44 88
REMARK SMILES IDX 52 89 45 90 51 91 53 92 50 93 46 94 47 95 48 96 49 97
REMARK H PARENT 7 8 3 15 3 16 14 31 73 50 41 61
REMARK Flexibility Score: inf
ROOT
ATOM      1  C   UNL A   1      31.927  29.957  26.937  1.00  0.00     0.002 C 
ENDROOT
BRANCH   1   2
ATOM      2  C   UNL A   1      33.422  29.726  26.695  1.00  0.00     0.002 C 
BRANCH   2   3
ATOM      3  C   UNL A   1      33.894  28.289  26.941  1.00  0.00     0.021 C 
BRANCH   3   4
ATOM      4  C   UNL A   1      33.258  27.270  25.997  1.00  0.00     0.116 C 
BRANCH   4   5
ATOM      5  N   UNL A   1      32.462  26.320  26.742  1.00  0.00    -0.351 N 
ATOM      6  C   UNL A   1      32.132  25.027  26.447  1.00  0.00     0.281 C 
ATOM      7  O   UNL A   1      31.290  24.496  27.174  1.00  0.00    -0.268 OA
ATOM      8  H   UNL A   1      32.101  26.657  27.593  1.00  0.00     0.163 HD
BRANCH   6   9
ATOM      9  C   UNL A   1      32.828  24.289  25.253  1.00  0.00     0.176 C 
ATOM     10  C   UNL A   1      31.756  23.516  24.457  1.00  0.00     0.080 C 
ATOM     11  C   UNL A   1      33.292  25.320  24.205  1.00  0.00     0.094 C 
ATOM     12  C   UNL A   1      32.249  23.440  23.017  1.00  0.00     0.022 C 
ATOM     13  C   UNL A   1      33.175  24.643  22.841  1.00  0.00     0.058 C 
BRANCH   9  14
ATOM     14  N   UNL A   1      34.048  23.611  25.743  1.00  0.00    -0.334 N 
ATOM     15  H   UNL A   1      34.778  23.776  25.050  1.00  0.00     0.347 HD
ATOM     16  H   UNL A   1      34.193  24.014  26.668  1.00  0.00     0.347 HD
BRANCH  14  17
ATOM     17  C   UNL A   1      34.015  22.180  25.991  1.00  0.00     0.257 C 
ATOM     18  C   UNL A   1      34.856  21.465  24.939  1.00  0.00     0.071 C 
ENDBRANCH  14  17
ENDBRANCH   9  14
BRANCH  13  19
ATOM     19  S   UNL A   1      32.764  25.829  21.487  1.00  0.00    -0.122 SA
BRANCH  19  20
ATOM     20  C   UNL A   1      31.926  27.177  22.325  1.00  0.00     0.010 A 
ATOM     21  C   UNL A   1      30.530  27.057  22.449  1.00  0.00     0.015 A 
ATOM     22  C   UNL A   1      32.542  28.372  22.743  1.00  0.00    -0.038 A 
ATOM     23  C   UNL A   1      29.762  28.067  23.034  1.00  0.00     0.001 A 
ATOM     24  C   UNL A   1      31.759  29.362  23.370  1.00  0.00     0.004 A 
ATOM     25  C   UNL A   1      34.000  28.696  22.561  1.00  0.00     0.045 C 
ATOM     26  C   UNL A   1      30.381  29.214  23.511  1.00  0.00     0.000 A 
ENDBRANCH  19  20
ENDBRANCH  13  19
ENDBRANCH   6   9
ENDBRANCH   4   5
ENDBRANCH   3   4
ENDBRANCH   2   3
ENDBRANCH   1   2
BRANCH   1  27
ATOM     27  C   UNL A   1      31.491  31.424  26.899  1.00  0.00     0.021 C 
BRANCH  27  28
ATOM     28  C   UNL A   1      32.586  32.393  26.465  1.00  0.00     0.116 C 
BRANCH  28  29
ATOM     29  N   UNL A   1      32.427  33.695  27.091  1.00  0.00    -0.352 N 
ATOM     30  C   UNL A   1      33.055  34.206  28.201  1.00  0.00     0.251 C 
ATOM     31  H   UNL A   1      31.776  34.295  26.661  1.00  0.00     0.163 HD
ATOM     32  O   UNL A   1      32.618  35.217  28.736  1.00  0.00    -0.269 OA
BRANCH  30  33
ATOM     33  C   UNL A   1      34.243  33.516  28.747  1.00  0.00     0.039 A 
ATOM     34  C   UNL A   1      35.502  34.092  28.565  1.00  0.00     0.014 A 
ATOM     35  C   UNL A   1      34.114  32.307  29.438  1.00  0.00     0.014 A 
ATOM     36  C   UNL A   1      36.625  33.484  29.129  1.00  0.00     0.010 A 
ATOM     37  C   UNL A   1      35.221  31.746  30.064  1.00  0.00     0.010 A 
ATOM     38  C   UNL A   1      36.490  32.327  29.915  1.00  0.00    -0.014 A 
BRANCH  38  39
ATOM     39  C   UNL A   1      37.664  31.722  30.595  1.00  0.00     0.031 A 
ATOM     40  C   UNL A   1      38.485  30.670  29.904  1.00  0.00     0.074 A 
ATOM     41  C   UNL A   1      37.950  32.080  31.862  1.00  0.00     0.049 A 
ATOM     42  N   UNL A   1      39.508  29.989  30.353  1.00  0.00    -0.248 NA
ATOM     43  C   UNL A   1      38.078  30.313  28.538  1.00  0.00     0.031 C 
ATOM     44  C   UNL A   1      37.195  33.054  32.653  1.00  0.00     0.029 A 
ATOM     45  N   UNL A   1      38.944  31.663  32.710  1.00  0.00    -0.354 N 
ATOM     46  C   UNL A   1      39.863  29.118  29.329  1.00  0.00     0.074 A 
ATOM     47  C   UNL A   1      38.896  29.309  28.268  1.00  0.00     0.031 C 
ATOM     48  C   UNL A   1      37.768  33.178  33.860  1.00  0.00     0.029 A 
ATOM     49  C   UNL A   1      38.897  32.257  33.950  1.00  0.00     0.049 A 
ATOM     50  H   UNL A   1      39.628  31.001  32.456  1.00  0.00     0.167 HD
ATOM     51  C   UNL A   1      40.912  28.259  29.270  1.00  0.00     0.034 A 
ATOM     52  C   UNL A   1      39.664  32.071  35.042  1.00  0.00     0.034 A 
ATOM     53  C   UNL A   1      41.860  28.082  30.345  1.00  0.00     0.049 A 
ATOM     54  C   UNL A   1      40.800  31.086  34.973  1.00  0.00     0.074 A 
ATOM     55  C   UNL A   1      42.993  27.289  30.374  1.00  0.00     0.029 A 
ATOM     56  N   UNL A   1      41.775  28.692  31.592  1.00  0.00    -0.354 N 
ATOM     57  N   UNL A   1      41.167  30.318  33.974  1.00  0.00    -0.248 NA
ATOM     58  C   UNL A   1      41.631  30.953  36.175  1.00  0.00     0.031 C 
ATOM     59  C   UNL A   1      43.541  27.350  31.660  1.00  0.00     0.029 A 
ATOM     60  C   UNL A   1      42.806  28.256  32.411  1.00  0.00     0.049 A 
ATOM     61  H   UNL A   1      41.083  29.341  31.855  1.00  0.00     0.167 HD
ATOM     62  C   UNL A   1      42.287  29.622  34.420  1.00  0.00     0.074 A 
ATOM     63  C   UNL A   1      42.543  30.079  35.772  1.00  0.00     0.031 C 
ATOM     64  C   UNL A   1      43.037  28.695  33.771  1.00  0.00     0.034 A 
BRANCH  51  65
ATOM     65  C   UNL A   1      41.053  27.426  28.014  1.00  0.00     0.023 A 
ATOM     66  C   UNL A   1      40.691  26.066  27.986  1.00  0.00     0.031 A 
ATOM     67  C   UNL A   1      41.610  27.978  26.848  1.00  0.00     0.131 A 
ATOM     68  C   UNL A   1      40.988  25.284  26.860  1.00  0.00     0.055 A 
ATOM     69  C   UNL A   1      41.810  27.216  25.694  1.00  0.00     0.041 A 
ATOM     70  F   UNL A   1      41.996  29.262  26.814  1.00  0.00    -0.206 F 
ATOM     71  C   UNL A   1      41.521  25.854  25.703  1.00  0.00     0.022 A 
BRANCH  68  72
ATOM     72  S   UNL A   1      40.853  23.480  27.004  1.00  0.00     0.124 S 
ATOM     73  O   UNL A   1      41.454  23.243  28.316  1.00  0.00    -0.237 OA
ATOM     74  O   UNL A   1      39.415  23.263  26.911  1.00  0.00    -0.237 OA
ATOM     75  O   UNL A   1      41.636  22.986  25.873  1.00  0.00    -0.744 OA
ENDBRANCH  68  72
ENDBRANCH  51  65
BRANCH  52  76
ATOM     76  C   UNL A   1      39.364  32.821  36.294  1.00  0.00     0.023 A 
ATOM     77  C   UNL A   1      38.500  32.298  37.269  1.00  0.00     0.031 A 
ATOM     78  C   UNL A   1      39.945  34.080  36.534  1.00  0.00     0.131 A 
ATOM     79  C   UNL A   1      38.221  33.041  38.427  1.00  0.00     0.055 A 
ATOM     80  C   UNL A   1      39.704  34.793  37.710  1.00  0.00     0.041 A 
ATOM     81  F   UNL A   1      40.783  34.623  35.637  1.00  0.00    -0.206 F 
ATOM     82  C   UNL A   1      38.830  34.277  38.662  1.00  0.00     0.022 A 
BRANCH  79  83
ATOM     83  S   UNL A   1      37.003  32.394  39.605  1.00  0.00     0.124 S 
ATOM     84  O   UNL A   1      37.243  33.235  40.772  1.00  0.00    -0.237 OA
ATOM     85  O   UNL A   1      35.748  32.617  38.898  1.00  0.00    -0.237 OA
ATOM     86  O   UNL A   1      37.388  30.992  39.757  1.00  0.00    -0.744 OA
ENDBRANCH  79  83
ENDBRANCH  52  76
BRANCH  64  87
ATOM     87  C   UNL A   1      44.225  28.130  34.514  1.00  0.00     0.023 A 
ATOM     88  C   UNL A   1      44.122  26.974  35.308  1.00  0.00     0.031 A 
ATOM     89  C   UNL A   1      45.478  28.766  34.435  1.00  0.00     0.131 A 
ATOM     90  C   UNL A   1      45.233  26.525  36.038  1.00  0.00     0.055 A 
ATOM     91  C   UNL A   1      46.597  28.273  35.108  1.00  0.00     0.041 A 
ATOM     92  F   UNL A   1      45.636  29.877  33.698  1.00  0.00    -0.206 F 
ATOM     93  C   UNL A   1      46.475  27.155  35.927  1.00  0.00     0.022 A 
BRANCH  90  94
ATOM     94  S   UNL A   1      45.008  25.167  37.220  1.00  0.00     0.124 S 
ATOM     95  O   UNL A   1      45.598  24.041  36.502  1.00  0.00    -0.237 OA
ATOM     96  O   UNL A   1      45.750  25.640  38.384  1.00  0.00    -0.237 OA
ATOM     97  O   UNL A   1      43.558  25.101  37.393  1.00  0.00    -0.744 OA
ENDBRANCH  90  94
ENDBRANCH  64  87
ENDBRANCH  38  39
ENDBRANCH  30  33
ENDBRANCH  28  29
ENDBRANCH  27  28
ENDBRANCH   1  27
TORSDOF 20
ENDMDL
MODEL 3
REMARK VINA RESULT:     -10.8      2.101      2.523
REMARK SMILES CC[NH2+][C@]1(C(=O)NCCCCCCNC(=O)c2ccc(-c3c4nc(c(-c5cc(S(=O)(=O)[O-])ccc5F)c5ccc([nH]5)c(-c5cc(S(=O)(=O)[O-])ccc5F)c5nc(c(-c6cc(S(=O)(=O)[O-])ccc6F)c6ccc3[nH]6)C=C5)C=C4)cc2)CC[C@@H](Sc2ccccc2C)C1
REMARK SMILES IDX 11 1 10 2 9 3 8 4 7 5 5 6 6 7 4 9 80 10 91 11 81 12 82 13
REMARK SMILES IDX 3 14 2 17 1 18 83 19 84 20 85 21 89 22 86 23 88 24 90 25
REMARK SMILES IDX 87 26 12 27 13 28 14 29 15 30 16 32 17 33 18 34 79 35 19 36
REMARK SMILES IDX 78 37 20 38 21 39 22 40 72 41 23 42 77 43 71 44 73 45 24 46
REMARK SMILES IDX 76 47 70 48 69 49 25 51 57 52 37 53 56 54 38 55 41 56 55 57
REMARK SMILES IDX 74 58 39 59 40 60 54 62 75 63 42 64 26 65 27 66 35 67 28 68
REMARK SMILES IDX 34 69 36 70 33 71 29 72 30 73 31 74 32 75 58 76 59 77 67 78
REMARK SMILES IDX 60 79 66 80 68 81 65 82 61 83 62 84 63 85 64 86 43 87 44 88
REMARK SMILES IDX 52 89 45 90 51 91 53 92 50 93 46 94 47 95 48 96 49 97
REMARK H PARENT 7 8 3 15 3 16 14 31 73 50 41 61
REMARK Flexibility Score: inf
ROOT
ATOM      1  C   UNL A   1      31.894  30.399  26.839  1.00  0.00     0.002 C 
ENDROOT
BRANCH   1   2
ATOM      2  C   UNL A   1      33.346  30.168  27.270  1.00  0.00     0.002 C 
BRANCH   2   3
ATOM      3  C   UNL A   1      33.945  28.836  26.808  1.00  0.00     0.021 C 
BRANCH   3   4
ATOM      4  C   UNL A   1      32.968  27.971  26.015  1.00  0.00     0.116 C 
BRANCH   4   5
ATOM      5  N   UNL A   1      33.374  27.888  24.630  1.00  0.00    -0.351 N 
ATOM      6  C   UNL A   1      32.911  27.088  23.624  1.00  0.00     0.281 C 
ATOM      7  O   UNL A   1      33.556  27.097  22.573  1.00  0.00    -0.268 OA
ATOM      8  H   UNL A   1      34.097  28.505  24.371  1.00  0.00     0.163 HD
BRANCH   6   9
ATOM      9  C   UNL A   1      31.612  26.236  23.829  1.00  0.00     0.176 C 
ATOM     10  C   UNL A   1      31.443  25.292  22.620  1.00  0.00     0.080 C 
ATOM     11  C   UNL A   1      31.831  25.223  24.971  1.00  0.00     0.094 C 
ATOM     12  C   UNL A   1      30.699  24.062  23.125  1.00  0.00     0.022 C 
ATOM     13  C   UNL A   1      31.014  23.981  24.618  1.00  0.00     0.058 C 
BRANCH   9  14
ATOM     14  N   UNL A   1      30.510  27.124  24.262  1.00  0.00    -0.334 N 
ATOM     15  H   UNL A   1      29.768  26.522  24.620  1.00  0.00     0.347 HD
ATOM     16  H   UNL A   1      30.954  27.752  24.930  1.00  0.00     0.347 HD
BRANCH  14  17
ATOM     17  C   UNL A   1      29.899  28.021  23.296  1.00  0.00     0.257 C 
ATOM     18  C   UNL A   1      30.243  29.462  23.658  1.00  0.00     0.071 C 
ENDBRANCH  14  17
ENDBRANCH   9  14
BRANCH  13  19
ATOM     19  S   UNL A   1      31.784  22.421  25.232  1.00  0.00    -0.122 SA
BRANCH  19  20
ATOM     20  C   UNL A   1      33.548  22.709  25.069  1.00  0.00     0.010 A 
ATOM     21  C   UNL A   1      34.044  22.788  23.756  1.00  0.00     0.015 A 
ATOM     22  C   UNL A   1      34.461  22.735  26.141  1.00  0.00    -0.038 A 
ATOM     23  C   UNL A   1      35.407  22.956  23.502  1.00  0.00     0.001 A 
ATOM     24  C   UNL A   1      35.828  22.949  25.869  1.00  0.00     0.004 A 
ATOM     25  C   UNL A   1      34.095  22.537  27.587  1.00  0.00     0.045 C 
ATOM     26  C   UNL A   1      36.298  23.055  24.562  1.00  0.00     0.000 A 
ENDBRANCH  19  20
ENDBRANCH  13  19
ENDBRANCH   6   9
ENDBRANCH   4   5
ENDBRANCH   3   4
ENDBRANCH   2   3
ENDBRANCH   1   2
BRANCH   1  27
ATOM     27  C   UNL A   1      31.458  31.866  26.816  1.00  0.00     0.021 C 
BRANCH  27  28
ATOM     28  C   UNL A   1      32.581  32.850  26.506  1.00  0.00     0.116 C 
BRANCH  28  29
ATOM     29  N   UNL A   1      32.399  34.108  27.212  1.00  0.00    -0.352 N 
ATOM     30  C   UNL A   1      32.984  34.541  28.377  1.00  0.00     0.251 C 
ATOM     31  H   UNL A   1      31.766  34.738  26.798  1.00  0.00     0.163 HD
ATOM     32  O   UNL A   1      32.528  35.515  28.962  1.00  0.00    -0.269 OA
BRANCH  30  33
ATOM     33  C   UNL A   1      34.149  33.812  28.921  1.00  0.00     0.039 A 
ATOM     34  C   UNL A   1      35.433  34.289  28.648  1.00  0.00     0.014 A 
ATOM     35  C   UNL A   1      33.975  32.664  29.700  1.00  0.00     0.014 A 
ATOM     36  C   UNL A   1      36.539  33.646  29.207  1.00  0.00     0.010 A 
ATOM     37  C   UNL A   1      35.071  32.073  30.318  1.00  0.00     0.010 A 
ATOM     38  C   UNL A   1      36.366  32.557  30.076  1.00  0.00    -0.014 A 
BRANCH  38  39
ATOM     39  C   UNL A   1      37.529  31.922  30.749  1.00  0.00     0.031 A 
ATOM     40  C   UNL A   1      38.342  30.877  30.038  1.00  0.00     0.074 A 
ATOM     41  C   UNL A   1      37.812  32.246  32.026  1.00  0.00     0.049 A 
ATOM     42  N   UNL A   1      39.354  30.174  30.476  1.00  0.00    -0.248 NA
ATOM     43  C   UNL A   1      37.939  30.558  28.661  1.00  0.00     0.031 C 
ATOM     44  C   UNL A   1      37.064  33.210  32.836  1.00  0.00     0.029 A 
ATOM     45  N   UNL A   1      38.796  31.798  32.870  1.00  0.00    -0.354 N 
ATOM     46  C   UNL A   1      39.706  29.323  29.434  1.00  0.00     0.074 A 
ATOM     47  C   UNL A   1      38.747  29.551  28.372  1.00  0.00     0.031 C 
ATOM     48  C   UNL A   1      37.630  33.298  34.049  1.00  0.00     0.029 A 
ATOM     49  C   UNL A   1      38.748  32.363  34.123  1.00  0.00     0.049 A 
ATOM     50  H   UNL A   1      39.473  31.134  32.604  1.00  0.00     0.167 HD
ATOM     51  C   UNL A   1      40.745  28.454  29.360  1.00  0.00     0.034 A 
ATOM     52  C   UNL A   1      39.506  32.142  35.215  1.00  0.00     0.034 A 
ATOM     53  C   UNL A   1      41.684  28.240  30.437  1.00  0.00     0.049 A 
ATOM     54  C   UNL A   1      40.631  31.146  35.129  1.00  0.00     0.074 A 
ATOM     55  C   UNL A   1      42.808  27.433  30.453  1.00  0.00     0.029 A 
ATOM     56  N   UNL A   1      41.599  28.821  31.697  1.00  0.00    -0.354 N 
ATOM     57  N   UNL A   1      40.995  30.397  34.113  1.00  0.00    -0.248 NA
ATOM     58  C   UNL A   1      41.453  30.974  36.332  1.00  0.00     0.031 C 
ATOM     59  C   UNL A   1      43.348  27.457  31.744  1.00  0.00     0.029 A 
ATOM     60  C   UNL A   1      42.620  28.354  32.511  1.00  0.00     0.049 A 
ATOM     61  H   UNL A   1      40.913  29.471  31.972  1.00  0.00     0.167 HD
ATOM     62  C   UNL A   1      42.104  29.677  34.550  1.00  0.00     0.074 A 
ATOM     63  C   UNL A   1      42.358  30.099  35.913  1.00  0.00     0.031 C 
ATOM     64  C   UNL A   1      42.847  28.757  33.882  1.00  0.00     0.034 A 
BRANCH  51  65
ATOM     65  C   UNL A   1      40.884  27.649  28.086  1.00  0.00     0.023 A 
ATOM     66  C   UNL A   1      40.514  26.292  28.025  1.00  0.00     0.031 A 
ATOM     67  C   UNL A   1      41.447  28.224  26.934  1.00  0.00     0.131 A 
ATOM     68  C   UNL A   1      40.809  25.535  26.882  1.00  0.00     0.055 A 
ATOM     69  C   UNL A   1      41.645  27.488  25.763  1.00  0.00     0.041 A 
ATOM     70  F   UNL A   1      41.840  29.507  26.931  1.00  0.00    -0.206 F 
ATOM     71  C   UNL A   1      41.347  26.129  25.740  1.00  0.00     0.022 A 
BRANCH  68  72
ATOM     72  S   UNL A   1      40.662  23.729  26.984  1.00  0.00     0.124 S 
ATOM     73  O   UNL A   1      39.263  23.526  26.614  1.00  0.00    -0.237 OA
ATOM     74  O   UNL A   1      41.652  23.277  26.014  1.00  0.00    -0.237 OA
ATOM     75  O   UNL A   1      40.976  23.437  28.381  1.00  0.00    -0.744 OA
ENDBRANCH  68  72
ENDBRANCH  51  65
BRANCH  52  76
ATOM     76  C   UNL A   1      39.207  32.865  36.483  1.00  0.00     0.023 A 
ATOM     77  C   UNL A   1      39.754  34.131  36.747  1.00  0.00     0.031 A 
ATOM     78  C   UNL A   1      38.361  32.296  37.452  1.00  0.00     0.131 A 
ATOM     79  C   UNL A   1      39.469  34.775  37.961  1.00  0.00     0.055 A 
ATOM     80  C   UNL A   1      38.042  32.962  38.636  1.00  0.00     0.041 A 
ATOM     81  F   UNL A   1      37.807  31.091  37.246  1.00  0.00    -0.206 F 
ATOM     82  C   UNL A   1      38.604  34.207  38.900  1.00  0.00     0.022 A 
BRANCH  79  83
ATOM     83  S   UNL A   1      40.292  36.350  38.325  1.00  0.00     0.124 S 
ATOM     84  O   UNL A   1      40.625  36.828  36.988  1.00  0.00    -0.237 OA
ATOM     85  O   UNL A   1      39.247  37.083  39.029  1.00  0.00    -0.237 OA
ATOM     86  O   UNL A   1      41.433  35.955  39.149  1.00  0.00    -0.744 OA
ENDBRANCH  79  83
ENDBRANCH  52  76
BRANCH  64  87
ATOM     87  C   UNL A   1      44.025  28.161  34.619  1.00  0.00     0.023 A 
ATOM     88  C   UNL A   1      43.872  27.088  35.515  1.00  0.00     0.031 A 
ATOM     89  C   UNL A   1      45.317  28.683  34.430  1.00  0.00     0.131 A 
ATOM     90  C   UNL A   1      44.981  26.611  36.231  1.00  0.00     0.055 A 
ATOM     91  C   UNL A   1      46.428  28.158  35.093  1.00  0.00     0.041 A 
ATOM     92  F   UNL A   1      45.524  29.712  33.592  1.00  0.00    -0.206 F 
ATOM     93  C   UNL A   1      46.261  27.126  36.011  1.00  0.00     0.022 A 
BRANCH  90  94
ATOM     94  S   UNL A   1      44.711  25.379  37.536  1.00  0.00     0.124 S 
ATOM     95  O   UNL A   1      45.529  25.908  38.624  1.00  0.00    -0.237 OA
ATOM     96  O   UNL A   1      43.266  25.445  37.734  1.00  0.00    -0.237 OA
ATOM     97  O   UNL A   1      45.200  24.137  36.940  1.00  0.00    -0.744 OA
ENDBRANCH  90  94
ENDBRANCH  64  87
ENDBRANCH  38  39
ENDBRANCH  30  33
ENDBRANCH  28  29
ENDBRANCH  27  28
ENDBRANCH   1  27
TORSDOF 20
ENDMDL
