MODEL 1
REMARK VINA RESULT:     -11.0      0.000      0.000
REMARK SMILES CCC(C)(C)n1c(SCC(=O)NCCCCCCNC(=O)c2ccc(-c3c4nc(c(-c5cc(S(=O)(=O)[O-])ccc5F)c5ccc([nH]5)c(-c5cc(S(=O)(=O)[O-])ccc5F)c5nc(c(-c6cc(S(=O)(=O)[O-])ccc6F)c6ccc3[nH]6)C=C5)C=C4)cc2)nc2cccnc21
REMARK SMILES IDX 15 1 14 2 13 3 12 4 10 5 11 6 9 8 8 9 7 10 6 11 91 12 85 13
REMARK SMILES IDX 86 14 90 15 87 16 89 17 88 18 3 19 4 20 5 21 2 22 1 23 16 24
REMARK SMILES IDX 17 25 18 26 19 27 20 28 21 30 22 31 23 32 84 33 24 34 83 35
REMARK SMILES IDX 25 36 26 37 27 38 77 39 28 40 82 41 76 42 78 43 29 44 81 45
REMARK SMILES IDX 75 46 74 47 30 49 62 50 42 51 61 52 43 53 46 54 60 55 79 56
REMARK SMILES IDX 44 57 45 58 59 60 80 61 47 62 31 63 32 64 40 65 33 66 39 67
REMARK SMILES IDX 41 68 38 69 34 70 35 71 36 72 37 73 63 74 64 75 72 76 65 77
REMARK SMILES IDX 71 78 73 79 70 80 66 81 67 82 68 83 69 84 48 85 49 86 57 87
REMARK SMILES IDX 50 88 56 89 58 90 55 91 51 92 52 93 53 94 54 95
REMARK H PARENT 12 7 19 29 78 48 46 59
REMARK Flexibility Score: inf
ROOT
ATOM      1  C   UNL A   1      34.034  28.037  26.459  1.00  0.00     0.002 C 
ENDROOT
BRANCH   1   2
ATOM      2  C   UNL A   1      33.101  28.514  25.337  1.00  0.00     0.021 C 
BRANCH   2   3
ATOM      3  C   UNL A   1      32.000  27.546  24.920  1.00  0.00     0.116 C 
BRANCH   3   4
ATOM      4  N   UNL A   1      32.433  26.611  23.908  1.00  0.00    -0.355 N 
ATOM      5  C   UNL A   1      31.827  25.481  23.475  1.00  0.00     0.230 C 
ATOM      6  O   UNL A   1      32.150  25.088  22.345  1.00  0.00    -0.274 OA
ATOM      7  H   UNL A   1      33.290  26.825  23.474  1.00  0.00     0.163 HD
BRANCH   5   8
ATOM      8  C   UNL A   1      30.733  24.776  24.245  1.00  0.00     0.178 C 
BRANCH   8   9
ATOM      9  S   UNL A   1      31.142  23.586  25.484  1.00  0.00    -0.078 SA
BRANCH   9  10
ATOM     10  C   UNL A   1      32.251  22.278  25.298  1.00  0.00     0.171 A 
ATOM     11  N   UNL A   1      33.615  22.098  25.082  1.00  0.00    -0.298 N 
ATOM     12  C   UNL A   1      33.796  20.715  24.930  1.00  0.00     0.161 A 
ATOM     13  N   UNL A   1      31.622  21.114  25.255  1.00  0.00    -0.221 NA
ATOM     14  C   UNL A   1      32.542  20.150  25.029  1.00  0.00     0.109 A 
ATOM     15  N   UNL A   1      34.959  20.048  24.740  1.00  0.00    -0.237 NA
ATOM     16  C   UNL A   1      32.415  18.762  24.899  1.00  0.00     0.034 A 
ATOM     17  C   UNL A   1      34.793  18.709  24.623  1.00  0.00     0.113 A 
ATOM     18  C   UNL A   1      33.583  18.032  24.687  1.00  0.00     0.022 A 
BRANCH  11  19
ATOM     19  C   UNL A   1      34.799  22.978  25.086  1.00  0.00     0.043 C 
ATOM     20  C   UNL A   1      36.001  22.433  25.842  1.00  0.00     0.035 C 
ATOM     21  C   UNL A   1      34.506  24.315  25.832  1.00  0.00     0.035 C 
BRANCH  19  22
ATOM     22  C   UNL A   1      35.247  23.297  23.618  1.00  0.00     0.025 C 
ATOM     23  C   UNL A   1      36.666  22.858  23.253  1.00  0.00     0.006 C 
ENDBRANCH  19  22
ENDBRANCH  11  19
ENDBRANCH   9  10
ENDBRANCH   8   9
ENDBRANCH   5   8
ENDBRANCH   3   4
ENDBRANCH   2   3
ENDBRANCH   1   2
BRANCH   1  24
ATOM     24  C   UNL A   1      34.668  29.108  27.359  1.00  0.00     0.002 C 
BRANCH  24  25
ATOM     25  C   UNL A   1      33.953  30.462  27.446  1.00  0.00     0.021 C 
BRANCH  25  26
ATOM     26  C   UNL A   1      34.884  31.634  27.687  1.00  0.00     0.116 C 
BRANCH  26  27
ATOM     27  N   UNL A   1      34.642  32.269  28.978  1.00  0.00    -0.352 N 
ATOM     28  C   UNL A   1      35.257  31.978  30.168  1.00  0.00     0.251 C 
ATOM     29  H   UNL A   1      33.964  32.983  28.996  1.00  0.00     0.163 HD
ATOM     30  O   UNL A   1      34.747  32.331  31.241  1.00  0.00    -0.269 OA
BRANCH  28  31
ATOM     31  C   UNL A   1      36.525  31.236  30.151  1.00  0.00     0.039 A 
ATOM     32  C   UNL A   1      36.542  29.849  30.318  1.00  0.00     0.014 A 
ATOM     33  C   UNL A   1      37.709  31.949  29.955  1.00  0.00     0.014 A 
ATOM     34  C   UNL A   1      37.758  29.178  30.241  1.00  0.00     0.010 A 
ATOM     35  C   UNL A   1      38.890  31.274  29.758  1.00  0.00     0.010 A 
ATOM     36  C   UNL A   1      38.929  29.897  29.961  1.00  0.00    -0.014 A 
BRANCH  36  37
ATOM     37  C   UNL A   1      40.209  29.209  29.874  1.00  0.00     0.031 A 
ATOM     38  C   UNL A   1      40.896  28.924  31.163  1.00  0.00     0.074 A 
ATOM     39  C   UNL A   1      40.655  28.662  28.725  1.00  0.00     0.049 A 
ATOM     40  N   UNL A   1      41.982  29.446  31.632  1.00  0.00    -0.248 NA
ATOM     41  C   UNL A   1      40.226  28.003  32.092  1.00  0.00     0.031 C 
ATOM     42  C   UNL A   1      39.932  28.504  27.455  1.00  0.00     0.029 A 
ATOM     43  N   UNL A   1      41.830  28.022  28.490  1.00  0.00    -0.354 N 
ATOM     44  C   UNL A   1      42.240  28.781  32.832  1.00  0.00     0.074 A 
ATOM     45  C   UNL A   1      41.046  28.036  33.143  1.00  0.00     0.031 C 
ATOM     46  C   UNL A   1      40.588  27.621  26.672  1.00  0.00     0.029 A 
ATOM     47  C   UNL A   1      41.860  27.319  27.297  1.00  0.00     0.049 A 
ATOM     48  H   UNL A   1      42.592  28.056  29.112  1.00  0.00     0.167 HD
ATOM     49  C   UNL A   1      43.492  28.710  33.371  1.00  0.00     0.034 A 
ATOM     50  C   UNL A   1      42.858  26.519  26.864  1.00  0.00     0.034 A 
ATOM     51  C   UNL A   1      44.413  29.563  32.673  1.00  0.00     0.049 A 
ATOM     52  C   UNL A   1      44.089  26.884  27.599  1.00  0.00     0.074 A 
ATOM     53  C   UNL A   1      44.652  30.914  32.586  1.00  0.00     0.029 A 
ATOM     54  N   UNL A   1      45.062  28.964  31.623  1.00  0.00    -0.354 N 
ATOM     55  N   UNL A   1      44.695  28.034  27.484  1.00  0.00    -0.248 NA
ATOM     56  C   UNL A   1      44.491  26.080  28.744  1.00  0.00     0.031 C 
ATOM     57  C   UNL A   1      45.200  31.123  31.288  1.00  0.00     0.029 A 
ATOM     58  C   UNL A   1      45.291  29.889  30.638  1.00  0.00     0.049 A 
ATOM     59  H   UNL A   1      45.323  28.016  31.582  1.00  0.00     0.167 HD
ATOM     60  C   UNL A   1      45.226  28.274  28.739  1.00  0.00     0.074 A 
ATOM     61  C   UNL A   1      45.228  26.978  29.404  1.00  0.00     0.031 C 
ATOM     62  C   UNL A   1      45.342  29.542  29.229  1.00  0.00     0.034 A 
BRANCH  49  63
ATOM     63  C   UNL A   1      43.993  27.594  34.260  1.00  0.00     0.023 A 
ATOM     64  C   UNL A   1      44.224  27.770  35.635  1.00  0.00     0.031 A 
ATOM     65  C   UNL A   1      44.017  26.261  33.797  1.00  0.00     0.131 A 
ATOM     66  C   UNL A   1      44.499  26.686  36.480  1.00  0.00     0.055 A 
ATOM     67  C   UNL A   1      44.222  25.170  34.654  1.00  0.00     0.041 A 
ATOM     68  F   UNL A   1      43.790  25.973  32.506  1.00  0.00    -0.206 F 
ATOM     69  C   UNL A   1      44.470  25.379  36.004  1.00  0.00     0.022 A 
BRANCH  66  70
ATOM     70  S   UNL A   1      44.889  26.970  38.228  1.00  0.00     0.124 S 
ATOM     71  O   UNL A   1      45.989  26.037  38.444  1.00  0.00    -0.237 OA
ATOM     72  O   UNL A   1      45.251  28.387  38.222  1.00  0.00    -0.237 OA
ATOM     73  O   UNL A   1      43.638  26.656  38.909  1.00  0.00    -0.744 OA
ENDBRANCH  66  70
ENDBRANCH  49  63
BRANCH  50  74
ATOM     74  C   UNL A   1      42.714  25.244  26.132  1.00  0.00     0.023 A 
ATOM     75  C   UNL A   1      41.789  24.281  26.579  1.00  0.00     0.031 A 
ATOM     76  C   UNL A   1      43.676  24.840  25.195  1.00  0.00     0.131 A 
ATOM     77  C   UNL A   1      41.886  22.953  26.142  1.00  0.00     0.055 A 
ATOM     78  C   UNL A   1      43.763  23.518  24.751  1.00  0.00     0.041 A 
ATOM     79  F   UNL A   1      44.593  25.711  24.743  1.00  0.00    -0.206 F 
ATOM     80  C   UNL A   1      42.876  22.562  25.240  1.00  0.00     0.022 A 
BRANCH  77  81
ATOM     81  S   UNL A   1      40.759  21.690  26.796  1.00  0.00     0.124 S 
ATOM     82  O   UNL A   1      39.449  22.198  26.393  1.00  0.00    -0.237 OA
ATOM     83  O   UNL A   1      41.212  20.496  26.091  1.00  0.00    -0.237 OA
ATOM     84  O   UNL A   1      41.011  21.721  28.233  1.00  0.00    -0.744 OA
ENDBRANCH  77  81
ENDBRANCH  50  74
BRANCH  62  85
ATOM     85  C   UNL A   1      45.297  30.691  28.258  1.00  0.00     0.023 A 
ATOM     86  C   UNL A   1      46.530  31.210  27.825  1.00  0.00     0.031 A 
ATOM     87  C   UNL A   1      44.132  31.398  27.913  1.00  0.00     0.131 A 
ATOM     88  C   UNL A   1      46.580  32.412  27.114  1.00  0.00     0.055 A 
ATOM     89  C   UNL A   1      44.181  32.568  27.146  1.00  0.00     0.041 A 
ATOM     90  F   UNL A   1      42.931  31.026  28.368  1.00  0.00    -0.206 F 
ATOM     91  C   UNL A   1      45.410  33.088  26.755  1.00  0.00     0.022 A 
BRANCH  88  92
ATOM     92  S   UNL A   1      48.172  33.191  26.749  1.00  0.00     0.124 S 
ATOM     93  O   UNL A   1      47.845  34.054  25.618  1.00  0.00    -0.237 OA
ATOM     94  O   UNL A   1      48.467  33.886  28.001  1.00  0.00    -0.237 OA
ATOM     95  O   UNL A   1      49.054  32.069  26.442  1.00  0.00    -0.744 OA
ENDBRANCH  88  92
ENDBRANCH  62  85
ENDBRANCH  36  37
ENDBRANCH  28  31
ENDBRANCH  26  27
ENDBRANCH  25  26
ENDBRANCH  24  25
ENDBRANCH   1  24
TORSDOF 20
ENDMDL
MODEL 2
REMARK VINA RESULT:     -10.8      2.887      8.952
REMARK SMILES CCC(C)(C)n1c(SCC(=O)NCCCCCCNC(=O)c2ccc(-c3c4nc(c(-c5cc(S(=O)(=O)[O-])ccc5F)c5ccc([nH]5)c(-c5cc(S(=O)(=O)[O-])ccc5F)c5nc(c(-c6cc(S(=O)(=O)[O-])ccc6F)c6ccc3[nH]6)C=C5)C=C4)cc2)nc2cccnc21
REMARK SMILES IDX 15 1 14 2 13 3 12 4 10 5 11 6 9 8 8 9 7 10 6 11 91 12 85 13
REMARK SMILES IDX 86 14 90 15 87 16 89 17 88 18 3 19 4 20 5 21 2 22 1 23 16 24
REMARK SMILES IDX 17 25 18 26 19 27 20 28 21 30 22 31 23 32 84 33 24 34 83 35
REMARK SMILES IDX 25 36 26 37 27 38 77 39 28 40 82 41 76 42 78 43 29 44 81 45
REMARK SMILES IDX 75 46 74 47 30 49 62 50 42 51 61 52 43 53 46 54 60 55 79 56
REMARK SMILES IDX 44 57 45 58 59 60 80 61 47 62 31 63 32 64 40 65 33 66 39 67
REMARK SMILES IDX 41 68 38 69 34 70 35 71 36 72 37 73 63 74 64 75 72 76 65 77
REMARK SMILES IDX 71 78 73 79 70 80 66 81 67 82 68 83 69 84 48 85 49 86 57 87
REMARK SMILES IDX 50 88 56 89 58 90 55 91 51 92 52 93 53 94 54 95
REMARK H PARENT 12 7 19 29 78 48 46 59
REMARK Flexibility Score: inf
ROOT
ATOM      1  C   UNL A   1      35.769  23.228  24.415  1.00  0.00     0.002 C 
ENDROOT
BRANCH   1   2
ATOM      2  C   UNL A   1      35.188  23.133  25.833  1.00  0.00     0.021 C 
BRANCH   2   3
ATOM      3  C   UNL A   1      33.785  22.549  25.947  1.00  0.00     0.116 C 
BRANCH   3   4
ATOM      4  N   UNL A   1      32.878  23.410  26.669  1.00  0.00    -0.355 N 
ATOM      5  C   UNL A   1      31.601  23.744  26.374  1.00  0.00     0.230 C 
ATOM      6  O   UNL A   1      30.905  24.132  27.323  1.00  0.00    -0.274 OA
ATOM      7  H   UNL A   1      33.242  23.812  27.491  1.00  0.00     0.163 HD
BRANCH   5   8
ATOM      8  C   UNL A   1      30.988  23.559  25.004  1.00  0.00     0.178 C 
BRANCH   8   9
ATOM      9  S   UNL A   1      31.353  24.697  23.704  1.00  0.00    -0.078 SA
BRANCH   9  10
ATOM     10  C   UNL A   1      30.891  26.359  23.660  1.00  0.00     0.171 A 
ATOM     11  N   UNL A   1      31.405  27.588  24.063  1.00  0.00    -0.298 N 
ATOM     12  C   UNL A   1      30.402  28.528  23.784  1.00  0.00     0.161 A 
ATOM     13  N   UNL A   1      29.659  26.504  23.196  1.00  0.00    -0.221 NA
ATOM     14  C   UNL A   1      29.340  27.816  23.265  1.00  0.00     0.109 A 
ATOM     15  N   UNL A   1      30.451  29.869  23.964  1.00  0.00    -0.237 NA
ATOM     16  C   UNL A   1      28.177  28.505  22.906  1.00  0.00     0.034 A 
ATOM     17  C   UNL A   1      29.307  30.498  23.601  1.00  0.00     0.113 A 
ATOM     18  C   UNL A   1      28.172  29.887  23.087  1.00  0.00     0.022 A 
BRANCH  11  19
ATOM     19  C   UNL A   1      32.705  28.061  24.575  1.00  0.00     0.043 C 
ATOM     20  C   UNL A   1      33.522  28.884  23.592  1.00  0.00     0.035 C 
ATOM     21  C   UNL A   1      33.655  26.866  24.891  1.00  0.00     0.035 C 
BRANCH  19  22
ATOM     22  C   UNL A   1      32.502  28.911  25.876  1.00  0.00     0.025 C 
ATOM     23  C   UNL A   1      32.230  28.111  27.151  1.00  0.00     0.006 C 
ENDBRANCH  19  22
ENDBRANCH  11  19
ENDBRANCH   9  10
ENDBRANCH   8   9
ENDBRANCH   5   8
ENDBRANCH   3   4
ENDBRANCH   2   3
ENDBRANCH   1   2
BRANCH   1  24
ATOM     24  C   UNL A   1      37.049  22.432  24.118  1.00  0.00     0.002 C 
BRANCH  24  25
ATOM     25  C   UNL A   1      37.680  21.659  25.282  1.00  0.00     0.021 C 
BRANCH  25  26
ATOM     26  C   UNL A   1      38.674  22.469  26.092  1.00  0.00     0.116 C 
BRANCH  26  27
ATOM     27  N   UNL A   1      40.016  21.899  26.039  1.00  0.00    -0.352 N 
ATOM     28  C   UNL A   1      41.203  22.577  26.145  1.00  0.00     0.251 C 
ATOM     29  H   UNL A   1      40.075  20.925  25.914  1.00  0.00     0.163 HD
ATOM     30  O   UNL A   1      42.259  22.058  25.755  1.00  0.00    -0.269 OA
BRANCH  28  31
ATOM     31  C   UNL A   1      41.202  23.928  26.722  1.00  0.00     0.039 A 
ATOM     32  C   UNL A   1      40.593  24.990  26.049  1.00  0.00     0.014 A 
ATOM     33  C   UNL A   1      41.816  24.122  27.960  1.00  0.00     0.014 A 
ATOM     34  C   UNL A   1      40.567  26.243  26.654  1.00  0.00     0.010 A 
ATOM     35  C   UNL A   1      41.683  25.326  28.610  1.00  0.00     0.010 A 
ATOM     36  C   UNL A   1      41.114  26.404  27.935  1.00  0.00    -0.014 A 
BRANCH  36  37
ATOM     37  C   UNL A   1      41.093  27.707  28.584  1.00  0.00     0.031 A 
ATOM     38  C   UNL A   1      42.061  28.716  28.076  1.00  0.00     0.074 A 
ATOM     39  C   UNL A   1      40.116  28.066  29.442  1.00  0.00     0.049 A 
ATOM     40  N   UNL A   1      43.106  29.200  28.665  1.00  0.00    -0.248 NA
ATOM     41  C   UNL A   1      41.893  29.170  26.688  1.00  0.00     0.031 C 
ATOM     42  C   UNL A   1      38.872  27.348  29.754  1.00  0.00     0.029 A 
ATOM     43  N   UNL A   1      39.982  29.226  30.138  1.00  0.00    -0.354 N 
ATOM     44  C   UNL A   1      43.621  30.165  27.797  1.00  0.00     0.074 A 
ATOM     45  C   UNL A   1      42.942  29.980  26.540  1.00  0.00     0.031 C 
ATOM     46  C   UNL A   1      38.019  28.182  30.386  1.00  0.00     0.029 A 
ATOM     47  C   UNL A   1      38.728  29.407  30.696  1.00  0.00     0.049 A 
ATOM     48  H   UNL A   1      40.712  29.878  30.236  1.00  0.00     0.167 HD
ATOM     49  C   UNL A   1      44.407  31.192  28.235  1.00  0.00     0.034 A 
ATOM     50  C   UNL A   1      38.293  30.506  31.349  1.00  0.00     0.034 A 
ATOM     51  C   UNL A   1      44.785  31.016  29.609  1.00  0.00     0.049 A 
ATOM     52  C   UNL A   1      39.477  31.269  31.799  1.00  0.00     0.074 A 
ATOM     53  C   UNL A   1      45.649  30.208  30.311  1.00  0.00     0.029 A 
ATOM     54  N   UNL A   1      43.919  31.573  30.515  1.00  0.00    -0.354 N 
ATOM     55  N   UNL A   1      40.331  30.838  32.687  1.00  0.00    -0.248 NA
ATOM     56  C   UNL A   1      39.921  32.412  31.013  1.00  0.00     0.031 C 
ATOM     57  C   UNL A   1      45.075  30.068  31.607  1.00  0.00     0.029 A 
ATOM     58  C   UNL A   1      43.891  30.809  31.653  1.00  0.00     0.049 A 
ATOM     59  H   UNL A   1      43.397  32.395  30.372  1.00  0.00     0.167 HD
ATOM     60  C   UNL A   1      41.545  31.368  32.289  1.00  0.00     0.074 A 
ATOM     61  C   UNL A   1      41.205  32.455  31.381  1.00  0.00     0.031 C 
ATOM     62  C   UNL A   1      42.714  30.696  32.496  1.00  0.00     0.034 A 
BRANCH  49  63
ATOM     63  C   UNL A   1      44.515  32.546  27.571  1.00  0.00     0.023 A 
ATOM     64  C   UNL A   1      43.765  33.657  27.996  1.00  0.00     0.031 A 
ATOM     65  C   UNL A   1      45.552  32.818  26.653  1.00  0.00     0.131 A 
ATOM     66  C   UNL A   1      44.015  34.945  27.501  1.00  0.00     0.055 A 
ATOM     67  C   UNL A   1      45.848  34.116  26.213  1.00  0.00     0.041 A 
ATOM     68  F   UNL A   1      46.344  31.836  26.195  1.00  0.00    -0.206 F 
ATOM     69  C   UNL A   1      45.074  35.190  26.634  1.00  0.00     0.022 A 
BRANCH  66  70
ATOM     70  S   UNL A   1      42.958  36.332  28.002  1.00  0.00     0.124 S 
ATOM     71  O   UNL A   1      41.868  36.240  27.037  1.00  0.00    -0.237 OA
ATOM     72  O   UNL A   1      42.622  35.965  29.376  1.00  0.00    -0.237 OA
ATOM     73  O   UNL A   1      43.835  37.490  27.869  1.00  0.00    -0.744 OA
ENDBRANCH  66  70
ENDBRANCH  49  63
BRANCH  50  74
ATOM     74  C   UNL A   1      36.941  31.097  31.281  1.00  0.00     0.023 A 
ATOM     75  C   UNL A   1      36.372  31.401  30.029  1.00  0.00     0.031 A 
ATOM     76  C   UNL A   1      36.337  31.643  32.423  1.00  0.00     0.131 A 
ATOM     77  C   UNL A   1      35.280  32.274  29.943  1.00  0.00     0.055 A 
ATOM     78  C   UNL A   1      35.240  32.505  32.335  1.00  0.00     0.041 A 
ATOM     79  F   UNL A   1      36.843  31.400  33.642  1.00  0.00    -0.206 F 
ATOM     80  C   UNL A   1      34.718  32.839  31.088  1.00  0.00     0.022 A 
BRANCH  77  81
ATOM     81  S   UNL A   1      34.610  32.746  28.324  1.00  0.00     0.124 S 
ATOM     82  O   UNL A   1      33.651  33.793  28.673  1.00  0.00    -0.237 OA
ATOM     83  O   UNL A   1      35.809  33.202  27.629  1.00  0.00    -0.237 OA
ATOM     84  O   UNL A   1      34.014  31.509  27.830  1.00  0.00    -0.744 OA
ENDBRANCH  77  81
ENDBRANCH  50  74
BRANCH  62  85
ATOM     85  C   UNL A   1      42.736  29.598  33.526  1.00  0.00     0.023 A 
ATOM     86  C   UNL A   1      43.261  29.918  34.790  1.00  0.00     0.031 A 
ATOM     87  C   UNL A   1      42.456  28.247  33.256  1.00  0.00     0.131 A 
ATOM     88  C   UNL A   1      43.530  28.909  35.719  1.00  0.00     0.055 A 
ATOM     89  C   UNL A   1      42.667  27.247  34.212  1.00  0.00     0.041 A 
ATOM     90  F   UNL A   1      42.048  27.848  32.046  1.00  0.00    -0.206 F 
ATOM     91  C   UNL A   1      43.220  27.574  35.445  1.00  0.00     0.022 A 
BRANCH  88  92
ATOM     92  S   UNL A   1      44.406  29.293  37.255  1.00  0.00     0.124 S 
ATOM     93  O   UNL A   1      44.510  27.983  37.891  1.00  0.00    -0.237 OA
ATOM     94  O   UNL A   1      45.664  29.849  36.759  1.00  0.00    -0.237 OA
ATOM     95  O   UNL A   1      43.533  30.247  37.933  1.00  0.00    -0.744 OA
ENDBRANCH  88  92
ENDBRANCH  62  85
ENDBRANCH  36  37
ENDBRANCH  28  31
ENDBRANCH  26  27
ENDBRANCH  25  26
ENDBRANCH  24  25
ENDBRANCH   1  24
TORSDOF 20
ENDMDL
MODEL 3
REMARK VINA RESULT:     -10.7      1.504      1.832
REMARK SMILES CCC(C)(C)n1c(SCC(=O)NCCCCCCNC(=O)c2ccc(-c3c4nc(c(-c5cc(S(=O)(=O)[O-])ccc5F)c5ccc([nH]5)c(-c5cc(S(=O)(=O)[O-])ccc5F)c5nc(c(-c6cc(S(=O)(=O)[O-])ccc6F)c6ccc3[nH]6)C=C5)C=C4)cc2)nc2cccnc21
REMARK SMILES IDX 15 1 14 2 13 3 12 4 10 5 11 6 9 8 8 9 7 10 6 11 91 12 85 13
REMARK SMILES IDX 86 14 90 15 87 16 89 17 88 18 3 19 4 20 5 21 2 22 1 23 16 24
REMARK SMILES IDX 17 25 18 26 19 27 20 28 21 30 22 31 23 32 84 33 24 34 83 35
REMARK SMILES IDX 25 36 26 37 27 38 77 39 28 40 82 41 76 42 78 43 29 44 81 45
REMARK SMILES IDX 75 46 74 47 30 49 62 50 42 51 61 52 43 53 46 54 60 55 79 56
REMARK SMILES IDX 44 57 45 58 59 60 80 61 47 62 31 63 32 64 40 65 33 66 39 67
REMARK SMILES IDX 41 68 38 69 34 70 35 71 36 72 37 73 63 74 64 75 72 76 65 77
REMARK SMILES IDX 71 78 73 79 70 80 66 81 67 82 68 83 69 84 48 85 49 86 57 87
REMARK SMILES IDX 50 88 56 89 58 90 55 91 51 92 52 93 53 94 54 95
REMARK H PARENT 12 7 19 29 78 48 46 59
REMARK Flexibility Score: inf
ROOT
ATOM      1  C   UNL A   1      33.591  28.878  25.663  1.00  0.00     0.002 C 
ENDROOT
BRANCH   1   2
ATOM      2  C   UNL A   1      32.059  28.839  25.764  1.00  0.00     0.021 C 
BRANCH   2   3
ATOM      3  C   UNL A   1      31.423  27.455  25.820  1.00  0.00     0.116 C 
BRANCH   3   4
ATOM      4  N   UNL A   1      30.507  27.217  24.729  1.00  0.00    -0.355 N 
ATOM      5  C   UNL A   1      29.980  26.049  24.296  1.00  0.00     0.230 C 
ATOM      6  O   UNL A   1      28.925  26.132  23.651  1.00  0.00    -0.274 OA
ATOM      7  H   UNL A   1      30.228  28.018  24.230  1.00  0.00     0.163 HD
BRANCH   5   8
ATOM      8  C   UNL A   1      30.550  24.695  24.657  1.00  0.00     0.178 C 
BRANCH   8   9
ATOM      9  S   UNL A   1      31.957  24.065  23.796  1.00  0.00    -0.078 SA
BRANCH   9  10
ATOM     10  C   UNL A   1      32.729  22.551  24.098  1.00  0.00     0.171 A 
ATOM     11  N   UNL A   1      33.968  22.089  24.531  1.00  0.00    -0.298 N 
ATOM     12  C   UNL A   1      33.908  20.691  24.431  1.00  0.00     0.161 A 
ATOM     13  N   UNL A   1      31.963  21.537  23.726  1.00  0.00    -0.221 NA
ATOM     14  C   UNL A   1      32.662  20.395  23.918  1.00  0.00     0.109 A 
ATOM     15  N   UNL A   1      34.861  19.794  24.777  1.00  0.00    -0.237 NA
ATOM     16  C   UNL A   1      32.324  19.056  23.695  1.00  0.00     0.034 A 
ATOM     17  C   UNL A   1      34.493  18.510  24.549  1.00  0.00     0.113 A 
ATOM     18  C   UNL A   1      33.279  18.095  24.021  1.00  0.00     0.022 A 
BRANCH  11  19
ATOM     19  C   UNL A   1      35.171  22.712  25.115  1.00  0.00     0.043 C 
ATOM     20  C   UNL A   1      35.241  24.225  24.979  1.00  0.00     0.035 C 
ATOM     21  C   UNL A   1      36.462  22.245  24.377  1.00  0.00     0.035 C 
BRANCH  19  22
ATOM     22  C   UNL A   1      35.290  22.351  26.636  1.00  0.00     0.025 C 
ATOM     23  C   UNL A   1      33.998  22.476  27.445  1.00  0.00     0.006 C 
ENDBRANCH  19  22
ENDBRANCH  11  19
ENDBRANCH   9  10
ENDBRANCH   8   9
ENDBRANCH   5   8
ENDBRANCH   3   4
ENDBRANCH   2   3
ENDBRANCH   1   2
BRANCH   1  24
ATOM     24  C   UNL A   1      34.362  29.517  26.827  1.00  0.00     0.002 C 
BRANCH  24  25
ATOM     25  C   UNL A   1      33.739  30.752  27.487  1.00  0.00     0.021 C 
BRANCH  25  26
ATOM     26  C   UNL A   1      34.733  31.857  27.788  1.00  0.00     0.116 C 
BRANCH  26  27
ATOM     27  N   UNL A   1      34.484  32.479  29.084  1.00  0.00    -0.352 N 
ATOM     28  C   UNL A   1      35.065  32.148  30.281  1.00  0.00     0.251 C 
ATOM     29  H   UNL A   1      33.831  33.215  29.100  1.00  0.00     0.163 HD
ATOM     30  O   UNL A   1      34.544  32.501  31.349  1.00  0.00    -0.269 OA
BRANCH  28  31
ATOM     31  C   UNL A   1      36.307  31.365  30.278  1.00  0.00     0.039 A 
ATOM     32  C   UNL A   1      36.270  29.969  30.324  1.00  0.00     0.014 A 
ATOM     33  C   UNL A   1      37.523  32.047  30.220  1.00  0.00     0.014 A 
ATOM     34  C   UNL A   1      37.466  29.262  30.264  1.00  0.00     0.010 A 
ATOM     35  C   UNL A   1      38.693  31.349  30.038  1.00  0.00     0.010 A 
ATOM     36  C   UNL A   1      38.675  29.959  30.122  1.00  0.00    -0.014 A 
BRANCH  36  37
ATOM     37  C   UNL A   1      39.936  29.234  30.055  1.00  0.00     0.031 A 
ATOM     38  C   UNL A   1      40.583  28.910  31.355  1.00  0.00     0.074 A 
ATOM     39  C   UNL A   1      40.393  28.691  28.909  1.00  0.00     0.049 A 
ATOM     40  N   UNL A   1      41.673  29.393  31.857  1.00  0.00    -0.248 NA
ATOM     41  C   UNL A   1      39.864  27.997  32.254  1.00  0.00     0.031 C 
ATOM     42  C   UNL A   1      39.696  28.572  27.620  1.00  0.00     0.029 A 
ATOM     43  N   UNL A   1      41.554  28.019  28.691  1.00  0.00    -0.354 N 
ATOM     44  C   UNL A   1      41.882  28.704  33.053  1.00  0.00     0.074 A 
ATOM     45  C   UNL A   1      40.659  27.990  33.325  1.00  0.00     0.031 C 
ATOM     46  C   UNL A   1      40.345  27.682  26.839  1.00  0.00     0.029 A 
ATOM     47  C   UNL A   1      41.592  27.333  27.489  1.00  0.00     0.049 A 
ATOM     48  H   UNL A   1      42.301  28.021  29.331  1.00  0.00     0.167 HD
ATOM     49  C   UNL A   1      43.118  28.588  33.620  1.00  0.00     0.034 A 
ATOM     50  C   UNL A   1      42.576  26.509  27.068  1.00  0.00     0.034 A 
ATOM     51  C   UNL A   1      44.080  29.422  32.957  1.00  0.00     0.049 A 
ATOM     52  C   UNL A   1      43.799  26.827  27.837  1.00  0.00     0.074 A 
ATOM     53  C   UNL A   1      44.361  30.767  32.895  1.00  0.00     0.029 A 
ATOM     54  N   UNL A   1      44.736  28.819  31.913  1.00  0.00    -0.354 N 
ATOM     55  N   UNL A   1      44.442  27.960  27.754  1.00  0.00    -0.248 NA
ATOM     56  C   UNL A   1      44.150  25.995  28.979  1.00  0.00     0.031 C 
ATOM     57  C   UNL A   1      44.946  30.978  31.614  1.00  0.00     0.029 A 
ATOM     58  C   UNL A   1      45.016  29.751  30.948  1.00  0.00     0.049 A 
ATOM     59  H   UNL A   1      44.970  27.864  31.865  1.00  0.00     0.167 HD
ATOM     60  C   UNL A   1      44.949  28.166  29.024  1.00  0.00     0.074 A 
ATOM     61  C   UNL A   1      44.896  26.861  29.670  1.00  0.00     0.031 C 
ATOM     62  C   UNL A   1      45.090  29.422  29.535  1.00  0.00     0.034 A 
BRANCH  49  63
ATOM     63  C   UNL A   1      43.564  27.445  34.503  1.00  0.00     0.023 A 
ATOM     64  C   UNL A   1      43.843  26.163  33.997  1.00  0.00     0.031 A 
ATOM     65  C   UNL A   1      43.956  27.677  35.840  1.00  0.00     0.131 A 
ATOM     66  C   UNL A   1      44.438  25.172  34.790  1.00  0.00     0.055 A 
ATOM     67  C   UNL A   1      44.615  26.709  36.611  1.00  0.00     0.041 A 
ATOM     68  F   UNL A   1      43.757  28.871  36.420  1.00  0.00    -0.206 F 
ATOM     69  C   UNL A   1      44.856  25.445  36.088  1.00  0.00     0.022 A 
BRANCH  66  70
ATOM     70  S   UNL A   1      44.687  23.503  34.125  1.00  0.00     0.124 S 
ATOM     71  O   UNL A   1      43.990  23.584  32.847  1.00  0.00    -0.237 OA
ATOM     72  O   UNL A   1      46.145  23.431  34.050  1.00  0.00    -0.237 OA
ATOM     73  O   UNL A   1      44.078  22.643  35.134  1.00  0.00    -0.744 OA
ENDBRANCH  66  70
ENDBRANCH  49  63
BRANCH  50  74
ATOM     74  C   UNL A   1      42.412  25.250  26.313  1.00  0.00     0.023 A 
ATOM     75  C   UNL A   1      41.483  24.287  26.752  1.00  0.00     0.031 A 
ATOM     76  C   UNL A   1      43.360  24.855  25.358  1.00  0.00     0.131 A 
ATOM     77  C   UNL A   1      41.562  22.967  26.290  1.00  0.00     0.055 A 
ATOM     78  C   UNL A   1      43.429  23.540  24.889  1.00  0.00     0.041 A 
ATOM     79  F   UNL A   1      44.280  25.726  24.912  1.00  0.00    -0.206 F 
ATOM     80  C   UNL A   1      42.538  22.584  25.369  1.00  0.00     0.022 A 
BRANCH  77  81
ATOM     81  S   UNL A   1      40.430  21.702  26.932  1.00  0.00     0.124 S 
ATOM     82  O   UNL A   1      40.783  20.530  26.132  1.00  0.00    -0.237 OA
ATOM     83  O   UNL A   1      40.819  21.643  28.336  1.00  0.00    -0.237 OA
ATOM     84  O   UNL A   1      39.109  22.257  26.654  1.00  0.00    -0.744 OA
ENDBRANCH  77  81
ENDBRANCH  50  74
BRANCH  62  85
ATOM     85  C   UNL A   1      45.103  30.587  28.581  1.00  0.00     0.023 A 
ATOM     86  C   UNL A   1      46.356  31.002  28.097  1.00  0.00     0.031 A 
ATOM     87  C   UNL A   1      43.990  31.398  28.299  1.00  0.00     0.131 A 
ATOM     88  C   UNL A   1      46.479  32.206  27.398  1.00  0.00     0.055 A 
ATOM     89  C   UNL A   1      44.107  32.571  27.545  1.00  0.00     0.041 A 
ATOM     90  F   UNL A   1      42.783  31.125  28.806  1.00  0.00    -0.206 F 
ATOM     91  C   UNL A   1      45.358  32.988  27.103  1.00  0.00     0.022 A 
BRANCH  88  92
ATOM     92  S   UNL A   1      48.115  32.849  26.969  1.00  0.00     0.124 S 
ATOM     93  O   UNL A   1      47.809  33.791  25.897  1.00  0.00    -0.237 OA
ATOM     94  O   UNL A   1      48.548  33.452  28.228  1.00  0.00    -0.237 OA
ATOM     95  O   UNL A   1      48.866  31.665  26.560  1.00  0.00    -0.744 OA
ENDBRANCH  88  92
ENDBRANCH  62  85
ENDBRANCH  36  37
ENDBRANCH  28  31
ENDBRANCH  26  27
ENDBRANCH  25  26
ENDBRANCH  24  25
ENDBRANCH   1  24
TORSDOF 20
ENDMDL
