MODEL 1
REMARK VINA RESULT:     -12.3      0.000      0.000
REMARK SMILES Cc1ccc(/C=C(\NC(=O)c2cccc(C)c2)C(=O)NCCCCCCNC(=O)c2ccc(-c3c4nc(c(-c5cc(S(=O)(=O)[O-])ccc5F)c5ccc([nH]5)c(-c5cc(S(=O)(=O)[O-])ccc5F)c5nc(c(-c6cc(S(=O)(=O)[O-])ccc6F)c6ccc3[nH]6)C=C5)C=C4)cc2)cc1
REMARK SMILES IDX 24 1 23 2 22 3 21 4 20 5 18 6 19 7 7 9 6 10 5 11 1 12 2 13
REMARK SMILES IDX 3 14 94 15 4 16 93 17 8 18 9 19 10 21 11 22 12 23 17 24
REMARK SMILES IDX 13 25 15 26 14 27 16 28 25 29 26 30 27 31 28 32 29 34 30 35
REMARK SMILES IDX 31 36 92 37 32 38 91 39 33 40 34 41 35 42 85 43 36 44 90 45
REMARK SMILES IDX 84 46 86 47 37 48 89 49 83 50 82 51 38 53 70 54 50 55 69 56
REMARK SMILES IDX 51 57 54 58 68 59 87 60 52 61 53 62 67 64 88 65 55 66 39 67
REMARK SMILES IDX 40 68 48 69 41 70 47 71 49 72 46 73 42 74 43 75 44 76 45 77
REMARK SMILES IDX 71 78 72 79 80 80 73 81 79 82 81 83 78 84 74 85 75 86 76 87
REMARK SMILES IDX 77 88 56 89 57 90 65 91 58 92 64 93 66 94 63 95 59 96 60 97
REMARK SMILES IDX 61 98 62 99
REMARK H PARENT 20 8 8 20 27 33 86 52 54 63
REMARK Flexibility Score: inf
ROOT
ATOM      1  C   UNL A   1      37.267  23.732  25.866  1.00  0.00     0.002 C 
ENDROOT
BRANCH   1   2
ATOM      2  C   UNL A   1      36.900  23.050  24.542  1.00  0.00     0.002 C 
BRANCH   2   3
ATOM      3  C   UNL A   1      35.526  23.339  23.924  1.00  0.00     0.021 C 
BRANCH   3   4
ATOM      4  C   UNL A   1      34.303  22.710  24.585  1.00  0.00     0.116 C 
BRANCH   4   5
ATOM      5  N   UNL A   1      33.434  21.956  23.704  1.00  0.00    -0.351 N 
ATOM      6  C   UNL A   1      32.158  22.236  23.297  1.00  0.00     0.267 C 
ATOM      7  O   UNL A   1      31.587  21.457  22.530  1.00  0.00    -0.268 OA
ATOM      8  H   UNL A   1      33.817  21.122  23.347  1.00  0.00     0.163 HD
BRANCH   6   9
ATOM      9  C   UNL A   1      31.432  23.467  23.811  1.00  0.00     0.107 C 
ATOM     10  C   UNL A   1      31.402  24.529  22.972  1.00  0.00     0.040 C 
BRANCH  10  11
ATOM     11  C   UNL A   1      30.836  25.903  23.132  1.00  0.00    -0.023 A 
ATOM     12  C   UNL A   1      29.360  29.991  23.311  1.00  0.00     0.044 C 
ATOM     13  C   UNL A   1      29.899  28.593  23.292  1.00  0.00    -0.051 A 
ATOM     14  C   UNL A   1      29.044  27.522  23.540  1.00  0.00     0.004 A 
ATOM     15  C   UNL A   1      31.235  28.321  22.997  1.00  0.00     0.004 A 
ATOM     16  C   UNL A   1      29.515  26.204  23.490  1.00  0.00     0.008 A 
ATOM     17  C   UNL A   1      31.693  26.995  22.916  1.00  0.00     0.008 A 
ENDBRANCH  10  11
BRANCH   9  18
ATOM     18  N   UNL A   1      30.807  23.510  25.028  1.00  0.00    -0.317 N 
ATOM     19  C   UNL A   1      30.904  24.309  26.139  1.00  0.00     0.255 C 
ATOM     20  H   UNL A   1      30.131  22.801  25.131  1.00  0.00     0.170 HD
ATOM     21  O   UNL A   1      30.176  24.022  27.093  1.00  0.00    -0.269 OA
BRANCH  19  22
ATOM     22  C   UNL A   1      31.803  25.489  26.257  1.00  0.00     0.040 A 
ATOM     23  C   UNL A   1      33.161  25.260  25.993  1.00  0.00     0.014 A 
ATOM     24  C   UNL A   1      31.387  26.780  26.592  1.00  0.00     0.017 A 
ATOM     25  C   UNL A   1      34.073  26.312  25.981  1.00  0.00     0.001 A 
ATOM     26  C   UNL A   1      32.290  27.853  26.540  1.00  0.00    -0.050 A 
ATOM     27  C   UNL A   1      33.632  27.609  26.224  1.00  0.00     0.003 A 
ATOM     28  C   UNL A   1      31.822  29.263  26.742  1.00  0.00     0.044 C 
ENDBRANCH  19  22
ENDBRANCH   9  18
ENDBRANCH   6   9
ENDBRANCH   4   5
ENDBRANCH   3   4
ENDBRANCH   2   3
ENDBRANCH   1   2
BRANCH   1  29
ATOM     29  C   UNL A   1      38.733  24.103  26.074  1.00  0.00     0.021 C 
BRANCH  29  30
ATOM     30  C   UNL A   1      39.535  23.168  26.973  1.00  0.00     0.116 C 
BRANCH  30  31
ATOM     31  N   UNL A   1      40.111  22.032  26.250  1.00  0.00    -0.352 N 
ATOM     32  C   UNL A   1      41.447  21.683  26.099  1.00  0.00     0.251 C 
ATOM     33  H   UNL A   1      39.464  21.434  25.812  1.00  0.00     0.163 HD
ATOM     34  O   UNL A   1      41.814  20.694  25.497  1.00  0.00    -0.269 OA
BRANCH  32  35
ATOM     35  C   UNL A   1      42.437  22.511  26.826  1.00  0.00     0.039 A 
ATOM     36  C   UNL A   1      42.521  22.305  28.205  1.00  0.00     0.014 A 
ATOM     37  C   UNL A   1      42.934  23.667  26.232  1.00  0.00     0.014 A 
ATOM     38  C   UNL A   1      42.848  23.381  29.022  1.00  0.00     0.010 A 
ATOM     39  C   UNL A   1      43.182  24.758  27.048  1.00  0.00     0.010 A 
ATOM     40  C   UNL A   1      43.043  24.636  28.438  1.00  0.00    -0.014 A 
BRANCH  40  41
ATOM     41  C   UNL A   1      42.862  25.868  29.205  1.00  0.00     0.031 A 
ATOM     42  C   UNL A   1      41.639  26.682  29.082  1.00  0.00     0.074 A 
ATOM     43  C   UNL A   1      43.848  26.325  30.013  1.00  0.00     0.049 A 
ATOM     44  N   UNL A   1      41.634  27.970  29.189  1.00  0.00    -0.248 NA
ATOM     45  C   UNL A   1      40.328  26.116  28.797  1.00  0.00     0.031 C 
ATOM     46  C   UNL A   1      43.772  27.433  30.960  1.00  0.00     0.029 A 
ATOM     47  N   UNL A   1      45.205  26.025  29.947  1.00  0.00    -0.354 N 
ATOM     48  C   UNL A   1      40.325  28.371  29.262  1.00  0.00     0.074 A 
ATOM     49  C   UNL A   1      39.548  27.192  28.944  1.00  0.00     0.031 C 
ATOM     50  C   UNL A   1      45.011  27.893  31.192  1.00  0.00     0.029 A 
ATOM     51  C   UNL A   1      45.922  27.172  30.323  1.00  0.00     0.049 A 
ATOM     52  H   UNL A   1      45.594  25.159  29.683  1.00  0.00     0.167 HD
ATOM     53  C   UNL A   1      40.012  29.618  29.709  1.00  0.00     0.034 A 
ATOM     54  C   UNL A   1      46.843  27.734  29.487  1.00  0.00     0.034 A 
ATOM     55  C   UNL A   1      41.182  30.402  30.091  1.00  0.00     0.049 A 
ATOM     56  C   UNL A   1      46.508  29.150  29.048  1.00  0.00     0.074 A 
ATOM     57  C   UNL A   1      41.755  30.765  31.300  1.00  0.00     0.029 A 
ATOM     58  N   UNL A   1      42.103  30.749  29.120  1.00  0.00    -0.354 N 
ATOM     59  N   UNL A   1      45.460  29.824  29.437  1.00  0.00    -0.248 NA
ATOM     60  C   UNL A   1      47.286  29.875  28.043  1.00  0.00     0.031 C 
ATOM     61  C   UNL A   1      43.022  31.359  31.034  1.00  0.00     0.029 A 
ATOM     62  C   UNL A   1      43.212  31.367  29.666  1.00  0.00     0.049 A 
ATOM     63  H   UNL A   1      41.984  30.577  28.157  1.00  0.00     0.167 HD
ATOM     64  C   UNL A   1      45.353  30.975  28.691  1.00  0.00     0.074 A 
ATOM     65  C   UNL A   1      46.531  30.967  27.843  1.00  0.00     0.031 C 
ATOM     66  C   UNL A   1      44.273  31.810  28.775  1.00  0.00     0.034 A 
BRANCH  53  67
ATOM     67  C   UNL A   1      38.598  30.018  30.031  1.00  0.00     0.023 A 
ATOM     68  C   UNL A   1      38.007  31.100  29.353  1.00  0.00     0.031 A 
ATOM     69  C   UNL A   1      37.800  29.384  31.001  1.00  0.00     0.131 A 
ATOM     70  C   UNL A   1      36.735  31.576  29.714  1.00  0.00     0.055 A 
ATOM     71  C   UNL A   1      36.558  29.891  31.402  1.00  0.00     0.041 A 
ATOM     72  F   UNL A   1      38.192  28.239  31.583  1.00  0.00    -0.206 F 
ATOM     73  C   UNL A   1      36.025  31.004  30.768  1.00  0.00     0.022 A 
BRANCH  70  74
ATOM     74  S   UNL A   1      36.023  32.958  28.782  1.00  0.00     0.124 S 
ATOM     75  O   UNL A   1      34.950  33.408  29.664  1.00  0.00    -0.237 OA
ATOM     76  O   UNL A   1      37.165  33.856  28.646  1.00  0.00    -0.237 OA
ATOM     77  O   UNL A   1      35.577  32.332  27.539  1.00  0.00    -0.744 OA
ENDBRANCH  70  74
ENDBRANCH  53  67
BRANCH  54  78
ATOM     78  C   UNL A   1      47.571  26.723  28.667  1.00  0.00     0.023 A 
ATOM     79  C   UNL A   1      46.897  26.172  27.552  1.00  0.00     0.031 A 
ATOM     80  C   UNL A   1      48.963  26.575  28.731  1.00  0.00     0.131 A 
ATOM     81  C   UNL A   1      47.626  25.622  26.488  1.00  0.00     0.055 A 
ATOM     82  C   UNL A   1      49.681  25.976  27.691  1.00  0.00     0.041 A 
ATOM     83  F   UNL A   1      49.663  27.114  29.740  1.00  0.00    -0.206 F 
ATOM     84  C   UNL A   1      49.018  25.534  26.546  1.00  0.00     0.022 A 
BRANCH  81  85
ATOM     85  S   UNL A   1      46.792  25.216  24.926  1.00  0.00     0.124 S 
ATOM     86  O   UNL A   1      45.728  26.211  24.878  1.00  0.00    -0.237 OA
ATOM     87  O   UNL A   1      47.848  25.370  23.928  1.00  0.00    -0.237 OA
ATOM     88  O   UNL A   1      46.361  23.835  25.143  1.00  0.00    -0.744 OA
ENDBRANCH  81  85
ENDBRANCH  54  78
BRANCH  66  89
ATOM     89  C   UNL A   1      44.098  33.088  27.978  1.00  0.00     0.023 A 
ATOM     90  C   UNL A   1      43.954  34.347  28.583  1.00  0.00     0.031 A 
ATOM     91  C   UNL A   1      43.996  33.075  26.564  1.00  0.00     0.131 A 
ATOM     92  C   UNL A   1      43.822  35.516  27.807  1.00  0.00     0.055 A 
ATOM     93  C   UNL A   1      43.793  34.229  25.800  1.00  0.00     0.041 A 
ATOM     94  F   UNL A   1      44.114  31.946  25.852  1.00  0.00    -0.206 F 
ATOM     95  C   UNL A   1      43.724  35.463  26.419  1.00  0.00     0.022 A 
BRANCH  92  96
ATOM     96  S   UNL A   1      43.841  37.121  28.646  1.00  0.00     0.124 S 
ATOM     97  O   UNL A   1      44.917  37.826  27.957  1.00  0.00    -0.237 OA
ATOM     98  O   UNL A   1      42.490  37.611  28.381  1.00  0.00    -0.237 OA
ATOM     99  O   UNL A   1      44.113  36.781  30.041  1.00  0.00    -0.744 OA
ENDBRANCH  92  96
ENDBRANCH  66  89
ENDBRANCH  40  41
ENDBRANCH  32  35
ENDBRANCH  30  31
ENDBRANCH  29  30
ENDBRANCH   1  29
TORSDOF 19
ENDMDL
MODEL 2
REMARK VINA RESULT:     -12.2      4.151      9.612
REMARK SMILES Cc1ccc(/C=C(\NC(=O)c2cccc(C)c2)C(=O)NCCCCCCNC(=O)c2ccc(-c3c4nc(c(-c5cc(S(=O)(=O)[O-])ccc5F)c5ccc([nH]5)c(-c5cc(S(=O)(=O)[O-])ccc5F)c5nc(c(-c6cc(S(=O)(=O)[O-])ccc6F)c6ccc3[nH]6)C=C5)C=C4)cc2)cc1
REMARK SMILES IDX 24 1 23 2 22 3 21 4 20 5 18 6 19 7 7 9 6 10 5 11 1 12 2 13
REMARK SMILES IDX 3 14 94 15 4 16 93 17 8 18 9 19 10 21 11 22 12 23 17 24
REMARK SMILES IDX 13 25 15 26 14 27 16 28 25 29 26 30 27 31 28 32 29 34 30 35
REMARK SMILES IDX 31 36 92 37 32 38 91 39 33 40 34 41 35 42 85 43 36 44 90 45
REMARK SMILES IDX 84 46 86 47 37 48 89 49 83 50 82 51 38 53 70 54 50 55 69 56
REMARK SMILES IDX 51 57 54 58 68 59 87 60 52 61 53 62 67 64 88 65 55 66 39 67
REMARK SMILES IDX 40 68 48 69 41 70 47 71 49 72 46 73 42 74 43 75 44 76 45 77
REMARK SMILES IDX 71 78 72 79 80 80 73 81 79 82 81 83 78 84 74 85 75 86 76 87
REMARK SMILES IDX 77 88 56 89 57 90 65 91 58 92 64 93 66 94 63 95 59 96 60 97
REMARK SMILES IDX 61 98 62 99
REMARK H PARENT 20 8 8 20 27 33 86 52 54 63
REMARK Flexibility Score: inf
ROOT
ATOM      1  C   UNL A   1      34.306  28.826  27.277  1.00  0.00     0.002 C 
ENDROOT
BRANCH   1   2
ATOM      2  C   UNL A   1      32.870  29.030  26.777  1.00  0.00     0.002 C 
BRANCH   2   3
ATOM      3  C   UNL A   1      31.795  28.023  27.203  1.00  0.00     0.021 C 
BRANCH   3   4
ATOM      4  C   UNL A   1      31.465  26.885  26.240  1.00  0.00     0.116 C 
BRANCH   4   5
ATOM      5  N   UNL A   1      30.407  27.159  25.289  1.00  0.00    -0.351 N 
ATOM      6  C   UNL A   1      30.097  26.507  24.126  1.00  0.00     0.267 C 
ATOM      7  O   UNL A   1      29.142  26.899  23.452  1.00  0.00    -0.268 OA
ATOM      8  H   UNL A   1      29.827  27.923  25.511  1.00  0.00     0.163 HD
BRANCH   6   9
ATOM      9  C   UNL A   1      30.941  25.341  23.641  1.00  0.00     0.107 C 
ATOM     10  C   UNL A   1      30.782  24.176  24.313  1.00  0.00     0.040 C 
BRANCH  10  11
ATOM     11  C   UNL A   1      31.451  22.848  24.167  1.00  0.00    -0.023 A 
ATOM     12  C   UNL A   1      33.246  18.888  24.040  1.00  0.00     0.044 C 
ATOM     13  C   UNL A   1      32.676  20.272  24.095  1.00  0.00    -0.051 A 
ATOM     14  C   UNL A   1      32.147  20.845  22.941  1.00  0.00     0.004 A 
ATOM     15  C   UNL A   1      32.624  21.002  25.283  1.00  0.00     0.004 A 
ATOM     16  C   UNL A   1      31.574  22.123  22.975  1.00  0.00     0.008 A 
ATOM     17  C   UNL A   1      32.017  22.269  25.316  1.00  0.00     0.008 A 
ENDBRANCH  10  11
BRANCH   9  18
ATOM     18  N   UNL A   1      31.790  25.428  22.571  1.00  0.00    -0.317 N 
ATOM     19  C   UNL A   1      33.131  25.214  22.378  1.00  0.00     0.255 C 
ATOM     20  H   UNL A   1      31.330  25.712  21.747  1.00  0.00     0.170 HD
ATOM     21  O   UNL A   1      33.568  25.427  21.244  1.00  0.00    -0.269 OA
BRANCH  19  22
ATOM     22  C   UNL A   1      34.070  24.732  23.426  1.00  0.00     0.040 A 
ATOM     23  C   UNL A   1      34.142  25.505  24.594  1.00  0.00     0.014 A 
ATOM     24  C   UNL A   1      34.855  23.581  23.327  1.00  0.00     0.017 A 
ATOM     25  C   UNL A   1      34.916  25.094  25.675  1.00  0.00     0.001 A 
ATOM     26  C   UNL A   1      35.605  23.136  24.427  1.00  0.00    -0.050 A 
ATOM     27  C   UNL A   1      35.621  23.897  25.602  1.00  0.00     0.003 A 
ATOM     28  C   UNL A   1      36.324  21.820  24.387  1.00  0.00     0.044 C 
ENDBRANCH  19  22
ENDBRANCH   9  18
ENDBRANCH   6   9
ENDBRANCH   4   5
ENDBRANCH   3   4
ENDBRANCH   2   3
ENDBRANCH   1   2
BRANCH   1  29
ATOM     29  C   UNL A   1      35.227  30.043  27.262  1.00  0.00     0.021 C 
BRANCH  29  30
ATOM     30  C   UNL A   1      35.438  30.733  28.606  1.00  0.00     0.116 C 
BRANCH  30  31
ATOM     31  N   UNL A   1      34.458  31.790  28.869  1.00  0.00    -0.352 N 
ATOM     32  C   UNL A   1      34.593  32.926  29.656  1.00  0.00     0.251 C 
ATOM     33  H   UNL A   1      33.585  31.679  28.428  1.00  0.00     0.163 HD
ATOM     34  O   UNL A   1      33.717  33.758  29.782  1.00  0.00    -0.269 OA
BRANCH  32  35
ATOM     35  C   UNL A   1      35.926  33.166  30.255  1.00  0.00     0.039 A 
ATOM     36  C   UNL A   1      36.861  33.813  29.444  1.00  0.00     0.014 A 
ATOM     37  C   UNL A   1      36.316  32.439  31.376  1.00  0.00     0.014 A 
ATOM     38  C   UNL A   1      38.207  33.498  29.593  1.00  0.00     0.010 A 
ATOM     39  C   UNL A   1      37.646  32.065  31.474  1.00  0.00     0.010 A 
ATOM     40  C   UNL A   1      38.570  32.519  30.523  1.00  0.00    -0.014 A 
BRANCH  40  41
ATOM     41  C   UNL A   1      39.816  31.766  30.387  1.00  0.00     0.031 A 
ATOM     42  C   UNL A   1      39.860  30.462  29.700  1.00  0.00     0.074 A 
ATOM     43  C   UNL A   1      40.962  32.227  30.942  1.00  0.00     0.049 A 
ATOM     44  N   UNL A   1      40.661  29.508  30.045  1.00  0.00    -0.248 NA
ATOM     45  C   UNL A   1      38.982  30.114  28.591  1.00  0.00     0.031 C 
ATOM     46  C   UNL A   1      42.308  31.691  30.765  1.00  0.00     0.029 A 
ATOM     47  N   UNL A   1      41.091  33.134  31.990  1.00  0.00    -0.354 N 
ATOM     48  C   UNL A   1      40.606  28.551  29.064  1.00  0.00     0.074 A 
ATOM     49  C   UNL A   1      39.498  28.938  28.218  1.00  0.00     0.031 C 
ATOM     50  C   UNL A   1      43.066  32.064  31.807  1.00  0.00     0.029 A 
ATOM     51  C   UNL A   1      42.211  32.763  32.750  1.00  0.00     0.049 A 
ATOM     52  H   UNL A   1      40.500  33.902  32.166  1.00  0.00     0.167 HD
ATOM     53  C   UNL A   1      41.574  27.598  28.980  1.00  0.00     0.034 A 
ATOM     54  C   UNL A   1      42.102  32.492  34.082  1.00  0.00     0.034 A 
ATOM     55  C   UNL A   1      42.613  27.742  29.995  1.00  0.00     0.049 A 
ATOM     56  C   UNL A   1      42.459  31.064  34.462  1.00  0.00     0.074 A 
ATOM     57  C   UNL A   1      43.917  28.213  29.988  1.00  0.00     0.029 A 
ATOM     58  N   UNL A   1      42.276  27.586  31.327  1.00  0.00    -0.354 N 
ATOM     59  N   UNL A   1      42.873  30.150  33.627  1.00  0.00    -0.248 NA
ATOM     60  C   UNL A   1      42.269  30.530  35.812  1.00  0.00     0.031 C 
ATOM     61  C   UNL A   1      44.364  28.311  31.337  1.00  0.00     0.029 A 
ATOM     62  C   UNL A   1      43.337  27.889  32.160  1.00  0.00     0.049 A 
ATOM     63  H   UNL A   1      41.390  27.295  31.643  1.00  0.00     0.167 HD
ATOM     64  C   UNL A   1      42.898  28.929  34.260  1.00  0.00     0.074 A 
ATOM     65  C   UNL A   1      42.526  29.225  35.632  1.00  0.00     0.031 C 
ATOM     66  C   UNL A   1      43.153  27.760  33.597  1.00  0.00     0.034 A 
BRANCH  53  67
ATOM     67  C   UNL A   1      41.688  26.681  27.793  1.00  0.00     0.023 A 
ATOM     68  C   UNL A   1      41.383  25.314  27.934  1.00  0.00     0.031 A 
ATOM     69  C   UNL A   1      42.106  27.094  26.515  1.00  0.00     0.131 A 
ATOM     70  C   UNL A   1      41.596  24.410  26.880  1.00  0.00     0.055 A 
ATOM     71  C   UNL A   1      42.373  26.187  25.481  1.00  0.00     0.041 A 
ATOM     72  F   UNL A   1      42.254  28.395  26.218  1.00  0.00    -0.206 F 
ATOM     73  C   UNL A   1      42.133  24.833  25.666  1.00  0.00     0.022 A 
BRANCH  70  74
ATOM     74  S   UNL A   1      41.158  22.668  27.123  1.00  0.00     0.124 S 
ATOM     75  O   UNL A   1      41.867  22.339  28.356  1.00  0.00    -0.237 OA
ATOM     76  O   UNL A   1      39.704  22.727  27.211  1.00  0.00    -0.237 OA
ATOM     77  O   UNL A   1      41.679  22.018  25.921  1.00  0.00    -0.744 OA
ENDBRANCH  70  74
ENDBRANCH  53  67
BRANCH  54  78
ATOM     78  C   UNL A   1      41.077  33.338  34.761  1.00  0.00     0.023 A 
ATOM     79  C   UNL A   1      39.909  32.699  35.238  1.00  0.00     0.031 A 
ATOM     80  C   UNL A   1      41.375  34.615  35.254  1.00  0.00     0.131 A 
ATOM     81  C   UNL A   1      39.159  33.279  36.271  1.00  0.00     0.055 A 
ATOM     82  C   UNL A   1      40.592  35.214  36.246  1.00  0.00     0.041 A 
ATOM     83  F   UNL A   1      42.492  35.252  34.874  1.00  0.00    -0.206 F 
ATOM     84  C   UNL A   1      39.504  34.529  36.788  1.00  0.00     0.022 A 
BRANCH  81  85
ATOM     85  S   UNL A   1      37.860  32.320  37.104  1.00  0.00     0.124 S 
ATOM     86  O   UNL A   1      36.718  33.222  37.030  1.00  0.00    -0.237 OA
ATOM     87  O   UNL A   1      37.762  31.108  36.297  1.00  0.00    -0.237 OA
ATOM     88  O   UNL A   1      38.421  32.115  38.440  1.00  0.00    -0.744 OA
ENDBRANCH  81  85
ENDBRANCH  54  78
BRANCH  66  89
ATOM     89  C   UNL A   1      43.192  26.387  34.238  1.00  0.00     0.023 A 
ATOM     90  C   UNL A   1      44.344  25.585  34.246  1.00  0.00     0.031 A 
ATOM     91  C   UNL A   1      42.035  25.800  34.809  1.00  0.00     0.131 A 
ATOM     92  C   UNL A   1      44.349  24.325  34.878  1.00  0.00     0.055 A 
ATOM     93  C   UNL A   1      42.024  24.519  35.372  1.00  0.00     0.041 A 
ATOM     94  F   UNL A   1      40.864  26.448  34.872  1.00  0.00    -0.206 F 
ATOM     95  C   UNL A   1      43.191  23.779  35.427  1.00  0.00     0.022 A 
BRANCH  92  96
ATOM     96  S   UNL A   1      45.918  23.432  35.023  1.00  0.00     0.124 S 
ATOM     97  O   UNL A   1      45.885  22.954  36.401  1.00  0.00    -0.237 OA
ATOM     98  O   UNL A   1      45.773  22.407  33.992  1.00  0.00    -0.237 OA
ATOM     99  O   UNL A   1      46.926  24.454  34.743  1.00  0.00    -0.744 OA
ENDBRANCH  92  96
ENDBRANCH  66  89
ENDBRANCH  40  41
ENDBRANCH  32  35
ENDBRANCH  30  31
ENDBRANCH  29  30
ENDBRANCH   1  29
TORSDOF 19
ENDMDL
MODEL 3
REMARK VINA RESULT:     -12.1      4.210      9.698
REMARK SMILES Cc1ccc(/C=C(\NC(=O)c2cccc(C)c2)C(=O)NCCCCCCNC(=O)c2ccc(-c3c4nc(c(-c5cc(S(=O)(=O)[O-])ccc5F)c5ccc([nH]5)c(-c5cc(S(=O)(=O)[O-])ccc5F)c5nc(c(-c6cc(S(=O)(=O)[O-])ccc6F)c6ccc3[nH]6)C=C5)C=C4)cc2)cc1
REMARK SMILES IDX 24 1 23 2 22 3 21 4 20 5 18 6 19 7 7 9 6 10 5 11 1 12 2 13
REMARK SMILES IDX 3 14 94 15 4 16 93 17 8 18 9 19 10 21 11 22 12 23 17 24
REMARK SMILES IDX 13 25 15 26 14 27 16 28 25 29 26 30 27 31 28 32 29 34 30 35
REMARK SMILES IDX 31 36 92 37 32 38 91 39 33 40 34 41 35 42 85 43 36 44 90 45
REMARK SMILES IDX 84 46 86 47 37 48 89 49 83 50 82 51 38 53 70 54 50 55 69 56
REMARK SMILES IDX 51 57 54 58 68 59 87 60 52 61 53 62 67 64 88 65 55 66 39 67
REMARK SMILES IDX 40 68 48 69 41 70 47 71 49 72 46 73 42 74 43 75 44 76 45 77
REMARK SMILES IDX 71 78 72 79 80 80 73 81 79 82 81 83 78 84 74 85 75 86 76 87
REMARK SMILES IDX 77 88 56 89 57 90 65 91 58 92 64 93 66 94 63 95 59 96 60 97
REMARK SMILES IDX 61 98 62 99
REMARK H PARENT 20 8 8 20 27 33 86 52 54 63
REMARK Flexibility Score: inf
ROOT
ATOM      1  C   UNL A   1      34.078  29.315  27.507  1.00  0.00     0.002 C 
ENDROOT
BRANCH   1   2
ATOM      2  C   UNL A   1      34.039  28.580  26.162  1.00  0.00     0.002 C 
BRANCH   2   3
ATOM      3  C   UNL A   1      33.237  29.199  25.010  1.00  0.00     0.021 C 
BRANCH   3   4
ATOM      4  C   UNL A   1      31.736  28.930  24.965  1.00  0.00     0.116 C 
BRANCH   4   5
ATOM      5  N   UNL A   1      31.245  28.327  23.743  1.00  0.00    -0.351 N 
ATOM      6  C   UNL A   1      31.373  27.038  23.300  1.00  0.00     0.267 C 
ATOM      7  O   UNL A   1      30.872  26.720  22.219  1.00  0.00    -0.268 OA
ATOM      8  H   UNL A   1      30.748  28.930  23.144  1.00  0.00     0.163 HD
BRANCH   6   9
ATOM      9  C   UNL A   1      32.157  26.016  24.104  1.00  0.00     0.107 C 
ATOM     10  C   UNL A   1      33.394  25.720  23.639  1.00  0.00     0.040 C 
BRANCH  10  11
ATOM     11  C   UNL A   1      34.429  24.754  24.117  1.00  0.00    -0.023 A 
ATOM     12  C   UNL A   1      37.594  21.974  25.200  1.00  0.00     0.044 C 
ATOM     13  C   UNL A   1      36.470  22.891  24.825  1.00  0.00    -0.051 A 
ATOM     14  C   UNL A   1      36.036  23.854  25.731  1.00  0.00     0.004 A 
ATOM     15  C   UNL A   1      35.858  22.835  23.572  1.00  0.00     0.004 A 
ATOM     16  C   UNL A   1      35.012  24.748  25.391  1.00  0.00     0.008 A 
ATOM     17  C   UNL A   1      34.856  23.756  23.225  1.00  0.00     0.008 A 
ENDBRANCH  10  11
BRANCH   9  18
ATOM     18  N   UNL A   1      31.679  25.442  25.251  1.00  0.00    -0.317 N 
ATOM     19  C   UNL A   1      31.451  24.155  25.669  1.00  0.00     0.255 C 
ATOM     20  H   UNL A   1      31.442  26.109  25.936  1.00  0.00     0.170 HD
ATOM     21  O   UNL A   1      30.970  24.016  26.796  1.00  0.00    -0.269 OA
BRANCH  19  22
ATOM     22  C   UNL A   1      31.759  22.939  24.870  1.00  0.00     0.040 A 
ATOM     23  C   UNL A   1      31.250  22.914  23.563  1.00  0.00     0.014 A 
ATOM     24  C   UNL A   1      32.515  21.855  25.323  1.00  0.00     0.017 A 
ATOM     25  C   UNL A   1      31.559  21.867  22.698  1.00  0.00     0.001 A 
ATOM     26  C   UNL A   1      32.866  20.818  24.445  1.00  0.00    -0.050 A 
ATOM     27  C   UNL A   1      32.390  20.839  23.129  1.00  0.00     0.003 A 
ATOM     28  C   UNL A   1      33.808  19.732  24.875  1.00  0.00     0.044 C 
ENDBRANCH  19  22
ENDBRANCH   9  18
ENDBRANCH   6   9
ENDBRANCH   4   5
ENDBRANCH   3   4
ENDBRANCH   2   3
ENDBRANCH   1   2
BRANCH   1  29
ATOM     29  C   UNL A   1      35.443  29.783  28.005  1.00  0.00     0.021 C 
BRANCH  29  30
ATOM     30  C   UNL A   1      35.732  31.273  27.851  1.00  0.00     0.116 C 
BRANCH  30  31
ATOM     31  N   UNL A   1      34.636  32.121  28.325  1.00  0.00    -0.352 N 
ATOM     32  C   UNL A   1      34.617  32.999  29.400  1.00  0.00     0.251 C 
ATOM     33  H   UNL A   1      33.799  32.060  27.811  1.00  0.00     0.163 HD
ATOM     34  O   UNL A   1      33.653  33.680  29.688  1.00  0.00    -0.269 OA
BRANCH  32  35
ATOM     35  C   UNL A   1      35.890  33.180  30.134  1.00  0.00     0.039 A 
ATOM     36  C   UNL A   1      36.881  33.917  29.480  1.00  0.00     0.014 A 
ATOM     37  C   UNL A   1      36.195  32.339  31.200  1.00  0.00     0.014 A 
ATOM     38  C   UNL A   1      38.213  33.596  29.709  1.00  0.00     0.010 A 
ATOM     39  C   UNL A   1      37.518  31.964  31.370  1.00  0.00     0.010 A 
ATOM     40  C   UNL A   1      38.512  32.524  30.556  1.00  0.00    -0.014 A 
BRANCH  40  41
ATOM     41  C   UNL A   1      39.776  31.797  30.447  1.00  0.00     0.031 A 
ATOM     42  C   UNL A   1      39.862  30.495  29.760  1.00  0.00     0.074 A 
ATOM     43  C   UNL A   1      40.900  32.282  31.027  1.00  0.00     0.049 A 
ATOM     44  N   UNL A   1      40.676  29.559  30.121  1.00  0.00    -0.248 NA
ATOM     45  C   UNL A   1      39.016  30.130  28.632  1.00  0.00     0.031 C 
ATOM     46  C   UNL A   1      42.261  31.775  30.878  1.00  0.00     0.029 A 
ATOM     47  N   UNL A   1      40.987  33.190  32.078  1.00  0.00    -0.354 N 
ATOM     48  C   UNL A   1      40.663  28.601  29.139  1.00  0.00     0.074 A 
ATOM     49  C   UNL A   1      39.565  28.966  28.269  1.00  0.00     0.031 C 
ATOM     50  C   UNL A   1      42.987  32.162  31.937  1.00  0.00     0.029 A 
ATOM     51  C   UNL A   1      42.098  32.842  32.862  1.00  0.00     0.049 A 
ATOM     52  H   UNL A   1      40.376  33.945  32.242  1.00  0.00     0.167 HD
ATOM     53  C   UNL A   1      41.652  27.669  29.075  1.00  0.00     0.034 A 
ATOM     54  C   UNL A   1      41.965  32.567  34.191  1.00  0.00     0.034 A 
ATOM     55  C   UNL A   1      42.666  27.834  30.113  1.00  0.00     0.049 A 
ATOM     56  C   UNL A   1      42.344  31.147  34.578  1.00  0.00     0.074 A 
ATOM     57  C   UNL A   1      43.959  28.332  30.135  1.00  0.00     0.029 A 
ATOM     58  N   UNL A   1      42.303  27.670  31.437  1.00  0.00    -0.354 N 
ATOM     59  N   UNL A   1      42.795  30.243  33.751  1.00  0.00    -0.248 NA
ATOM     60  C   UNL A   1      42.136  30.607  35.922  1.00  0.00     0.031 C 
ATOM     61  C   UNL A   1      44.374  28.438  31.493  1.00  0.00     0.029 A 
ATOM     62  C   UNL A   1      43.339  27.994  32.293  1.00  0.00     0.049 A 
ATOM     63  H   UNL A   1      41.416  27.359  31.734  1.00  0.00     0.167 HD
ATOM     64  C   UNL A   1      42.832  29.022  34.384  1.00  0.00     0.074 A 
ATOM     65  C   UNL A   1      42.425  29.308  35.747  1.00  0.00     0.031 C 
ATOM     66  C   UNL A   1      43.126  27.859  33.726  1.00  0.00     0.034 A 
BRANCH  53  67
ATOM     67  C   UNL A   1      41.811  26.756  27.891  1.00  0.00     0.023 A 
ATOM     68  C   UNL A   1      41.586  25.375  28.038  1.00  0.00     0.031 A 
ATOM     69  C   UNL A   1      42.197  27.188  26.609  1.00  0.00     0.131 A 
ATOM     70  C   UNL A   1      41.844  24.481  26.985  1.00  0.00     0.055 A 
ATOM     71  C   UNL A   1      42.510  26.295  25.576  1.00  0.00     0.041 A 
ATOM     72  F   UNL A   1      42.270  28.495  26.307  1.00  0.00    -0.206 F 
ATOM     73  C   UNL A   1      42.349  24.929  25.766  1.00  0.00     0.022 A 
BRANCH  70  74
ATOM     74  S   UNL A   1      41.507  22.717  27.236  1.00  0.00     0.124 S 
ATOM     75  O   UNL A   1      42.451  22.369  28.293  1.00  0.00    -0.237 OA
ATOM     76  O   UNL A   1      40.097  22.724  27.606  1.00  0.00    -0.237 OA
ATOM     77  O   UNL A   1      41.801  22.129  25.930  1.00  0.00    -0.744 OA
ENDBRANCH  70  74
ENDBRANCH  53  67
BRANCH  54  78
ATOM     78  C   UNL A   1      40.908  33.391  34.848  1.00  0.00     0.023 A 
ATOM     79  C   UNL A   1      39.786  32.716  35.381  1.00  0.00     0.031 A 
ATOM     80  C   UNL A   1      41.144  34.706  35.269  1.00  0.00     0.131 A 
ATOM     81  C   UNL A   1      39.025  33.306  36.399  1.00  0.00     0.055 A 
ATOM     82  C   UNL A   1      40.348  35.312  36.246  1.00  0.00     0.041 A 
ATOM     83  F   UNL A   1      42.217  35.382  34.834  1.00  0.00    -0.206 F 
ATOM     84  C   UNL A   1      39.310  34.598  36.846  1.00  0.00     0.022 A 
BRANCH  81  85
ATOM     85  S   UNL A   1      37.796  32.324  37.307  1.00  0.00     0.124 S 
ATOM     86  O   UNL A   1      37.849  31.045  36.610  1.00  0.00    -0.237 OA
ATOM     87  O   UNL A   1      38.308  32.319  38.675  1.00  0.00    -0.237 OA
ATOM     88  O   UNL A   1      36.568  33.097  37.123  1.00  0.00    -0.744 OA
ENDBRANCH  81  85
ENDBRANCH  54  78
BRANCH  66  89
ATOM     89  C   UNL A   1      43.180  26.487  34.367  1.00  0.00     0.023 A 
ATOM     90  C   UNL A   1      44.370  25.751  34.488  1.00  0.00     0.031 A 
ATOM     91  C   UNL A   1      42.008  25.831  34.819  1.00  0.00     0.131 A 
ATOM     92  C   UNL A   1      44.384  24.490  35.116  1.00  0.00     0.055 A 
ATOM     93  C   UNL A   1      42.015  24.549  35.378  1.00  0.00     0.041 A 
ATOM     94  F   UNL A   1      40.801  26.412  34.767  1.00  0.00    -0.206 F 
ATOM     95  C   UNL A   1      43.211  23.876  35.548  1.00  0.00     0.022 A 
BRANCH  92  96
ATOM     96  S   UNL A   1      45.980  23.687  35.415  1.00  0.00     0.124 S 
ATOM     97  O   UNL A   1      45.590  22.432  36.051  1.00  0.00    -0.237 OA
ATOM     98  O   UNL A   1      46.514  23.573  34.060  1.00  0.00    -0.237 OA
ATOM     99  O   UNL A   1      46.686  24.629  36.281  1.00  0.00    -0.744 OA
ENDBRANCH  92  96
ENDBRANCH  66  89
ENDBRANCH  40  41
ENDBRANCH  32  35
ENDBRANCH  30  31
ENDBRANCH  29  30
ENDBRANCH   1  29
TORSDOF 19
ENDMDL
