MODEL 1
REMARK VINA RESULT:     -10.6      0.000      0.000
REMARK SMILES CC(C)(CNC(=O)NCc1cccs1)C(=O)NCCCCCCNC(=O)c1ccc(-c2c3nc(c(-c4cc(S(=O)(=O)[O-])ccc4F)c4ccc([nH]4)c(-c4cc(S(=O)(=O)[O-])ccc4F)c4nc(c(-c5cc(S(=O)(=O)[O-])ccc5F)c5ccc2[nH]5)C=C4)C=C3)cc1
REMARK SMILES IDX 20 1 19 2 18 3 17 4 15 5 16 6 2 8 1 9 3 10 4 11 5 12 6 13
REMARK SMILES IDX 7 15 8 16 9 18 10 19 11 20 14 21 12 22 13 23 21 24 22 25
REMARK SMILES IDX 23 26 24 27 25 28 26 30 27 31 28 32 89 33 29 34 88 35 30 36
REMARK SMILES IDX 31 37 32 38 82 39 33 40 87 41 81 42 83 43 34 44 86 45 80 46
REMARK SMILES IDX 79 47 35 49 67 50 47 51 66 52 48 53 51 54 65 55 84 56 49 57
REMARK SMILES IDX 50 58 64 60 85 61 52 62 36 63 37 64 45 65 38 66 44 67 46 68
REMARK SMILES IDX 43 69 39 70 40 71 41 72 42 73 68 74 69 75 77 76 70 77 76 78
REMARK SMILES IDX 78 79 75 80 71 81 72 82 73 83 74 84 53 85 54 86 62 87 55 88
REMARK SMILES IDX 61 89 63 90 60 91 56 92 57 93 58 94 59 95
REMARK H PARENT 17 7 5 14 8 17 24 29 83 48 51 59
REMARK Flexibility Score: inf
ROOT
ATOM      1  C   UNL A   1      37.501  22.161  24.688  1.00  0.00     0.002 C 
ENDROOT
BRANCH   1   2
ATOM      2  C   UNL A   1      36.653  22.953  23.690  1.00  0.00     0.021 C 
BRANCH   2   3
ATOM      3  C   UNL A   1      35.145  22.733  23.809  1.00  0.00     0.116 C 
BRANCH   3   4
ATOM      4  N   UNL A   1      34.395  23.740  23.080  1.00  0.00    -0.356 N 
ATOM      5  C   UNL A   1      33.072  23.909  22.819  1.00  0.00     0.227 C 
ATOM      6  O   UNL A   1      32.783  24.899  22.137  1.00  0.00    -0.274 OA
ATOM      7  H   UNL A   1      34.963  24.446  22.695  1.00  0.00     0.163 HD
BRANCH   5   8
ATOM      8  C   UNL A   1      31.966  22.966  23.338  1.00  0.00     0.061 C 
ATOM      9  C   UNL A   1      31.931  21.699  22.452  1.00  0.00     0.023 C 
ATOM     10  C   UNL A   1      30.585  23.638  23.195  1.00  0.00     0.023 C 
BRANCH   8  11
ATOM     11  C   UNL A   1      32.185  22.524  24.798  1.00  0.00     0.134 C 
BRANCH  11  12
ATOM     12  N   UNL A   1      31.056  22.737  25.693  1.00  0.00    -0.337 N 
ATOM     13  C   UNL A   1      30.777  23.640  26.653  1.00  0.00     0.315 C 
ATOM     14  H   UNL A   1      30.339  22.073  25.570  1.00  0.00     0.165 HD
ATOM     15  O   UNL A   1      29.723  23.515  27.278  1.00  0.00    -0.249 OA
ATOM     16  N   UNL A   1      31.593  24.666  26.954  1.00  0.00    -0.333 N 
ATOM     17  H   UNL A   1      31.305  25.223  27.714  1.00  0.00     0.165 HD
BRANCH  16  18
ATOM     18  C   UNL A   1      32.820  25.068  26.331  1.00  0.00     0.164 C 
BRANCH  18  19
ATOM     19  C   UNL A   1      32.838  26.483  25.876  1.00  0.00     0.024 A 
ATOM     20  C   UNL A   1      33.629  27.035  24.889  1.00  0.00     0.017 A 
ATOM     21  S   UNL A   1      31.968  27.685  26.735  1.00  0.00    -0.147 S 
ATOM     22  C   UNL A   1      33.631  28.458  24.941  1.00  0.00     0.012 A 
ATOM     23  C   UNL A   1      32.786  28.941  25.914  1.00  0.00     0.065 A 
ENDBRANCH  18  19
ENDBRANCH  16  18
ENDBRANCH  11  12
ENDBRANCH   8  11
ENDBRANCH   5   8
ENDBRANCH   3   4
ENDBRANCH   2   3
ENDBRANCH   1   2
BRANCH   1  24
ATOM     24  C   UNL A   1      37.055  20.713  24.928  1.00  0.00     0.002 C 
BRANCH  24  25
ATOM     25  C   UNL A   1      38.175  19.701  25.193  1.00  0.00     0.021 C 
BRANCH  25  26
ATOM     26  C   UNL A   1      39.472  20.288  25.748  1.00  0.00     0.116 C 
BRANCH  26  27
ATOM     27  N   UNL A   1      40.504  19.280  25.919  1.00  0.00    -0.352 N 
ATOM     28  C   UNL A   1      41.854  19.425  26.115  1.00  0.00     0.251 C 
ATOM     29  H   UNL A   1      40.187  18.349  25.887  1.00  0.00     0.163 HD
ATOM     30  O   UNL A   1      42.586  18.436  26.027  1.00  0.00    -0.269 OA
BRANCH  28  31
ATOM     31  C   UNL A   1      42.438  20.752  26.407  1.00  0.00     0.039 A 
ATOM     32  C   UNL A   1      42.826  21.567  25.338  1.00  0.00     0.014 A 
ATOM     33  C   UNL A   1      42.634  21.187  27.720  1.00  0.00     0.014 A 
ATOM     34  C   UNL A   1      43.343  22.841  25.586  1.00  0.00     0.010 A 
ATOM     35  C   UNL A   1      43.087  22.483  27.964  1.00  0.00     0.010 A 
ATOM     36  C   UNL A   1      43.445  23.326  26.900  1.00  0.00    -0.014 A 
BRANCH  36  37
ATOM     37  C   UNL A   1      43.914  24.712  27.174  1.00  0.00     0.031 A 
ATOM     38  C   UNL A   1      42.961  25.742  27.717  1.00  0.00     0.074 A 
ATOM     39  C   UNL A   1      45.184  25.056  26.881  1.00  0.00     0.049 A 
ATOM     40  N   UNL A   1      43.161  27.016  27.946  1.00  0.00    -0.248 NA
ATOM     41  C   UNL A   1      41.596  25.285  28.017  1.00  0.00     0.031 C 
ATOM     42  C   UNL A   1      46.194  24.153  26.325  1.00  0.00     0.029 A 
ATOM     43  N   UNL A   1      45.841  26.255  26.999  1.00  0.00    -0.354 N 
ATOM     44  C   UNL A   1      41.947  27.514  28.409  1.00  0.00     0.074 A 
ATOM     45  C   UNL A   1      41.004  26.416  28.369  1.00  0.00     0.031 C 
ATOM     46  C   UNL A   1      47.348  24.824  26.173  1.00  0.00     0.029 A 
ATOM     47  C   UNL A   1      47.149  26.215  26.569  1.00  0.00     0.049 A 
ATOM     48  H   UNL A   1      45.419  27.068  27.359  1.00  0.00     0.167 HD
ATOM     49  C   UNL A   1      41.653  28.765  28.846  1.00  0.00     0.034 A 
ATOM     50  C   UNL A   1      48.076  27.189  26.485  1.00  0.00     0.034 A 
ATOM     51  C   UNL A   1      42.608  29.847  28.885  1.00  0.00     0.049 A 
ATOM     52  C   UNL A   1      47.714  28.582  26.933  1.00  0.00     0.074 A 
ATOM     53  C   UNL A   1      42.430  31.137  29.354  1.00  0.00     0.029 A 
ATOM     54  N   UNL A   1      43.918  29.772  28.428  1.00  0.00    -0.354 N 
ATOM     55  N   UNL A   1      46.574  29.026  27.409  1.00  0.00    -0.248 NA
ATOM     56  C   UNL A   1      48.765  29.604  26.840  1.00  0.00     0.031 C 
ATOM     57  C   UNL A   1      43.602  31.861  29.111  1.00  0.00     0.029 A 
ATOM     58  C   UNL A   1      44.545  31.002  28.568  1.00  0.00     0.049 A 
ATOM     59  H   UNL A   1      44.341  28.964  28.057  1.00  0.00     0.167 HD
ATOM     60  C   UNL A   1      46.783  30.371  27.704  1.00  0.00     0.074 A 
ATOM     61  C   UNL A   1      48.161  30.660  27.364  1.00  0.00     0.031 C 
ATOM     62  C   UNL A   1      45.917  31.283  28.215  1.00  0.00     0.034 A 
BRANCH  49  63
ATOM     63  C   UNL A   1      40.233  29.033  29.287  1.00  0.00     0.023 A 
ATOM     64  C   UNL A   1      39.857  28.985  30.641  1.00  0.00     0.031 A 
ATOM     65  C   UNL A   1      39.236  29.325  28.339  1.00  0.00     0.131 A 
ATOM     66  C   UNL A   1      38.511  29.145  31.001  1.00  0.00     0.055 A 
ATOM     67  C   UNL A   1      37.912  29.568  28.712  1.00  0.00     0.041 A 
ATOM     68  F   UNL A   1      39.527  29.365  27.029  1.00  0.00    -0.206 F 
ATOM     69  C   UNL A   1      37.540  29.464  30.049  1.00  0.00     0.022 A 
BRANCH  66  70
ATOM     70  S   UNL A   1      38.023  28.784  32.710  1.00  0.00     0.124 S 
ATOM     71  O   UNL A   1      38.032  27.323  32.716  1.00  0.00    -0.237 OA
ATOM     72  O   UNL A   1      39.077  29.433  33.483  1.00  0.00    -0.237 OA
ATOM     73  O   UNL A   1      36.699  29.392  32.825  1.00  0.00    -0.744 OA
ENDBRANCH  66  70
ENDBRANCH  49  63
BRANCH  50  74
ATOM     74  C   UNL A   1      49.433  26.895  25.936  1.00  0.00     0.023 A 
ATOM     75  C   UNL A   1      50.514  26.616  26.788  1.00  0.00     0.031 A 
ATOM     76  C   UNL A   1      49.680  26.936  24.551  1.00  0.00     0.131 A 
ATOM     77  C   UNL A   1      51.799  26.437  26.252  1.00  0.00     0.055 A 
ATOM     78  C   UNL A   1      50.948  26.698  24.020  1.00  0.00     0.041 A 
ATOM     79  F   UNL A   1      48.682  27.196  23.691  1.00  0.00    -0.206 F 
ATOM     80  C   UNL A   1      52.020  26.461  24.874  1.00  0.00     0.022 A 
BRANCH  77  81
ATOM     81  S   UNL A   1      53.198  26.265  27.394  1.00  0.00     0.124 S 
ATOM     82  O   UNL A   1      53.918  27.514  27.172  1.00  0.00    -0.237 OA
ATOM     83  O   UNL A   1      52.524  26.131  28.680  1.00  0.00    -0.237 OA
ATOM     84  O   UNL A   1      53.876  25.060  26.919  1.00  0.00    -0.744 OA
ENDBRANCH  77  81
ENDBRANCH  50  74
BRANCH  62  85
ATOM     85  C   UNL A   1      46.453  32.670  28.478  1.00  0.00     0.023 A 
ATOM     86  C   UNL A   1      46.560  33.631  27.458  1.00  0.00     0.031 A 
ATOM     87  C   UNL A   1      46.869  33.032  29.772  1.00  0.00     0.131 A 
ATOM     88  C   UNL A   1      47.120  34.887  27.736  1.00  0.00     0.055 A 
ATOM     89  C   UNL A   1      47.366  34.304  30.056  1.00  0.00     0.041 A 
ATOM     90  F   UNL A   1      46.794  32.153  30.785  1.00  0.00    -0.206 F 
ATOM     91  C   UNL A   1      47.506  35.236  29.032  1.00  0.00     0.022 A 
BRANCH  88  92
ATOM     92  S   UNL A   1      47.425  36.030  26.360  1.00  0.00     0.124 S 
ATOM     93  O   UNL A   1      46.120  36.662  26.198  1.00  0.00    -0.237 OA
ATOM     94  O   UNL A   1      48.484  36.882  26.890  1.00  0.00    -0.237 OA
ATOM     95  O   UNL A   1      47.829  35.150  25.265  1.00  0.00    -0.744 OA
ENDBRANCH  88  92
ENDBRANCH  62  85
ENDBRANCH  36  37
ENDBRANCH  28  31
ENDBRANCH  26  27
ENDBRANCH  25  26
ENDBRANCH  24  25
ENDBRANCH   1  24
TORSDOF 20
ENDMDL
MODEL 2
REMARK VINA RESULT:     -10.6      2.620      3.201
REMARK SMILES CC(C)(CNC(=O)NCc1cccs1)C(=O)NCCCCCCNC(=O)c1ccc(-c2c3nc(c(-c4cc(S(=O)(=O)[O-])ccc4F)c4ccc([nH]4)c(-c4cc(S(=O)(=O)[O-])ccc4F)c4nc(c(-c5cc(S(=O)(=O)[O-])ccc5F)c5ccc2[nH]5)C=C4)C=C3)cc1
REMARK SMILES IDX 20 1 19 2 18 3 17 4 15 5 16 6 2 8 1 9 3 10 4 11 5 12 6 13
REMARK SMILES IDX 7 15 8 16 9 18 10 19 11 20 14 21 12 22 13 23 21 24 22 25
REMARK SMILES IDX 23 26 24 27 25 28 26 30 27 31 28 32 89 33 29 34 88 35 30 36
REMARK SMILES IDX 31 37 32 38 82 39 33 40 87 41 81 42 83 43 34 44 86 45 80 46
REMARK SMILES IDX 79 47 35 49 67 50 47 51 66 52 48 53 51 54 65 55 84 56 49 57
REMARK SMILES IDX 50 58 64 60 85 61 52 62 36 63 37 64 45 65 38 66 44 67 46 68
REMARK SMILES IDX 43 69 39 70 40 71 41 72 42 73 68 74 69 75 77 76 70 77 76 78
REMARK SMILES IDX 78 79 75 80 71 81 72 82 73 83 74 84 53 85 54 86 62 87 55 88
REMARK SMILES IDX 61 89 63 90 60 91 56 92 57 93 58 94 59 95
REMARK H PARENT 17 7 5 14 8 17 24 29 83 48 51 59
REMARK Flexibility Score: inf
ROOT
ATOM      1  C   UNL A   1      37.692  22.281  25.257  1.00  0.00     0.002 C 
ENDROOT
BRANCH   1   2
ATOM      2  C   UNL A   1      36.670  23.410  25.110  1.00  0.00     0.021 C 
BRANCH   2   3
ATOM      3  C   UNL A   1      35.219  22.952  24.966  1.00  0.00     0.116 C 
BRANCH   3   4
ATOM      4  N   UNL A   1      34.758  23.050  23.593  1.00  0.00    -0.356 N 
ATOM      5  C   UNL A   1      33.606  23.497  23.026  1.00  0.00     0.227 C 
ATOM      6  O   UNL A   1      33.550  23.418  21.793  1.00  0.00    -0.274 OA
ATOM      7  H   UNL A   1      35.417  22.725  22.936  1.00  0.00     0.163 HD
BRANCH   5   8
ATOM      8  C   UNL A   1      32.429  24.093  23.827  1.00  0.00     0.061 C 
ATOM      9  C   UNL A   1      32.246  23.279  25.130  1.00  0.00     0.023 C 
ATOM     10  C   UNL A   1      31.116  23.945  23.031  1.00  0.00     0.023 C 
BRANCH   8  11
ATOM     11  C   UNL A   1      32.645  25.569  24.212  1.00  0.00     0.134 C 
BRANCH  11  12
ATOM     12  N   UNL A   1      33.402  26.362  23.253  1.00  0.00    -0.337 N 
ATOM     13  C   UNL A   1      33.084  27.353  22.397  1.00  0.00     0.315 C 
ATOM     14  H   UNL A   1      34.356  26.121  23.224  1.00  0.00     0.165 HD
ATOM     15  O   UNL A   1      33.973  27.796  21.668  1.00  0.00    -0.249 OA
ATOM     16  N   UNL A   1      31.849  27.876  22.306  1.00  0.00    -0.333 N 
ATOM     17  H   UNL A   1      31.730  28.554  21.601  1.00  0.00     0.165 HD
BRANCH  16  18
ATOM     18  C   UNL A   1      30.678  27.591  23.085  1.00  0.00     0.164 C 
BRANCH  18  19
ATOM     19  C   UNL A   1      29.562  28.549  22.878  1.00  0.00     0.024 A 
ATOM     20  C   UNL A   1      28.235  28.372  23.214  1.00  0.00     0.017 A 
ATOM     21  S   UNL A   1      29.795  29.973  21.953  1.00  0.00    -0.147 S 
ATOM     22  C   UNL A   1      27.392  29.331  22.581  1.00  0.00     0.012 A 
ATOM     23  C   UNL A   1      28.111  30.247  21.848  1.00  0.00     0.065 A 
ENDBRANCH  18  19
ENDBRANCH  16  18
ENDBRANCH  11  12
ENDBRANCH   8  11
ENDBRANCH   5   8
ENDBRANCH   3   4
ENDBRANCH   2   3
ENDBRANCH   1   2
BRANCH   1  24
ATOM     24  C   UNL A   1      37.378  21.003  24.470  1.00  0.00     0.002 C 
BRANCH  24  25
ATOM     25  C   UNL A   1      38.189  19.760  24.855  1.00  0.00     0.021 C 
BRANCH  25  26
ATOM     26  C   UNL A   1      39.014  19.886  26.135  1.00  0.00     0.116 C 
BRANCH  26  27
ATOM     27  N   UNL A   1      40.259  19.139  26.064  1.00  0.00    -0.352 N 
ATOM     28  C   UNL A   1      41.556  19.583  26.082  1.00  0.00     0.251 C 
ATOM     29  H   UNL A   1      40.155  18.163  25.991  1.00  0.00     0.163 HD
ATOM     30  O   UNL A   1      42.466  18.800  25.800  1.00  0.00    -0.269 OA
BRANCH  28  31
ATOM     31  C   UNL A   1      41.869  20.991  26.411  1.00  0.00     0.039 A 
ATOM     32  C   UNL A   1      42.183  21.320  27.734  1.00  0.00     0.014 A 
ATOM     33  C   UNL A   1      41.829  21.991  25.436  1.00  0.00     0.014 A 
ATOM     34  C   UNL A   1      42.521  22.635  28.062  1.00  0.00     0.010 A 
ATOM     35  C   UNL A   1      42.232  23.289  25.752  1.00  0.00     0.010 A 
ATOM     36  C   UNL A   1      42.585  23.625  27.068  1.00  0.00    -0.014 A 
BRANCH  36  37
ATOM     37  C   UNL A   1      43.027  25.010  27.389  1.00  0.00     0.031 A 
ATOM     38  C   UNL A   1      42.081  25.974  28.050  1.00  0.00     0.074 A 
ATOM     39  C   UNL A   1      44.262  25.414  27.032  1.00  0.00     0.049 A 
ATOM     40  N   UNL A   1      42.255  27.240  28.338  1.00  0.00    -0.248 NA
ATOM     41  C   UNL A   1      40.756  25.453  28.414  1.00  0.00     0.031 C 
ATOM     42  C   UNL A   1      45.261  24.580  26.360  1.00  0.00     0.029 A 
ATOM     43  N   UNL A   1      44.888  26.628  27.174  1.00  0.00    -0.354 N 
ATOM     44  C   UNL A   1      41.060  27.668  28.907  1.00  0.00     0.074 A 
ATOM     45  C   UNL A   1      40.152  26.541  28.868  1.00  0.00     0.031 C 
ATOM     46  C   UNL A   1      46.380  25.299  26.170  1.00  0.00     0.029 A 
ATOM     47  C   UNL A   1      46.164  26.658  26.657  1.00  0.00     0.049 A 
ATOM     48  H   UNL A   1      44.465  27.405  27.607  1.00  0.00     0.167 HD
ATOM     49  C   UNL A   1      40.757  28.882  29.433  1.00  0.00     0.034 A 
ATOM     50  C   UNL A   1      47.052  27.668  26.566  1.00  0.00     0.034 A 
ATOM     51  C   UNL A   1      41.678  29.994  29.470  1.00  0.00     0.049 A 
ATOM     52  C   UNL A   1      46.676  29.021  27.116  1.00  0.00     0.074 A 
ATOM     53  C   UNL A   1      41.491  31.250  30.023  1.00  0.00     0.029 A 
ATOM     54  N   UNL A   1      42.955  29.991  28.924  1.00  0.00    -0.354 N 
ATOM     55  N   UNL A   1      45.558  29.397  27.691  1.00  0.00    -0.248 NA
ATOM     56  C   UNL A   1      47.685  30.084  27.012  1.00  0.00     0.031 C 
ATOM     57  C   UNL A   1      42.620  32.027  29.744  1.00  0.00     0.029 A 
ATOM     58  C   UNL A   1      43.550  31.234  29.092  1.00  0.00     0.049 A 
ATOM     59  H   UNL A   1      43.377  29.220  28.481  1.00  0.00     0.167 HD
ATOM     60  C   UNL A   1      45.743  30.731  28.047  1.00  0.00     0.074 A 
ATOM     61  C   UNL A   1      47.085  31.087  27.633  1.00  0.00     0.031 C 
ATOM     62  C   UNL A   1      44.885  31.582  28.665  1.00  0.00     0.034 A 
BRANCH  49  63
ATOM     63  C   UNL A   1      39.363  29.075  29.982  1.00  0.00     0.023 A 
ATOM     64  C   UNL A   1      38.347  29.686  29.226  1.00  0.00     0.031 A 
ATOM     65  C   UNL A   1      39.047  28.658  31.288  1.00  0.00     0.131 A 
ATOM     66  C   UNL A   1      37.093  29.934  29.805  1.00  0.00     0.055 A 
ATOM     67  C   UNL A   1      37.771  28.829  31.829  1.00  0.00     0.041 A 
ATOM     68  F   UNL A   1      39.979  28.086  32.068  1.00  0.00    -0.206 F 
ATOM     69  C   UNL A   1      36.790  29.485  31.092  1.00  0.00     0.022 A 
BRANCH  66  70
ATOM     70  S   UNL A   1      35.917  30.981  28.906  1.00  0.00     0.124 S 
ATOM     71  O   UNL A   1      35.209  31.637  30.002  1.00  0.00    -0.237 OA
ATOM     72  O   UNL A   1      36.795  31.833  28.112  1.00  0.00    -0.237 OA
ATOM     73  O   UNL A   1      35.118  30.023  28.143  1.00  0.00    -0.744 OA
ENDBRANCH  66  70
ENDBRANCH  49  63
BRANCH  50  74
ATOM     74  C   UNL A   1      48.376  27.454  25.913  1.00  0.00     0.023 A 
ATOM     75  C   UNL A   1      48.526  27.574  24.522  1.00  0.00     0.031 A 
ATOM     76  C   UNL A   1      49.504  27.079  26.666  1.00  0.00     0.131 A 
ATOM     77  C   UNL A   1      49.760  27.275  23.922  1.00  0.00     0.055 A 
ATOM     78  C   UNL A   1      50.744  26.840  26.071  1.00  0.00     0.041 A 
ATOM     79  F   UNL A   1      49.418  26.951  28.000  1.00  0.00    -0.206 F 
ATOM     80  C   UNL A   1      50.872  26.924  24.689  1.00  0.00     0.022 A 
BRANCH  77  81
ATOM     81  S   UNL A   1      49.863  27.260  22.111  1.00  0.00     0.124 S 
ATOM     82  O   UNL A   1      49.623  28.662  21.789  1.00  0.00    -0.237 OA
ATOM     83  O   UNL A   1      51.220  26.772  21.890  1.00  0.00    -0.237 OA
ATOM     84  O   UNL A   1      48.799  26.337  21.719  1.00  0.00    -0.744 OA
ENDBRANCH  77  81
ENDBRANCH  50  74
BRANCH  62  85
ATOM     85  C   UNL A   1      45.393  32.971  28.970  1.00  0.00     0.023 A 
ATOM     86  C   UNL A   1      45.281  34.024  28.045  1.00  0.00     0.031 A 
ATOM     87  C   UNL A   1      46.006  33.242  30.207  1.00  0.00     0.131 A 
ATOM     88  C   UNL A   1      45.821  35.282  28.348  1.00  0.00     0.055 A 
ATOM     89  C   UNL A   1      46.485  34.512  30.528  1.00  0.00     0.041 A 
ATOM     90  F   UNL A   1      46.145  32.274  31.128  1.00  0.00    -0.206 F 
ATOM     91  C   UNL A   1      46.406  35.539  29.592  1.00  0.00     0.022 A 
BRANCH  88  92
ATOM     92  S   UNL A   1      45.834  36.559  27.060  1.00  0.00     0.124 S 
ATOM     93  O   UNL A   1      46.252  35.801  25.886  1.00  0.00    -0.237 OA
ATOM     94  O   UNL A   1      44.449  37.018  27.062  1.00  0.00    -0.237 OA
ATOM     95  O   UNL A   1      46.808  37.532  27.550  1.00  0.00    -0.744 OA
ENDBRANCH  88  92
ENDBRANCH  62  85
ENDBRANCH  36  37
ENDBRANCH  28  31
ENDBRANCH  26  27
ENDBRANCH  25  26
ENDBRANCH  24  25
ENDBRANCH   1  24
TORSDOF 20
ENDMDL
MODEL 3
REMARK VINA RESULT:     -10.5      1.600      2.171
REMARK SMILES CC(C)(CNC(=O)NCc1cccs1)C(=O)NCCCCCCNC(=O)c1ccc(-c2c3nc(c(-c4cc(S(=O)(=O)[O-])ccc4F)c4ccc([nH]4)c(-c4cc(S(=O)(=O)[O-])ccc4F)c4nc(c(-c5cc(S(=O)(=O)[O-])ccc5F)c5ccc2[nH]5)C=C4)C=C3)cc1
REMARK SMILES IDX 20 1 19 2 18 3 17 4 15 5 16 6 2 8 1 9 3 10 4 11 5 12 6 13
REMARK SMILES IDX 7 15 8 16 9 18 10 19 11 20 14 21 12 22 13 23 21 24 22 25
REMARK SMILES IDX 23 26 24 27 25 28 26 30 27 31 28 32 89 33 29 34 88 35 30 36
REMARK SMILES IDX 31 37 32 38 82 39 33 40 87 41 81 42 83 43 34 44 86 45 80 46
REMARK SMILES IDX 79 47 35 49 67 50 47 51 66 52 48 53 51 54 65 55 84 56 49 57
REMARK SMILES IDX 50 58 64 60 85 61 52 62 36 63 37 64 45 65 38 66 44 67 46 68
REMARK SMILES IDX 43 69 39 70 40 71 41 72 42 73 68 74 69 75 77 76 70 77 76 78
REMARK SMILES IDX 78 79 75 80 71 81 72 82 73 83 74 84 53 85 54 86 62 87 55 88
REMARK SMILES IDX 61 89 63 90 60 91 56 92 57 93 58 94 59 95
REMARK H PARENT 17 7 5 14 8 17 24 29 83 48 51 59
REMARK Flexibility Score: inf
ROOT
ATOM      1  C   UNL A   1      37.284  22.686  25.075  1.00  0.00     0.002 C 
ENDROOT
BRANCH   1   2
ATOM      2  C   UNL A   1      36.146  23.706  25.145  1.00  0.00     0.021 C 
BRANCH   2   3
ATOM      3  C   UNL A   1      34.955  23.284  26.007  1.00  0.00     0.116 C 
BRANCH   3   4
ATOM      4  N   UNL A   1      33.932  22.619  25.221  1.00  0.00    -0.356 N 
ATOM      5  C   UNL A   1      32.735  23.021  24.717  1.00  0.00     0.227 C 
ATOM      6  O   UNL A   1      32.102  22.163  24.091  1.00  0.00    -0.274 OA
ATOM      7  H   UNL A   1      34.151  21.682  25.009  1.00  0.00     0.163 HD
BRANCH   5   8
ATOM      8  C   UNL A   1      32.175  24.451  24.871  1.00  0.00     0.061 C 
ATOM      9  C   UNL A   1      32.045  24.778  26.378  1.00  0.00     0.023 C 
ATOM     10  C   UNL A   1      30.752  24.529  24.282  1.00  0.00     0.023 C 
BRANCH   8  11
ATOM     11  C   UNL A   1      33.070  25.524  24.224  1.00  0.00     0.134 C 
BRANCH  11  12
ATOM     12  N   UNL A   1      33.239  25.413  22.782  1.00  0.00    -0.337 N 
ATOM     13  C   UNL A   1      32.760  26.097  21.725  1.00  0.00     0.315 C 
ATOM     14  H   UNL A   1      33.836  24.674  22.522  1.00  0.00     0.165 HD
ATOM     15  O   UNL A   1      33.067  25.711  20.596  1.00  0.00    -0.249 OA
ATOM     16  N   UNL A   1      31.968  27.177  21.848  1.00  0.00    -0.333 N 
ATOM     17  H   UNL A   1      31.635  27.554  21.001  1.00  0.00     0.165 HD
BRANCH  16  18
ATOM     18  C   UNL A   1      31.536  27.860  23.034  1.00  0.00     0.164 C 
BRANCH  18  19
ATOM     19  C   UNL A   1      30.187  28.474  22.925  1.00  0.00     0.024 A 
ATOM     20  C   UNL A   1      28.989  27.945  23.360  1.00  0.00     0.017 A 
ATOM     21  S   UNL A   1      29.949  29.898  22.000  1.00  0.00    -0.147 S 
ATOM     22  C   UNL A   1      27.871  28.629  22.806  1.00  0.00     0.012 A 
ATOM     23  C   UNL A   1      28.252  29.700  22.029  1.00  0.00     0.065 A 
ENDBRANCH  18  19
ENDBRANCH  16  18
ENDBRANCH  11  12
ENDBRANCH   8  11
ENDBRANCH   5   8
ENDBRANCH   3   4
ENDBRANCH   2   3
ENDBRANCH   1   2
BRANCH   1  24
ATOM     24  C   UNL A   1      36.856  21.239  24.802  1.00  0.00     0.002 C 
BRANCH  24  25
ATOM     25  C   UNL A   1      37.913  20.163  25.073  1.00  0.00     0.021 C 
BRANCH  25  26
ATOM     26  C   UNL A   1      39.127  20.624  25.880  1.00  0.00     0.116 C 
BRANCH  26  27
ATOM     27  N   UNL A   1      40.137  19.586  25.997  1.00  0.00    -0.352 N 
ATOM     28  C   UNL A   1      41.497  19.692  26.147  1.00  0.00     0.251 C 
ATOM     29  H   UNL A   1      39.794  18.665  25.962  1.00  0.00     0.163 HD
ATOM     30  O   UNL A   1      42.199  18.686  26.017  1.00  0.00    -0.269 OA
BRANCH  28  31
ATOM     31  C   UNL A   1      42.126  20.999  26.438  1.00  0.00     0.039 A 
ATOM     32  C   UNL A   1      42.342  21.893  25.384  1.00  0.00     0.014 A 
ATOM     33  C   UNL A   1      42.531  21.337  27.732  1.00  0.00     0.014 A 
ATOM     34  C   UNL A   1      42.899  23.148  25.640  1.00  0.00     0.010 A 
ATOM     35  C   UNL A   1      43.023  22.616  27.996  1.00  0.00     0.010 A 
ATOM     36  C   UNL A   1      43.211  23.536  26.953  1.00  0.00    -0.014 A 
BRANCH  36  37
ATOM     37  C   UNL A   1      43.724  24.902  27.250  1.00  0.00     0.031 A 
ATOM     38  C   UNL A   1      42.808  25.949  27.823  1.00  0.00     0.074 A 
ATOM     39  C   UNL A   1      45.001  25.213  26.951  1.00  0.00     0.049 A 
ATOM     40  N   UNL A   1      43.048  27.211  28.075  1.00  0.00    -0.248 NA
ATOM     41  C   UNL A   1      41.433  25.527  28.127  1.00  0.00     0.031 C 
ATOM     42  C   UNL A   1      45.979  24.292  26.367  1.00  0.00     0.029 A 
ATOM     43  N   UNL A   1      45.696  26.389  27.087  1.00  0.00    -0.354 N 
ATOM     44  C   UNL A   1      41.855  27.736  28.560  1.00  0.00     0.074 A 
ATOM     45  C   UNL A   1      40.878  26.668  28.507  1.00  0.00     0.031 C 
ATOM     46  C   UNL A   1      47.150  24.931  26.217  1.00  0.00     0.029 A 
ATOM     47  C   UNL A   1      46.997  26.319  26.643  1.00  0.00     0.049 A 
ATOM     48  H   UNL A   1      45.301  27.207  27.467  1.00  0.00     0.167 HD
ATOM     49  C   UNL A   1      41.603  28.986  29.025  1.00  0.00     0.034 A 
ATOM     50  C   UNL A   1      47.953  27.266  26.569  1.00  0.00     0.034 A 
ATOM     51  C   UNL A   1      42.591  30.038  29.076  1.00  0.00     0.049 A 
ATOM     52  C   UNL A   1      47.637  28.660  27.049  1.00  0.00     0.074 A 
ATOM     53  C   UNL A   1      42.456  31.323  29.573  1.00  0.00     0.029 A 
ATOM     54  N   UNL A   1      43.894  29.933  28.605  1.00  0.00    -0.354 N 
ATOM     55  N   UNL A   1      46.516  29.128  27.545  1.00  0.00    -0.248 NA
ATOM     56  C   UNL A   1      48.718  29.652  26.965  1.00  0.00     0.031 C 
ATOM     57  C   UNL A   1      43.648  32.016  29.332  1.00  0.00     0.029 A 
ATOM     58  C   UNL A   1      44.558  31.141  28.763  1.00  0.00     0.049 A 
ATOM     59  H   UNL A   1      44.288  29.120  28.213  1.00  0.00     0.167 HD
ATOM     60  C   UNL A   1      46.768  30.460  27.864  1.00  0.00     0.074 A 
ATOM     61  C   UNL A   1      48.152  30.714  27.516  1.00  0.00     0.031 C 
ATOM     62  C   UNL A   1      45.935  31.387  28.402  1.00  0.00     0.034 A 
BRANCH  49  63
ATOM     63  C   UNL A   1      40.196  29.288  29.485  1.00  0.00     0.023 A 
ATOM     64  C   UNL A   1      39.870  29.396  30.849  1.00  0.00     0.031 A 
ATOM     65  C   UNL A   1      39.160  29.453  28.549  1.00  0.00     0.131 A 
ATOM     66  C   UNL A   1      38.536  29.582  31.239  1.00  0.00     0.055 A 
ATOM     67  C   UNL A   1      37.847  29.724  28.941  1.00  0.00     0.041 A 
ATOM     68  F   UNL A   1      39.402  29.342  27.233  1.00  0.00    -0.206 F 
ATOM     69  C   UNL A   1      37.526  29.774  30.294  1.00  0.00     0.022 A 
BRANCH  66  70
ATOM     70  S   UNL A   1      38.118  29.420  32.996  1.00  0.00     0.124 S 
ATOM     71  O   UNL A   1      39.441  29.392  33.613  1.00  0.00    -0.237 OA
ATOM     72  O   UNL A   1      37.322  30.618  33.243  1.00  0.00    -0.237 OA
ATOM     73  O   UNL A   1      37.383  28.158  33.059  1.00  0.00    -0.744 OA
ENDBRANCH  66  70
ENDBRANCH  49  63
BRANCH  50  74
ATOM     74  C   UNL A   1      49.295  26.943  26.001  1.00  0.00     0.023 A 
ATOM     75  C   UNL A   1      50.394  26.690  26.838  1.00  0.00     0.031 A 
ATOM     76  C   UNL A   1      49.510  26.928  24.610  1.00  0.00     0.131 A 
ATOM     77  C   UNL A   1      51.666  26.482  26.280  1.00  0.00     0.055 A 
ATOM     78  C   UNL A   1      50.764  26.662  24.059  1.00  0.00     0.041 A 
ATOM     79  F   UNL A   1      48.494  27.160  23.764  1.00  0.00    -0.206 F 
ATOM     80  C   UNL A   1      51.855  26.451  24.898  1.00  0.00     0.022 A 
BRANCH  77  81
ATOM     81  S   UNL A   1      53.090  26.346  27.395  1.00  0.00     0.124 S 
ATOM     82  O   UNL A   1      53.764  27.620  27.172  1.00  0.00    -0.237 OA
ATOM     83  O   UNL A   1      52.444  26.179  28.692  1.00  0.00    -0.237 OA
ATOM     84  O   UNL A   1      53.799  25.169  26.897  1.00  0.00    -0.744 OA
ENDBRANCH  77  81
ENDBRANCH  50  74
BRANCH  62  85
ATOM     85  C   UNL A   1      46.515  32.752  28.687  1.00  0.00     0.023 A 
ATOM     86  C   UNL A   1      46.544  33.766  27.714  1.00  0.00     0.031 A 
ATOM     87  C   UNL A   1      47.055  33.038  29.954  1.00  0.00     0.131 A 
ATOM     88  C   UNL A   1      47.147  34.998  28.005  1.00  0.00     0.055 A 
ATOM     89  C   UNL A   1      47.596  34.287  30.259  1.00  0.00     0.041 A 
ATOM     90  F   UNL A   1      47.059  32.107  30.922  1.00  0.00    -0.206 F 
ATOM     91  C   UNL A   1      47.657  35.272  29.277  1.00  0.00     0.022 A 
BRANCH  88  92
ATOM     92  S   UNL A   1      47.342  36.211  26.670  1.00  0.00     0.124 S 
ATOM     93  O   UNL A   1      47.331  37.472  27.402  1.00  0.00    -0.237 OA
ATOM     94  O   UNL A   1      48.621  35.826  26.083  1.00  0.00    -0.237 OA
ATOM     95  O   UNL A   1      46.177  35.975  25.820  1.00  0.00    -0.744 OA
ENDBRANCH  88  92
ENDBRANCH  62  85
ENDBRANCH  36  37
ENDBRANCH  28  31
ENDBRANCH  26  27
ENDBRANCH  25  26
ENDBRANCH  24  25
ENDBRANCH   1  24
TORSDOF 20
ENDMDL
