MODEL 1
REMARK VINA RESULT:     -11.3      0.000      0.000
REMARK SMILES CO[C@@H]1C[NH2+][C@@H](O[C@@H]2C[C@@H](C(=O)NCCCCCCNC(=O)c3ccc(-c4c5nc(c(-c6cc(S(=O)(=O)[O-])ccc6F)c6ccc([nH]6)c(-c6cc(S(=O)(=O)[O-])ccc6F)c6nc(c(-c7cc(S(=O)(=O)[O-])ccc7F)c7ccc4[nH]7)C=C6)C=C5)cc3)N(C(=O)OC(C)(C)C)C2)c2cc(Cl)ccc21
REMARK SMILES IDX 16 1 15 2 14 3 13 4 11 5 12 6 10 8 8 9 9 10 94 11 86 12 7 13
REMARK SMILES IDX 6 14 3 15 4 16 101 17 5 18 95 19 100 20 96 23 99 24 97 25
REMARK SMILES IDX 98 26 2 27 1 28 87 29 88 30 89 31 90 32 91 33 92 34 93 35
REMARK SMILES IDX 17 36 18 37 19 38 20 39 21 40 22 42 23 43 24 44 85 45 25 46
REMARK SMILES IDX 84 47 26 48 27 49 28 50 78 51 29 52 83 53 77 54 79 55 30 56
REMARK SMILES IDX 82 57 76 58 75 59 31 61 63 62 43 63 62 64 44 65 47 66 61 67
REMARK SMILES IDX 80 68 45 69 46 70 60 72 81 73 48 74 32 75 33 76 41 77 34 78
REMARK SMILES IDX 40 79 42 80 39 81 35 82 36 83 37 84 38 85 64 86 65 87 73 88
REMARK SMILES IDX 66 89 72 90 74 91 71 92 67 93 68 94 69 95 70 96 49 97 50 98
REMARK SMILES IDX 58 99 51 100 57 101 59 102 56 103 52 104 53 105 54 106
REMARK SMILES IDX 55 107
REMARK H PARENT 13 7 5 21 5 22 20 41 79 60 47 71
REMARK Flexibility Score: inf
ROOT
ATOM      1  C   UNL A   1      34.781  18.417  24.239  1.00  0.00     0.002 C 
ENDROOT
BRANCH   1   2
ATOM      2  C   UNL A   1      33.499  18.372  25.108  1.00  0.00     0.021 C 
BRANCH   2   3
ATOM      3  C   UNL A   1      32.871  19.635  25.694  1.00  0.00     0.116 C 
BRANCH   3   4
ATOM      4  N   UNL A   1      33.596  20.267  26.763  1.00  0.00    -0.354 N 
ATOM      5  C   UNL A   1      33.519  21.561  27.202  1.00  0.00     0.243 C 
ATOM      6  O   UNL A   1      34.229  21.809  28.187  1.00  0.00    -0.273 OA
ATOM      7  H   UNL A   1      34.233  19.692  27.245  1.00  0.00     0.163 HD
BRANCH   5   8
ATOM      8  C   UNL A   1      32.797  22.720  26.400  1.00  0.00     0.180 C 
ATOM      9  C   UNL A   1      30.652  23.928  26.391  1.00  0.00     0.147 C 
ATOM     10  C   UNL A   1      31.560  23.096  27.269  1.00  0.00     0.069 C 
ATOM     11  C   UNL A   1      30.888  23.326  25.016  1.00  0.00     0.156 C 
ATOM     12  N   UNL A   1      32.220  22.724  25.023  1.00  0.00    -0.293 N 
BRANCH   9  13
ATOM     13  O   UNL A   1      30.637  25.344  26.475  1.00  0.00    -0.320 OA
BRANCH  13  14
ATOM     14  C   UNL A   1      31.676  26.275  26.220  1.00  0.00     0.354 C 
ATOM     15  C   UNL A   1      31.451  29.235  26.264  1.00  0.00     0.203 C 
ATOM     16  C   UNL A   1      31.523  28.341  27.534  1.00  0.00     0.300 C 
ATOM     17  C   UNL A   1      31.544  28.474  24.951  1.00  0.00    -0.002 A 
ATOM     18  N   UNL A   1      32.098  27.010  27.394  1.00  0.00    -0.315 N 
ATOM     19  C   UNL A   1      31.644  27.071  24.937  1.00  0.00     0.046 A 
ATOM     20  C   UNL A   1      31.442  29.166  23.731  1.00  0.00     0.009 A 
ATOM     21  H   UNL A   1      31.839  26.467  28.217  1.00  0.00     0.349 HD
ATOM     22  H   UNL A   1      33.104  27.147  27.294  1.00  0.00     0.349 HD
ATOM     23  C   UNL A   1      31.719  26.394  23.704  1.00  0.00     0.033 A 
ATOM     24  C   UNL A   1      31.475  28.480  22.515  1.00  0.00     0.021 A 
ATOM     25  C   UNL A   1      31.629  27.098  22.506  1.00  0.00     0.041 A 
ATOM     26  Cl  UNL A   1      31.687  26.250  21.010  1.00  0.00    -0.084 Cl
BRANCH  15  27
ATOM     27  O   UNL A   1      32.446  30.265  26.294  1.00  0.00    -0.371 OA
ATOM     28  C   UNL A   1      33.708  29.749  26.710  1.00  0.00     0.196 C 
ENDBRANCH  15  27
ENDBRANCH  13  14
ENDBRANCH   9  13
BRANCH  12  29
ATOM     29  C   UNL A   1      32.750  22.614  23.750  1.00  0.00     0.411 C 
ATOM     30  O   UNL A   1      32.063  22.840  22.756  1.00  0.00    -0.224 OA
BRANCH  29  31
ATOM     31  O   UNL A   1      34.071  22.332  23.675  1.00  0.00    -0.444 OA
BRANCH  31  32
ATOM     32  C   UNL A   1      35.032  23.432  23.652  1.00  0.00     0.106 C 
ATOM     33  C   UNL A   1      34.436  24.600  22.858  1.00  0.00     0.056 C 
ATOM     34  C   UNL A   1      35.513  23.881  25.035  1.00  0.00     0.056 C 
ATOM     35  C   UNL A   1      36.274  22.897  22.924  1.00  0.00     0.056 C 
ENDBRANCH  31  32
ENDBRANCH  29  31
ENDBRANCH  12  29
ENDBRANCH   5   8
ENDBRANCH   3   4
ENDBRANCH   2   3
ENDBRANCH   1   2
BRANCH   1  36
ATOM     36  C   UNL A   1      36.179  18.738  24.787  1.00  0.00     0.002 C 
BRANCH  36  37
ATOM     37  C   UNL A   1      36.620  20.180  25.118  1.00  0.00     0.021 C 
BRANCH  37  38
ATOM     38  C   UNL A   1      38.083  20.623  24.985  1.00  0.00     0.116 C 
BRANCH  38  39
ATOM     39  N   UNL A   1      39.036  19.799  25.708  1.00  0.00    -0.352 N 
ATOM     40  C   UNL A   1      40.094  20.152  26.520  1.00  0.00     0.251 C 
ATOM     41  H   UNL A   1      38.904  18.830  25.603  1.00  0.00     0.163 HD
ATOM     42  O   UNL A   1      40.794  19.263  27.000  1.00  0.00    -0.269 OA
BRANCH  40  43
ATOM     43  C   UNL A   1      40.440  21.573  26.794  1.00  0.00     0.039 A 
ATOM     44  C   UNL A   1      39.796  22.638  26.157  1.00  0.00     0.014 A 
ATOM     45  C   UNL A   1      41.399  21.847  27.776  1.00  0.00     0.014 A 
ATOM     46  C   UNL A   1      40.198  23.960  26.412  1.00  0.00     0.010 A 
ATOM     47  C   UNL A   1      41.770  23.168  28.060  1.00  0.00     0.010 A 
ATOM     48  C   UNL A   1      41.205  24.242  27.353  1.00  0.00    -0.014 A 
BRANCH  48  49
ATOM     49  C   UNL A   1      41.684  25.638  27.599  1.00  0.00     0.031 A 
ATOM     50  C   UNL A   1      43.042  26.075  27.102  1.00  0.00     0.074 A 
ATOM     51  C   UNL A   1      40.920  26.519  28.277  1.00  0.00     0.049 A 
ATOM     52  N   UNL A   1      43.668  27.210  27.289  1.00  0.00    -0.248 NA
ATOM     53  C   UNL A   1      43.797  25.108  26.288  1.00  0.00     0.031 C 
ATOM     54  C   UNL A   1      39.582  26.241  28.793  1.00  0.00     0.029 A 
ATOM     55  N   UNL A   1      41.156  27.822  28.654  1.00  0.00    -0.354 N 
ATOM     56  C   UNL A   1      44.889  27.092  26.630  1.00  0.00     0.074 A 
ATOM     57  C   UNL A   1      44.930  25.760  26.067  1.00  0.00     0.031 C 
ATOM     58  C   UNL A   1      39.107  27.341  29.397  1.00  0.00     0.029 A 
ATOM     59  C   UNL A   1      40.129  28.386  29.379  1.00  0.00     0.049 A 
ATOM     60  H   UNL A   1      41.984  28.305  28.427  1.00  0.00     0.167 HD
ATOM     61  C   UNL A   1      45.874  28.013  26.493  1.00  0.00     0.034 A 
ATOM     62  C   UNL A   1      40.025  29.590  29.983  1.00  0.00     0.034 A 
ATOM     63  C   UNL A   1      45.816  29.346  27.038  1.00  0.00     0.049 A 
ATOM     64  C   UNL A   1      41.170  30.571  29.882  1.00  0.00     0.074 A 
ATOM     65  C   UNL A   1      46.758  30.354  26.920  1.00  0.00     0.029 A 
ATOM     66  N   UNL A   1      44.773  29.862  27.792  1.00  0.00    -0.354 N 
ATOM     67  N   UNL A   1      42.297  30.456  29.221  1.00  0.00    -0.248 NA
ATOM     68  C   UNL A   1      41.036  31.844  30.609  1.00  0.00     0.031 C 
ATOM     69  C   UNL A   1      46.319  31.452  27.659  1.00  0.00     0.029 A 
ATOM     70  C   UNL A   1      45.065  31.163  28.171  1.00  0.00     0.049 A 
ATOM     71  H   UNL A   1      43.948  29.378  28.022  1.00  0.00     0.167 HD
ATOM     72  C   UNL A   1      42.988  31.648  29.427  1.00  0.00     0.074 A 
ATOM     73  C   UNL A   1      42.146  32.480  30.258  1.00  0.00     0.031 C 
ATOM     74  C   UNL A   1      44.213  32.010  28.971  1.00  0.00     0.034 A 
BRANCH  61  75
ATOM     75  C   UNL A   1      47.111  27.654  25.701  1.00  0.00     0.023 A 
ATOM     76  C   UNL A   1      47.195  27.987  24.335  1.00  0.00     0.031 A 
ATOM     77  C   UNL A   1      48.113  26.833  26.247  1.00  0.00     0.131 A 
ATOM     78  C   UNL A   1      48.229  27.459  23.550  1.00  0.00     0.055 A 
ATOM     79  C   UNL A   1      49.167  26.346  25.470  1.00  0.00     0.041 A 
ATOM     80  F   UNL A   1      48.077  26.483  27.542  1.00  0.00    -0.206 F 
ATOM     81  C   UNL A   1      49.219  26.645  24.112  1.00  0.00     0.022 A 
BRANCH  78  82
ATOM     82  S   UNL A   1      48.285  27.736  21.757  1.00  0.00     0.124 S 
ATOM     83  O   UNL A   1      49.389  28.685  21.636  1.00  0.00    -0.237 OA
ATOM     84  O   UNL A   1      48.558  26.395  21.250  1.00  0.00    -0.237 OA
ATOM     85  O   UNL A   1      46.967  28.275  21.444  1.00  0.00    -0.744 OA
ENDBRANCH  78  82
ENDBRANCH  61  75
BRANCH  62  86
ATOM     86  C   UNL A   1      38.766  29.939  30.713  1.00  0.00     0.023 A 
ATOM     87  C   UNL A   1      37.787  30.761  30.125  1.00  0.00     0.031 A 
ATOM     88  C   UNL A   1      38.567  29.528  32.043  1.00  0.00     0.131 A 
ATOM     89  C   UNL A   1      36.698  31.206  30.887  1.00  0.00     0.055 A 
ATOM     90  C   UNL A   1      37.440  29.909  32.774  1.00  0.00     0.041 A 
ATOM     91  F   UNL A   1      39.473  28.748  32.651  1.00  0.00    -0.206 F 
ATOM     92  C   UNL A   1      36.509  30.770  32.201  1.00  0.00     0.022 A 
BRANCH  89  93
ATOM     93  S   UNL A   1      35.573  32.477  30.246  1.00  0.00     0.124 S 
ATOM     94  O   UNL A   1      35.321  32.005  28.889  1.00  0.00    -0.237 OA
ATOM     95  O   UNL A   1      34.447  32.370  31.171  1.00  0.00    -0.237 OA
ATOM     96  O   UNL A   1      36.347  33.709  30.355  1.00  0.00    -0.744 OA
ENDBRANCH  89  93
ENDBRANCH  62  86
BRANCH  74  97
ATOM     97  C   UNL A   1      44.758  33.376  29.320  1.00  0.00     0.023 A 
ATOM     98  C   UNL A   1      45.480  33.558  30.518  1.00  0.00     0.031 A 
ATOM     99  C   UNL A   1      44.399  34.517  28.584  1.00  0.00     0.131 A 
ATOM    100  C   UNL A   1      45.761  34.852  30.974  1.00  0.00     0.055 A 
ATOM    101  C   UNL A   1      44.731  35.803  29.015  1.00  0.00     0.041 A 
ATOM    102  F   UNL A   1      43.702  34.400  27.442  1.00  0.00    -0.206 F 
ATOM    103  C   UNL A   1      45.398  35.975  30.225  1.00  0.00     0.022 A 
BRANCH 100 104
ATOM    104  S   UNL A   1      46.514  35.127  32.603  1.00  0.00     0.124 S 
ATOM    105  O   UNL A   1      46.033  33.972  33.359  1.00  0.00    -0.237 OA
ATOM    106  O   UNL A   1      47.940  35.116  32.287  1.00  0.00    -0.237 OA
ATOM    107  O   UNL A   1      45.973  36.414  33.028  1.00  0.00    -0.744 OA
ENDBRANCH 100 104
ENDBRANCH  74  97
ENDBRANCH  48  49
ENDBRANCH  40  43
ENDBRANCH  38  39
ENDBRANCH  37  38
ENDBRANCH  36  37
ENDBRANCH   1  36
TORSDOF 22
ENDMDL
MODEL 2
REMARK VINA RESULT:     -11.2      1.801      2.127
REMARK SMILES CO[C@@H]1C[NH2+][C@@H](O[C@@H]2C[C@@H](C(=O)NCCCCCCNC(=O)c3ccc(-c4c5nc(c(-c6cc(S(=O)(=O)[O-])ccc6F)c6ccc([nH]6)c(-c6cc(S(=O)(=O)[O-])ccc6F)c6nc(c(-c7cc(S(=O)(=O)[O-])ccc7F)c7ccc4[nH]7)C=C6)C=C5)cc3)N(C(=O)OC(C)(C)C)C2)c2cc(Cl)ccc21
REMARK SMILES IDX 16 1 15 2 14 3 13 4 11 5 12 6 10 8 8 9 9 10 94 11 86 12 7 13
REMARK SMILES IDX 6 14 3 15 4 16 101 17 5 18 95 19 100 20 96 23 99 24 97 25
REMARK SMILES IDX 98 26 2 27 1 28 87 29 88 30 89 31 90 32 91 33 92 34 93 35
REMARK SMILES IDX 17 36 18 37 19 38 20 39 21 40 22 42 23 43 24 44 85 45 25 46
REMARK SMILES IDX 84 47 26 48 27 49 28 50 78 51 29 52 83 53 77 54 79 55 30 56
REMARK SMILES IDX 82 57 76 58 75 59 31 61 63 62 43 63 62 64 44 65 47 66 61 67
REMARK SMILES IDX 80 68 45 69 46 70 60 72 81 73 48 74 32 75 33 76 41 77 34 78
REMARK SMILES IDX 40 79 42 80 39 81 35 82 36 83 37 84 38 85 64 86 65 87 73 88
REMARK SMILES IDX 66 89 72 90 74 91 71 92 67 93 68 94 69 95 70 96 49 97 50 98
REMARK SMILES IDX 58 99 51 100 57 101 59 102 56 103 52 104 53 105 54 106
REMARK SMILES IDX 55 107
REMARK H PARENT 13 7 5 21 5 22 20 41 79 60 47 71
REMARK Flexibility Score: inf
ROOT
ATOM      1  C   UNL A   1      34.112  18.938  24.337  1.00  0.00     0.002 C 
ENDROOT
BRANCH   1   2
ATOM      2  C   UNL A   1      33.014  19.489  25.280  1.00  0.00     0.021 C 
BRANCH   2   3
ATOM      3  C   UNL A   1      32.407  20.879  25.097  1.00  0.00     0.116 C 
BRANCH   3   4
ATOM      4  N   UNL A   1      32.128  21.613  26.301  1.00  0.00    -0.354 N 
ATOM      5  C   UNL A   1      31.726  22.914  26.437  1.00  0.00     0.243 C 
ATOM      6  O   UNL A   1      31.507  23.262  27.606  1.00  0.00    -0.273 OA
ATOM      7  H   UNL A   1      32.242  21.113  27.142  1.00  0.00     0.163 HD
BRANCH   5   8
ATOM      8  C   UNL A   1      31.767  23.974  25.262  1.00  0.00     0.180 C 
ATOM      9  C   UNL A   1      30.330  24.800  23.442  1.00  0.00     0.147 C 
ATOM     10  C   UNL A   1      30.291  24.089  24.775  1.00  0.00     0.069 C 
ATOM     11  C   UNL A   1      31.647  24.321  22.855  1.00  0.00     0.156 C 
ATOM     12  N   UNL A   1      32.517  23.953  23.971  1.00  0.00    -0.293 N 
BRANCH   9  13
ATOM     13  O   UNL A   1      30.051  26.187  23.335  1.00  0.00    -0.320 OA
BRANCH  13  14
ATOM     14  C   UNL A   1      30.944  27.286  23.263  1.00  0.00     0.354 C 
ATOM     15  C   UNL A   1      31.599  29.185  25.448  1.00  0.00     0.203 C 
ATOM     16  C   UNL A   1      32.159  27.738  25.345  1.00  0.00     0.300 C 
ATOM     17  C   UNL A   1      30.692  29.594  24.299  1.00  0.00    -0.002 A 
ATOM     18  N   UNL A   1      32.155  27.103  24.035  1.00  0.00    -0.315 N 
ATOM     19  C   UNL A   1      30.381  28.687  23.269  1.00  0.00     0.046 A 
ATOM     20  C   UNL A   1      30.085  30.862  24.301  1.00  0.00     0.009 A 
ATOM     21  H   UNL A   1      32.295  26.102  24.171  1.00  0.00     0.349 HD
ATOM     22  H   UNL A   1      32.900  27.551  23.502  1.00  0.00     0.349 HD
ATOM     23  C   UNL A   1      29.531  29.093  22.222  1.00  0.00     0.033 A 
ATOM     24  C   UNL A   1      29.209  31.238  23.280  1.00  0.00     0.021 A 
ATOM     25  C   UNL A   1      28.948  30.358  22.235  1.00  0.00     0.041 A 
ATOM     26  Cl  UNL A   1      27.884  30.823  20.966  1.00  0.00    -0.084 Cl
BRANCH  15  27
ATOM     27  O   UNL A   1      32.653  30.144  25.593  1.00  0.00    -0.371 OA
ATOM     28  C   UNL A   1      32.571  30.812  26.851  1.00  0.00     0.196 C 
ENDBRANCH  15  27
ENDBRANCH  13  14
ENDBRANCH   9  13
BRANCH  12  29
ATOM     29  C   UNL A   1      33.856  24.001  23.626  1.00  0.00     0.411 C 
ATOM     30  O   UNL A   1      34.253  24.739  22.727  1.00  0.00    -0.224 OA
BRANCH  29  31
ATOM     31  O   UNL A   1      34.695  23.262  24.389  1.00  0.00    -0.444 OA
BRANCH  31  32
ATOM     32  C   UNL A   1      35.380  23.898  25.512  1.00  0.00     0.106 C 
ATOM     33  C   UNL A   1      34.871  25.337  25.659  1.00  0.00     0.056 C 
ATOM     34  C   UNL A   1      35.279  23.129  26.832  1.00  0.00     0.056 C 
ATOM     35  C   UNL A   1      36.871  23.918  25.144  1.00  0.00     0.056 C 
ENDBRANCH  31  32
ENDBRANCH  29  31
ENDBRANCH  12  29
ENDBRANCH   5   8
ENDBRANCH   3   4
ENDBRANCH   2   3
ENDBRANCH   1   2
BRANCH   1  36
ATOM     36  C   UNL A   1      35.615  18.988  24.647  1.00  0.00     0.002 C 
BRANCH  36  37
ATOM     37  C   UNL A   1      36.300  20.260  25.192  1.00  0.00     0.021 C 
BRANCH  37  38
ATOM     38  C   UNL A   1      37.717  20.658  24.759  1.00  0.00     0.116 C 
BRANCH  38  39
ATOM     39  N   UNL A   1      38.758  19.727  25.157  1.00  0.00    -0.352 N 
ATOM     40  C   UNL A   1      39.958  19.943  25.804  1.00  0.00     0.251 C 
ATOM     41  H   UNL A   1      38.577  18.787  24.929  1.00  0.00     0.163 HD
ATOM     42  O   UNL A   1      40.704  18.987  26.002  1.00  0.00    -0.269 OA
BRANCH  40  43
ATOM     43  C   UNL A   1      40.394  21.301  26.224  1.00  0.00     0.039 A 
ATOM     44  C   UNL A   1      39.549  22.186  26.901  1.00  0.00     0.014 A 
ATOM     45  C   UNL A   1      41.723  21.675  25.990  1.00  0.00     0.014 A 
ATOM     46  C   UNL A   1      39.995  23.477  27.229  1.00  0.00     0.010 A 
ATOM     47  C   UNL A   1      42.179  22.950  26.355  1.00  0.00     0.010 A 
ATOM     48  C   UNL A   1      41.310  23.884  26.942  1.00  0.00    -0.014 A 
BRANCH  48  49
ATOM     49  C   UNL A   1      41.786  25.272  27.233  1.00  0.00     0.031 A 
ATOM     50  C   UNL A   1      43.137  25.734  26.738  1.00  0.00     0.074 A 
ATOM     51  C   UNL A   1      41.026  26.124  27.952  1.00  0.00     0.049 A 
ATOM     52  N   UNL A   1      43.759  26.864  26.960  1.00  0.00    -0.248 NA
ATOM     53  C   UNL A   1      43.887  24.800  25.881  1.00  0.00     0.031 C 
ATOM     54  C   UNL A   1      39.694  25.821  28.471  1.00  0.00     0.029 A 
ATOM     55  N   UNL A   1      41.260  27.414  28.373  1.00  0.00    -0.354 N 
ATOM     56  C   UNL A   1      44.974  26.776  26.284  1.00  0.00     0.074 A 
ATOM     57  C   UNL A   1      45.015  25.466  25.672  1.00  0.00     0.031 C 
ATOM     58  C   UNL A   1      39.221  26.896  29.120  1.00  0.00     0.029 A 
ATOM     59  C   UNL A   1      40.238  27.946  29.129  1.00  0.00     0.049 A 
ATOM     60  H   UNL A   1      42.083  27.909  28.156  1.00  0.00     0.167 HD
ATOM     61  C   UNL A   1      45.954  27.705  26.170  1.00  0.00     0.034 A 
ATOM     62  C   UNL A   1      40.135  29.127  29.778  1.00  0.00     0.034 A 
ATOM     63  C   UNL A   1      45.896  29.018  26.765  1.00  0.00     0.049 A 
ATOM     64  C   UNL A   1      41.275  30.116  29.701  1.00  0.00     0.074 A 
ATOM     65  C   UNL A   1      46.832  30.034  26.674  1.00  0.00     0.029 A 
ATOM     66  N   UNL A   1      44.859  29.501  27.548  1.00  0.00    -0.354 N 
ATOM     67  N   UNL A   1      42.395  30.030  29.024  1.00  0.00    -0.248 NA
ATOM     68  C   UNL A   1      41.143  31.360  30.475  1.00  0.00     0.031 C 
ATOM     69  C   UNL A   1      46.397  31.102  27.457  1.00  0.00     0.029 A 
ATOM     70  C   UNL A   1      45.149  30.788  27.972  1.00  0.00     0.049 A 
ATOM     71  H   UNL A   1      44.038  29.004  27.769  1.00  0.00     0.167 HD
ATOM     72  C   UNL A   1      43.084  31.218  29.266  1.00  0.00     0.074 A 
ATOM     73  C   UNL A   1      42.247  32.015  30.136  1.00  0.00     0.031 C 
ATOM     74  C   UNL A   1      44.302  31.602  28.811  1.00  0.00     0.034 A 
BRANCH  61  75
ATOM     75  C   UNL A   1      47.184  27.382  25.353  1.00  0.00     0.023 A 
ATOM     76  C   UNL A   1      47.281  27.826  24.019  1.00  0.00     0.031 A 
ATOM     77  C   UNL A   1      48.162  26.492  25.830  1.00  0.00     0.131 A 
ATOM     78  C   UNL A   1      48.304  27.338  23.195  1.00  0.00     0.055 A 
ATOM     79  C   UNL A   1      49.206  26.045  25.016  1.00  0.00     0.041 A 
ATOM     80  F   UNL A   1      48.112  26.036  27.091  1.00  0.00    -0.206 F 
ATOM     81  C   UNL A   1      49.270  26.455  23.687  1.00  0.00     0.022 A 
BRANCH  78  82
ATOM     82  S   UNL A   1      48.373  27.762  21.431  1.00  0.00     0.124 S 
ATOM     83  O   UNL A   1      49.418  28.782  21.410  1.00  0.00    -0.237 OA
ATOM     84  O   UNL A   1      48.738  26.485  20.825  1.00  0.00    -0.237 OA
ATOM     85  O   UNL A   1      47.029  28.243  21.133  1.00  0.00    -0.744 OA
ENDBRANCH  78  82
ENDBRANCH  61  75
BRANCH  62  86
ATOM     86  C   UNL A   1      38.883  29.443  30.533  1.00  0.00     0.023 A 
ATOM     87  C   UNL A   1      37.998  30.442  30.090  1.00  0.00     0.031 A 
ATOM     88  C   UNL A   1      38.601  28.810  31.757  1.00  0.00     0.131 A 
ATOM     89  C   UNL A   1      36.921  30.832  30.899  1.00  0.00     0.055 A 
ATOM     90  C   UNL A   1      37.483  29.146  32.522  1.00  0.00     0.041 A 
ATOM     91  F   UNL A   1      39.417  27.854  32.227  1.00  0.00    -0.206 F 
ATOM     92  C   UNL A   1      36.647  30.177  32.103  1.00  0.00     0.022 A 
BRANCH  89  93
ATOM     93  S   UNL A   1      35.929  32.293  30.485  1.00  0.00     0.124 S 
ATOM     94  O   UNL A   1      35.868  32.219  29.030  1.00  0.00    -0.237 OA
ATOM     95  O   UNL A   1      34.678  32.011  31.185  1.00  0.00    -0.237 OA
ATOM     96  O   UNL A   1      36.705  33.402  31.031  1.00  0.00    -0.744 OA
ENDBRANCH  89  93
ENDBRANCH  62  86
BRANCH  74  97
ATOM     97  C   UNL A   1      44.845  32.957  29.204  1.00  0.00     0.023 A 
ATOM     98  C   UNL A   1      44.482  34.100  28.462  1.00  0.00     0.031 A 
ATOM     99  C   UNL A   1      45.858  33.087  30.169  1.00  0.00     0.131 A 
ATOM    100  C   UNL A   1      45.172  35.303  28.652  1.00  0.00     0.055 A 
ATOM    101  C   UNL A   1      46.505  34.305  30.393  1.00  0.00     0.041 A 
ATOM    102  F   UNL A   1      46.249  32.027  30.895  1.00  0.00    -0.206 F 
ATOM    103  C   UNL A   1      46.175  35.414  29.619  1.00  0.00     0.022 A 
BRANCH 100 104
ATOM    104  S   UNL A   1      44.865  36.737  27.582  1.00  0.00     0.124 S 
ATOM    105  O   UNL A   1      46.222  37.201  27.299  1.00  0.00    -0.237 OA
ATOM    106  O   UNL A   1      44.166  36.131  26.452  1.00  0.00    -0.237 OA
ATOM    107  O   UNL A   1      44.066  37.632  28.412  1.00  0.00    -0.744 OA
ENDBRANCH 100 104
ENDBRANCH  74  97
ENDBRANCH  48  49
ENDBRANCH  40  43
ENDBRANCH  38  39
ENDBRANCH  37  38
ENDBRANCH  36  37
ENDBRANCH   1  36
TORSDOF 22
ENDMDL
MODEL 3
REMARK VINA RESULT:     -11.2      1.565      2.259
REMARK SMILES CO[C@@H]1C[NH2+][C@@H](O[C@@H]2C[C@@H](C(=O)NCCCCCCNC(=O)c3ccc(-c4c5nc(c(-c6cc(S(=O)(=O)[O-])ccc6F)c6ccc([nH]6)c(-c6cc(S(=O)(=O)[O-])ccc6F)c6nc(c(-c7cc(S(=O)(=O)[O-])ccc7F)c7ccc4[nH]7)C=C6)C=C5)cc3)N(C(=O)OC(C)(C)C)C2)c2cc(Cl)ccc21
REMARK SMILES IDX 16 1 15 2 14 3 13 4 11 5 12 6 10 8 8 9 9 10 94 11 86 12 7 13
REMARK SMILES IDX 6 14 3 15 4 16 101 17 5 18 95 19 100 20 96 23 99 24 97 25
REMARK SMILES IDX 98 26 2 27 1 28 87 29 88 30 89 31 90 32 91 33 92 34 93 35
REMARK SMILES IDX 17 36 18 37 19 38 20 39 21 40 22 42 23 43 24 44 85 45 25 46
REMARK SMILES IDX 84 47 26 48 27 49 28 50 78 51 29 52 83 53 77 54 79 55 30 56
REMARK SMILES IDX 82 57 76 58 75 59 31 61 63 62 43 63 62 64 44 65 47 66 61 67
REMARK SMILES IDX 80 68 45 69 46 70 60 72 81 73 48 74 32 75 33 76 41 77 34 78
REMARK SMILES IDX 40 79 42 80 39 81 35 82 36 83 37 84 38 85 64 86 65 87 73 88
REMARK SMILES IDX 66 89 72 90 74 91 71 92 67 93 68 94 69 95 70 96 49 97 50 98
REMARK SMILES IDX 58 99 51 100 57 101 59 102 56 103 52 104 53 105 54 106
REMARK SMILES IDX 55 107
REMARK H PARENT 13 7 5 21 5 22 20 41 79 60 47 71
REMARK Flexibility Score: inf
ROOT
ATOM      1  C   UNL A   1      34.076  19.278  24.301  1.00  0.00     0.002 C 
ENDROOT
BRANCH   1   2
ATOM      2  C   UNL A   1      33.158  20.031  25.296  1.00  0.00     0.021 C 
BRANCH   2   3
ATOM      3  C   UNL A   1      32.394  21.294  24.901  1.00  0.00     0.116 C 
BRANCH   3   4
ATOM      4  N   UNL A   1      31.387  21.741  25.826  1.00  0.00    -0.354 N 
ATOM      5  C   UNL A   1      30.774  22.962  25.898  1.00  0.00     0.243 C 
ATOM      6  O   UNL A   1      29.898  23.043  26.771  1.00  0.00    -0.273 OA
ATOM      7  H   UNL A   1      31.101  21.080  26.497  1.00  0.00     0.163 HD
BRANCH   5   8
ATOM      8  C   UNL A   1      31.281  24.248  25.126  1.00  0.00     0.180 C 
ATOM      9  C   UNL A   1      31.198  25.224  22.868  1.00  0.00     0.147 C 
ATOM     10  C   UNL A   1      30.500  24.240  23.779  1.00  0.00     0.069 C 
ATOM     11  C   UNL A   1      32.650  25.093  23.299  1.00  0.00     0.156 C 
ATOM     12  N   UNL A   1      32.656  24.627  24.684  1.00  0.00    -0.293 N 
BRANCH   9  13
ATOM     13  O   UNL A   1      30.703  26.541  22.684  1.00  0.00    -0.320 OA
BRANCH  13  14
ATOM     14  C   UNL A   1      29.956  27.358  23.571  1.00  0.00     0.354 C 
ATOM     15  C   UNL A   1      29.429  30.265  23.283  1.00  0.00     0.203 C 
ATOM     16  C   UNL A   1      28.701  29.156  22.471  1.00  0.00     0.300 C 
ATOM     17  C   UNL A   1      30.436  29.747  24.296  1.00  0.00    -0.002 A 
ATOM     18  N   UNL A   1      28.694  27.808  23.023  1.00  0.00    -0.315 N 
ATOM     19  C   UNL A   1      30.686  28.368  24.423  1.00  0.00     0.046 A 
ATOM     20  C   UNL A   1      31.194  30.653  25.058  1.00  0.00     0.009 A 
ATOM     21  H   UNL A   1      28.426  27.165  22.278  1.00  0.00     0.349 HD
ATOM     22  H   UNL A   1      28.038  27.826  23.803  1.00  0.00     0.349 HD
ATOM     23  C   UNL A   1      31.632  27.919  25.366  1.00  0.00     0.033 A 
ATOM     24  C   UNL A   1      32.160  30.198  25.958  1.00  0.00     0.021 A 
ATOM     25  C   UNL A   1      32.365  28.832  26.121  1.00  0.00     0.041 A 
ATOM     26  Cl  UNL A   1      33.541  28.267  27.241  1.00  0.00    -0.084 Cl
BRANCH  15  27
ATOM     27  O   UNL A   1      28.494  31.133  23.935  1.00  0.00    -0.371 OA
ATOM     28  C   UNL A   1      27.576  31.695  22.998  1.00  0.00     0.196 C 
ENDBRANCH  15  27
ENDBRANCH  13  14
ENDBRANCH   9  13
BRANCH  12  29
ATOM     29  C   UNL A   1      33.830  24.954  25.339  1.00  0.00     0.411 C 
ATOM     30  O   UNL A   1      33.826  25.268  26.528  1.00  0.00    -0.224 OA
BRANCH  29  31
ATOM     31  O   UNL A   1      34.970  24.825  24.622  1.00  0.00    -0.444 OA
BRANCH  31  32
ATOM     32  C   UNL A   1      35.743  23.590  24.736  1.00  0.00     0.106 C 
ATOM     33  C   UNL A   1      37.237  23.926  24.663  1.00  0.00     0.056 C 
ATOM     34  C   UNL A   1      35.416  22.751  25.974  1.00  0.00     0.056 C 
ATOM     35  C   UNL A   1      35.352  22.731  23.524  1.00  0.00     0.056 C 
ENDBRANCH  31  32
ENDBRANCH  29  31
ENDBRANCH  12  29
ENDBRANCH   5   8
ENDBRANCH   3   4
ENDBRANCH   2   3
ENDBRANCH   1   2
BRANCH   1  36
ATOM     36  C   UNL A   1      35.555  18.963  24.566  1.00  0.00     0.002 C 
BRANCH  36  37
ATOM     37  C   UNL A   1      36.476  19.934  25.336  1.00  0.00     0.021 C 
BRANCH  37  38
ATOM     38  C   UNL A   1      37.872  20.301  24.816  1.00  0.00     0.116 C 
BRANCH  38  39
ATOM     39  N   UNL A   1      38.941  19.435  25.280  1.00  0.00    -0.352 N 
ATOM     40  C   UNL A   1      40.111  19.730  25.948  1.00  0.00     0.251 C 
ATOM     41  H   UNL A   1      38.808  18.479  25.087  1.00  0.00     0.163 HD
ATOM     42  O   UNL A   1      40.893  18.817  26.206  1.00  0.00    -0.269 OA
BRANCH  40  43
ATOM     43  C   UNL A   1      40.476  21.123  26.324  1.00  0.00     0.039 A 
ATOM     44  C   UNL A   1      39.539  22.160  26.359  1.00  0.00     0.014 A 
ATOM     45  C   UNL A   1      41.793  21.381  26.720  1.00  0.00     0.014 A 
ATOM     46  C   UNL A   1      39.947  23.469  26.668  1.00  0.00     0.010 A 
ATOM     47  C   UNL A   1      42.190  22.680  27.070  1.00  0.00     0.010 A 
ATOM     48  C   UNL A   1      41.282  23.750  27.009  1.00  0.00    -0.014 A 
BRANCH  48  49
ATOM     49  C   UNL A   1      41.746  25.145  27.288  1.00  0.00     0.031 A 
ATOM     50  C   UNL A   1      43.087  25.618  26.777  1.00  0.00     0.074 A 
ATOM     51  C   UNL A   1      40.984  25.993  28.009  1.00  0.00     0.049 A 
ATOM     52  N   UNL A   1      43.700  26.756  26.987  1.00  0.00    -0.248 NA
ATOM     53  C   UNL A   1      43.839  24.687  25.918  1.00  0.00     0.031 C 
ATOM     54  C   UNL A   1      39.661  25.679  28.543  1.00  0.00     0.029 A 
ATOM     55  N   UNL A   1      41.210  27.287  28.422  1.00  0.00    -0.354 N 
ATOM     56  C   UNL A   1      44.909  26.676  26.299  1.00  0.00     0.074 A 
ATOM     57  C   UNL A   1      44.958  25.363  25.694  1.00  0.00     0.031 C 
ATOM     58  C   UNL A   1      39.184  26.752  29.192  1.00  0.00     0.029 A 
ATOM     59  C   UNL A   1      40.190  27.812  29.185  1.00  0.00     0.049 A 
ATOM     60  H   UNL A   1      42.025  27.789  28.193  1.00  0.00     0.167 HD
ATOM     61  C   UNL A   1      45.878  27.615  26.171  1.00  0.00     0.034 A 
ATOM     62  C   UNL A   1      40.081  28.996  29.829  1.00  0.00     0.034 A 
ATOM     63  C   UNL A   1      45.812  28.930  26.759  1.00  0.00     0.049 A 
ATOM     64  C   UNL A   1      41.209  29.997  29.734  1.00  0.00     0.074 A 
ATOM     65  C   UNL A   1      46.736  29.956  26.653  1.00  0.00     0.029 A 
ATOM     66  N   UNL A   1      44.778  29.407  27.549  1.00  0.00    -0.354 N 
ATOM     67  N   UNL A   1      42.323  29.918  29.047  1.00  0.00    -0.248 NA
ATOM     68  C   UNL A   1      41.072  31.244  30.504  1.00  0.00     0.031 C 
ATOM     69  C   UNL A   1      46.298  31.023  27.435  1.00  0.00     0.029 A 
ATOM     70  C   UNL A   1      45.058  30.699  27.963  1.00  0.00     0.049 A 
ATOM     71  H   UNL A   1      43.964  28.903  27.782  1.00  0.00     0.167 HD
ATOM     72  C   UNL A   1      43.002  31.115  29.276  1.00  0.00     0.074 A 
ATOM     73  C   UNL A   1      42.166  31.908  30.150  1.00  0.00     0.031 C 
ATOM     74  C   UNL A   1      44.212  31.509  28.807  1.00  0.00     0.034 A 
BRANCH  61  75
ATOM     75  C   UNL A   1      47.103  27.300  25.343  1.00  0.00     0.023 A 
ATOM     76  C   UNL A   1      47.206  27.783  24.023  1.00  0.00     0.031 A 
ATOM     77  C   UNL A   1      48.069  26.383  25.791  1.00  0.00     0.131 A 
ATOM     78  C   UNL A   1      48.221  27.307  23.183  1.00  0.00     0.055 A 
ATOM     79  C   UNL A   1      49.106  25.946  24.963  1.00  0.00     0.041 A 
ATOM     80  F   UNL A   1      48.013  25.889  27.038  1.00  0.00    -0.206 F 
ATOM     81  C   UNL A   1      49.175  26.396  23.648  1.00  0.00     0.022 A 
BRANCH  78  82
ATOM     82  S   UNL A   1      48.296  27.784  21.434  1.00  0.00     0.124 S 
ATOM     83  O   UNL A   1      46.954  28.318  21.212  1.00  0.00    -0.237 OA
ATOM     84  O   UNL A   1      49.368  28.775  21.433  1.00  0.00    -0.237 OA
ATOM     85  O   UNL A   1      48.589  26.535  20.742  1.00  0.00    -0.744 OA
ENDBRANCH  78  82
ENDBRANCH  61  75
BRANCH  62  86
ATOM     86  C   UNL A   1      38.833  29.303  30.595  1.00  0.00     0.023 A 
ATOM     87  C   UNL A   1      37.885  30.221  30.106  1.00  0.00     0.031 A 
ATOM     88  C   UNL A   1      38.615  28.748  31.868  1.00  0.00     0.131 A 
ATOM     89  C   UNL A   1      36.810  30.614  30.915  1.00  0.00     0.055 A 
ATOM     90  C   UNL A   1      37.500  29.083  32.639  1.00  0.00     0.041 A 
ATOM     91  F   UNL A   1      39.491  27.872  32.382  1.00  0.00    -0.206 F 
ATOM     92  C   UNL A   1      36.601  30.037  32.171  1.00  0.00     0.022 A 
BRANCH  89  93
ATOM     93  S   UNL A   1      35.733  31.989  30.425  1.00  0.00     0.124 S 
ATOM     94  O   UNL A   1      36.681  33.091  30.301  1.00  0.00    -0.237 OA
ATOM     95  O   UNL A   1      35.172  31.495  29.171  1.00  0.00    -0.237 OA
ATOM     96  O   UNL A   1      34.784  32.092  31.529  1.00  0.00    -0.744 OA
ENDBRANCH  89  93
ENDBRANCH  62  86
BRANCH  74  97
ATOM     97  C   UNL A   1      44.744  32.872  29.187  1.00  0.00     0.023 A 
ATOM     98  C   UNL A   1      45.392  33.050  30.427  1.00  0.00     0.031 A 
ATOM     99  C   UNL A   1      44.439  34.014  28.428  1.00  0.00     0.131 A 
ATOM    100  C   UNL A   1      45.654  34.342  30.898  1.00  0.00     0.055 A 
ATOM    101  C   UNL A   1      44.754  35.298  28.878  1.00  0.00     0.041 A 
ATOM    102  F   UNL A   1      43.813  33.900  27.246  1.00  0.00    -0.206 F 
ATOM    103  C   UNL A   1      45.346  35.467  30.127  1.00  0.00     0.022 A 
BRANCH 100 104
ATOM    104  S   UNL A   1      46.307  34.615  32.570  1.00  0.00     0.124 S 
ATOM    105  O   UNL A   1      47.258  35.704  32.350  1.00  0.00    -0.237 OA
ATOM    106  O   UNL A   1      45.104  34.979  33.312  1.00  0.00    -0.237 OA
ATOM    107  O   UNL A   1      46.906  33.334  32.927  1.00  0.00    -0.744 OA
ENDBRANCH 100 104
ENDBRANCH  74  97
ENDBRANCH  48  49
ENDBRANCH  40  43
ENDBRANCH  38  39
ENDBRANCH  37  38
ENDBRANCH  36  37
ENDBRANCH   1  36
TORSDOF 22
ENDMDL
