MODEL 1
REMARK VINA RESULT:     -12.2      0.000      0.000
REMARK SMILES COc1ccc2c(c1)[C@@](NC=O)(C(=O)NCCCCCCNC(=O)c1ccc(-c3c4nc(c(-c5cc(S(=O)(=O)[O-])ccc5F)c5ccc([nH]5)c(-c5cc(S(=O)(=O)[O-])ccc5F)c5nc(c(-c6cc(S(=O)(=O)[O-])ccc6F)c6ccc3[nH]6)C=C5)C=C4)cc1)CCC2
REMARK SMILES IDX 19 1 18 2 17 3 16 4 15 5 13 6 14 7 9 9 3 10 4 11 8 12 5 13
REMARK SMILES IDX 7 14 6 15 90 16 88 17 89 18 2 19 1 20 10 21 11 22 12 24
REMARK SMILES IDX 20 25 21 26 22 27 23 28 24 30 25 31 26 32 87 33 27 34 86 35
REMARK SMILES IDX 28 36 29 37 30 38 80 39 31 40 85 41 79 42 81 43 32 44 84 45
REMARK SMILES IDX 78 46 77 47 33 49 65 50 45 51 64 52 46 53 49 54 63 55 82 56
REMARK SMILES IDX 47 57 48 58 62 60 83 61 50 62 34 63 35 64 43 65 36 66 42 67
REMARK SMILES IDX 44 68 41 69 37 70 38 71 39 72 40 73 66 74 67 75 75 76 68 77
REMARK SMILES IDX 74 78 76 79 73 80 69 81 70 82 71 83 72 84 51 85 52 86 60 87
REMARK SMILES IDX 53 88 59 89 61 90 58 91 54 92 55 93 56 94 57 95
REMARK H PARENT 15 8 10 23 22 29 81 48 49 59
REMARK Flexibility Score: inf
ROOT
ATOM      1  C   UNL A   1      31.575  30.999  26.020  1.00  0.00     0.002 C 
ENDROOT
BRANCH   1   2
ATOM      2  C   UNL A   1      32.364  29.899  26.734  1.00  0.00     0.002 C 
BRANCH   2   3
ATOM      3  C   UNL A   1      31.797  28.482  26.636  1.00  0.00     0.021 C 
BRANCH   3   4
ATOM      4  C   UNL A   1      32.753  27.408  26.129  1.00  0.00     0.116 C 
BRANCH   4   5
ATOM      5  N   UNL A   1      33.598  27.834  25.028  1.00  0.00    -0.354 N 
ATOM      6  C   UNL A   1      33.364  27.825  23.684  1.00  0.00     0.250 C 
ATOM      7  O   UNL A   1      34.191  28.440  22.990  1.00  0.00    -0.272 OA
ATOM      8  H   UNL A   1      34.479  28.183  25.294  1.00  0.00     0.163 HD
BRANCH   6   9
ATOM      9  C   UNL A   1      32.230  26.981  22.977  1.00  0.00     0.144 C 
ATOM     10  C   UNL A   1      29.547  29.661  22.444  1.00  0.00     0.119 A 
ATOM     11  C   UNL A   1      28.433  29.055  23.018  1.00  0.00     0.047 A 
ATOM     12  C   UNL A   1      30.754  28.964  22.385  1.00  0.00     0.053 A 
ATOM     13  C   UNL A   1      28.500  27.740  23.476  1.00  0.00     0.008 A 
ATOM     14  C   UNL A   1      30.863  27.663  22.919  1.00  0.00    -0.006 A 
ATOM     15  C   UNL A   1      29.702  27.024  23.409  1.00  0.00    -0.042 A 
ATOM     16  C   UNL A   1      29.726  25.614  23.947  1.00  0.00     0.036 C 
ATOM     17  C   UNL A   1      32.205  25.635  23.742  1.00  0.00     0.044 C 
ATOM     18  C   UNL A   1      30.942  24.830  23.472  1.00  0.00     0.008 C 
BRANCH  10  19
ATOM     19  O   UNL A   1      29.365  30.953  22.042  1.00  0.00    -0.497 OA
ATOM     20  C   UNL A   1      28.348  31.679  22.722  1.00  0.00     0.278 C 
ENDBRANCH  10  19
BRANCH   9  21
ATOM     21  N   UNL A   1      32.757  26.771  21.611  1.00  0.00    -0.341 N 
ATOM     22  C   UNL A   1      32.597  25.697  20.798  1.00  0.00     0.338 C 
ATOM     23  H   UNL A   1      33.295  27.509  21.243  1.00  0.00     0.164 HD
ATOM     24  O   UNL A   1      33.122  25.619  19.694  1.00  0.00    -0.279 OA
ENDBRANCH   9  21
ENDBRANCH   6   9
ENDBRANCH   4   5
ENDBRANCH   3   4
ENDBRANCH   2   3
ENDBRANCH   1   2
BRANCH   1  25
ATOM     25  C   UNL A   1      31.395  32.311  26.787  1.00  0.00     0.021 C 
BRANCH  25  26
ATOM     26  C   UNL A   1      32.646  32.867  27.459  1.00  0.00     0.116 C 
BRANCH  26  27
ATOM     27  N   UNL A   1      32.534  34.279  27.779  1.00  0.00    -0.352 N 
ATOM     28  C   UNL A   1      33.234  35.029  28.693  1.00  0.00     0.251 C 
ATOM     29  H   UNL A   1      31.855  34.773  27.265  1.00  0.00     0.163 HD
ATOM     30  O   UNL A   1      32.878  36.183  28.922  1.00  0.00    -0.269 OA
BRANCH  28  31
ATOM     31  C   UNL A   1      34.387  34.447  29.420  1.00  0.00     0.039 A 
ATOM     32  C   UNL A   1      34.168  33.865  30.670  1.00  0.00     0.014 A 
ATOM     33  C   UNL A   1      35.681  34.494  28.893  1.00  0.00     0.014 A 
ATOM     34  C   UNL A   1      35.232  33.289  31.368  1.00  0.00     0.010 A 
ATOM     35  C   UNL A   1      36.725  33.848  29.550  1.00  0.00     0.010 A 
ATOM     36  C   UNL A   1      36.518  33.251  30.803  1.00  0.00    -0.014 A 
BRANCH  36  37
ATOM     37  C   UNL A   1      37.653  32.617  31.524  1.00  0.00     0.031 A 
ATOM     38  C   UNL A   1      38.394  31.462  30.905  1.00  0.00     0.074 A 
ATOM     39  C   UNL A   1      37.989  33.046  32.756  1.00  0.00     0.049 A 
ATOM     40  N   UNL A   1      39.376  30.746  31.393  1.00  0.00    -0.248 NA
ATOM     41  C   UNL A   1      37.940  31.032  29.575  1.00  0.00     0.031 C 
ATOM     42  C   UNL A   1      37.313  34.121  33.487  1.00  0.00     0.029 A 
ATOM     43  N   UNL A   1      38.973  32.629  33.617  1.00  0.00    -0.354 N 
ATOM     44  C   UNL A   1      39.652  29.778  30.432  1.00  0.00     0.074 A 
ATOM     45  C   UNL A   1      38.674  29.949  29.378  1.00  0.00     0.031 C 
ATOM     46  C   UNL A   1      37.914  34.290  34.674  1.00  0.00     0.029 A 
ATOM     47  C   UNL A   1      38.988  33.310  34.811  1.00  0.00     0.049 A 
ATOM     48  H   UNL A   1      39.608  31.908  33.400  1.00  0.00     0.167 HD
ATOM     49  C   UNL A   1      40.645  28.852  30.416  1.00  0.00     0.034 A 
ATOM     50  C   UNL A   1      39.768  33.158  35.900  1.00  0.00     0.034 A 
ATOM     51  C   UNL A   1      41.607  28.695  31.482  1.00  0.00     0.049 A 
ATOM     52  C   UNL A   1      40.854  32.114  35.877  1.00  0.00     0.074 A 
ATOM     53  C   UNL A   1      42.683  27.827  31.555  1.00  0.00     0.029 A 
ATOM     54  N   UNL A   1      41.601  29.413  32.673  1.00  0.00    -0.354 N 
ATOM     55  N   UNL A   1      41.146  31.245  34.937  1.00  0.00    -0.248 NA
ATOM     56  C   UNL A   1      41.728  32.044  37.054  1.00  0.00     0.031 C 
ATOM     57  C   UNL A   1      43.275  27.965  32.815  1.00  0.00     0.029 A 
ATOM     58  C   UNL A   1      42.630  28.983  33.499  1.00  0.00     0.049 A 
ATOM     59  H   UNL A   1      40.958  30.125  32.898  1.00  0.00     0.167 HD
ATOM     60  C   UNL A   1      42.255  30.542  35.398  1.00  0.00     0.074 A 
ATOM     61  C   UNL A   1      42.587  31.102  36.693  1.00  0.00     0.031 C 
ATOM     62  C   UNL A   1      42.940  29.531  34.801  1.00  0.00     0.034 A 
BRANCH  49  63
ATOM     63  C   UNL A   1      40.705  27.928  29.217  1.00  0.00     0.023 A 
ATOM     64  C   UNL A   1      41.623  28.135  28.171  1.00  0.00     0.031 A 
ATOM     65  C   UNL A   1      39.789  26.870  29.080  1.00  0.00     0.131 A 
ATOM     66  C   UNL A   1      41.529  27.381  26.992  1.00  0.00     0.055 A 
ATOM     67  C   UNL A   1      39.771  26.053  27.946  1.00  0.00     0.041 A 
ATOM     68  F   UNL A   1      38.874  26.628  30.032  1.00  0.00    -0.206 F 
ATOM     69  C   UNL A   1      40.627  26.322  26.883  1.00  0.00     0.022 A 
BRANCH  66  70
ATOM     70  S   UNL A   1      42.454  27.941  25.534  1.00  0.00     0.124 S 
ATOM     71  O   UNL A   1      43.771  28.210  26.107  1.00  0.00    -0.237 OA
ATOM     72  O   UNL A   1      42.367  26.790  24.645  1.00  0.00    -0.237 OA
ATOM     73  O   UNL A   1      41.720  29.126  25.098  1.00  0.00    -0.744 OA
ENDBRANCH  66  70
ENDBRANCH  49  63
BRANCH  50  74
ATOM     74  C   UNL A   1      39.534  34.004  37.105  1.00  0.00     0.023 A 
ATOM     75  C   UNL A   1      38.905  33.494  38.251  1.00  0.00     0.031 A 
ATOM     76  C   UNL A   1      39.947  35.350  37.122  1.00  0.00     0.131 A 
ATOM     77  C   UNL A   1      38.680  34.330  39.356  1.00  0.00     0.055 A 
ATOM     78  C   UNL A   1      39.766  36.163  38.241  1.00  0.00     0.041 A 
ATOM     79  F   UNL A   1      40.560  35.885  36.054  1.00  0.00    -0.206 F 
ATOM     80  C   UNL A   1      39.121  35.656  39.365  1.00  0.00     0.022 A 
BRANCH  77  81
ATOM     81  S   UNL A   1      37.752  33.677  40.771  1.00  0.00     0.124 S 
ATOM     82  O   UNL A   1      38.743  32.812  41.401  1.00  0.00    -0.237 OA
ATOM     83  O   UNL A   1      37.408  34.894  41.498  1.00  0.00    -0.237 OA
ATOM     84  O   UNL A   1      36.625  32.986  40.149  1.00  0.00    -0.744 OA
ENDBRANCH  77  81
ENDBRANCH  50  74
BRANCH  62  85
ATOM     85  C   UNL A   1      44.148  28.993  35.534  1.00  0.00     0.023 A 
ATOM     86  C   UNL A   1      44.037  28.007  36.531  1.00  0.00     0.031 A 
ATOM     87  C   UNL A   1      45.431  29.489  35.240  1.00  0.00     0.131 A 
ATOM     88  C   UNL A   1      45.177  27.596  37.240  1.00  0.00     0.055 A 
ATOM     89  C   UNL A   1      46.570  29.025  35.900  1.00  0.00     0.041 A 
ATOM     90  F   UNL A   1      45.600  30.435  34.303  1.00  0.00    -0.206 F 
ATOM     91  C   UNL A   1      46.445  28.084  36.917  1.00  0.00     0.022 A 
BRANCH  88  92
ATOM     92  S   UNL A   1      44.966  26.499  38.669  1.00  0.00     0.124 S 
ATOM     93  O   UNL A   1      45.516  25.242  38.170  1.00  0.00    -0.237 OA
ATOM     94  O   UNL A   1      45.749  27.173  39.699  1.00  0.00    -0.237 OA
ATOM     95  O   UNL A   1      43.520  26.497  38.890  1.00  0.00    -0.744 OA
ENDBRANCH  88  92
ENDBRANCH  62  85
ENDBRANCH  36  37
ENDBRANCH  28  31
ENDBRANCH  26  27
ENDBRANCH  25  26
ENDBRANCH   1  25
TORSDOF 18
ENDMDL
MODEL 2
REMARK VINA RESULT:     -12.1      6.589     11.690
REMARK SMILES COc1ccc2c(c1)[C@@](NC=O)(C(=O)NCCCCCCNC(=O)c1ccc(-c3c4nc(c(-c5cc(S(=O)(=O)[O-])ccc5F)c5ccc([nH]5)c(-c5cc(S(=O)(=O)[O-])ccc5F)c5nc(c(-c6cc(S(=O)(=O)[O-])ccc6F)c6ccc3[nH]6)C=C5)C=C4)cc1)CCC2
REMARK SMILES IDX 19 1 18 2 17 3 16 4 15 5 13 6 14 7 9 9 3 10 4 11 8 12 5 13
REMARK SMILES IDX 7 14 6 15 90 16 88 17 89 18 2 19 1 20 10 21 11 22 12 24
REMARK SMILES IDX 20 25 21 26 22 27 23 28 24 30 25 31 26 32 87 33 27 34 86 35
REMARK SMILES IDX 28 36 29 37 30 38 80 39 31 40 85 41 79 42 81 43 32 44 84 45
REMARK SMILES IDX 78 46 77 47 33 49 65 50 45 51 64 52 46 53 49 54 63 55 82 56
REMARK SMILES IDX 47 57 48 58 62 60 83 61 50 62 34 63 35 64 43 65 36 66 42 67
REMARK SMILES IDX 44 68 41 69 37 70 38 71 39 72 40 73 66 74 67 75 75 76 68 77
REMARK SMILES IDX 74 78 76 79 73 80 69 81 70 82 71 83 72 84 51 85 52 86 60 87
REMARK SMILES IDX 53 88 59 89 61 90 58 91 54 92 55 93 56 94 57 95
REMARK H PARENT 15 8 10 23 22 29 81 48 49 59
REMARK Flexibility Score: inf
ROOT
ATOM      1  C   UNL A   1      36.243  20.526  25.035  1.00  0.00     0.002 C 
ENDROOT
BRANCH   1   2
ATOM      2  C   UNL A   1      36.026  21.764  24.163  1.00  0.00     0.002 C 
BRANCH   2   3
ATOM      3  C   UNL A   1      36.553  23.088  24.718  1.00  0.00     0.021 C 
BRANCH   3   4
ATOM      4  C   UNL A   1      35.539  23.964  25.445  1.00  0.00     0.116 C 
BRANCH   4   5
ATOM      5  N   UNL A   1      35.050  23.400  26.690  1.00  0.00    -0.354 N 
ATOM      6  C   UNL A   1      33.828  22.876  27.001  1.00  0.00     0.250 C 
ATOM      7  O   UNL A   1      33.759  22.281  28.089  1.00  0.00    -0.272 OA
ATOM      8  H   UNL A   1      35.703  23.396  27.428  1.00  0.00     0.163 HD
BRANCH   6   9
ATOM      9  C   UNL A   1      32.513  23.108  26.156  1.00  0.00     0.144 C 
ATOM     10  C   UNL A   1      32.466  19.949  23.993  1.00  0.00     0.119 A 
ATOM     11  C   UNL A   1      32.340  20.489  22.717  1.00  0.00     0.047 A 
ATOM     12  C   UNL A   1      32.465  20.796  25.101  1.00  0.00     0.053 A 
ATOM     13  C   UNL A   1      32.152  21.860  22.544  1.00  0.00     0.008 A 
ATOM     14  C   UNL A   1      32.361  22.193  24.941  1.00  0.00    -0.006 A 
ATOM     15  C   UNL A   1      32.135  22.720  23.649  1.00  0.00    -0.042 A 
ATOM     16  C   UNL A   1      31.960  24.199  23.403  1.00  0.00     0.036 C 
ATOM     17  C   UNL A   1      32.542  24.611  25.786  1.00  0.00     0.044 C 
ATOM     18  C   UNL A   1      31.573  24.958  24.665  1.00  0.00     0.008 C 
BRANCH  10  19
ATOM     19  O   UNL A   1      32.655  18.597  24.038  1.00  0.00    -0.497 OA
ATOM     20  C   UNL A   1      32.467  17.902  22.811  1.00  0.00     0.278 C 
ENDBRANCH  10  19
BRANCH   9  21
ATOM     21  N   UNL A   1      31.429  22.853  27.130  1.00  0.00    -0.341 N 
ATOM     22  C   UNL A   1      30.090  22.989  26.959  1.00  0.00     0.338 C 
ATOM     23  H   UNL A   1      31.718  22.544  28.019  1.00  0.00     0.164 HD
ATOM     24  O   UNL A   1      29.285  22.787  27.861  1.00  0.00    -0.279 OA
ENDBRANCH   9  21
ENDBRANCH   6   9
ENDBRANCH   4   5
ENDBRANCH   3   4
ENDBRANCH   2   3
ENDBRANCH   1   2
BRANCH   1  25
ATOM     25  C   UNL A   1      37.589  19.813  24.878  1.00  0.00     0.021 C 
BRANCH  25  26
ATOM     26  C   UNL A   1      38.724  20.331  25.755  1.00  0.00     0.116 C 
BRANCH  26  27
ATOM     27  N   UNL A   1      39.799  19.368  25.914  1.00  0.00    -0.352 N 
ATOM     28  C   UNL A   1      41.132  19.577  26.170  1.00  0.00     0.251 C 
ATOM     29  H   UNL A   1      39.533  18.424  25.824  1.00  0.00     0.163 HD
ATOM     30  O   UNL A   1      41.911  18.627  26.114  1.00  0.00    -0.269 OA
BRANCH  28  31
ATOM     31  C   UNL A   1      41.636  20.935  26.480  1.00  0.00     0.039 A 
ATOM     32  C   UNL A   1      41.846  21.830  25.428  1.00  0.00     0.014 A 
ATOM     33  C   UNL A   1      41.926  21.324  27.791  1.00  0.00     0.014 A 
ATOM     34  C   UNL A   1      42.300  23.124  25.694  1.00  0.00     0.010 A 
ATOM     35  C   UNL A   1      42.298  22.639  28.063  1.00  0.00     0.010 A 
ATOM     36  C   UNL A   1      42.505  23.551  27.017  1.00  0.00    -0.014 A 
BRANCH  36  37
ATOM     37  C   UNL A   1      42.961  24.935  27.314  1.00  0.00     0.031 A 
ATOM     38  C   UNL A   1      42.030  25.913  27.977  1.00  0.00     0.074 A 
ATOM     39  C   UNL A   1      44.196  25.328  26.944  1.00  0.00     0.049 A 
ATOM     40  N   UNL A   1      42.223  27.174  28.274  1.00  0.00    -0.248 NA
ATOM     41  C   UNL A   1      40.689  25.415  28.313  1.00  0.00     0.031 C 
ATOM     42  C   UNL A   1      45.173  24.489  26.246  1.00  0.00     0.029 A 
ATOM     43  N   UNL A   1      44.838  26.531  27.093  1.00  0.00    -0.354 N 
ATOM     44  C   UNL A   1      41.026  27.620  28.826  1.00  0.00     0.074 A 
ATOM     45  C   UNL A   1      40.092  26.517  28.739  1.00  0.00     0.031 C 
ATOM     46  C   UNL A   1      46.295  25.197  26.045  1.00  0.00     0.029 A 
ATOM     47  C   UNL A   1      46.105  26.550  26.558  1.00  0.00     0.049 A 
ATOM     48  H   UNL A   1      44.431  27.308  27.539  1.00  0.00     0.167 HD
ATOM     49  C   UNL A   1      40.740  28.826  29.382  1.00  0.00     0.034 A 
ATOM     50  C   UNL A   1      47.010  27.547  26.477  1.00  0.00     0.034 A 
ATOM     51  C   UNL A   1      41.685  29.915  29.453  1.00  0.00     0.049 A 
ATOM     52  C   UNL A   1      46.673  28.886  27.080  1.00  0.00     0.074 A 
ATOM     53  C   UNL A   1      41.526  31.162  30.033  1.00  0.00     0.029 A 
ATOM     54  N   UNL A   1      42.967  29.895  28.913  1.00  0.00    -0.354 N 
ATOM     55  N   UNL A   1      45.560  29.277  27.656  1.00  0.00    -0.248 NA
ATOM     56  C   UNL A   1      47.723  29.911  27.039  1.00  0.00     0.031 C 
ATOM     57  C   UNL A   1      42.674  31.919  29.774  1.00  0.00     0.029 A 
ATOM     58  C   UNL A   1      43.592  31.118  29.114  1.00  0.00     0.049 A 
ATOM     59  H   UNL A   1      43.372  29.124  28.453  1.00  0.00     0.167 HD
ATOM     60  C   UNL A   1      45.785  30.587  28.070  1.00  0.00     0.074 A 
ATOM     61  C   UNL A   1      47.146  30.910  27.691  1.00  0.00     0.031 C 
ATOM     62  C   UNL A   1      44.944  31.440  28.711  1.00  0.00     0.034 A 
BRANCH  49  63
ATOM     63  C   UNL A   1      39.337  29.022  29.918  1.00  0.00     0.023 A 
ATOM     64  C   UNL A   1      38.364  29.736  29.195  1.00  0.00     0.031 A 
ATOM     65  C   UNL A   1      38.985  28.554  31.197  1.00  0.00     0.131 A 
ATOM     66  C   UNL A   1      37.139  30.063  29.796  1.00  0.00     0.055 A 
ATOM     67  C   UNL A   1      37.723  28.792  31.748  1.00  0.00     0.041 A 
ATOM     68  F   UNL A   1      39.871  27.881  31.948  1.00  0.00    -0.206 F 
ATOM     69  C   UNL A   1      36.800  29.572  31.058  1.00  0.00     0.022 A 
BRANCH  66  70
ATOM     70  S   UNL A   1      36.090  31.309  28.994  1.00  0.00     0.124 S 
ATOM     71  O   UNL A   1      35.291  31.789  30.120  1.00  0.00    -0.237 OA
ATOM     72  O   UNL A   1      37.069  32.247  28.459  1.00  0.00    -0.237 OA
ATOM     73  O   UNL A   1      35.348  30.541  27.998  1.00  0.00    -0.744 OA
ENDBRANCH  66  70
ENDBRANCH  49  63
BRANCH  50  74
ATOM     74  C   UNL A   1      48.309  27.314  25.785  1.00  0.00     0.023 A 
ATOM     75  C   UNL A   1      48.439  27.467  24.395  1.00  0.00     0.031 A 
ATOM     76  C   UNL A   1      49.451  26.936  26.516  1.00  0.00     0.131 A 
ATOM     77  C   UNL A   1      49.674  27.215  23.776  1.00  0.00     0.055 A 
ATOM     78  C   UNL A   1      50.688  26.736  25.903  1.00  0.00     0.041 A 
ATOM     79  F   UNL A   1      49.383  26.784  27.849  1.00  0.00    -0.206 F 
ATOM     80  C   UNL A   1      50.803  26.867  24.523  1.00  0.00     0.022 A 
BRANCH  77  81
ATOM     81  S   UNL A   1      49.777  27.297  21.967  1.00  0.00     0.124 S 
ATOM     82  O   UNL A   1      48.703  26.396  21.568  1.00  0.00    -0.237 OA
ATOM     83  O   UNL A   1      49.552  28.715  21.714  1.00  0.00    -0.237 OA
ATOM     84  O   UNL A   1      51.129  26.822  21.682  1.00  0.00    -0.744 OA
ENDBRANCH  77  81
ENDBRANCH  50  74
BRANCH  62  85
ATOM     85  C   UNL A   1      45.494  32.800  29.080  1.00  0.00     0.023 A 
ATOM     86  C   UNL A   1      45.450  33.888  28.189  1.00  0.00     0.031 A 
ATOM     87  C   UNL A   1      46.088  33.004  30.338  1.00  0.00     0.131 A 
ATOM     88  C   UNL A   1      46.046  35.109  28.545  1.00  0.00     0.055 A 
ATOM     89  C   UNL A   1      46.616  34.240  30.713  1.00  0.00     0.041 A 
ATOM     90  F   UNL A   1      46.164  32.002  31.229  1.00  0.00    -0.206 F 
ATOM     91  C   UNL A   1      46.610  35.297  29.809  1.00  0.00     0.022 A 
BRANCH  88  92
ATOM     92  S   UNL A   1      46.175  36.413  27.292  1.00  0.00     0.124 S 
ATOM     93  O   UNL A   1      44.973  37.200  27.547  1.00  0.00    -0.237 OA
ATOM     94  O   UNL A   1      47.441  37.052  27.636  1.00  0.00    -0.237 OA
ATOM     95  O   UNL A   1      46.176  35.676  26.028  1.00  0.00    -0.744 OA
ENDBRANCH  88  92
ENDBRANCH  62  85
ENDBRANCH  36  37
ENDBRANCH  28  31
ENDBRANCH  26  27
ENDBRANCH  25  26
ENDBRANCH   1  25
TORSDOF 18
ENDMDL
MODEL 3
REMARK VINA RESULT:     -12.0      1.621      1.832
REMARK SMILES COc1ccc2c(c1)[C@@](NC=O)(C(=O)NCCCCCCNC(=O)c1ccc(-c3c4nc(c(-c5cc(S(=O)(=O)[O-])ccc5F)c5ccc([nH]5)c(-c5cc(S(=O)(=O)[O-])ccc5F)c5nc(c(-c6cc(S(=O)(=O)[O-])ccc6F)c6ccc3[nH]6)C=C5)C=C4)cc1)CCC2
REMARK SMILES IDX 19 1 18 2 17 3 16 4 15 5 13 6 14 7 9 9 3 10 4 11 8 12 5 13
REMARK SMILES IDX 7 14 6 15 90 16 88 17 89 18 2 19 1 20 10 21 11 22 12 24
REMARK SMILES IDX 20 25 21 26 22 27 23 28 24 30 25 31 26 32 87 33 27 34 86 35
REMARK SMILES IDX 28 36 29 37 30 38 80 39 31 40 85 41 79 42 81 43 32 44 84 45
REMARK SMILES IDX 78 46 77 47 33 49 65 50 45 51 64 52 46 53 49 54 63 55 82 56
REMARK SMILES IDX 47 57 48 58 62 60 83 61 50 62 34 63 35 64 43 65 36 66 42 67
REMARK SMILES IDX 44 68 41 69 37 70 38 71 39 72 40 73 66 74 67 75 75 76 68 77
REMARK SMILES IDX 74 78 76 79 73 80 69 81 70 82 71 83 72 84 51 85 52 86 60 87
REMARK SMILES IDX 53 88 59 89 61 90 58 91 54 92 55 93 56 94 57 95
REMARK H PARENT 15 8 10 23 22 29 81 48 49 59
REMARK Flexibility Score: inf
ROOT
ATOM      1  C   UNL A   1      31.359  30.486  25.982  1.00  0.00     0.002 C 
ENDROOT
BRANCH   1   2
ATOM      2  C   UNL A   1      32.245  29.539  26.795  1.00  0.00     0.002 C 
BRANCH   2   3
ATOM      3  C   UNL A   1      31.818  28.071  26.829  1.00  0.00     0.021 C 
BRANCH   3   4
ATOM      4  C   UNL A   1      32.662  27.105  26.005  1.00  0.00     0.116 C 
BRANCH   4   5
ATOM      5  N   UNL A   1      33.333  27.718  24.873  1.00  0.00    -0.354 N 
ATOM      6  C   UNL A   1      32.904  27.906  23.591  1.00  0.00     0.250 C 
ATOM      7  O   UNL A   1      33.617  28.643  22.889  1.00  0.00    -0.272 OA
ATOM      8  H   UNL A   1      34.242  28.049  25.059  1.00  0.00     0.163 HD
BRANCH   6   9
ATOM      9  C   UNL A   1      31.684  27.147  22.933  1.00  0.00     0.144 C 
ATOM     10  C   UNL A   1      29.225  30.034  22.403  1.00  0.00     0.119 A 
ATOM     11  C   UNL A   1      28.080  29.538  23.019  1.00  0.00     0.047 A 
ATOM     12  C   UNL A   1      30.367  29.236  22.331  1.00  0.00     0.053 A 
ATOM     13  C   UNL A   1      28.047  28.232  23.507  1.00  0.00     0.008 A 
ATOM     14  C   UNL A   1      30.380  27.942  22.893  1.00  0.00    -0.006 A 
ATOM     15  C   UNL A   1      29.182  27.415  23.427  1.00  0.00    -0.042 A 
ATOM     16  C   UNL A   1      29.101  26.021  23.999  1.00  0.00     0.036 C 
ATOM     17  C   UNL A   1      31.567  25.825  23.731  1.00  0.00     0.044 C 
ATOM     18  C   UNL A   1      30.233  25.125  23.512  1.00  0.00     0.008 C 
BRANCH  10  19
ATOM     19  O   UNL A   1      29.143  31.328  21.975  1.00  0.00    -0.497 OA
ATOM     20  C   UNL A   1      28.319  31.554  20.837  1.00  0.00     0.278 C 
ENDBRANCH  10  19
BRANCH   9  21
ATOM     21  N   UNL A   1      32.155  26.863  21.560  1.00  0.00    -0.341 N 
ATOM     22  C   UNL A   1      32.522  25.674  21.020  1.00  0.00     0.338 C 
ATOM     23  H   UNL A   1      32.209  27.641  20.958  1.00  0.00     0.164 HD
ATOM     24  O   UNL A   1      32.939  25.569  19.873  1.00  0.00    -0.279 OA
ENDBRANCH   9  21
ENDBRANCH   6   9
ENDBRANCH   4   5
ENDBRANCH   3   4
ENDBRANCH   2   3
ENDBRANCH   1   2
BRANCH   1  25
ATOM     25  C   UNL A   1      31.381  31.959  26.399  1.00  0.00     0.021 C 
BRANCH  25  26
ATOM     26  C   UNL A   1      32.607  32.411  27.186  1.00  0.00     0.116 C 
BRANCH  26  27
ATOM     27  N   UNL A   1      32.555  33.814  27.556  1.00  0.00    -0.352 N 
ATOM     28  C   UNL A   1      33.313  34.509  28.466  1.00  0.00     0.251 C 
ATOM     29  H   UNL A   1      31.874  34.347  27.085  1.00  0.00     0.163 HD
ATOM     30  O   UNL A   1      33.006  35.666  28.746  1.00  0.00    -0.269 OA
BRANCH  28  31
ATOM     31  C   UNL A   1      34.473  33.867  29.128  1.00  0.00     0.039 A 
ATOM     32  C   UNL A   1      34.235  32.914  30.121  1.00  0.00     0.014 A 
ATOM     33  C   UNL A   1      35.786  34.213  28.798  1.00  0.00     0.014 A 
ATOM     34  C   UNL A   1      35.309  32.276  30.747  1.00  0.00     0.010 A 
ATOM     35  C   UNL A   1      36.853  33.518  29.363  1.00  0.00     0.010 A 
ATOM     36  C   UNL A   1      36.630  32.552  30.355  1.00  0.00    -0.014 A 
BRANCH  36  37
ATOM     37  C   UNL A   1      37.779  31.860  30.995  1.00  0.00     0.031 A 
ATOM     38  C   UNL A   1      38.544  30.806  30.240  1.00  0.00     0.074 A 
ATOM     39  C   UNL A   1      38.107  32.142  32.271  1.00  0.00     0.049 A 
ATOM     40  N   UNL A   1      39.543  30.057  30.637  1.00  0.00    -0.248 NA
ATOM     41  C   UNL A   1      38.098  30.532  28.866  1.00  0.00     0.031 C 
ATOM     42  C   UNL A   1      37.409  33.104  33.126  1.00  0.00     0.029 A 
ATOM     43  N   UNL A   1      39.101  31.644  33.075  1.00  0.00    -0.354 N 
ATOM     44  C   UNL A   1      39.839  29.221  29.566  1.00  0.00     0.074 A 
ATOM     45  C   UNL A   1      38.856  29.498  28.539  1.00  0.00     0.031 C 
ATOM     46  C   UNL A   1      38.007  33.139  34.327  1.00  0.00     0.029 A 
ATOM     47  C   UNL A   1      39.102  32.173  34.344  1.00  0.00     0.049 A 
ATOM     48  H   UNL A   1      39.751  30.969  32.772  1.00  0.00     0.167 HD
ATOM     49  C   UNL A   1      40.852  28.326  29.437  1.00  0.00     0.034 A 
ATOM     50  C   UNL A   1      39.887  31.906  35.407  1.00  0.00     0.034 A 
ATOM     51  C   UNL A   1      41.818  28.060  30.478  1.00  0.00     0.049 A 
ATOM     52  C   UNL A   1      40.996  30.897  35.258  1.00  0.00     0.074 A 
ATOM     53  C   UNL A   1      42.913  27.214  30.445  1.00  0.00     0.029 A 
ATOM     54  N   UNL A   1      41.798  28.627  31.748  1.00  0.00    -0.354 N 
ATOM     55  N   UNL A   1      41.305  30.157  34.219  1.00  0.00    -0.248 NA
ATOM     56  C   UNL A   1      41.872  30.702  36.419  1.00  0.00     0.031 C 
ATOM     57  C   UNL A   1      43.504  27.208  31.714  1.00  0.00     0.029 A 
ATOM     58  C   UNL A   1      42.837  28.121  32.516  1.00  0.00     0.049 A 
ATOM     59  H   UNL A   1      41.139  29.291  32.058  1.00  0.00     0.167 HD
ATOM     60  C   UNL A   1      42.430  29.427  34.592  1.00  0.00     0.074 A 
ATOM     61  C   UNL A   1      42.751  29.830  35.947  1.00  0.00     0.031 C 
ATOM     62  C   UNL A   1      43.136  28.512  33.877  1.00  0.00     0.034 A 
BRANCH  49  63
ATOM     63  C   UNL A   1      40.931  27.557  28.135  1.00  0.00     0.023 A 
ATOM     64  C   UNL A   1      40.550  26.205  28.053  1.00  0.00     0.031 A 
ATOM     65  C   UNL A   1      41.459  28.156  26.978  1.00  0.00     0.131 A 
ATOM     66  C   UNL A   1      40.811  25.469  26.887  1.00  0.00     0.055 A 
ATOM     67  C   UNL A   1      41.617  27.444  25.785  1.00  0.00     0.041 A 
ATOM     68  F   UNL A   1      41.859  29.437  26.991  1.00  0.00    -0.206 F 
ATOM     69  C   UNL A   1      41.317  26.087  25.742  1.00  0.00     0.022 A 
BRANCH  66  70
ATOM     70  S   UNL A   1      40.678  23.661  26.961  1.00  0.00     0.124 S 
ATOM     71  O   UNL A   1      41.011  23.398  28.360  1.00  0.00    -0.237 OA
ATOM     72  O   UNL A   1      39.291  23.431  26.580  1.00  0.00    -0.237 OA
ATOM     73  O   UNL A   1      41.677  23.204  25.997  1.00  0.00    -0.744 OA
ENDBRANCH  66  70
ENDBRANCH  49  63
BRANCH  50  74
ATOM     74  C   UNL A   1      39.636  32.593  36.706  1.00  0.00     0.023 A 
ATOM     75  C   UNL A   1      38.626  32.164  37.581  1.00  0.00     0.031 A 
ATOM     76  C   UNL A   1      40.417  33.698  37.092  1.00  0.00     0.131 A 
ATOM     77  C   UNL A   1      38.404  32.854  38.784  1.00  0.00     0.055 A 
ATOM     78  C   UNL A   1      40.226  34.349  38.311  1.00  0.00     0.041 A 
ATOM     79  F   UNL A   1      41.402  34.144  36.294  1.00  0.00    -0.206 F 
ATOM     80  C   UNL A   1      39.208  33.932  39.162  1.00  0.00     0.022 A 
BRANCH  77  81
ATOM     81  S   UNL A   1      37.010  32.354  39.833  1.00  0.00     0.124 S 
ATOM     82  O   UNL A   1      37.490  31.093  40.383  1.00  0.00    -0.237 OA
ATOM     83  O   UNL A   1      36.918  33.470  40.768  1.00  0.00    -0.237 OA
ATOM     84  O   UNL A   1      35.899  32.242  38.890  1.00  0.00    -0.744 OA
ENDBRANCH  77  81
ENDBRANCH  50  74
BRANCH  62  85
ATOM     85  C   UNL A   1      44.357  27.915  34.540  1.00  0.00     0.023 A 
ATOM     86  C   UNL A   1      44.292  26.723  35.285  1.00  0.00     0.031 A 
ATOM     87  C   UNL A   1      45.603  28.559  34.437  1.00  0.00     0.131 A 
ATOM     88  C   UNL A   1      45.435  26.250  35.949  1.00  0.00     0.055 A 
ATOM     89  C   UNL A   1      46.751  28.045  35.042  1.00  0.00     0.041 A 
ATOM     90  F   UNL A   1      45.726  29.702  33.744  1.00  0.00    -0.206 F 
ATOM     91  C   UNL A   1      46.668  26.892  35.816  1.00  0.00     0.022 A 
BRANCH  88  92
ATOM     92  S   UNL A   1      45.263  24.846  37.085  1.00  0.00     0.124 S 
ATOM     93  O   UNL A   1      45.119  23.725  36.161  1.00  0.00    -0.237 OA
ATOM     94  O   UNL A   1      46.514  24.897  37.835  1.00  0.00    -0.237 OA
ATOM     95  O   UNL A   1      44.064  25.172  37.855  1.00  0.00    -0.744 OA
ENDBRANCH  88  92
ENDBRANCH  62  85
ENDBRANCH  36  37
ENDBRANCH  28  31
ENDBRANCH  26  27
ENDBRANCH  25  26
ENDBRANCH   1  25
TORSDOF 18
ENDMDL
