MODEL 1
REMARK VINA RESULT:     -10.3      0.000      0.000
REMARK SMILES CCCC[C@@](CC)(C[C@H]1CCOC1)C(=O)NCCCCCCNC(=O)c1ccc(-c2c3nc(c(-c4cc(S(=O)(=O)[O-])ccc4F)c4ccc([nH]4)c(-c4cc(S(=O)(=O)[O-])ccc4F)c4nc(c(-c5cc(S(=O)(=O)[O-])ccc5F)c5ccc2[nH]5)C=C4)C=C3)cc1
REMARK SMILES IDX 19 1 18 2 17 3 16 4 14 5 15 6 5 8 4 9 3 10 2 11 1 12 6 13
REMARK SMILES IDX 7 14 8 15 9 16 10 17 13 18 11 19 12 20 20 21 21 22 22 23
REMARK SMILES IDX 23 24 24 25 25 27 26 28 27 29 88 30 28 31 87 32 29 33 30 34
REMARK SMILES IDX 31 35 81 36 32 37 86 38 80 39 82 40 33 41 85 42 79 43 78 44
REMARK SMILES IDX 34 46 66 47 46 48 65 49 47 50 50 51 64 52 83 53 48 54 49 55
REMARK SMILES IDX 63 57 84 58 51 59 35 60 36 61 44 62 37 63 43 64 45 65 42 66
REMARK SMILES IDX 38 67 39 68 40 69 41 70 67 71 68 72 76 73 69 74 75 75 77 76
REMARK SMILES IDX 74 77 70 78 71 79 72 80 73 81 52 82 53 83 61 84 54 85 60 86
REMARK SMILES IDX 62 87 59 88 55 89 56 90 57 91 58 92
REMARK H PARENT 16 7 23 26 82 45 50 56
REMARK Flexibility Score: inf
ROOT
ATOM      1  C   UNL A   1      32.882  29.870  25.991  1.00  0.00     0.002 C 
ENDROOT
BRANCH   1   2
ATOM      2  C   UNL A   1      32.623  28.560  25.238  1.00  0.00     0.021 C 
BRANCH   2   3
ATOM      3  C   UNL A   1      33.897  27.813  24.844  1.00  0.00     0.116 C 
BRANCH   3   4
ATOM      4  N   UNL A   1      33.781  27.311  23.489  1.00  0.00    -0.356 N 
ATOM      5  C   UNL A   1      33.488  26.088  22.982  1.00  0.00     0.226 C 
ATOM      6  O   UNL A   1      33.884  25.910  21.829  1.00  0.00    -0.274 OA
ATOM      7  H   UNL A   1      33.946  27.994  22.799  1.00  0.00     0.163 HD
BRANCH   5   8
ATOM      8  C   UNL A   1      32.756  24.990  23.791  1.00  0.00     0.049 C 
BRANCH   8   9
ATOM      9  C   UNL A   1      32.938  25.180  25.341  1.00  0.00     0.017 C 
BRANCH   9  10
ATOM     10  C   UNL A   1      31.783  24.844  26.310  1.00  0.00     0.001 C 
BRANCH  10  11
ATOM     11  C   UNL A   1      31.681  23.410  26.838  1.00  0.00    -0.003 C 
ATOM     12  C   UNL A   1      30.626  22.559  26.141  1.00  0.00     0.004 C 
ENDBRANCH  10  11
ENDBRANCH   9  10
ENDBRANCH   8   9
BRANCH   8  13
ATOM     13  C   UNL A   1      33.369  23.612  23.362  1.00  0.00     0.013 C 
ATOM     14  C   UNL A   1      32.402  22.552  22.852  1.00  0.00     0.005 C 
ENDBRANCH   8  13
BRANCH   8  15
ATOM     15  C   UNL A   1      31.218  25.076  23.487  1.00  0.00     0.023 C 
BRANCH  15  16
ATOM     16  C   UNL A   1      30.498  26.437  23.620  1.00  0.00     0.018 C 
ATOM     17  C   UNL A   1      30.469  27.395  22.446  1.00  0.00     0.034 C 
ATOM     18  C   UNL A   1      28.998  26.277  23.870  1.00  0.00     0.163 C 
ATOM     19  C   UNL A   1      29.328  28.320  22.812  1.00  0.00     0.160 C 
ATOM     20  O   UNL A   1      28.389  27.538  23.560  1.00  0.00    -0.381 OA
ENDBRANCH  15  16
ENDBRANCH   8  15
ENDBRANCH   5   8
ENDBRANCH   3   4
ENDBRANCH   2   3
ENDBRANCH   1   2
BRANCH   1  21
ATOM     21  C   UNL A   1      31.656  30.450  26.703  1.00  0.00     0.002 C 
BRANCH  21  22
ATOM     22  C   UNL A   1      31.608  31.978  26.743  1.00  0.00     0.021 C 
BRANCH  22  23
ATOM     23  C   UNL A   1      32.841  32.626  27.357  1.00  0.00     0.116 C 
BRANCH  23  24
ATOM     24  N   UNL A   1      32.622  34.033  27.640  1.00  0.00    -0.352 N 
ATOM     25  C   UNL A   1      33.170  34.802  28.634  1.00  0.00     0.251 C 
ATOM     26  H   UNL A   1      31.997  34.497  27.037  1.00  0.00     0.163 HD
ATOM     27  O   UNL A   1      32.700  35.911  28.882  1.00  0.00    -0.269 OA
BRANCH  25  28
ATOM     28  C   UNL A   1      34.308  34.275  29.417  1.00  0.00     0.039 A 
ATOM     29  C   UNL A   1      34.052  33.446  30.510  1.00  0.00     0.014 A 
ATOM     30  C   UNL A   1      35.623  34.588  29.061  1.00  0.00     0.014 A 
ATOM     31  C   UNL A   1      35.121  32.887  31.213  1.00  0.00     0.010 A 
ATOM     32  C   UNL A   1      36.683  33.964  29.710  1.00  0.00     0.010 A 
ATOM     33  C   UNL A   1      36.444  33.113  30.799  1.00  0.00    -0.014 A 
BRANCH  33  34
ATOM     34  C   UNL A   1      37.587  32.476  31.502  1.00  0.00     0.031 A 
ATOM     35  C   UNL A   1      38.317  31.323  30.866  1.00  0.00     0.074 A 
ATOM     36  C   UNL A   1      37.939  32.905  32.731  1.00  0.00     0.049 A 
ATOM     37  N   UNL A   1      39.296  30.599  31.342  1.00  0.00    -0.248 NA
ATOM     38  C   UNL A   1      37.863  30.915  29.528  1.00  0.00     0.031 C 
ATOM     39  C   UNL A   1      37.286  33.992  33.464  1.00  0.00     0.029 A 
ATOM     40  N   UNL A   1      38.928  32.480  33.583  1.00  0.00    -0.354 N 
ATOM     41  C   UNL A   1      39.573  29.647  30.366  1.00  0.00     0.074 A 
ATOM     42  C   UNL A   1      38.609  29.844  29.305  1.00  0.00     0.031 C 
ATOM     43  C   UNL A   1      37.912  34.169  34.639  1.00  0.00     0.029 A 
ATOM     44  C   UNL A   1      38.973  33.176  34.770  1.00  0.00     0.049 A 
ATOM     45  H   UNL A   1      39.546  31.747  33.366  1.00  0.00     0.167 HD
ATOM     46  C   UNL A   1      40.558  28.715  30.345  1.00  0.00     0.034 A 
ATOM     47  C   UNL A   1      39.769  33.022  35.847  1.00  0.00     0.034 A 
ATOM     48  C   UNL A   1      41.512  28.535  31.412  1.00  0.00     0.049 A 
ATOM     49  C   UNL A   1      40.825  31.945  35.820  1.00  0.00     0.074 A 
ATOM     50  C   UNL A   1      42.573  27.649  31.478  1.00  0.00     0.029 A 
ATOM     51  N   UNL A   1      41.517  29.246  32.605  1.00  0.00    -0.354 N 
ATOM     52  N   UNL A   1      41.103  31.083  34.869  1.00  0.00    -0.248 NA
ATOM     53  C   UNL A   1      41.680  31.826  37.008  1.00  0.00     0.031 C 
ATOM     54  C   UNL A   1      43.168  27.769  32.738  1.00  0.00     0.029 A 
ATOM     55  C   UNL A   1      42.539  28.794  33.426  1.00  0.00     0.049 A 
ATOM     56  H   UNL A   1      40.886  29.966  32.836  1.00  0.00     0.167 HD
ATOM     57  C   UNL A   1      42.191  30.345  35.333  1.00  0.00     0.074 A 
ATOM     58  C   UNL A   1      42.524  30.875  36.639  1.00  0.00     0.031 C 
ATOM     59  C   UNL A   1      42.856  29.325  34.732  1.00  0.00     0.034 A 
BRANCH  46  60
ATOM     60  C   UNL A   1      40.629  27.805  29.140  1.00  0.00     0.023 A 
ATOM     61  C   UNL A   1      41.580  28.002  28.122  1.00  0.00     0.031 A 
ATOM     62  C   UNL A   1      39.723  26.741  28.993  1.00  0.00     0.131 A 
ATOM     63  C   UNL A   1      41.551  27.201  26.971  1.00  0.00     0.055 A 
ATOM     64  C   UNL A   1      39.757  25.892  27.885  1.00  0.00     0.041 A 
ATOM     65  F   UNL A   1      38.776  26.515  29.918  1.00  0.00    -0.206 F 
ATOM     66  C   UNL A   1      40.665  26.129  26.857  1.00  0.00     0.022 A 
BRANCH  63  67
ATOM     67  S   UNL A   1      42.585  27.680  25.560  1.00  0.00     0.124 S 
ATOM     68  O   UNL A   1      42.493  26.495  24.711  1.00  0.00    -0.237 OA
ATOM     69  O   UNL A   1      41.911  28.875  25.066  1.00  0.00    -0.237 OA
ATOM     70  O   UNL A   1      43.899  27.907  26.160  1.00  0.00    -0.744 OA
ENDBRANCH  63  67
ENDBRANCH  46  60
BRANCH  47  71
ATOM     71  C   UNL A   1      39.599  33.892  37.048  1.00  0.00     0.023 A 
ATOM     72  C   UNL A   1      38.983  33.407  38.212  1.00  0.00     0.031 A 
ATOM     73  C   UNL A   1      40.002  35.241  37.029  1.00  0.00     0.131 A 
ATOM     74  C   UNL A   1      38.734  34.276  39.287  1.00  0.00     0.055 A 
ATOM     75  C   UNL A   1      39.810  36.084  38.126  1.00  0.00     0.041 A 
ATOM     76  F   UNL A   1      40.598  35.758  35.943  1.00  0.00    -0.206 F 
ATOM     77  C   UNL A   1      39.158  35.606  39.258  1.00  0.00     0.022 A 
BRANCH  74  78
ATOM     78  S   UNL A   1      37.750  33.668  40.684  1.00  0.00     0.124 S 
ATOM     79  O   UNL A   1      38.704  32.797  41.360  1.00  0.00    -0.237 OA
ATOM     80  O   UNL A   1      37.409  34.907  41.375  1.00  0.00    -0.237 OA
ATOM     81  O   UNL A   1      36.629  32.986  40.039  1.00  0.00    -0.744 OA
ENDBRANCH  74  78
ENDBRANCH  47  71
BRANCH  59  82
ATOM     82  C   UNL A   1      44.047  28.753  35.465  1.00  0.00     0.023 A 
ATOM     83  C   UNL A   1      43.922  27.677  36.360  1.00  0.00     0.031 A 
ATOM     84  C   UNL A   1      45.326  29.304  35.270  1.00  0.00     0.131 A 
ATOM     85  C   UNL A   1      45.044  27.226  37.072  1.00  0.00     0.055 A 
ATOM     86  C   UNL A   1      46.451  28.805  35.927  1.00  0.00     0.041 A 
ATOM     87  F   UNL A   1      45.506  30.336  34.430  1.00  0.00    -0.206 F 
ATOM     88  C   UNL A   1      46.312  27.770  36.846  1.00  0.00     0.022 A 
BRANCH  85  89
ATOM     89  S   UNL A   1      44.809  25.987  38.376  1.00  0.00     0.124 S 
ATOM     90  O   UNL A   1      44.011  24.974  37.691  1.00  0.00    -0.237 OA
ATOM     91  O   UNL A   1      46.180  25.606  38.698  1.00  0.00    -0.237 OA
ATOM     92  O   UNL A   1      44.107  26.722  39.426  1.00  0.00    -0.744 OA
ENDBRANCH  85  89
ENDBRANCH  59  82
ENDBRANCH  33  34
ENDBRANCH  25  28
ENDBRANCH  23  24
ENDBRANCH  22  23
ENDBRANCH  21  22
ENDBRANCH   1  21
TORSDOF 22
ENDMDL
MODEL 2
REMARK VINA RESULT:     -10.1      3.143      8.698
REMARK SMILES CCCC[C@@](CC)(C[C@H]1CCOC1)C(=O)NCCCCCCNC(=O)c1ccc(-c2c3nc(c(-c4cc(S(=O)(=O)[O-])ccc4F)c4ccc([nH]4)c(-c4cc(S(=O)(=O)[O-])ccc4F)c4nc(c(-c5cc(S(=O)(=O)[O-])ccc5F)c5ccc2[nH]5)C=C4)C=C3)cc1
REMARK SMILES IDX 19 1 18 2 17 3 16 4 14 5 15 6 5 8 4 9 3 10 2 11 1 12 6 13
REMARK SMILES IDX 7 14 8 15 9 16 10 17 13 18 11 19 12 20 20 21 21 22 22 23
REMARK SMILES IDX 23 24 24 25 25 27 26 28 27 29 88 30 28 31 87 32 29 33 30 34
REMARK SMILES IDX 31 35 81 36 32 37 86 38 80 39 82 40 33 41 85 42 79 43 78 44
REMARK SMILES IDX 34 46 66 47 46 48 65 49 47 50 50 51 64 52 83 53 48 54 49 55
REMARK SMILES IDX 63 57 84 58 51 59 35 60 36 61 44 62 37 63 43 64 45 65 42 66
REMARK SMILES IDX 38 67 39 68 40 69 41 70 67 71 68 72 76 73 69 74 75 75 77 76
REMARK SMILES IDX 74 77 70 78 71 79 72 80 73 81 52 82 53 83 61 84 54 85 60 86
REMARK SMILES IDX 62 87 59 88 55 89 56 90 57 91 58 92
REMARK H PARENT 16 7 23 26 82 45 50 56
REMARK Flexibility Score: inf
ROOT
ATOM      1  C   UNL A   1      32.233  27.279  23.164  1.00  0.00     0.002 C 
ENDROOT
BRANCH   1   2
ATOM      2  C   UNL A   1      30.914  26.515  23.002  1.00  0.00     0.021 C 
BRANCH   2   3
ATOM      3  C   UNL A   1      31.023  25.024  23.321  1.00  0.00     0.116 C 
BRANCH   3   4
ATOM      4  N   UNL A   1      31.866  24.365  22.344  1.00  0.00    -0.356 N 
ATOM      5  C   UNL A   1      33.008  23.642  22.451  1.00  0.00     0.226 C 
ATOM      6  O   UNL A   1      33.675  23.594  21.416  1.00  0.00    -0.274 OA
ATOM      7  H   UNL A   1      31.545  24.460  21.418  1.00  0.00     0.163 HD
BRANCH   5   8
ATOM      8  C   UNL A   1      33.460  22.967  23.768  1.00  0.00     0.049 C 
BRANCH   8   9
ATOM      9  C   UNL A   1      33.439  23.967  24.981  1.00  0.00     0.017 C 
BRANCH   9  10
ATOM     10  C   UNL A   1      32.923  23.509  26.362  1.00  0.00     0.001 C 
BRANCH  10  11
ATOM     11  C   UNL A   1      31.610  24.108  26.875  1.00  0.00    -0.003 C 
ATOM     12  C   UNL A   1      30.404  23.186  26.736  1.00  0.00     0.004 C 
ENDBRANCH  10  11
ENDBRANCH   9  10
ENDBRANCH   8   9
BRANCH   8  13
ATOM     13  C   UNL A   1      34.925  22.452  23.545  1.00  0.00     0.013 C 
ATOM     14  C   UNL A   1      36.057  23.394  23.934  1.00  0.00     0.005 C 
ENDBRANCH   8  13
BRANCH   8  15
ATOM     15  C   UNL A   1      32.466  21.800  24.108  1.00  0.00     0.023 C 
BRANCH  15  16
ATOM     16  C   UNL A   1      33.005  20.354  24.205  1.00  0.00     0.018 C 
ATOM     17  C   UNL A   1      32.906  19.598  25.514  1.00  0.00     0.034 C 
ATOM     18  C   UNL A   1      32.252  19.394  23.284  1.00  0.00     0.163 C 
ATOM     19  C   UNL A   1      33.085  18.161  25.070  1.00  0.00     0.160 C 
ATOM     20  O   UNL A   1      32.532  18.066  23.751  1.00  0.00    -0.381 OA
ENDBRANCH  15  16
ENDBRANCH   8  15
ENDBRANCH   5   8
ENDBRANCH   3   4
ENDBRANCH   2   3
ENDBRANCH   1   2
BRANCH   1  21
ATOM     21  C   UNL A   1      32.626  27.574  24.615  1.00  0.00     0.002 C 
BRANCH  21  22
ATOM     22  C   UNL A   1      32.431  29.029  25.045  1.00  0.00     0.021 C 
BRANCH  22  23
ATOM     23  C   UNL A   1      33.145  29.400  26.337  1.00  0.00     0.116 C 
BRANCH  23  24
ATOM     24  N   UNL A   1      33.002  30.813  26.641  1.00  0.00    -0.352 N 
ATOM     25  C   UNL A   1      33.763  31.590  27.475  1.00  0.00     0.251 C 
ATOM     26  H   UNL A   1      32.261  31.274  26.187  1.00  0.00     0.163 HD
ATOM     27  O   UNL A   1      33.366  32.706  27.806  1.00  0.00    -0.269 OA
BRANCH  25  28
ATOM     28  C   UNL A   1      35.044  31.063  27.992  1.00  0.00     0.039 A 
ATOM     29  C   UNL A   1      36.159  31.902  28.021  1.00  0.00     0.014 A 
ATOM     30  C   UNL A   1      35.137  29.749  28.460  1.00  0.00     0.014 A 
ATOM     31  C   UNL A   1      37.354  31.436  28.572  1.00  0.00     0.010 A 
ATOM     32  C   UNL A   1      36.302  29.316  29.082  1.00  0.00     0.010 A 
ATOM     33  C   UNL A   1      37.427  30.153  29.139  1.00  0.00    -0.014 A 
BRANCH  33  34
ATOM     34  C   UNL A   1      38.676  29.667  29.781  1.00  0.00     0.031 A 
ATOM     35  C   UNL A   1      39.101  30.219  31.116  1.00  0.00     0.074 A 
ATOM     36  C   UNL A   1      39.449  28.766  29.143  1.00  0.00     0.049 A 
ATOM     37  N   UNL A   1      40.182  29.969  31.808  1.00  0.00    -0.248 NA
ATOM     38  C   UNL A   1      38.204  31.203  31.738  1.00  0.00     0.031 C 
ATOM     39  C   UNL A   1      39.158  28.184  27.830  1.00  0.00     0.029 A 
ATOM     40  N   UNL A   1      40.637  28.183  29.506  1.00  0.00    -0.354 N 
ATOM     41  C   UNL A   1      40.098  30.766  32.944  1.00  0.00     0.074 A 
ATOM     42  C   UNL A   1      38.895  31.560  32.809  1.00  0.00     0.031 C 
ATOM     43  C   UNL A   1      40.123  27.304  27.515  1.00  0.00     0.029 A 
ATOM     44  C   UNL A   1      41.128  27.298  28.572  1.00  0.00     0.049 A 
ATOM     45  H   UNL A   1      41.095  28.378  30.354  1.00  0.00     0.167 HD
ATOM     46  C   UNL A   1      40.931  30.812  34.014  1.00  0.00     0.034 A 
ATOM     47  C   UNL A   1      42.266  26.576  28.562  1.00  0.00     0.034 A 
ATOM     48  C   UNL A   1      42.125  30.011  34.132  1.00  0.00     0.049 A 
ATOM     49  C   UNL A   1      43.203  26.681  29.741  1.00  0.00     0.074 A 
ATOM     50  C   UNL A   1      43.018  29.948  35.187  1.00  0.00     0.029 A 
ATOM     51  N   UNL A   1      42.599  29.139  33.160  1.00  0.00    -0.354 N 
ATOM     52  N   UNL A   1      43.084  27.407  30.829  1.00  0.00    -0.248 NA
ATOM     53  C   UNL A   1      44.421  25.863  29.694  1.00  0.00     0.031 C 
ATOM     54  C   UNL A   1      44.071  29.103  34.821  1.00  0.00     0.029 A 
ATOM     55  C   UNL A   1      43.790  28.563  33.576  1.00  0.00     0.049 A 
ATOM     56  H   UNL A   1      42.155  28.957  32.300  1.00  0.00     0.167 HD
ATOM     57  C   UNL A   1      44.196  27.102  31.611  1.00  0.00     0.074 A 
ATOM     58  C   UNL A   1      44.962  26.116  30.875  1.00  0.00     0.031 C 
ATOM     59  C   UNL A   1      44.550  27.588  32.828  1.00  0.00     0.034 A 
BRANCH  46  60
ATOM     60  C   UNL A   1      40.588  31.780  35.123  1.00  0.00     0.023 A 
ATOM     61  C   UNL A   1      39.564  31.509  36.048  1.00  0.00     0.031 A 
ATOM     62  C   UNL A   1      41.275  33.000  35.245  1.00  0.00     0.131 A 
ATOM     63  C   UNL A   1      39.205  32.475  37.001  1.00  0.00     0.055 A 
ATOM     64  C   UNL A   1      40.972  33.919  36.252  1.00  0.00     0.041 A 
ATOM     65  F   UNL A   1      42.246  33.328  34.378  1.00  0.00    -0.206 F 
ATOM     66  C   UNL A   1      39.920  33.666  37.127  1.00  0.00     0.022 A 
BRANCH  63  67
ATOM     67  S   UNL A   1      37.692  32.215  37.966  1.00  0.00     0.124 S 
ATOM     68  O   UNL A   1      36.733  33.043  37.239  1.00  0.00    -0.237 OA
ATOM     69  O   UNL A   1      37.497  30.773  37.866  1.00  0.00    -0.237 OA
ATOM     70  O   UNL A   1      38.045  32.708  39.296  1.00  0.00    -0.744 OA
ENDBRANCH  63  67
ENDBRANCH  46  60
BRANCH  47  71
ATOM     71  C   UNL A   1      42.600  25.700  27.400  1.00  0.00     0.023 A 
ATOM     72  C   UNL A   1      42.113  24.385  27.322  1.00  0.00     0.031 A 
ATOM     73  C   UNL A   1      43.457  26.147  26.378  1.00  0.00     0.131 A 
ATOM     74  C   UNL A   1      42.531  23.545  26.277  1.00  0.00     0.055 A 
ATOM     75  C   UNL A   1      43.818  25.327  25.307  1.00  0.00     0.041 A 
ATOM     76  F   UNL A   1      43.951  27.395  26.401  1.00  0.00    -0.206 F 
ATOM     77  C   UNL A   1      43.367  24.012  25.261  1.00  0.00     0.022 A 
BRANCH  74  78
ATOM     78  S   UNL A   1      42.051  21.796  26.326  1.00  0.00     0.124 S 
ATOM     79  O   UNL A   1      42.429  21.425  27.683  1.00  0.00    -0.237 OA
ATOM     80  O   UNL A   1      40.619  21.869  26.054  1.00  0.00    -0.237 OA
ATOM     81  O   UNL A   1      42.856  21.194  25.265  1.00  0.00    -0.744 OA
ENDBRANCH  74  78
ENDBRANCH  47  71
BRANCH  59  82
ATOM     82  C   UNL A   1      45.798  27.017  33.462  1.00  0.00     0.023 A 
ATOM     83  C   UNL A   1      47.071  27.558  33.215  1.00  0.00     0.031 A 
ATOM     84  C   UNL A   1      45.708  25.906  34.320  1.00  0.00     0.131 A 
ATOM     85  C   UNL A   1      48.208  26.950  33.769  1.00  0.00     0.055 A 
ATOM     86  C   UNL A   1      46.835  25.349  34.925  1.00  0.00     0.041 A 
ATOM     87  F   UNL A   1      44.518  25.345  34.590  1.00  0.00    -0.206 F 
ATOM     88  C   UNL A   1      48.096  25.862  34.639  1.00  0.00     0.022 A 
BRANCH  85  89
ATOM     89  S   UNL A   1      49.846  27.536  33.256  1.00  0.00     0.124 S 
ATOM     90  O   UNL A   1      50.332  26.415  32.456  1.00  0.00    -0.237 OA
ATOM     91  O   UNL A   1      49.526  28.753  32.517  1.00  0.00    -0.237 OA
ATOM     92  O   UNL A   1      50.548  27.746  34.520  1.00  0.00    -0.744 OA
ENDBRANCH  85  89
ENDBRANCH  59  82
ENDBRANCH  33  34
ENDBRANCH  25  28
ENDBRANCH  23  24
ENDBRANCH  22  23
ENDBRANCH  21  22
ENDBRANCH   1  21
TORSDOF 22
ENDMDL
MODEL 3
REMARK VINA RESULT:     -10.1      2.472      8.177
REMARK SMILES CCCC[C@@](CC)(C[C@H]1CCOC1)C(=O)NCCCCCCNC(=O)c1ccc(-c2c3nc(c(-c4cc(S(=O)(=O)[O-])ccc4F)c4ccc([nH]4)c(-c4cc(S(=O)(=O)[O-])ccc4F)c4nc(c(-c5cc(S(=O)(=O)[O-])ccc5F)c5ccc2[nH]5)C=C4)C=C3)cc1
REMARK SMILES IDX 19 1 18 2 17 3 16 4 14 5 15 6 5 8 4 9 3 10 2 11 1 12 6 13
REMARK SMILES IDX 7 14 8 15 9 16 10 17 13 18 11 19 12 20 20 21 21 22 22 23
REMARK SMILES IDX 23 24 24 25 25 27 26 28 27 29 88 30 28 31 87 32 29 33 30 34
REMARK SMILES IDX 31 35 81 36 32 37 86 38 80 39 82 40 33 41 85 42 79 43 78 44
REMARK SMILES IDX 34 46 66 47 46 48 65 49 47 50 50 51 64 52 83 53 48 54 49 55
REMARK SMILES IDX 63 57 84 58 51 59 35 60 36 61 44 62 37 63 43 64 45 65 42 66
REMARK SMILES IDX 38 67 39 68 40 69 41 70 67 71 68 72 76 73 69 74 75 75 77 76
REMARK SMILES IDX 74 77 70 78 71 79 72 80 73 81 52 82 53 83 61 84 54 85 60 86
REMARK SMILES IDX 62 87 59 88 55 89 56 90 57 91 58 92
REMARK H PARENT 16 7 23 26 82 45 50 56
REMARK Flexibility Score: inf
ROOT
ATOM      1  C   UNL A   1      31.753  28.878  23.816  1.00  0.00     0.002 C 
ENDROOT
BRANCH   1   2
ATOM      2  C   UNL A   1      30.616  28.112  23.132  1.00  0.00     0.021 C 
BRANCH   2   3
ATOM      3  C   UNL A   1      30.816  26.597  23.114  1.00  0.00     0.116 C 
BRANCH   3   4
ATOM      4  N   UNL A   1      31.964  26.255  22.299  1.00  0.00    -0.356 N 
ATOM      5  C   UNL A   1      33.049  25.473  22.519  1.00  0.00     0.226 C 
ATOM      6  O   UNL A   1      34.016  25.736  21.801  1.00  0.00    -0.274 OA
ATOM      7  H   UNL A   1      31.954  26.673  21.407  1.00  0.00     0.163 HD
BRANCH   5   8
ATOM      8  C   UNL A   1      33.092  24.371  23.605  1.00  0.00     0.049 C 
BRANCH   8   9
ATOM      9  C   UNL A   1      31.735  23.582  23.697  1.00  0.00     0.017 C 
BRANCH   9  10
ATOM     10  C   UNL A   1      31.728  22.038  23.691  1.00  0.00     0.001 C 
BRANCH  10  11
ATOM     11  C   UNL A   1      31.905  21.312  25.028  1.00  0.00    -0.003 C 
ATOM     12  C   UNL A   1      32.476  19.904  24.905  1.00  0.00     0.004 C 
ENDBRANCH  10  11
ENDBRANCH   9  10
ENDBRANCH   8   9
BRANCH   8  13
ATOM     13  C   UNL A   1      33.374  25.081  24.974  1.00  0.00     0.013 C 
ATOM     14  C   UNL A   1      32.276  25.015  26.028  1.00  0.00     0.005 C 
ENDBRANCH   8  13
BRANCH   8  15
ATOM     15  C   UNL A   1      34.210  23.334  23.232  1.00  0.00     0.023 C 
BRANCH  15  16
ATOM     16  C   UNL A   1      35.290  22.980  24.279  1.00  0.00     0.018 C 
ATOM     17  C   UNL A   1      35.487  21.540  24.705  1.00  0.00     0.034 C 
ATOM     18  C   UNL A   1      36.701  23.309  23.789  1.00  0.00     0.163 C 
ATOM     19  C   UNL A   1      36.868  21.572  25.326  1.00  0.00     0.160 C 
ATOM     20  O   UNL A   1      37.610  22.576  24.623  1.00  0.00    -0.381 OA
ENDBRANCH  15  16
ENDBRANCH   8  15
ENDBRANCH   5   8
ENDBRANCH   3   4
ENDBRANCH   2   3
ENDBRANCH   1   2
BRANCH   1  21
ATOM     21  C   UNL A   1      31.529  29.157  25.306  1.00  0.00     0.002 C 
BRANCH  21  22
ATOM     22  C   UNL A   1      31.409  30.639  25.665  1.00  0.00     0.021 C 
BRANCH  22  23
ATOM     23  C   UNL A   1      32.249  31.061  26.863  1.00  0.00     0.116 C 
BRANCH  23  24
ATOM     24  N   UNL A   1      32.391  32.505  26.935  1.00  0.00    -0.352 N 
ATOM     25  C   UNL A   1      33.338  33.239  27.601  1.00  0.00     0.251 C 
ATOM     26  H   UNL A   1      31.719  33.025  26.439  1.00  0.00     0.163 HD
ATOM     27  O   UNL A   1      33.177  34.448  27.758  1.00  0.00    -0.269 OA
BRANCH  25  28
ATOM     28  C   UNL A   1      34.531  32.561  28.150  1.00  0.00     0.039 A 
ATOM     29  C   UNL A   1      35.751  33.238  28.158  1.00  0.00     0.014 A 
ATOM     30  C   UNL A   1      34.439  31.266  28.668  1.00  0.00     0.014 A 
ATOM     31  C   UNL A   1      36.869  32.633  28.737  1.00  0.00     0.010 A 
ATOM     32  C   UNL A   1      35.531  30.701  29.317  1.00  0.00     0.010 A 
ATOM     33  C   UNL A   1      36.761  31.375  29.353  1.00  0.00    -0.014 A 
BRANCH  33  34
ATOM     34  C   UNL A   1      37.927  30.747  30.024  1.00  0.00     0.031 A 
ATOM     35  C   UNL A   1      38.279  31.128  31.438  1.00  0.00     0.074 A 
ATOM     36  C   UNL A   1      38.695  29.869  29.348  1.00  0.00     0.049 A 
ATOM     37  N   UNL A   1      39.288  30.739  32.173  1.00  0.00    -0.248 NA
ATOM     38  C   UNL A   1      37.393  32.098  32.098  1.00  0.00     0.031 C 
ATOM     39  C   UNL A   1      38.474  29.447  27.963  1.00  0.00     0.029 A 
ATOM     40  N   UNL A   1      39.818  29.177  29.729  1.00  0.00    -0.354 N 
ATOM     41  C   UNL A   1      39.161  31.418  33.381  1.00  0.00     0.074 A 
ATOM     42  C   UNL A   1      38.019  32.297  33.248  1.00  0.00     0.031 C 
ATOM     43  C   UNL A   1      39.409  28.545  27.623  1.00  0.00     0.029 A 
ATOM     44  C   UNL A   1      40.329  28.365  28.741  1.00  0.00     0.049 A 
ATOM     45  H   UNL A   1      40.220  29.254  30.623  1.00  0.00     0.167 HD
ATOM     46  C   UNL A   1      39.911  31.299  34.504  1.00  0.00     0.034 A 
ATOM     47  C   UNL A   1      41.423  27.577  28.734  1.00  0.00     0.034 A 
ATOM     48  C   UNL A   1      41.046  30.416  34.619  1.00  0.00     0.049 A 
ATOM     49  C   UNL A   1      42.270  27.499  29.979  1.00  0.00     0.074 A 
ATOM     50  C   UNL A   1      41.851  30.187  35.721  1.00  0.00     0.029 A 
ATOM     51  N   UNL A   1      41.544  29.622  33.594  1.00  0.00    -0.354 N 
ATOM     52  N   UNL A   1      42.109  28.114  31.129  1.00  0.00    -0.248 NA
ATOM     53  C   UNL A   1      43.441  26.614  29.930  1.00  0.00     0.031 C 
ATOM     54  C   UNL A   1      42.880  29.319  35.340  1.00  0.00     0.029 A 
ATOM     55  C   UNL A   1      42.666  28.931  34.028  1.00  0.00     0.049 A 
ATOM     56  H   UNL A   1      41.158  29.559  32.690  1.00  0.00     0.167 HD
ATOM     57  C   UNL A   1      43.139  27.659  31.949  1.00  0.00     0.074 A 
ATOM     58  C   UNL A   1      43.903  26.708  31.167  1.00  0.00     0.031 C 
ATOM     59  C   UNL A   1      43.425  27.992  33.234  1.00  0.00     0.034 A 
BRANCH  46  60
ATOM     60  C   UNL A   1      39.539  32.167  35.685  1.00  0.00     0.023 A 
ATOM     61  C   UNL A   1      40.113  33.436  35.878  1.00  0.00     0.031 A 
ATOM     62  C   UNL A   1      38.617  31.712  36.644  1.00  0.00     0.131 A 
ATOM     63  C   UNL A   1      39.821  34.170  37.038  1.00  0.00     0.055 A 
ATOM     64  C   UNL A   1      38.264  32.486  37.751  1.00  0.00     0.041 A 
ATOM     65  F   UNL A   1      38.053  30.500  36.530  1.00  0.00    -0.206 F 
ATOM     66  C   UNL A   1      38.879  33.716  37.962  1.00  0.00     0.022 A 
BRANCH  63  67
ATOM     67  S   UNL A   1      40.807  35.649  37.395  1.00  0.00     0.124 S 
ATOM     68  O   UNL A   1      41.684  35.708  36.229  1.00  0.00    -0.237 OA
ATOM     69  O   UNL A   1      39.791  36.692  37.485  1.00  0.00    -0.237 OA
ATOM     70  O   UNL A   1      41.477  35.319  38.652  1.00  0.00    -0.744 OA
ENDBRANCH  63  67
ENDBRANCH  46  60
BRANCH  47  71
ATOM     71  C   UNL A   1      41.795  26.807  27.510  1.00  0.00     0.023 A 
ATOM     72  C   UNL A   1      41.577  25.422  27.432  1.00  0.00     0.031 A 
ATOM     73  C   UNL A   1      42.425  27.436  26.421  1.00  0.00     0.131 A 
ATOM     74  C   UNL A   1      42.037  24.702  26.318  1.00  0.00     0.055 A 
ATOM     75  C   UNL A   1      42.823  26.726  25.286  1.00  0.00     0.041 A 
ATOM     76  F   UNL A   1      42.657  28.759  26.440  1.00  0.00    -0.206 F 
ATOM     77  C   UNL A   1      42.644  25.347  25.238  1.00  0.00     0.022 A 
BRANCH  74  78
ATOM     78  S   UNL A   1      41.928  22.892  26.348  1.00  0.00     0.124 S 
ATOM     79  O   UNL A   1      42.603  22.577  27.602  1.00  0.00    -0.237 OA
ATOM     80  O   UNL A   1      40.485  22.676  26.323  1.00  0.00    -0.237 OA
ATOM     81  O   UNL A   1      42.640  22.489  25.137  1.00  0.00    -0.744 OA
ENDBRANCH  74  78
ENDBRANCH  47  71
BRANCH  59  82
ATOM     82  C   UNL A   1      44.587  27.280  33.888  1.00  0.00     0.023 A 
ATOM     83  C   UNL A   1      44.416  26.085  34.607  1.00  0.00     0.031 A 
ATOM     84  C   UNL A   1      45.884  27.815  33.797  1.00  0.00     0.131 A 
ATOM     85  C   UNL A   1      45.512  25.498  35.258  1.00  0.00     0.055 A 
ATOM     86  C   UNL A   1      46.982  27.189  34.387  1.00  0.00     0.041 A 
ATOM     87  F   UNL A   1      46.108  28.958  33.126  1.00  0.00    -0.206 F 
ATOM     88  C   UNL A   1      46.797  26.031  35.135  1.00  0.00     0.022 A 
BRANCH  85  89
ATOM     89  S   UNL A   1      45.218  24.083  36.354  1.00  0.00     0.124 S 
ATOM     90  O   UNL A   1      46.516  23.415  36.342  1.00  0.00    -0.237 OA
ATOM     91  O   UNL A   1      44.847  24.730  37.609  1.00  0.00    -0.237 OA
ATOM     92  O   UNL A   1      44.139  23.353  35.692  1.00  0.00    -0.744 OA
ENDBRANCH  85  89
ENDBRANCH  59  82
ENDBRANCH  33  34
ENDBRANCH  25  28
ENDBRANCH  23  24
ENDBRANCH  22  23
ENDBRANCH  21  22
ENDBRANCH   1  21
TORSDOF 22
ENDMDL
