MODEL 1
REMARK VINA RESULT:     -12.3      0.000      0.000
REMARK SMILES Cc1cc(Cl)cc2c1O[C@H](C(F)(F)F)C(C(=O)NCCCCCCNC(=O)c1ccc(-c3c4nc(c(-c5cc(S(=O)(=O)[O-])ccc5F)c5ccc([nH]5)c(-c5cc(S(=O)(=O)[O-])ccc5F)c5nc(c(-c6cc(S(=O)(=O)[O-])ccc6F)c6ccc3[nH]6)C=C5)C=C4)cc1)=C2
REMARK SMILES IDX 22 1 21 2 20 3 19 4 18 5 16 6 17 7 15 9 1 10 2 11 3 12 8 13
REMARK SMILES IDX 4 14 7 15 9 16 5 17 6 18 91 19 10 20 11 21 12 22 13 23 14 24
REMARK SMILES IDX 23 25 24 26 25 27 26 28 27 30 28 31 29 32 90 33 30 34 89 35
REMARK SMILES IDX 31 36 32 37 33 38 83 39 34 40 88 41 82 42 84 43 35 44 87 45
REMARK SMILES IDX 81 46 80 47 36 49 68 50 48 51 67 52 49 53 52 54 66 55 85 56
REMARK SMILES IDX 50 57 51 58 65 60 86 61 53 62 37 63 38 64 46 65 39 66 45 67
REMARK SMILES IDX 47 68 44 69 40 70 41 71 42 72 43 73 69 74 70 75 78 76 71 77
REMARK SMILES IDX 77 78 79 79 76 80 72 81 73 82 74 83 75 84 54 85 55 86 63 87
REMARK SMILES IDX 56 88 62 89 64 90 61 91 57 92 58 93 59 94 60 95
REMARK H PARENT 18 8 25 29 84 48 52 59
REMARK Flexibility Score: inf
ROOT
ATOM      1  C   UNL A   1      30.838  28.931  24.244  1.00  0.00     0.002 C 
ENDROOT
BRANCH   1   2
ATOM      2  C   UNL A   1      30.064  28.154  23.170  1.00  0.00     0.002 C 
BRANCH   2   3
ATOM      3  C   UNL A   1      29.482  26.816  23.634  1.00  0.00     0.021 C 
BRANCH   3   4
ATOM      4  C   UNL A   1      30.506  25.688  23.674  1.00  0.00     0.116 C 
BRANCH   4   5
ATOM      5  N   UNL A   1      31.420  25.749  22.547  1.00  0.00    -0.352 N 
ATOM      6  C   UNL A   1      32.539  25.104  22.143  1.00  0.00     0.251 C 
ATOM      7  O   UNL A   1      32.998  25.471  21.055  1.00  0.00    -0.270 OA
ATOM      8  H   UNL A   1      31.154  26.446  21.904  1.00  0.00     0.163 HD
BRANCH   6   9
ATOM      9  C   UNL A   1      33.229  24.018  22.904  1.00  0.00     0.067 C 
ATOM     10  C   UNL A   1      36.536  20.927  25.361  1.00  0.00     0.048 C 
ATOM     11  C   UNL A   1      35.145  20.786  24.806  1.00  0.00    -0.007 A 
ATOM     12  C   UNL A   1      34.439  19.593  24.995  1.00  0.00     0.027 A 
ATOM     13  C   UNL A   1      34.507  21.850  24.153  1.00  0.00     0.131 A 
ATOM     14  C   UNL A   1      33.137  19.464  24.509  1.00  0.00     0.042 A 
ATOM     15  C   UNL A   1      33.206  21.722  23.657  1.00  0.00     0.019 A 
ATOM     16  O   UNL A   1      35.234  22.990  23.985  1.00  0.00    -0.475 OA
ATOM     17  Cl  UNL A   1      32.288  17.984  24.737  1.00  0.00    -0.084 Cl
ATOM     18  C   UNL A   1      32.519  20.518  23.837  1.00  0.00     0.032 A 
ATOM     19  C   UNL A   1      32.601  22.828  22.924  1.00  0.00     0.025 C 
ATOM     20  C   UNL A   1      34.521  24.203  23.646  1.00  0.00     0.314 C 
BRANCH  20  21
ATOM     21  C   UNL A   1      34.361  25.059  24.915  1.00  0.00     0.429 C 
ATOM     22  F   UNL A   1      35.365  24.805  25.790  1.00  0.00    -0.167 F 
ATOM     23  F   UNL A   1      34.403  26.387  24.659  1.00  0.00    -0.167 F 
ATOM     24  F   UNL A   1      33.193  24.819  25.554  1.00  0.00    -0.167 F 
ENDBRANCH  20  21
ENDBRANCH   6   9
ENDBRANCH   4   5
ENDBRANCH   3   4
ENDBRANCH   2   3
ENDBRANCH   1   2
BRANCH   1  25
ATOM     25  C   UNL A   1      32.359  28.946  24.071  1.00  0.00     0.021 C 
BRANCH  25  26
ATOM     26  C   UNL A   1      33.127  29.424  25.298  1.00  0.00     0.116 C 
BRANCH  26  27
ATOM     27  N   UNL A   1      32.634  30.705  25.774  1.00  0.00    -0.352 N 
ATOM     28  C   UNL A   1      33.015  31.421  26.879  1.00  0.00     0.251 C 
ATOM     29  H   UNL A   1      31.926  31.116  25.227  1.00  0.00     0.163 HD
ATOM     30  O   UNL A   1      32.327  32.362  27.265  1.00  0.00    -0.269 OA
BRANCH  28  31
ATOM     31  C   UNL A   1      34.245  31.042  27.603  1.00  0.00     0.039 A 
ATOM     32  C   UNL A   1      35.190  32.026  27.896  1.00  0.00     0.014 A 
ATOM     33  C   UNL A   1      34.460  29.714  27.988  1.00  0.00     0.014 A 
ATOM     34  C   UNL A   1      36.333  31.685  28.620  1.00  0.00     0.010 A 
ATOM     35  C   UNL A   1      35.564  29.392  28.772  1.00  0.00     0.010 A 
ATOM     36  C   UNL A   1      36.516  30.372  29.087  1.00  0.00    -0.014 A 
BRANCH  36  37
ATOM     37  C   UNL A   1      37.714  30.005  29.881  1.00  0.00     0.031 A 
ATOM     38  C   UNL A   1      38.773  29.127  29.274  1.00  0.00     0.074 A 
ATOM     39  C   UNL A   1      37.836  30.446  31.148  1.00  0.00     0.049 A 
ATOM     40  N   UNL A   1      39.871  28.666  29.813  1.00  0.00    -0.248 NA
ATOM     41  C   UNL A   1      38.559  28.692  27.884  1.00  0.00     0.031 C 
ATOM     42  C   UNL A   1      36.863  31.290  31.846  1.00  0.00     0.029 A 
ATOM     43  N   UNL A   1      38.833  30.257  32.072  1.00  0.00    -0.354 N 
ATOM     44  C   UNL A   1      40.480  27.895  28.832  1.00  0.00     0.074 A 
ATOM     45  C   UNL A   1      39.598  27.893  27.686  1.00  0.00     0.031 C 
ATOM     46  C   UNL A   1      37.332  31.580  33.070  1.00  0.00     0.029 A 
ATOM     47  C   UNL A   1      38.614  30.910  33.263  1.00  0.00     0.049 A 
ATOM     48  H   UNL A   1      39.629  29.705  31.900  1.00  0.00     0.167 HD
ATOM     49  C   UNL A   1      41.682  27.272  28.871  1.00  0.00     0.034 A 
ATOM     50  C   UNL A   1      39.363  30.963  34.383  1.00  0.00     0.034 A 
ATOM     51  C   UNL A   1      42.561  27.296  30.011  1.00  0.00     0.049 A 
ATOM     52  C   UNL A   1      40.670  30.214  34.422  1.00  0.00     0.074 A 
ATOM     53  C   UNL A   1      43.814  26.724  30.143  1.00  0.00     0.029 A 
ATOM     54  N   UNL A   1      42.282  27.929  31.214  1.00  0.00    -0.354 N 
ATOM     55  N   UNL A   1      41.234  29.495  33.480  1.00  0.00    -0.248 NA
ATOM     56  C   UNL A   1      41.439  30.281  35.672  1.00  0.00     0.031 C 
ATOM     57  C   UNL A   1      44.266  26.958  31.444  1.00  0.00     0.029 A 
ATOM     58  C   UNL A   1      43.326  27.734  32.104  1.00  0.00     0.049 A 
ATOM     59  H   UNL A   1      41.463  28.440  31.409  1.00  0.00     0.167 HD
ATOM     60  C   UNL A   1      42.434  29.041  34.016  1.00  0.00     0.074 A 
ATOM     61  C   UNL A   1      42.516  29.573  35.362  1.00  0.00     0.031 C 
ATOM     62  C   UNL A   1      43.384  28.260  33.446  1.00  0.00     0.034 A 
BRANCH  49  63
ATOM     63  C   UNL A   1      42.114  26.509  27.646  1.00  0.00     0.023 A 
ATOM     64  C   UNL A   1      41.880  25.128  27.527  1.00  0.00     0.031 A 
ATOM     65  C   UNL A   1      42.743  27.169  26.578  1.00  0.00     0.131 A 
ATOM     66  C   UNL A   1      42.314  24.443  26.382  1.00  0.00     0.055 A 
ATOM     67  C   UNL A   1      43.113  26.494  25.413  1.00  0.00     0.041 A 
ATOM     68  F   UNL A   1      43.008  28.484  26.648  1.00  0.00    -0.206 F 
ATOM     69  C   UNL A   1      42.906  25.122  25.314  1.00  0.00     0.022 A 
BRANCH  66  70
ATOM     70  S   UNL A   1      42.166  22.637  26.344  1.00  0.00     0.124 S 
ATOM     71  O   UNL A   1      42.654  22.331  25.003  1.00  0.00    -0.237 OA
ATOM     72  O   UNL A   1      43.026  22.225  27.447  1.00  0.00    -0.237 OA
ATOM     73  O   UNL A   1      40.737  22.407  26.550  1.00  0.00    -0.744 OA
ENDBRANCH  66  70
ENDBRANCH  49  63
BRANCH  50  74
ATOM     74  C   UNL A   1      38.897  31.752  35.556  1.00  0.00     0.023 A 
ATOM     75  C   UNL A   1      38.216  31.133  36.615  1.00  0.00     0.031 A 
ATOM     76  C   UNL A   1      39.130  33.137  35.638  1.00  0.00     0.131 A 
ATOM     77  C   UNL A   1      37.770  31.902  37.702  1.00  0.00     0.055 A 
ATOM     78  C   UNL A   1      38.719  33.890  36.739  1.00  0.00     0.041 A 
ATOM     79  F   UNL A   1      39.785  33.774  34.654  1.00  0.00    -0.206 F 
ATOM     80  C   UNL A   1      38.029  33.272  37.777  1.00  0.00     0.022 A 
BRANCH  77  81
ATOM     81  S   UNL A   1      36.811  31.088  39.010  1.00  0.00     0.124 S 
ATOM     82  O   UNL A   1      37.691  31.244  40.163  1.00  0.00    -0.237 OA
ATOM     83  O   UNL A   1      35.585  31.879  39.026  1.00  0.00    -0.237 OA
ATOM     84  O   UNL A   1      36.660  29.720  38.518  1.00  0.00    -0.744 OA
ENDBRANCH  77  81
ENDBRANCH  50  74
BRANCH  62  85
ATOM     85  C   UNL A   1      44.608  27.942  34.263  1.00  0.00     0.023 A 
ATOM     86  C   UNL A   1      44.681  26.782  35.050  1.00  0.00     0.031 A 
ATOM     87  C   UNL A   1      45.737  28.779  34.201  1.00  0.00     0.131 A 
ATOM     88  C   UNL A   1      45.854  26.499  35.764  1.00  0.00     0.055 A 
ATOM     89  C   UNL A   1      46.917  28.468  34.875  1.00  0.00     0.041 A 
ATOM     90  F   UNL A   1      45.717  29.897  33.458  1.00  0.00    -0.206 F 
ATOM     91  C   UNL A   1      46.978  27.324  35.666  1.00  0.00     0.022 A 
BRANCH  88  92
ATOM     92  S   UNL A   1      45.884  25.046  36.847  1.00  0.00     0.124 S 
ATOM     93  O   UNL A   1      46.545  24.055  36.005  1.00  0.00    -0.237 OA
ATOM     94  O   UNL A   1      46.652  25.522  37.994  1.00  0.00    -0.237 OA
ATOM     95  O   UNL A   1      44.470  24.788  37.116  1.00  0.00    -0.744 OA
ENDBRANCH  88  92
ENDBRANCH  62  85
ENDBRANCH  36  37
ENDBRANCH  28  31
ENDBRANCH  26  27
ENDBRANCH  25  26
ENDBRANCH   1  25
TORSDOF 17
ENDMDL
MODEL 2
REMARK VINA RESULT:     -12.1      1.569      7.554
REMARK SMILES Cc1cc(Cl)cc2c1O[C@H](C(F)(F)F)C(C(=O)NCCCCCCNC(=O)c1ccc(-c3c4nc(c(-c5cc(S(=O)(=O)[O-])ccc5F)c5ccc([nH]5)c(-c5cc(S(=O)(=O)[O-])ccc5F)c5nc(c(-c6cc(S(=O)(=O)[O-])ccc6F)c6ccc3[nH]6)C=C5)C=C4)cc1)=C2
REMARK SMILES IDX 22 1 21 2 20 3 19 4 18 5 16 6 17 7 15 9 1 10 2 11 3 12 8 13
REMARK SMILES IDX 4 14 7 15 9 16 5 17 6 18 91 19 10 20 11 21 12 22 13 23 14 24
REMARK SMILES IDX 23 25 24 26 25 27 26 28 27 30 28 31 29 32 90 33 30 34 89 35
REMARK SMILES IDX 31 36 32 37 33 38 83 39 34 40 88 41 82 42 84 43 35 44 87 45
REMARK SMILES IDX 81 46 80 47 36 49 68 50 48 51 67 52 49 53 52 54 66 55 85 56
REMARK SMILES IDX 50 57 51 58 65 60 86 61 53 62 37 63 38 64 46 65 39 66 45 67
REMARK SMILES IDX 47 68 44 69 40 70 41 71 42 72 43 73 69 74 70 75 78 76 71 77
REMARK SMILES IDX 77 78 79 79 76 80 72 81 73 82 74 83 75 84 54 85 55 86 63 87
REMARK SMILES IDX 56 88 62 89 64 90 61 91 57 92 58 93 59 94 60 95
REMARK H PARENT 18 8 25 29 84 48 52 59
REMARK Flexibility Score: inf
ROOT
ATOM      1  C   UNL A   1      31.275  28.741  24.879  1.00  0.00     0.002 C 
ENDROOT
BRANCH   1   2
ATOM      2  C   UNL A   1      30.825  28.983  23.432  1.00  0.00     0.002 C 
BRANCH   2   3
ATOM      3  C   UNL A   1      30.060  27.823  22.790  1.00  0.00     0.021 C 
BRANCH   3   4
ATOM      4  C   UNL A   1      30.775  26.482  22.910  1.00  0.00     0.116 C 
BRANCH   4   5
ATOM      5  N   UNL A   1      31.712  26.272  21.820  1.00  0.00    -0.352 N 
ATOM      6  C   UNL A   1      32.758  25.453  21.557  1.00  0.00     0.251 C 
ATOM      7  O   UNL A   1      33.277  25.600  20.445  1.00  0.00    -0.270 OA
ATOM      8  H   UNL A   1      31.541  26.890  21.073  1.00  0.00     0.163 HD
BRANCH   6   9
ATOM      9  C   UNL A   1      33.302  24.425  22.495  1.00  0.00     0.067 C 
ATOM     10  C   UNL A   1      36.107  21.553  25.722  1.00  0.00     0.048 C 
ATOM     11  C   UNL A   1      34.865  21.343  24.902  1.00  0.00    -0.007 A 
ATOM     12  C   UNL A   1      34.164  20.135  24.999  1.00  0.00     0.027 A 
ATOM     13  C   UNL A   1      34.349  22.356  24.081  1.00  0.00     0.131 A 
ATOM     14  C   UNL A   1      32.994  19.942  24.264  1.00  0.00     0.042 A 
ATOM     15  C   UNL A   1      33.181  22.162  23.336  1.00  0.00     0.019 A 
ATOM     16  O   UNL A   1      35.067  23.512  24.012  1.00  0.00    -0.475 OA
ATOM     17  Cl  UNL A   1      32.153  18.445  24.384  1.00  0.00    -0.084 Cl
ATOM     18  C   UNL A   1      32.502  20.945  23.430  1.00  0.00     0.032 A 
ATOM     19  C   UNL A   1      32.713  23.216  22.443  1.00  0.00     0.025 C 
ATOM     20  C   UNL A   1      34.408  24.684  23.476  1.00  0.00     0.314 C 
BRANCH  20  21
ATOM     21  C   UNL A   1      33.969  25.587  24.643  1.00  0.00     0.429 C 
ATOM     22  F   UNL A   1      33.988  26.890  24.268  1.00  0.00    -0.167 F 
ATOM     23  F   UNL A   1      32.709  25.326  25.061  1.00  0.00    -0.167 F 
ATOM     24  F   UNL A   1      34.775  25.461  25.722  1.00  0.00    -0.167 F 
ENDBRANCH  20  21
ENDBRANCH   6   9
ENDBRANCH   4   5
ENDBRANCH   3   4
ENDBRANCH   2   3
ENDBRANCH   1   2
BRANCH   1  25
ATOM     25  C   UNL A   1      32.468  29.582  25.342  1.00  0.00     0.021 C 
BRANCH  25  26
ATOM     26  C   UNL A   1      32.331  30.148  26.750  1.00  0.00     0.116 C 
BRANCH  26  27
ATOM     27  N   UNL A   1      32.340  31.600  26.747  1.00  0.00    -0.352 N 
ATOM     28  C   UNL A   1      33.176  32.461  27.410  1.00  0.00     0.251 C 
ATOM     29  H   UNL A   1      31.648  32.027  26.191  1.00  0.00     0.163 HD
ATOM     30  O   UNL A   1      32.891  33.653  27.488  1.00  0.00    -0.269 OA
BRANCH  28  31
ATOM     31  C   UNL A   1      34.407  31.940  28.038  1.00  0.00     0.039 A 
ATOM     32  C   UNL A   1      35.497  32.796  28.206  1.00  0.00     0.014 A 
ATOM     33  C   UNL A   1      34.480  30.607  28.457  1.00  0.00     0.014 A 
ATOM     34  C   UNL A   1      36.646  32.325  28.841  1.00  0.00     0.010 A 
ATOM     35  C   UNL A   1      35.599  30.161  29.153  1.00  0.00     0.010 A 
ATOM     36  C   UNL A   1      36.697  31.013  29.343  1.00  0.00    -0.014 A 
BRANCH  36  37
ATOM     37  C   UNL A   1      37.905  30.510  30.043  1.00  0.00     0.031 A 
ATOM     38  C   UNL A   1      38.210  30.979  31.438  1.00  0.00     0.074 A 
ATOM     39  C   UNL A   1      38.731  29.651  29.414  1.00  0.00     0.049 A 
ATOM     40  N   UNL A   1      39.230  30.686  32.202  1.00  0.00    -0.248 NA
ATOM     41  C   UNL A   1      37.253  31.917  32.049  1.00  0.00     0.031 C 
ATOM     42  C   UNL A   1      38.544  29.142  28.054  1.00  0.00     0.029 A 
ATOM     43  N   UNL A   1      39.887  29.045  29.839  1.00  0.00    -0.354 N 
ATOM     44  C   UNL A   1      39.037  31.396  33.380  1.00  0.00     0.074 A 
ATOM     45  C   UNL A   1      37.837  32.187  33.207  1.00  0.00     0.031 C 
ATOM     46  C   UNL A   1      39.524  28.268  27.773  1.00  0.00     0.029 A 
ATOM     47  C   UNL A   1      40.434  28.188  28.912  1.00  0.00     0.049 A 
ATOM     48  H   UNL A   1      40.287  29.209  30.722  1.00  0.00     0.167 HD
ATOM     49  C   UNL A   1      39.773  31.366  34.516  1.00  0.00     0.034 A 
ATOM     50  C   UNL A   1      41.543  27.424  28.974  1.00  0.00     0.034 A 
ATOM     51  C   UNL A   1      40.954  30.560  34.684  1.00  0.00     0.049 A 
ATOM     52  C   UNL A   1      42.378  27.451  30.228  1.00  0.00     0.074 A 
ATOM     53  C   UNL A   1      41.756  30.433  35.805  1.00  0.00     0.029 A 
ATOM     54  N   UNL A   1      41.503  29.742  33.706  1.00  0.00    -0.354 N 
ATOM     55  N   UNL A   1      42.174  28.124  31.337  1.00  0.00    -0.248 NA
ATOM     56  C   UNL A   1      43.590  26.621  30.240  1.00  0.00     0.031 C 
ATOM     57  C   UNL A   1      42.822  29.588  35.486  1.00  0.00     0.029 A 
ATOM     58  C   UNL A   1      42.650  29.132  34.188  1.00  0.00     0.049 A 
ATOM     59  H   UNL A   1      41.133  29.615  32.802  1.00  0.00     0.167 HD
ATOM     60  C   UNL A   1      43.221  27.781  32.186  1.00  0.00     0.074 A 
ATOM     61  C   UNL A   1      44.051  26.837  31.464  1.00  0.00     0.031 C 
ATOM     62  C   UNL A   1      43.471  28.205  33.449  1.00  0.00     0.034 A 
BRANCH  49  63
ATOM     63  C   UNL A   1      39.324  32.232  35.664  1.00  0.00     0.023 A 
ATOM     64  C   UNL A   1      39.736  33.571  35.773  1.00  0.00     0.031 A 
ATOM     65  C   UNL A   1      38.458  31.723  36.646  1.00  0.00     0.131 A 
ATOM     66  C   UNL A   1      39.316  34.344  36.865  1.00  0.00     0.055 A 
ATOM     67  C   UNL A   1      37.992  32.516  37.696  1.00  0.00     0.041 A 
ATOM     68  F   UNL A   1      38.049  30.445  36.601  1.00  0.00    -0.206 F 
ATOM     69  C   UNL A   1      38.427  33.833  37.813  1.00  0.00     0.022 A 
BRANCH  66  70
ATOM     70  S   UNL A   1      40.016  36.003  37.073  1.00  0.00     0.124 S 
ATOM     71  O   UNL A   1      39.701  36.617  35.787  1.00  0.00    -0.237 OA
ATOM     72  O   UNL A   1      39.282  36.515  38.223  1.00  0.00    -0.237 OA
ATOM     73  O   UNL A   1      41.437  35.748  37.305  1.00  0.00    -0.744 OA
ENDBRANCH  66  70
ENDBRANCH  49  63
BRANCH  50  74
ATOM     74  C   UNL A   1      41.927  26.569  27.817  1.00  0.00     0.023 A 
ATOM     75  C   UNL A   1      41.590  25.207  27.786  1.00  0.00     0.031 A 
ATOM     76  C   UNL A   1      42.632  27.103  26.724  1.00  0.00     0.131 A 
ATOM     77  C   UNL A   1      41.980  24.417  26.692  1.00  0.00     0.055 A 
ATOM     78  C   UNL A   1      42.982  26.322  25.621  1.00  0.00     0.041 A 
ATOM     79  F   UNL A   1      42.970  28.402  26.702  1.00  0.00    -0.206 F 
ATOM     80  C   UNL A   1      42.661  24.968  25.604  1.00  0.00     0.022 A 
BRANCH  77  81
ATOM     81  S   UNL A   1      41.611  22.642  26.726  1.00  0.00     0.124 S 
ATOM     82  O   UNL A   1      42.504  22.173  27.779  1.00  0.00    -0.237 OA
ATOM     83  O   UNL A   1      40.185  22.633  27.042  1.00  0.00    -0.237 OA
ATOM     84  O   UNL A   1      41.948  22.199  25.375  1.00  0.00    -0.744 OA
ENDBRANCH  77  81
ENDBRANCH  50  74
BRANCH  62  85
ATOM     85  C   UNL A   1      44.681  27.642  34.147  1.00  0.00     0.023 A 
ATOM     86  C   UNL A   1      44.614  26.442  34.873  1.00  0.00     0.031 A 
ATOM     87  C   UNL A   1      45.927  28.282  34.028  1.00  0.00     0.131 A 
ATOM     88  C   UNL A   1      45.772  25.927  35.473  1.00  0.00     0.055 A 
ATOM     89  C   UNL A   1      47.084  27.742  34.588  1.00  0.00     0.041 A 
ATOM     90  F   UNL A   1      46.042  29.430  33.340  1.00  0.00    -0.206 F 
ATOM     91  C   UNL A   1      47.010  26.559  35.319  1.00  0.00     0.022 A 
BRANCH  88  92
ATOM     92  S   UNL A   1      45.636  24.429  36.483  1.00  0.00     0.124 S 
ATOM     93  O   UNL A   1      46.884  24.460  37.238  1.00  0.00    -0.237 OA
ATOM     94  O   UNL A   1      44.420  24.676  37.253  1.00  0.00    -0.237 OA
ATOM     95  O   UNL A   1      45.533  23.356  35.495  1.00  0.00    -0.744 OA
ENDBRANCH  88  92
ENDBRANCH  62  85
ENDBRANCH  36  37
ENDBRANCH  28  31
ENDBRANCH  26  27
ENDBRANCH  25  26
ENDBRANCH   1  25
TORSDOF 17
ENDMDL
MODEL 3
REMARK VINA RESULT:     -12.1      3.208      8.690
REMARK SMILES Cc1cc(Cl)cc2c1O[C@H](C(F)(F)F)C(C(=O)NCCCCCCNC(=O)c1ccc(-c3c4nc(c(-c5cc(S(=O)(=O)[O-])ccc5F)c5ccc([nH]5)c(-c5cc(S(=O)(=O)[O-])ccc5F)c5nc(c(-c6cc(S(=O)(=O)[O-])ccc6F)c6ccc3[nH]6)C=C5)C=C4)cc1)=C2
REMARK SMILES IDX 22 1 21 2 20 3 19 4 18 5 16 6 17 7 15 9 1 10 2 11 3 12 8 13
REMARK SMILES IDX 4 14 7 15 9 16 5 17 6 18 91 19 10 20 11 21 12 22 13 23 14 24
REMARK SMILES IDX 23 25 24 26 25 27 26 28 27 30 28 31 29 32 90 33 30 34 89 35
REMARK SMILES IDX 31 36 32 37 33 38 83 39 34 40 88 41 82 42 84 43 35 44 87 45
REMARK SMILES IDX 81 46 80 47 36 49 68 50 48 51 67 52 49 53 52 54 66 55 85 56
REMARK SMILES IDX 50 57 51 58 65 60 86 61 53 62 37 63 38 64 46 65 39 66 45 67
REMARK SMILES IDX 47 68 44 69 40 70 41 71 42 72 43 73 69 74 70 75 78 76 71 77
REMARK SMILES IDX 77 78 79 79 76 80 72 81 73 82 74 83 75 84 54 85 55 86 63 87
REMARK SMILES IDX 56 88 62 89 64 90 61 91 57 92 58 93 59 94 60 95
REMARK H PARENT 18 8 25 29 84 48 52 59
REMARK Flexibility Score: inf
ROOT
ATOM      1  C   UNL A   1      31.572  30.530  26.756  1.00  0.00     0.002 C 
ENDROOT
BRANCH   1   2
ATOM      2  C   UNL A   1      32.904  29.946  27.245  1.00  0.00     0.002 C 
BRANCH   2   3
ATOM      3  C   UNL A   1      33.775  29.318  26.154  1.00  0.00     0.021 C 
BRANCH   3   4
ATOM      4  C   UNL A   1      33.842  27.797  26.229  1.00  0.00     0.116 C 
BRANCH   4   5
ATOM      5  N   UNL A   1      33.909  27.194  24.909  1.00  0.00    -0.352 N 
ATOM      6  C   UNL A   1      33.082  27.037  23.849  1.00  0.00     0.251 C 
ATOM      7  O   UNL A   1      33.577  26.463  22.873  1.00  0.00    -0.270 OA
ATOM      8  H   UNL A   1      34.792  26.793  24.740  1.00  0.00     0.163 HD
BRANCH   6   9
ATOM      9  C   UNL A   1      31.660  27.496  23.791  1.00  0.00     0.067 C 
ATOM     10  C   UNL A   1      26.541  27.958  23.468  1.00  0.00     0.048 C 
ATOM     11  C   UNL A   1      27.712  28.894  23.354  1.00  0.00    -0.007 A 
ATOM     12  C   UNL A   1      27.492  30.266  23.183  1.00  0.00     0.027 A 
ATOM     13  C   UNL A   1      29.031  28.434  23.477  1.00  0.00     0.131 A 
ATOM     14  C   UNL A   1      28.573  31.145  23.106  1.00  0.00     0.042 A 
ATOM     15  C   UNL A   1      30.116  29.312  23.391  1.00  0.00     0.019 A 
ATOM     16  O   UNL A   1      29.199  27.092  23.635  1.00  0.00    -0.475 OA
ATOM     17  Cl  UNL A   1      28.284  32.827  22.881  1.00  0.00    -0.084 Cl
ATOM     18  C   UNL A   1      29.882  30.677  23.203  1.00  0.00     0.032 A 
ATOM     19  C   UNL A   1      31.475  28.786  23.457  1.00  0.00     0.025 C 
ATOM     20  C   UNL A   1      30.482  26.623  24.113  1.00  0.00     0.314 C 
BRANCH  20  21
ATOM     21  C   UNL A   1      30.370  26.304  25.614  1.00  0.00     0.429 C 
ATOM     22  F   UNL A   1      31.264  25.346  25.965  1.00  0.00    -0.167 F 
ATOM     23  F   UNL A   1      30.631  27.376  26.398  1.00  0.00    -0.167 F 
ATOM     24  F   UNL A   1      29.139  25.858  25.955  1.00  0.00    -0.167 F 
ENDBRANCH  20  21
ENDBRANCH   6   9
ENDBRANCH   4   5
ENDBRANCH   3   4
ENDBRANCH   2   3
ENDBRANCH   1   2
BRANCH   1  25
ATOM     25  C   UNL A   1      31.500  32.059  26.727  1.00  0.00     0.021 C 
BRANCH  25  26
ATOM     26  C   UNL A   1      32.827  32.758  26.993  1.00  0.00     0.116 C 
BRANCH  26  27
ATOM     27  N   UNL A   1      32.637  34.030  27.667  1.00  0.00    -0.352 N 
ATOM     28  C   UNL A   1      33.224  34.497  28.815  1.00  0.00     0.251 C 
ATOM     29  H   UNL A   1      31.997  34.644  27.240  1.00  0.00     0.163 HD
ATOM     30  O   UNL A   1      32.769  35.490  29.375  1.00  0.00    -0.269 OA
BRANCH  28  31
ATOM     31  C   UNL A   1      34.392  33.787  29.375  1.00  0.00     0.039 A 
ATOM     32  C   UNL A   1      35.674  34.243  29.067  1.00  0.00     0.014 A 
ATOM     33  C   UNL A   1      34.214  32.671  30.201  1.00  0.00     0.014 A 
ATOM     34  C   UNL A   1      36.782  33.607  29.630  1.00  0.00     0.010 A 
ATOM     35  C   UNL A   1      35.315  32.084  30.816  1.00  0.00     0.010 A 
ATOM     36  C   UNL A   1      36.610  32.540  30.529  1.00  0.00    -0.014 A 
BRANCH  36  37
ATOM     37  C   UNL A   1      37.780  31.874  31.153  1.00  0.00     0.031 A 
ATOM     38  C   UNL A   1      38.226  32.281  32.529  1.00  0.00     0.074 A 
ATOM     39  C   UNL A   1      38.447  30.921  30.472  1.00  0.00     0.049 A 
ATOM     40  N   UNL A   1      39.242  31.846  33.229  1.00  0.00    -0.248 NA
ATOM     41  C   UNL A   1      37.440  33.329  33.200  1.00  0.00     0.031 C 
ATOM     42  C   UNL A   1      38.113  30.457  29.123  1.00  0.00     0.029 A 
ATOM     43  N   UNL A   1      39.534  30.162  30.824  1.00  0.00    -0.354 N 
ATOM     44  C   UNL A   1      39.214  32.561  34.420  1.00  0.00     0.074 A 
ATOM     45  C   UNL A   1      38.122  33.505  34.322  1.00  0.00     0.031 C 
ATOM     46  C   UNL A   1      38.951  29.465  28.780  1.00  0.00     0.029 A 
ATOM     47  C   UNL A   1      39.908  29.251  29.862  1.00  0.00     0.049 A 
ATOM     48  H   UNL A   1      40.005  30.260  31.682  1.00  0.00     0.167 HD
ATOM     49  C   UNL A   1      40.005  32.420  35.510  1.00  0.00     0.034 A 
ATOM     50  C   UNL A   1      40.907  28.347  29.854  1.00  0.00     0.034 A 
ATOM     51  C   UNL A   1      41.077  31.463  35.603  1.00  0.00     0.049 A 
ATOM     52  C   UNL A   1      41.810  28.248  31.056  1.00  0.00     0.074 A 
ATOM     53  C   UNL A   1      41.919  31.217  36.672  1.00  0.00     0.029 A 
ATOM     54  N   UNL A   1      41.454  30.592  34.590  1.00  0.00    -0.354 N 
ATOM     55  N   UNL A   1      41.764  28.928  32.178  1.00  0.00    -0.248 NA
ATOM     56  C   UNL A   1      42.900  27.265  30.991  1.00  0.00     0.031 C 
ATOM     57  C   UNL A   1      42.843  30.242  36.286  1.00  0.00     0.029 A 
ATOM     58  C   UNL A   1      42.536  29.829  34.999  1.00  0.00     0.049 A 
ATOM     59  H   UNL A   1      41.017  30.525  33.709  1.00  0.00     0.167 HD
ATOM     60  C   UNL A   1      42.804  28.439  32.961  1.00  0.00     0.074 A 
ATOM     61  C   UNL A   1      43.457  27.403  32.186  1.00  0.00     0.031 C 
ATOM     62  C   UNL A   1      43.182  28.811  34.209  1.00  0.00     0.034 A 
BRANCH  49  63
ATOM     63  C   UNL A   1      39.744  33.323  36.686  1.00  0.00     0.023 A 
ATOM     64  C   UNL A   1      39.058  32.863  37.822  1.00  0.00     0.031 A 
ATOM     65  C   UNL A   1      40.204  34.651  36.682  1.00  0.00     0.131 A 
ATOM     66  C   UNL A   1      38.813  33.737  38.891  1.00  0.00     0.055 A 
ATOM     67  C   UNL A   1      40.014  35.497  37.776  1.00  0.00     0.041 A 
ATOM     68  F   UNL A   1      40.848  35.148  35.614  1.00  0.00    -0.206 F 
ATOM     69  C   UNL A   1      39.308  35.043  38.887  1.00  0.00     0.022 A 
BRANCH  66  70
ATOM     70  S   UNL A   1      37.764  33.165  40.255  1.00  0.00     0.124 S 
ATOM     71  O   UNL A   1      37.698  34.358  41.094  1.00  0.00    -0.237 OA
ATOM     72  O   UNL A   1      36.531  32.793  39.573  1.00  0.00    -0.237 OA
ATOM     73  O   UNL A   1      38.521  32.051  40.824  1.00  0.00    -0.744 OA
ENDBRANCH  66  70
ENDBRANCH  49  63
BRANCH  50  74
ATOM     74  C   UNL A   1      41.105  27.463  28.672  1.00  0.00     0.023 A 
ATOM     75  C   UNL A   1      42.100  27.743  27.724  1.00  0.00     0.031 A 
ATOM     76  C   UNL A   1      40.304  26.323  28.476  1.00  0.00     0.131 A 
ATOM     77  C   UNL A   1      42.256  26.905  26.608  1.00  0.00     0.055 A 
ATOM     78  C   UNL A   1      40.489  25.472  27.386  1.00  0.00     0.041 A 
ATOM     79  F   UNL A   1      39.343  26.009  29.360  1.00  0.00    -0.206 F 
ATOM     80  C   UNL A   1      41.466  25.765  26.440  1.00  0.00     0.022 A 
BRANCH  77  81
ATOM     81  S   UNL A   1      43.490  27.346  25.353  1.00  0.00     0.124 S 
ATOM     82  O   UNL A   1      44.082  26.048  25.050  1.00  0.00    -0.237 OA
ATOM     83  O   UNL A   1      42.661  27.934  24.305  1.00  0.00    -0.237 OA
ATOM     84  O   UNL A   1      44.363  28.286  26.052  1.00  0.00    -0.744 OA
ENDBRANCH  77  81
ENDBRANCH  50  74
BRANCH  62  85
ATOM     85  C   UNL A   1      44.345  28.084  34.830  1.00  0.00     0.023 A 
ATOM     86  C   UNL A   1      44.171  26.863  35.501  1.00  0.00     0.031 A 
ATOM     87  C   UNL A   1      45.650  28.590  34.692  1.00  0.00     0.131 A 
ATOM     88  C   UNL A   1      45.284  26.195  36.029  1.00  0.00     0.055 A 
ATOM     89  C   UNL A   1      46.758  27.899  35.179  1.00  0.00     0.041 A 
ATOM     90  F   UNL A   1      45.867  29.752  34.055  1.00  0.00    -0.206 F 
ATOM     91  C   UNL A   1      46.579  26.695  35.855  1.00  0.00     0.022 A 
BRANCH  88  92
ATOM     92  S   UNL A   1      45.019  24.671  36.972  1.00  0.00     0.124 S 
ATOM     93  O   UNL A   1      46.300  23.991  36.814  1.00  0.00    -0.237 OA
ATOM     94  O   UNL A   1      44.725  25.174  38.311  1.00  0.00    -0.237 OA
ATOM     95  O   UNL A   1      43.890  24.037  36.291  1.00  0.00    -0.744 OA
ENDBRANCH  88  92
ENDBRANCH  62  85
ENDBRANCH  36  37
ENDBRANCH  28  31
ENDBRANCH  26  27
ENDBRANCH  25  26
ENDBRANCH   1  25
TORSDOF 17
ENDMDL
