MODEL 1
REMARK VINA RESULT:     -12.2      0.000      0.000
REMARK SMILES O=C(NCCCCCCNC(=O)c1cccc(S(=O)(=O)Oc2ccccc2)c1)c1ccc(-c2c3nc(c(-c4cc(S(=O)(=O)[O-])ccc4F)c4ccc([nH]4)c(-c4cc(S(=O)(=O)[O-])ccc4F)c4nc(c(-c5cc(S(=O)(=O)[O-])ccc5F)c5ccc2[nH]5)C=C4)C=C3)cc1
REMARK SMILES IDX 6 1 5 2 4 3 3 4 1 5 2 6 29 8 30 9 91 10 31 11 90 12 32 13
REMARK SMILES IDX 33 14 34 15 84 16 35 17 89 18 83 19 85 20 36 21 88 22 82 23
REMARK SMILES IDX 81 24 37 26 69 27 49 28 68 29 50 30 53 31 67 32 86 33 51 34
REMARK SMILES IDX 52 35 66 37 87 38 54 39 38 40 39 41 47 42 40 43 46 44 48 45
REMARK SMILES IDX 45 46 41 47 42 48 43 49 44 50 70 51 71 52 79 53 72 54 78 55
REMARK SMILES IDX 80 56 77 57 73 58 74 59 75 60 76 61 55 62 56 63 64 64 57 65
REMARK SMILES IDX 63 66 65 67 62 68 58 69 59 70 60 71 61 72 7 73 8 74 9 75
REMARK SMILES IDX 10 76 11 77 12 79 13 80 14 81 28 82 15 83 17 84 16 85 18 86
REMARK SMILES IDX 19 87 20 88 21 89 22 90 23 91 27 92 24 93 26 94 25 95
REMARK H PARENT 3 7 85 25 53 36 10 78
REMARK Flexibility Score: inf
ROOT
ATOM      1  C   UNL A   1      34.522  22.762  23.444  1.00  0.00     0.002 C 
ENDROOT
BRANCH   1   2
ATOM      2  C   UNL A   1      36.014  22.581  23.718  1.00  0.00     0.021 C 
BRANCH   2   3
ATOM      3  C   UNL A   1      36.391  22.356  25.177  1.00  0.00     0.116 C 
BRANCH   3   4
ATOM      4  N   UNL A   1      37.268  21.213  25.370  1.00  0.00    -0.352 N 
ATOM      5  O   UNL A   1      39.202  20.137  25.809  1.00  0.00    -0.269 OA
ATOM      6  C   UNL A   1      38.565  21.186  25.829  1.00  0.00     0.251 C 
ATOM      7  H   UNL A   1      36.882  20.338  25.140  1.00  0.00     0.163 HD
BRANCH   6   8
ATOM      8  C   UNL A   1      39.198  22.432  26.320  1.00  0.00     0.039 A 
ATOM      9  C   UNL A   1      38.650  23.679  26.014  1.00  0.00     0.014 A 
ATOM     10  C   UNL A   1      40.362  22.349  27.090  1.00  0.00     0.014 A 
ATOM     11  C   UNL A   1      39.343  24.839  26.346  1.00  0.00     0.010 A 
ATOM     12  C   UNL A   1      41.012  23.519  27.496  1.00  0.00     0.010 A 
ATOM     13  C   UNL A   1      40.527  24.775  27.097  1.00  0.00    -0.014 A 
BRANCH  13  14
ATOM     14  C   UNL A   1      41.215  26.038  27.479  1.00  0.00     0.031 A 
ATOM     15  C   UNL A   1      42.586  26.368  26.953  1.00  0.00     0.074 A 
ATOM     16  C   UNL A   1      40.568  26.910  28.277  1.00  0.00     0.049 A 
ATOM     17  N   UNL A   1      43.309  27.441  27.149  1.00  0.00    -0.248 NA
ATOM     18  C   UNL A   1      43.232  25.357  26.104  1.00  0.00     0.031 C 
ATOM     19  C   UNL A   1      39.237  26.693  28.851  1.00  0.00     0.029 A 
ATOM     20  N   UNL A   1      40.921  28.157  28.721  1.00  0.00    -0.354 N 
ATOM     21  C   UNL A   1      44.503  27.232  26.465  1.00  0.00     0.074 A 
ATOM     22  C   UNL A   1      44.417  25.909  25.880  1.00  0.00     0.031 C 
ATOM     23  C   UNL A   1      38.863  27.793  29.520  1.00  0.00     0.029 A 
ATOM     24  C   UNL A   1      39.949  28.765  29.482  1.00  0.00     0.049 A 
ATOM     25  H   UNL A   1      41.787  28.578  28.516  1.00  0.00     0.167 HD
ATOM     26  C   UNL A   1      45.565  28.066  26.333  1.00  0.00     0.034 A 
ATOM     27  C   UNL A   1      39.936  29.965  30.091  1.00  0.00     0.034 A 
ATOM     28  C   UNL A   1      45.631  29.385  26.925  1.00  0.00     0.049 A 
ATOM     29  C   UNL A   1      41.139  30.858  29.959  1.00  0.00     0.074 A 
ATOM     30  C   UNL A   1      46.641  30.327  26.828  1.00  0.00     0.029 A 
ATOM     31  N   UNL A   1      44.650  29.945  27.736  1.00  0.00    -0.354 N 
ATOM     32  N   UNL A   1      42.251  30.651  29.293  1.00  0.00    -0.248 NA
ATOM     33  C   UNL A   1      41.084  32.144  30.661  1.00  0.00     0.031 C 
ATOM     34  C   UNL A   1      46.303  31.423  27.629  1.00  0.00     0.029 A 
ATOM     35  C   UNL A   1      45.047  31.203  28.170  1.00  0.00     0.049 A 
ATOM     36  H   UNL A   1      43.797  29.512  27.968  1.00  0.00     0.167 HD
ATOM     37  C   UNL A   1      43.021  31.794  29.480  1.00  0.00     0.074 A 
ATOM     38  C   UNL A   1      42.235  32.692  30.303  1.00  0.00     0.031 C 
ATOM     39  C   UNL A   1      44.263  32.078  29.011  1.00  0.00     0.034 A 
BRANCH  26  40
ATOM     40  C   UNL A   1      46.761  27.555  25.562  1.00  0.00     0.023 A 
ATOM     41  C   UNL A   1      47.034  27.972  24.246  1.00  0.00     0.031 A 
ATOM     42  C   UNL A   1      47.624  26.607  26.140  1.00  0.00     0.131 A 
ATOM     43  C   UNL A   1      48.093  27.390  23.529  1.00  0.00     0.055 A 
ATOM     44  C   UNL A   1      48.724  26.090  25.450  1.00  0.00     0.041 A 
ATOM     45  F   UNL A   1      47.406  26.153  27.385  1.00  0.00    -0.206 F 
ATOM     46  C   UNL A   1      48.954  26.469  24.131  1.00  0.00     0.022 A 
BRANCH  43  47
ATOM     47  S   UNL A   1      48.235  27.739  21.753  1.00  0.00     0.124 S 
ATOM     48  O   UNL A   1      49.339  28.696  21.724  1.00  0.00    -0.237 OA
ATOM     49  O   UNL A   1      48.519  26.424  21.190  1.00  0.00    -0.237 OA
ATOM     50  O   UNL A   1      46.931  28.297  21.405  1.00  0.00    -0.744 OA
ENDBRANCH  43  47
ENDBRANCH  26  40
BRANCH  27  51
ATOM     51  C   UNL A   1      38.753  30.385  30.893  1.00  0.00     0.023 A 
ATOM     52  C   UNL A   1      37.688  31.081  30.300  1.00  0.00     0.031 A 
ATOM     53  C   UNL A   1      38.680  30.113  32.271  1.00  0.00     0.131 A 
ATOM     54  C   UNL A   1      36.610  31.512  31.089  1.00  0.00     0.055 A 
ATOM     55  C   UNL A   1      37.583  30.499  33.042  1.00  0.00     0.041 A 
ATOM     56  F   UNL A   1      39.671  29.446  32.884  1.00  0.00    -0.206 F 
ATOM     57  C   UNL A   1      36.544  31.214  32.452  1.00  0.00     0.022 A 
BRANCH  54  58
ATOM     58  S   UNL A   1      35.323  32.530  30.318  1.00  0.00     0.124 S 
ATOM     59  O   UNL A   1      34.331  32.613  31.383  1.00  0.00    -0.237 OA
ATOM     60  O   UNL A   1      36.049  33.760  30.019  1.00  0.00    -0.237 OA
ATOM     61  O   UNL A   1      34.923  31.746  29.151  1.00  0.00    -0.744 OA
ENDBRANCH  54  58
ENDBRANCH  27  51
BRANCH  39  62
ATOM     62  C   UNL A   1      44.822  33.436  29.361  1.00  0.00     0.023 A 
ATOM     63  C   UNL A   1      44.614  34.555  28.535  1.00  0.00     0.031 A 
ATOM     64  C   UNL A   1      45.611  33.600  30.512  1.00  0.00     0.131 A 
ATOM     65  C   UNL A   1      45.243  35.772  28.837  1.00  0.00     0.055 A 
ATOM     66  C   UNL A   1      46.185  34.830  30.840  1.00  0.00     0.041 A 
ATOM     67  F   UNL A   1      45.846  32.564  31.334  1.00  0.00    -0.206 F 
ATOM     68  C   UNL A   1      46.014  35.921  29.992  1.00  0.00     0.022 A 
BRANCH  65  69
ATOM     69  S   UNL A   1      45.126  37.133  27.642  1.00  0.00     0.124 S 
ATOM     70  O   UNL A   1      43.735  37.042  27.213  1.00  0.00    -0.237 OA
ATOM     71  O   UNL A   1      45.468  38.294  28.457  1.00  0.00    -0.237 OA
ATOM     72  O   UNL A   1      46.114  36.779  26.623  1.00  0.00    -0.744 OA
ENDBRANCH  65  69
ENDBRANCH  39  62
ENDBRANCH  13  14
ENDBRANCH   6   8
ENDBRANCH   3   4
ENDBRANCH   2   3
ENDBRANCH   1   2
BRANCH   1  73
ATOM     73  C   UNL A   1      33.591  21.765  24.138  1.00  0.00     0.002 C 
BRANCH  73  74
ATOM     74  C   UNL A   1      32.181  21.639  23.548  1.00  0.00     0.021 C 
BRANCH  74  75
ATOM     75  C   UNL A   1      31.283  22.863  23.722  1.00  0.00     0.116 C 
BRANCH  75  76
ATOM     76  N   UNL A   1      30.782  22.989  25.081  1.00  0.00    -0.352 N 
ATOM     77  C   UNL A   1      31.158  23.862  26.068  1.00  0.00     0.251 C 
ATOM     78  H   UNL A   1      30.069  22.356  25.327  1.00  0.00     0.163 HD
ATOM     79  O   UNL A   1      30.741  23.724  27.215  1.00  0.00    -0.269 OA
BRANCH  77  80
ATOM     80  C   UNL A   1      32.082  24.973  25.758  1.00  0.00     0.041 A 
ATOM     81  C   UNL A   1      33.434  24.830  26.087  1.00  0.00     0.014 A 
ATOM     82  C   UNL A   1      31.612  26.154  25.173  1.00  0.00     0.037 A 
ATOM     83  C   UNL A   1      34.337  25.851  25.784  1.00  0.00     0.002 A 
ATOM     84  C   UNL A   1      32.527  27.161  24.861  1.00  0.00     0.106 A 
ATOM     85  C   UNL A   1      33.888  27.014  25.159  1.00  0.00     0.024 A 
BRANCH  84  86
ATOM     86  S   UNL A   1      31.999  28.630  23.993  1.00  0.00     0.339 S 
ATOM     87  O   UNL A   1      31.389  29.474  24.994  1.00  0.00    -0.181 OA
ATOM     88  O   UNL A   1      33.169  29.051  23.239  1.00  0.00    -0.181 OA
BRANCH  86  89
ATOM     89  O   UNL A   1      30.854  28.079  22.968  1.00  0.00    -0.379 OA
BRANCH  89  90
ATOM     90  C   UNL A   1      29.749  28.826  22.654  1.00  0.00     0.142 A 
ATOM     91  C   UNL A   1      29.985  30.005  21.942  1.00  0.00     0.048 A 
ATOM     92  C   UNL A   1      28.463  28.529  23.101  1.00  0.00     0.048 A 
ATOM     93  C   UNL A   1      28.932  30.880  21.667  1.00  0.00     0.004 A 
ATOM     94  C   UNL A   1      27.412  29.408  22.824  1.00  0.00     0.004 A 
ATOM     95  C   UNL A   1      27.647  30.583  22.112  1.00  0.00     0.000 A 
ENDBRANCH  89  90
ENDBRANCH  86  89
ENDBRANCH  84  86
ENDBRANCH  77  80
ENDBRANCH  75  76
ENDBRANCH  74  75
ENDBRANCH  73  74
ENDBRANCH   1  73
TORSDOF 19
ENDMDL
MODEL 2
REMARK VINA RESULT:     -11.7      1.409      7.614
REMARK SMILES O=C(NCCCCCCNC(=O)c1cccc(S(=O)(=O)Oc2ccccc2)c1)c1ccc(-c2c3nc(c(-c4cc(S(=O)(=O)[O-])ccc4F)c4ccc([nH]4)c(-c4cc(S(=O)(=O)[O-])ccc4F)c4nc(c(-c5cc(S(=O)(=O)[O-])ccc5F)c5ccc2[nH]5)C=C4)C=C3)cc1
REMARK SMILES IDX 6 1 5 2 4 3 3 4 1 5 2 6 29 8 30 9 91 10 31 11 90 12 32 13
REMARK SMILES IDX 33 14 34 15 84 16 35 17 89 18 83 19 85 20 36 21 88 22 82 23
REMARK SMILES IDX 81 24 37 26 69 27 49 28 68 29 50 30 53 31 67 32 86 33 51 34
REMARK SMILES IDX 52 35 66 37 87 38 54 39 38 40 39 41 47 42 40 43 46 44 48 45
REMARK SMILES IDX 45 46 41 47 42 48 43 49 44 50 70 51 71 52 79 53 72 54 78 55
REMARK SMILES IDX 80 56 77 57 73 58 74 59 75 60 76 61 55 62 56 63 64 64 57 65
REMARK SMILES IDX 63 66 65 67 62 68 58 69 59 70 60 71 61 72 7 73 8 74 9 75
REMARK SMILES IDX 10 76 11 77 12 79 13 80 14 81 28 82 15 83 17 84 16 85 18 86
REMARK SMILES IDX 19 87 20 88 21 89 22 90 23 91 27 92 24 93 26 94 25 95
REMARK H PARENT 3 7 85 25 53 36 10 78
REMARK Flexibility Score: inf
ROOT
ATOM      1  C   UNL A   1      35.292  19.872  24.635  1.00  0.00     0.002 C 
ENDROOT
BRANCH   1   2
ATOM      2  C   UNL A   1      35.436  21.388  24.766  1.00  0.00     0.021 C 
BRANCH   2   3
ATOM      3  C   UNL A   1      36.813  21.882  25.191  1.00  0.00     0.116 C 
BRANCH   3   4
ATOM      4  N   UNL A   1      37.739  20.801  25.492  1.00  0.00    -0.352 N 
ATOM      5  O   UNL A   1      39.707  19.858  26.063  1.00  0.00    -0.269 OA
ATOM      6  C   UNL A   1      39.020  20.873  25.988  1.00  0.00     0.251 C 
ATOM      7  H   UNL A   1      37.403  19.893  25.316  1.00  0.00     0.163 HD
BRANCH   6   8
ATOM      8  C   UNL A   1      39.576  22.181  26.404  1.00  0.00     0.039 A 
ATOM      9  C   UNL A   1      39.014  23.374  25.944  1.00  0.00     0.014 A 
ATOM     10  C   UNL A   1      40.682  22.212  27.259  1.00  0.00     0.014 A 
ATOM     11  C   UNL A   1      39.644  24.585  26.214  1.00  0.00     0.010 A 
ATOM     12  C   UNL A   1      41.263  23.438  27.599  1.00  0.00     0.010 A 
ATOM     13  C   UNL A   1      40.771  24.634  27.050  1.00  0.00    -0.014 A 
BRANCH  13  14
ATOM     14  C   UNL A   1      41.389  25.951  27.360  1.00  0.00     0.031 A 
ATOM     15  C   UNL A   1      40.678  26.963  28.217  1.00  0.00     0.074 A 
ATOM     16  C   UNL A   1      42.626  26.210  26.893  1.00  0.00     0.049 A 
ATOM     17  N   UNL A   1      41.089  28.138  28.621  1.00  0.00    -0.248 NA
ATOM     18  C   UNL A   1      39.325  26.612  28.673  1.00  0.00     0.031 C 
ATOM     19  C   UNL A   1      43.409  25.305  26.047  1.00  0.00     0.029 A 
ATOM     20  N   UNL A   1      43.452  27.287  27.079  1.00  0.00    -0.354 N 
ATOM     21  C   UNL A   1      40.042  28.679  29.363  1.00  0.00     0.074 A 
ATOM     22  C   UNL A   1      38.964  27.713  29.319  1.00  0.00     0.031 C 
ATOM     23  C   UNL A   1      44.622  25.839  25.838  1.00  0.00     0.029 A 
ATOM     24  C   UNL A   1      44.680  27.150  26.475  1.00  0.00     0.049 A 
ATOM     25  H   UNL A   1      43.192  28.084  27.596  1.00  0.00     0.167 HD
ATOM     26  C   UNL A   1      39.991  29.864  30.021  1.00  0.00     0.034 A 
ATOM     27  C   UNL A   1      45.734  27.987  26.428  1.00  0.00     0.034 A 
ATOM     28  C   UNL A   1      41.080  30.815  30.053  1.00  0.00     0.049 A 
ATOM     29  C   UNL A   1      45.639  29.310  27.137  1.00  0.00     0.074 A 
ATOM     30  C   UNL A   1      41.149  32.029  30.716  1.00  0.00     0.029 A 
ATOM     31  N   UNL A   1      42.289  30.665  29.383  1.00  0.00    -0.354 N 
ATOM     32  N   UNL A   1      44.648  29.796  27.849  1.00  0.00    -0.248 NA
ATOM     33  C   UNL A   1      46.804  30.195  27.036  1.00  0.00     0.031 C 
ATOM     34  C   UNL A   1      42.367  32.640  30.396  1.00  0.00     0.029 A 
ATOM     35  C   UNL A   1      43.094  31.778  29.592  1.00  0.00     0.049 A 
ATOM     36  H   UNL A   1      42.539  29.884  28.840  1.00  0.00     0.167 HD
ATOM     37  C   UNL A   1      45.082  31.039  28.298  1.00  0.00     0.074 A 
ATOM     38  C   UNL A   1      46.429  31.215  27.793  1.00  0.00     0.031 C 
ATOM     39  C   UNL A   1      44.427  31.951  29.061  1.00  0.00     0.034 A 
BRANCH  26  40
ATOM     40  C   UNL A   1      38.695  30.218  30.716  1.00  0.00     0.023 A 
ATOM     41  C   UNL A   1      37.661  30.910  30.058  1.00  0.00     0.031 A 
ATOM     42  C   UNL A   1      38.503  29.887  32.070  1.00  0.00     0.131 A 
ATOM     43  C   UNL A   1      36.520  31.313  30.772  1.00  0.00     0.055 A 
ATOM     44  C   UNL A   1      37.332  30.221  32.754  1.00  0.00     0.041 A 
ATOM     45  F   UNL A   1      39.461  29.246  32.759  1.00  0.00    -0.206 F 
ATOM     46  C   UNL A   1      36.338  30.952  32.109  1.00  0.00     0.022 A 
BRANCH  43  47
ATOM     47  S   UNL A   1      35.348  32.444  29.971  1.00  0.00     0.124 S 
ATOM     48  O   UNL A   1      34.840  31.623  28.874  1.00  0.00    -0.237 OA
ATOM     49  O   UNL A   1      34.399  32.734  31.040  1.00  0.00    -0.237 OA
ATOM     50  O   UNL A   1      36.183  33.570  29.558  1.00  0.00    -0.744 OA
ENDBRANCH  43  47
ENDBRANCH  26  40
BRANCH  27  51
ATOM     51  C   UNL A   1      46.959  27.607  25.671  1.00  0.00     0.023 A 
ATOM     52  C   UNL A   1      47.086  27.903  24.305  1.00  0.00     0.031 A 
ATOM     53  C   UNL A   1      48.014  26.924  26.301  1.00  0.00     0.131 A 
ATOM     54  C   UNL A   1      48.228  27.486  23.604  1.00  0.00     0.055 A 
ATOM     55  C   UNL A   1      49.170  26.555  25.612  1.00  0.00     0.041 A 
ATOM     56  F   UNL A   1      47.944  26.621  27.607  1.00  0.00    -0.206 F 
ATOM     57  C   UNL A   1      49.276  26.827  24.251  1.00  0.00     0.022 A 
BRANCH  54  58
ATOM     58  S   UNL A   1      48.294  27.759  21.813  1.00  0.00     0.124 S 
ATOM     59  O   UNL A   1      49.412  28.687  21.694  1.00  0.00    -0.237 OA
ATOM     60  O   UNL A   1      48.521  26.409  21.309  1.00  0.00    -0.237 OA
ATOM     61  O   UNL A   1      46.980  28.323  21.507  1.00  0.00    -0.744 OA
ENDBRANCH  54  58
ENDBRANCH  27  51
BRANCH  39  62
ATOM     62  C   UNL A   1      45.189  33.205  29.416  1.00  0.00     0.023 A 
ATOM     63  C   UNL A   1      45.134  34.356  28.610  1.00  0.00     0.031 A 
ATOM     64  C   UNL A   1      46.017  33.231  30.551  1.00  0.00     0.131 A 
ATOM     65  C   UNL A   1      45.943  35.461  28.913  1.00  0.00     0.055 A 
ATOM     66  C   UNL A   1      46.774  34.356  30.883  1.00  0.00     0.041 A 
ATOM     67  F   UNL A   1      46.111  32.159  31.354  1.00  0.00    -0.206 F 
ATOM     68  C   UNL A   1      46.751  35.474  30.053  1.00  0.00     0.022 A 
BRANCH  65  69
ATOM     69  S   UNL A   1      46.007  36.843  27.739  1.00  0.00     0.124 S 
ATOM     70  O   UNL A   1      45.269  36.307  26.600  1.00  0.00    -0.237 OA
ATOM     71  O   UNL A   1      45.348  37.912  28.480  1.00  0.00    -0.237 OA
ATOM     72  O   UNL A   1      47.439  37.036  27.515  1.00  0.00    -0.744 OA
ENDBRANCH  65  69
ENDBRANCH  39  62
ENDBRANCH  13  14
ENDBRANCH   6   8
ENDBRANCH   3   4
ENDBRANCH   2   3
ENDBRANCH   1   2
BRANCH   1  73
ATOM     73  C   UNL A   1      33.881  19.317  24.844  1.00  0.00     0.002 C 
BRANCH  73  74
ATOM     74  C   UNL A   1      32.958  20.149  25.742  1.00  0.00     0.021 C 
BRANCH  74  75
ATOM     75  C   UNL A   1      31.987  21.075  25.012  1.00  0.00     0.116 C 
BRANCH  75  76
ATOM     76  N   UNL A   1      31.139  21.817  25.930  1.00  0.00    -0.352 N 
ATOM     77  C   UNL A   1      31.250  23.113  26.362  1.00  0.00     0.251 C 
ATOM     78  H   UNL A   1      30.373  21.316  26.293  1.00  0.00     0.163 HD
ATOM     79  O   UNL A   1      30.535  23.531  27.268  1.00  0.00    -0.269 OA
BRANCH  77  80
ATOM     80  C   UNL A   1      32.246  24.013  25.746  1.00  0.00     0.041 A 
ATOM     81  C   UNL A   1      33.547  24.025  26.261  1.00  0.00     0.014 A 
ATOM     82  C   UNL A   1      31.892  24.856  24.687  1.00  0.00     0.037 A 
ATOM     83  C   UNL A   1      34.518  24.846  25.684  1.00  0.00     0.002 A 
ATOM     84  C   UNL A   1      32.875  25.661  24.108  1.00  0.00     0.106 A 
ATOM     85  C   UNL A   1      34.188  25.657  24.598  1.00  0.00     0.024 A 
BRANCH  84  86
ATOM     86  S   UNL A   1      32.506  26.653  22.671  1.00  0.00     0.339 S 
ATOM     87  O   UNL A   1      33.782  26.922  22.047  1.00  0.00    -0.181 OA
ATOM     88  O   UNL A   1      31.450  25.927  21.983  1.00  0.00    -0.181 OA
BRANCH  86  89
ATOM     89  O   UNL A   1      31.903  28.033  23.302  1.00  0.00    -0.379 OA
BRANCH  89  90
ATOM     90  C   UNL A   1      32.133  28.390  24.604  1.00  0.00     0.142 A 
ATOM     91  C   UNL A   1      33.330  29.065  24.856  1.00  0.00     0.048 A 
ATOM     92  C   UNL A   1      31.309  28.017  25.665  1.00  0.00     0.048 A 
ATOM     93  C   UNL A   1      33.696  29.378  26.167  1.00  0.00     0.004 A 
ATOM     94  C   UNL A   1      31.679  28.331  26.975  1.00  0.00     0.004 A 
ATOM     95  C   UNL A   1      32.872  29.007  27.226  1.00  0.00     0.000 A 
ENDBRANCH  89  90
ENDBRANCH  86  89
ENDBRANCH  84  86
ENDBRANCH  77  80
ENDBRANCH  75  76
ENDBRANCH  74  75
ENDBRANCH  73  74
ENDBRANCH   1  73
TORSDOF 19
ENDMDL
MODEL 3
REMARK VINA RESULT:     -11.5      5.800     11.044
REMARK SMILES O=C(NCCCCCCNC(=O)c1cccc(S(=O)(=O)Oc2ccccc2)c1)c1ccc(-c2c3nc(c(-c4cc(S(=O)(=O)[O-])ccc4F)c4ccc([nH]4)c(-c4cc(S(=O)(=O)[O-])ccc4F)c4nc(c(-c5cc(S(=O)(=O)[O-])ccc5F)c5ccc2[nH]5)C=C4)C=C3)cc1
REMARK SMILES IDX 6 1 5 2 4 3 3 4 1 5 2 6 29 8 30 9 91 10 31 11 90 12 32 13
REMARK SMILES IDX 33 14 34 15 84 16 35 17 89 18 83 19 85 20 36 21 88 22 82 23
REMARK SMILES IDX 81 24 37 26 69 27 49 28 68 29 50 30 53 31 67 32 86 33 51 34
REMARK SMILES IDX 52 35 66 37 87 38 54 39 38 40 39 41 47 42 40 43 46 44 48 45
REMARK SMILES IDX 45 46 41 47 42 48 43 49 44 50 70 51 71 52 79 53 72 54 78 55
REMARK SMILES IDX 80 56 77 57 73 58 74 59 75 60 76 61 55 62 56 63 64 64 57 65
REMARK SMILES IDX 63 66 65 67 62 68 58 69 59 70 60 71 61 72 7 73 8 74 9 75
REMARK SMILES IDX 10 76 11 77 12 79 13 80 14 81 28 82 15 83 17 84 16 85 18 86
REMARK SMILES IDX 19 87 20 88 21 89 22 90 23 91 27 92 24 93 26 94 25 95
REMARK H PARENT 3 7 85 25 53 36 10 78
REMARK Flexibility Score: inf
ROOT
ATOM      1  C   UNL A   1      35.596  32.808  28.098  1.00  0.00     0.002 C 
ENDROOT
BRANCH   1   2
ATOM      2  C   UNL A   1      34.211  33.454  28.074  1.00  0.00     0.021 C 
BRANCH   2   3
ATOM      3  C   UNL A   1      34.178  34.947  28.375  1.00  0.00     0.116 C 
BRANCH   3   4
ATOM      4  N   UNL A   1      33.278  35.289  29.465  1.00  0.00    -0.352 N 
ATOM      5  O   UNL A   1      32.452  35.235  31.564  1.00  0.00    -0.269 OA
ATOM      6  C   UNL A   1      33.375  34.967  30.799  1.00  0.00     0.251 C 
ATOM      7  H   UNL A   1      32.490  35.822  29.213  1.00  0.00     0.163 HD
BRANCH   6   8
ATOM      8  C   UNL A   1      34.584  34.276  31.304  1.00  0.00     0.039 A 
ATOM      9  C   UNL A   1      35.826  34.912  31.293  1.00  0.00     0.014 A 
ATOM     10  C   UNL A   1      34.471  32.968  31.784  1.00  0.00     0.014 A 
ATOM     11  C   UNL A   1      36.973  34.195  31.619  1.00  0.00     0.010 A 
ATOM     12  C   UNL A   1      35.616  32.276  32.193  1.00  0.00     0.010 A 
ATOM     13  C   UNL A   1      36.883  32.871  32.079  1.00  0.00    -0.014 A 
BRANCH  13  14
ATOM     14  C   UNL A   1      38.125  32.151  32.468  1.00  0.00     0.031 A 
ATOM     15  C   UNL A   1      38.802  32.420  33.785  1.00  0.00     0.074 A 
ATOM     16  C   UNL A   1      38.616  31.213  31.634  1.00  0.00     0.049 A 
ATOM     17  N   UNL A   1      39.864  31.853  34.300  1.00  0.00    -0.248 NA
ATOM     18  C   UNL A   1      38.216  33.471  34.629  1.00  0.00     0.031 C 
ATOM     19  C   UNL A   1      38.046  30.872  30.328  1.00  0.00     0.029 A 
ATOM     20  N   UNL A   1      39.680  30.360  31.764  1.00  0.00    -0.354 N 
ATOM     21  C   UNL A   1      40.086  32.485  35.519  1.00  0.00     0.074 A 
ATOM     22  C   UNL A   1      39.067  33.506  35.646  1.00  0.00     0.031 C 
ATOM     23  C   UNL A   1      38.730  29.843  29.806  1.00  0.00     0.029 A 
ATOM     24  C   UNL A   1      39.825  29.496  30.704  1.00  0.00     0.049 A 
ATOM     25  H   UNL A   1      40.284  30.365  32.542  1.00  0.00     0.167 HD
ATOM     26  C   UNL A   1      41.046  32.233  36.445  1.00  0.00     0.034 A 
ATOM     27  C   UNL A   1      40.743  28.538  30.472  1.00  0.00     0.034 A 
ATOM     28  C   UNL A   1      42.055  31.207  36.299  1.00  0.00     0.049 A 
ATOM     29  C   UNL A   1      41.816  28.301  31.497  1.00  0.00     0.074 A 
ATOM     30  C   UNL A   1      43.052  30.842  37.188  1.00  0.00     0.029 A 
ATOM     31  N   UNL A   1      42.204  30.387  35.185  1.00  0.00    -0.354 N 
ATOM     32  N   UNL A   1      42.000  28.896  32.653  1.00  0.00    -0.248 NA
ATOM     33  C   UNL A   1      42.805  27.263  31.186  1.00  0.00     0.031 C 
ATOM     34  C   UNL A   1      43.840  29.853  36.588  1.00  0.00     0.029 A 
ATOM     35  C   UNL A   1      43.294  29.543  35.353  1.00  0.00     0.049 A 
ATOM     36  H   UNL A   1      41.620  30.403  34.393  1.00  0.00     0.167 HD
ATOM     37  C   UNL A   1      43.117  28.287  33.217  1.00  0.00     0.074 A 
ATOM     38  C   UNL A   1      43.548  27.267  32.282  1.00  0.00     0.031 C 
ATOM     39  C   UNL A   1      43.728  28.546  34.401  1.00  0.00     0.034 A 
BRANCH  26  40
ATOM     40  C   UNL A   1      41.078  33.116  37.672  1.00  0.00     0.023 A 
ATOM     41  C   UNL A   1      40.247  32.880  38.783  1.00  0.00     0.031 A 
ATOM     42  C   UNL A   1      41.931  34.233  37.718  1.00  0.00     0.131 A 
ATOM     43  C   UNL A   1      40.233  33.788  39.855  1.00  0.00     0.055 A 
ATOM     44  C   UNL A   1      41.971  35.088  38.822  1.00  0.00     0.041 A 
ATOM     45  F   UNL A   1      42.733  34.524  36.681  1.00  0.00    -0.206 F 
ATOM     46  C   UNL A   1      41.107  34.877  39.893  1.00  0.00     0.022 A 
BRANCH  43  47
ATOM     47  S   UNL A   1      38.951  33.609  41.128  1.00  0.00     0.124 S 
ATOM     48  O   UNL A   1      39.694  32.974  42.214  1.00  0.00    -0.237 OA
ATOM     49  O   UNL A   1      38.537  34.988  41.361  1.00  0.00    -0.237 OA
ATOM     50  O   UNL A   1      37.949  32.758  40.491  1.00  0.00    -0.744 OA
ENDBRANCH  43  47
ENDBRANCH  26  40
BRANCH  27  51
ATOM     51  C   UNL A   1      40.695  27.745  29.212  1.00  0.00     0.023 A 
ATOM     52  C   UNL A   1      41.586  28.006  28.159  1.00  0.00     0.031 A 
ATOM     53  C   UNL A   1      39.743  26.726  29.035  1.00  0.00     0.131 A 
ATOM     54  C   UNL A   1      41.484  27.281  26.963  1.00  0.00     0.055 A 
ATOM     55  C   UNL A   1      39.678  25.972  27.862  1.00  0.00     0.041 A 
ATOM     56  F   UNL A   1      38.872  26.433  30.014  1.00  0.00    -0.206 F 
ATOM     57  C   UNL A   1      40.546  26.257  26.812  1.00  0.00     0.022 A 
BRANCH  54  58
ATOM     58  S   UNL A   1      42.556  27.742  25.574  1.00  0.00     0.124 S 
ATOM     59  O   UNL A   1      42.492  26.549  24.740  1.00  0.00    -0.237 OA
ATOM     60  O   UNL A   1      41.883  28.927  25.054  1.00  0.00    -0.237 OA
ATOM     61  O   UNL A   1      43.848  27.991  26.210  1.00  0.00    -0.744 OA
ENDBRANCH  54  58
ENDBRANCH  27  51
BRANCH  39  62
ATOM     62  C   UNL A   1      44.911  27.678  34.753  1.00  0.00     0.023 A 
ATOM     63  C   UNL A   1      44.748  26.390  35.293  1.00  0.00     0.031 A 
ATOM     64  C   UNL A   1      46.220  28.165  34.589  1.00  0.00     0.131 A 
ATOM     65  C   UNL A   1      45.870  25.659  35.710  1.00  0.00     0.055 A 
ATOM     66  C   UNL A   1      47.336  27.409  34.950  1.00  0.00     0.041 A 
ATOM     67  F   UNL A   1      46.434  29.390  34.082  1.00  0.00    -0.206 F 
ATOM     68  C   UNL A   1      47.164  26.155  35.528  1.00  0.00     0.022 A 
BRANCH  65  69
ATOM     69  S   UNL A   1      45.613  24.095  36.594  1.00  0.00     0.124 S 
ATOM     70  O   UNL A   1      45.520  24.541  37.980  1.00  0.00    -0.237 OA
ATOM     71  O   UNL A   1      44.376  23.601  35.999  1.00  0.00    -0.237 OA
ATOM     72  O   UNL A   1      46.808  23.318  36.271  1.00  0.00    -0.744 OA
ENDBRANCH  65  69
ENDBRANCH  39  62
ENDBRANCH  13  14
ENDBRANCH   6   8
ENDBRANCH   3   4
ENDBRANCH   2   3
ENDBRANCH   1   2
BRANCH   1  73
ATOM     73  C   UNL A   1      35.647  31.326  27.722  1.00  0.00     0.002 C 
BRANCH  73  74
ATOM     74  C   UNL A   1      34.322  30.702  27.266  1.00  0.00     0.021 C 
BRANCH  74  75
ATOM     75  C   UNL A   1      34.294  29.176  27.217  1.00  0.00     0.116 C 
BRANCH  75  76
ATOM     76  N   UNL A   1      33.113  28.626  27.863  1.00  0.00    -0.352 N 
ATOM     77  C   UNL A   1      31.962  28.140  27.301  1.00  0.00     0.251 C 
ATOM     78  H   UNL A   1      33.146  28.599  28.846  1.00  0.00     0.163 HD
ATOM     79  O   UNL A   1      30.994  27.862  28.003  1.00  0.00    -0.269 OA
BRANCH  77  80
ATOM     80  C   UNL A   1      31.875  27.959  25.837  1.00  0.00     0.041 A 
ATOM     81  C   UNL A   1      31.434  29.032  25.055  1.00  0.00     0.014 A 
ATOM     82  C   UNL A   1      32.199  26.733  25.246  1.00  0.00     0.037 A 
ATOM     83  C   UNL A   1      31.366  28.902  23.667  1.00  0.00     0.002 A 
ATOM     84  C   UNL A   1      32.142  26.620  23.856  1.00  0.00     0.106 A 
ATOM     85  C   UNL A   1      31.731  27.699  23.062  1.00  0.00     0.024 A 
BRANCH  84  86
ATOM     86  S   UNL A   1      32.674  25.120  23.044  1.00  0.00     0.339 S 
ATOM     87  O   UNL A   1      31.501  24.605  22.373  1.00  0.00    -0.181 OA
ATOM     88  O   UNL A   1      33.873  25.502  22.315  1.00  0.00    -0.181 OA
BRANCH  86  89
ATOM     89  O   UNL A   1      33.073  24.135  24.283  1.00  0.00    -0.379 OA
BRANCH  89  90
ATOM     90  C   UNL A   1      34.353  23.675  24.453  1.00  0.00     0.142 A 
ATOM     91  C   UNL A   1      35.150  24.389  25.352  1.00  0.00     0.048 A 
ATOM     92  C   UNL A   1      34.907  22.636  23.707  1.00  0.00     0.048 A 
ATOM     93  C   UNL A   1      36.496  24.056  25.513  1.00  0.00     0.004 A 
ATOM     94  C   UNL A   1      36.254  22.306  23.871  1.00  0.00     0.004 A 
ATOM     95  C   UNL A   1      37.048  23.017  24.769  1.00  0.00     0.000 A 
ENDBRANCH  89  90
ENDBRANCH  86  89
ENDBRANCH  84  86
ENDBRANCH  77  80
ENDBRANCH  75  76
ENDBRANCH  74  75
ENDBRANCH  73  74
ENDBRANCH   1  73
TORSDOF 19
ENDMDL
