MODEL 1
REMARK VINA RESULT:     -11.5      0.000      0.000
REMARK SMILES Cc1ccc(NC(=O)CN2C(=O)S/C(=C\c3cc(Cl)c(OCC(=O)NCCCCCCNC(=O)c4ccc(-c5c6nc(c(-c7cc(S(=O)(=O)[O-])ccc7F)c7ccc([nH]7)c(-c7cc(S(=O)(=O)[O-])ccc7F)c7nc(c(-c8cc(S(=O)(=O)[O-])ccc8F)c8ccc5[nH]8)C=C7)C=C6)cc4)c(Cl)c3)C2=O)cc1
REMARK SMILES IDX 27 1 26 2 25 3 23 4 24 5 22 7 21 8 20 9 16 10 17 11 100 12
REMARK SMILES IDX 18 13 98 14 19 15 99 16 15 17 10 18 11 19 101 20 12 21 13 22
REMARK SMILES IDX 14 23 102 24 9 25 7 26 6 27 8 29 5 30 1 31 2 32 3 33 104 34
REMARK SMILES IDX 4 35 103 36 28 37 29 38 30 39 31 40 32 41 33 42 34 44 35 45
REMARK SMILES IDX 36 46 97 47 37 48 96 49 38 50 39 51 40 52 90 53 41 54 95 55
REMARK SMILES IDX 89 56 91 57 42 58 94 59 88 60 87 61 43 63 75 64 55 65 74 66
REMARK SMILES IDX 56 67 59 68 73 69 92 70 57 71 58 72 72 74 93 75 60 76 44 77
REMARK SMILES IDX 45 78 53 79 46 80 52 81 54 82 51 83 47 84 48 85 49 86 50 87
REMARK SMILES IDX 76 88 77 89 85 90 78 91 84 92 86 93 83 94 79 95 80 96 81 97
REMARK SMILES IDX 82 98 61 99 62 100 70 101 63 102 69 103 71 104 68 105 64 106
REMARK SMILES IDX 65 107 66 108 67 109
REMARK H PARENT 25 6 6 28 32 43 91 62 59 73
REMARK Flexibility Score: inf
ROOT
ATOM      1  C   UNL A   1      44.062  25.160  25.403  1.00  0.00     0.021 C 
ENDROOT
BRANCH   1   2
ATOM      2  C   UNL A   1      44.737  23.929  26.001  1.00  0.00     0.116 C 
BRANCH   2   3
ATOM      3  N   UNL A   1      44.558  23.828  27.433  1.00  0.00    -0.353 N 
ATOM      4  C   UNL A   1      43.718  23.017  28.133  1.00  0.00     0.257 C 
ATOM      5  O   UNL A   1      43.896  22.903  29.348  1.00  0.00    -0.271 OA
ATOM      6  H   UNL A   1      45.121  24.427  27.974  1.00  0.00     0.163 HD
BRANCH   4   7
ATOM      7  C   UNL A   1      42.642  22.208  27.390  1.00  0.00     0.329 C 
BRANCH   7   8
ATOM      8  O   UNL A   1      41.342  22.113  27.937  1.00  0.00    -0.481 OA
BRANCH   8   9
ATOM      9  C   UNL A   1      40.203  22.401  27.236  1.00  0.00     0.157 A 
ATOM     10  C   UNL A   1      37.854  23.372  25.910  1.00  0.00    -0.021 A 
ATOM     11  C   UNL A   1      38.585  24.218  26.735  1.00  0.00     0.032 A 
ATOM     12  C   UNL A   1      38.280  22.042  25.803  1.00  0.00     0.032 A 
ATOM     13  C   UNL A   1      39.734  23.731  27.395  1.00  0.00     0.085 A 
ATOM     14  C   UNL A   1      39.469  21.577  26.383  1.00  0.00     0.085 A 
ATOM     15  Cl  UNL A   1      40.589  24.853  28.408  1.00  0.00    -0.080 Cl
ATOM     16  Cl  UNL A   1      39.926  20.009  25.821  1.00  0.00    -0.080 Cl
BRANCH  10  17
ATOM     17  C   UNL A   1      36.622  23.786  25.202  1.00  0.00     0.029 C 
ATOM     18  N   UNL A   1      33.329  22.424  25.108  1.00  0.00    -0.259 N 
ATOM     19  C   UNL A   1      33.915  21.278  25.559  1.00  0.00     0.294 C 
ATOM     20  C   UNL A   1      34.198  23.435  24.714  1.00  0.00     0.268 C 
ATOM     21  O   UNL A   1      33.415  20.400  26.257  1.00  0.00    -0.261 OA
ATOM     22  S   UNL A   1      35.587  21.233  25.068  1.00  0.00    -0.022 SA
ATOM     23  C   UNL A   1      35.608  22.952  24.905  1.00  0.00     0.083 C 
ATOM     24  O   UNL A   1      33.892  24.563  24.413  1.00  0.00    -0.268 OA
BRANCH  18  25
ATOM     25  C   UNL A   1      31.951  22.726  25.465  1.00  0.00     0.230 C 
BRANCH  25  26
ATOM     26  C   UNL A   1      31.817  23.419  26.824  1.00  0.00     0.244 C 
ATOM     27  N   UNL A   1      31.117  24.583  26.963  1.00  0.00    -0.325 N 
ATOM     28  H   UNL A   1      30.688  24.697  27.841  1.00  0.00     0.169 HD
ATOM     29  O   UNL A   1      32.325  22.921  27.835  1.00  0.00    -0.273 OA
BRANCH  27  30
ATOM     30  C   UNL A   1      30.905  25.643  26.072  1.00  0.00     0.041 A 
ATOM     31  C   UNL A   1      30.651  28.898  23.249  1.00  0.00     0.044 C 
ATOM     32  C   UNL A   1      30.751  27.776  24.241  1.00  0.00    -0.051 A 
ATOM     33  C   UNL A   1      30.048  26.589  24.015  1.00  0.00     0.005 A 
ATOM     34  C   UNL A   1      31.536  27.889  25.391  1.00  0.00     0.005 A 
ATOM     35  C   UNL A   1      30.126  25.530  24.923  1.00  0.00     0.026 A 
ATOM     36  C   UNL A   1      31.623  26.825  26.292  1.00  0.00     0.026 A 
ENDBRANCH  27  30
ENDBRANCH  25  26
ENDBRANCH  18  25
ENDBRANCH  10  17
ENDBRANCH   8   9
ENDBRANCH   7   8
ENDBRANCH   4   7
ENDBRANCH   2   3
ENDBRANCH   1   2
BRANCH   1  37
ATOM     37  C   UNL A   1      42.537  25.081  25.250  1.00  0.00     0.002 C 
BRANCH  37  38
ATOM     38  C   UNL A   1      41.745  26.390  25.401  1.00  0.00     0.002 C 
BRANCH  38  39
ATOM     39  C   UNL A   1      42.545  27.620  25.815  1.00  0.00     0.021 C 
BRANCH  39  40
ATOM     40  C   UNL A   1      41.711  28.830  26.216  1.00  0.00     0.116 C 
BRANCH  40  41
ATOM     41  N   UNL A   1      40.366  28.510  26.691  1.00  0.00    -0.352 N 
ATOM     42  C   UNL A   1      39.919  28.305  27.988  1.00  0.00     0.251 C 
ATOM     43  H   UNL A   1      39.679  28.428  25.990  1.00  0.00     0.163 HD
ATOM     44  O   UNL A   1      38.779  27.922  28.239  1.00  0.00    -0.269 OA
BRANCH  42  45
ATOM     45  C   UNL A   1      40.782  28.753  29.108  1.00  0.00     0.039 A 
ATOM     46  C   UNL A   1      40.304  28.470  30.395  1.00  0.00     0.014 A 
ATOM     47  C   UNL A   1      41.742  29.735  28.905  1.00  0.00     0.014 A 
ATOM     48  C   UNL A   1      40.522  29.389  31.410  1.00  0.00     0.010 A 
ATOM     49  C   UNL A   1      41.854  30.714  29.865  1.00  0.00     0.010 A 
ATOM     50  C   UNL A   1      41.171  30.572  31.077  1.00  0.00    -0.014 A 
BRANCH  50  51
ATOM     51  C   UNL A   1      41.135  31.765  31.898  1.00  0.00     0.031 A 
ATOM     52  C   UNL A   1      42.164  31.929  32.932  1.00  0.00     0.074 A 
ATOM     53  C   UNL A   1      40.236  32.732  31.609  1.00  0.00     0.049 A 
ATOM     54  N   UNL A   1      42.081  32.755  33.910  1.00  0.00    -0.248 NA
ATOM     55  C   UNL A   1      43.360  31.092  32.988  1.00  0.00     0.031 C 
ATOM     56  C   UNL A   1      40.204  34.109  32.092  1.00  0.00     0.029 A 
ATOM     57  N   UNL A   1      39.007  32.561  30.972  1.00  0.00    -0.354 N 
ATOM     58  C   UNL A   1      43.309  32.790  34.525  1.00  0.00     0.074 A 
ATOM     59  C   UNL A   1      44.010  31.642  34.016  1.00  0.00     0.031 C 
ATOM     60  C   UNL A   1      38.950  34.580  31.976  1.00  0.00     0.029 A 
ATOM     61  C   UNL A   1      38.110  33.468  31.568  1.00  0.00     0.049 A 
ATOM     62  H   UNL A   1      38.806  31.929  30.245  1.00  0.00     0.167 HD
ATOM     63  C   UNL A   1      43.617  33.885  35.272  1.00  0.00     0.034 A 
ATOM     64  C   UNL A   1      37.041  32.998  32.279  1.00  0.00     0.034 A 
ATOM     65  C   UNL A   1      42.411  34.688  35.499  1.00  0.00     0.049 A 
ATOM     66  C   UNL A   1      37.119  33.350  33.750  1.00  0.00     0.074 A 
ATOM     67  C   UNL A   1      41.934  35.862  34.941  1.00  0.00     0.029 A 
ATOM     68  N   UNL A   1      41.342  34.114  36.181  1.00  0.00    -0.354 N 
ATOM     69  N   UNL A   1      38.219  33.704  34.365  1.00  0.00    -0.248 NA
ATOM     70  C   UNL A   1      35.958  33.372  34.632  1.00  0.00     0.031 C 
ATOM     71  C   UNL A   1      40.534  35.923  35.198  1.00  0.00     0.029 A 
ATOM     72  C   UNL A   1      40.177  34.820  35.959  1.00  0.00     0.049 A 
ATOM     73  H   UNL A   1      41.407  33.310  36.745  1.00  0.00     0.167 HD
ATOM     74  C   UNL A   1      37.945  33.997  35.677  1.00  0.00     0.074 A 
ATOM     75  C   UNL A   1      36.509  33.791  35.785  1.00  0.00     0.031 C 
ATOM     76  C   UNL A   1      38.922  34.381  36.560  1.00  0.00     0.034 A 
BRANCH  63  77
ATOM     77  C   UNL A   1      45.013  34.379  35.600  1.00  0.00     0.023 A 
ATOM     78  C   UNL A   1      45.287  34.750  36.935  1.00  0.00     0.031 A 
ATOM     79  C   UNL A   1      46.059  34.636  34.687  1.00  0.00     0.131 A 
ATOM     80  C   UNL A   1      46.499  35.368  37.298  1.00  0.00     0.055 A 
ATOM     81  C   UNL A   1      47.280  35.219  35.054  1.00  0.00     0.041 A 
ATOM     82  F   UNL A   1      45.966  34.381  33.381  1.00  0.00    -0.206 F 
ATOM     83  C   UNL A   1      47.503  35.601  36.364  1.00  0.00     0.022 A 
BRANCH  80  84
ATOM     84  S   UNL A   1      46.727  35.926  39.007  1.00  0.00     0.124 S 
ATOM     85  O   UNL A   1      48.048  35.397  39.329  1.00  0.00    -0.237 OA
ATOM     86  O   UNL A   1      46.621  37.374  38.876  1.00  0.00    -0.237 OA
ATOM     87  O   UNL A   1      45.619  35.290  39.721  1.00  0.00    -0.744 OA
ENDBRANCH  80  84
ENDBRANCH  63  77
BRANCH  64  88
ATOM     88  C   UNL A   1      36.473  31.748  31.683  1.00  0.00     0.023 A 
ATOM     89  C   UNL A   1      35.738  31.906  30.483  1.00  0.00     0.031 A 
ATOM     90  C   UNL A   1      37.010  30.484  31.955  1.00  0.00     0.131 A 
ATOM     91  C   UNL A   1      35.752  30.900  29.506  1.00  0.00     0.055 A 
ATOM     92  C   UNL A   1      36.942  29.449  31.010  1.00  0.00     0.041 A 
ATOM     93  F   UNL A   1      37.732  30.271  33.065  1.00  0.00    -0.206 F 
ATOM     94  C   UNL A   1      36.368  29.674  29.757  1.00  0.00     0.022 A 
BRANCH  91  95
ATOM     95  S   UNL A   1      35.235  31.315  27.810  1.00  0.00     0.124 S 
ATOM     96  O   UNL A   1      35.934  32.572  27.575  1.00  0.00    -0.237 OA
ATOM     97  O   UNL A   1      35.711  30.172  27.034  1.00  0.00    -0.237 OA
ATOM     98  O   UNL A   1      33.779  31.405  27.907  1.00  0.00    -0.744 OA
ENDBRANCH  91  95
ENDBRANCH  64  88
BRANCH  76  99
ATOM     99  C   UNL A   1      38.772  34.452  38.071  1.00  0.00     0.023 A 
ATOM    100  C   UNL A   1      38.361  33.368  38.856  1.00  0.00     0.031 A 
ATOM    101  C   UNL A   1      39.120  35.620  38.798  1.00  0.00     0.131 A 
ATOM    102  C   UNL A   1      38.203  33.485  40.249  1.00  0.00     0.055 A 
ATOM    103  C   UNL A   1      39.063  35.704  40.193  1.00  0.00     0.041 A 
ATOM    104  F   UNL A   1      39.543  36.738  38.190  1.00  0.00    -0.206 F 
ATOM    105  C   UNL A   1      38.579  34.637  40.929  1.00  0.00     0.022 A 
BRANCH 102 106
ATOM    106  S   UNL A   1      37.397  32.121  41.124  1.00  0.00     0.124 S 
ATOM    107  O   UNL A   1      35.995  32.525  41.078  1.00  0.00    -0.237 OA
ATOM    108  O   UNL A   1      37.749  30.968  40.303  1.00  0.00    -0.237 OA
ATOM    109  O   UNL A   1      38.009  32.153  42.451  1.00  0.00    -0.744 OA
ENDBRANCH 102 106
ENDBRANCH  76  99
ENDBRANCH  50  51
ENDBRANCH  42  45
ENDBRANCH  40  41
ENDBRANCH  39  40
ENDBRANCH  38  39
ENDBRANCH  37  38
ENDBRANCH   1  37
TORSDOF 22
ENDMDL
MODEL 2
REMARK VINA RESULT:     -11.4      4.461      7.960
REMARK SMILES Cc1ccc(NC(=O)CN2C(=O)S/C(=C\c3cc(Cl)c(OCC(=O)NCCCCCCNC(=O)c4ccc(-c5c6nc(c(-c7cc(S(=O)(=O)[O-])ccc7F)c7ccc([nH]7)c(-c7cc(S(=O)(=O)[O-])ccc7F)c7nc(c(-c8cc(S(=O)(=O)[O-])ccc8F)c8ccc5[nH]8)C=C7)C=C6)cc4)c(Cl)c3)C2=O)cc1
REMARK SMILES IDX 27 1 26 2 25 3 23 4 24 5 22 7 21 8 20 9 16 10 17 11 100 12
REMARK SMILES IDX 18 13 98 14 19 15 99 16 15 17 10 18 11 19 101 20 12 21 13 22
REMARK SMILES IDX 14 23 102 24 9 25 7 26 6 27 8 29 5 30 1 31 2 32 3 33 104 34
REMARK SMILES IDX 4 35 103 36 28 37 29 38 30 39 31 40 32 41 33 42 34 44 35 45
REMARK SMILES IDX 36 46 97 47 37 48 96 49 38 50 39 51 40 52 90 53 41 54 95 55
REMARK SMILES IDX 89 56 91 57 42 58 94 59 88 60 87 61 43 63 75 64 55 65 74 66
REMARK SMILES IDX 56 67 59 68 73 69 92 70 57 71 58 72 72 74 93 75 60 76 44 77
REMARK SMILES IDX 45 78 53 79 46 80 52 81 54 82 51 83 47 84 48 85 49 86 50 87
REMARK SMILES IDX 76 88 77 89 85 90 78 91 84 92 86 93 83 94 79 95 80 96 81 97
REMARK SMILES IDX 82 98 61 99 62 100 70 101 63 102 69 103 71 104 68 105 64 106
REMARK SMILES IDX 65 107 66 108 67 109
REMARK H PARENT 25 6 6 28 32 43 91 62 59 73
REMARK Flexibility Score: inf
ROOT
ATOM      1  C   UNL A   1      39.670  30.359  30.803  1.00  0.00     0.021 C 
ENDROOT
BRANCH   1   2
ATOM      2  C   UNL A   1      38.518  31.350  30.673  1.00  0.00     0.116 C 
BRANCH   2   3
ATOM      3  N   UNL A   1      38.933  32.631  30.143  1.00  0.00    -0.353 N 
ATOM      4  C   UNL A   1      38.165  33.642  29.653  1.00  0.00     0.257 C 
ATOM      5  O   UNL A   1      38.690  34.745  29.485  1.00  0.00    -0.271 OA
ATOM      6  H   UNL A   1      39.904  32.794  30.138  1.00  0.00     0.163 HD
BRANCH   4   7
ATOM      7  C   UNL A   1      36.664  33.410  29.407  1.00  0.00     0.329 C 
BRANCH   7   8
ATOM      8  O   UNL A   1      36.221  33.030  28.119  1.00  0.00    -0.481 OA
BRANCH   8   9
ATOM      9  C   UNL A   1      35.346  32.002  27.894  1.00  0.00     0.157 A 
ATOM     10  C   UNL A   1      33.231  30.127  27.417  1.00  0.00    -0.021 A 
ATOM     11  C   UNL A   1      32.941  31.478  27.559  1.00  0.00     0.032 A 
ATOM     12  C   UNL A   1      34.565  29.730  27.566  1.00  0.00     0.032 A 
ATOM     13  C   UNL A   1      33.985  32.395  27.806  1.00  0.00     0.085 A 
ATOM     14  C   UNL A   1      35.617  30.644  27.723  1.00  0.00     0.085 A 
ATOM     15  Cl  UNL A   1      33.537  34.065  27.972  1.00  0.00    -0.080 Cl
ATOM     16  Cl  UNL A   1      37.174  29.920  27.545  1.00  0.00    -0.080 Cl
BRANCH  10  17
ATOM     17  C   UNL A   1      32.200  29.091  27.185  1.00  0.00     0.029 C 
ATOM     18  N   UNL A   1      32.087  26.249  25.037  1.00  0.00    -0.259 N 
ATOM     19  C   UNL A   1      33.082  26.876  24.346  1.00  0.00     0.294 C 
ATOM     20  C   UNL A   1      31.468  27.003  26.027  1.00  0.00     0.268 C 
ATOM     21  O   UNL A   1      33.982  26.361  23.687  1.00  0.00    -0.261 OA
ATOM     22  S   UNL A   1      32.976  28.599  24.584  1.00  0.00    -0.022 SA
ATOM     23  C   UNL A   1      32.104  28.364  26.056  1.00  0.00     0.083 C 
ATOM     24  O   UNL A   1      30.665  26.601  26.833  1.00  0.00    -0.268 OA
BRANCH  18  25
ATOM     25  C   UNL A   1      32.020  24.795  25.058  1.00  0.00     0.230 C 
BRANCH  25  26
ATOM     26  C   UNL A   1      31.914  24.176  23.661  1.00  0.00     0.244 C 
ATOM     27  N   UNL A   1      32.646  23.077  23.313  1.00  0.00    -0.325 N 
ATOM     28  H   UNL A   1      32.211  22.490  22.654  1.00  0.00     0.169 HD
ATOM     29  O   UNL A   1      31.140  24.648  22.822  1.00  0.00    -0.273 OA
BRANCH  27  30
ATOM     30  C   UNL A   1      33.910  22.641  23.731  1.00  0.00     0.041 A 
ATOM     31  C   UNL A   1      37.709  20.934  24.864  1.00  0.00     0.044 C 
ATOM     32  C   UNL A   1      36.380  21.515  24.481  1.00  0.00    -0.051 A 
ATOM     33  C   UNL A   1      36.326  22.596  23.596  1.00  0.00     0.005 A 
ATOM     34  C   UNL A   1      35.185  20.997  24.988  1.00  0.00     0.005 A 
ATOM     35  C   UNL A   1      35.101  23.154  23.223  1.00  0.00     0.026 A 
ATOM     36  C   UNL A   1      33.959  21.547  24.604  1.00  0.00     0.026 A 
ENDBRANCH  27  30
ENDBRANCH  25  26
ENDBRANCH  18  25
ENDBRANCH  10  17
ENDBRANCH   8   9
ENDBRANCH   7   8
ENDBRANCH   4   7
ENDBRANCH   2   3
ENDBRANCH   1   2
BRANCH   1  37
ATOM     37  C   UNL A   1      40.126  29.685  29.502  1.00  0.00     0.002 C 
BRANCH  37  38
ATOM     38  C   UNL A   1      39.773  28.200  29.317  1.00  0.00     0.002 C 
BRANCH  38  39
ATOM     39  C   UNL A   1      40.058  27.603  27.944  1.00  0.00     0.021 C 
BRANCH  39  40
ATOM     40  C   UNL A   1      41.469  27.063  27.752  1.00  0.00     0.116 C 
BRANCH  40  41
ATOM     41  N   UNL A   1      41.893  26.954  26.357  1.00  0.00    -0.352 N 
ATOM     42  C   UNL A   1      42.739  27.778  25.630  1.00  0.00     0.251 C 
ATOM     43  H   UNL A   1      41.526  26.184  25.864  1.00  0.00     0.163 HD
ATOM     44  O   UNL A   1      42.917  27.637  24.422  1.00  0.00    -0.269 OA
BRANCH  42  45
ATOM     45  C   UNL A   1      43.601  28.730  26.371  1.00  0.00     0.039 A 
ATOM     46  C   UNL A   1      44.732  28.174  26.986  1.00  0.00     0.014 A 
ATOM     47  C   UNL A   1      43.102  29.959  26.777  1.00  0.00     0.014 A 
ATOM     48  C   UNL A   1      45.141  28.672  28.214  1.00  0.00     0.010 A 
ATOM     49  C   UNL A   1      43.414  30.376  28.050  1.00  0.00     0.010 A 
ATOM     50  C   UNL A   1      44.370  29.674  28.790  1.00  0.00    -0.014 A 
BRANCH  50  51
ATOM     51  C   UNL A   1      44.428  30.022  30.196  1.00  0.00     0.031 A 
ATOM     52  C   UNL A   1      43.609  29.249  31.138  1.00  0.00     0.074 A 
ATOM     53  C   UNL A   1      45.312  30.958  30.602  1.00  0.00     0.049 A 
ATOM     54  N   UNL A   1      43.327  29.629  32.330  1.00  0.00    -0.248 NA
ATOM     55  C   UNL A   1      42.961  27.993  30.768  1.00  0.00     0.031 C 
ATOM     56  C   UNL A   1      45.750  31.259  31.961  1.00  0.00     0.029 A 
ATOM     57  N   UNL A   1      45.828  32.004  29.835  1.00  0.00    -0.354 N 
ATOM     58  C   UNL A   1      42.748  28.563  32.976  1.00  0.00     0.074 A 
ATOM     59  C   UNL A   1      42.411  27.636  31.930  1.00  0.00     0.031 C 
ATOM     60  C   UNL A   1      46.233  32.513  31.995  1.00  0.00     0.029 A 
ATOM     61  C   UNL A   1      45.970  33.109  30.697  1.00  0.00     0.049 A 
ATOM     62  H   UNL A   1      46.050  31.975  28.877  1.00  0.00     0.167 HD
ATOM     63  C   UNL A   1      42.777  28.551  34.337  1.00  0.00     0.034 A 
ATOM     64  C   UNL A   1      45.216  34.231  30.493  1.00  0.00     0.034 A 
ATOM     65  C   UNL A   1      43.180  29.869  34.839  1.00  0.00     0.049 A 
ATOM     66  C   UNL A   1      44.244  34.493  31.625  1.00  0.00     0.074 A 
ATOM     67  C   UNL A   1      44.366  30.368  35.349  1.00  0.00     0.029 A 
ATOM     68  N   UNL A   1      42.387  30.972  34.535  1.00  0.00    -0.354 N 
ATOM     69  N   UNL A   1      43.867  33.592  32.495  1.00  0.00    -0.248 NA
ATOM     70  C   UNL A   1      43.655  35.801  31.888  1.00  0.00     0.031 C 
ATOM     71  C   UNL A   1      44.320  31.787  35.236  1.00  0.00     0.029 A 
ATOM     72  C   UNL A   1      43.087  32.148  34.715  1.00  0.00     0.049 A 
ATOM     73  H   UNL A   1      41.452  30.920  34.232  1.00  0.00     0.167 HD
ATOM     74  C   UNL A   1      43.017  34.157  33.412  1.00  0.00     0.074 A 
ATOM     75  C   UNL A   1      42.935  35.549  32.996  1.00  0.00     0.031 C 
ATOM     76  C   UNL A   1      42.455  33.433  34.432  1.00  0.00     0.034 A 
BRANCH  63  77
ATOM     77  C   UNL A   1      42.687  27.322  35.221  1.00  0.00     0.023 A 
ATOM     78  C   UNL A   1      43.502  26.214  34.900  1.00  0.00     0.031 A 
ATOM     79  C   UNL A   1      41.774  27.100  36.275  1.00  0.00     0.131 A 
ATOM     80  C   UNL A   1      43.369  24.979  35.565  1.00  0.00     0.055 A 
ATOM     81  C   UNL A   1      41.665  25.882  36.960  1.00  0.00     0.041 A 
ATOM     82  F   UNL A   1      40.903  28.021  36.693  1.00  0.00    -0.206 F 
ATOM     83  C   UNL A   1      42.456  24.807  36.599  1.00  0.00     0.022 A 
BRANCH  80  84
ATOM     84  S   UNL A   1      44.366  23.570  35.014  1.00  0.00     0.124 S 
ATOM     85  O   UNL A   1      43.391  22.774  34.275  1.00  0.00    -0.237 OA
ATOM     86  O   UNL A   1      45.407  24.218  34.225  1.00  0.00    -0.237 OA
ATOM     87  O   UNL A   1      44.826  22.971  36.267  1.00  0.00    -0.744 OA
ENDBRANCH  80  84
ENDBRANCH  63  77
BRANCH  64  88
ATOM     88  C   UNL A   1      44.998  34.507  29.038  1.00  0.00     0.023 A 
ATOM     89  C   UNL A   1      46.160  34.756  28.269  1.00  0.00     0.031 A 
ATOM     90  C   UNL A   1      43.852  34.072  28.362  1.00  0.00     0.131 A 
ATOM     91  C   UNL A   1      46.218  34.359  26.925  1.00  0.00     0.055 A 
ATOM     92  C   UNL A   1      43.890  33.761  26.995  1.00  0.00     0.041 A 
ATOM     93  F   UNL A   1      42.723  33.800  29.034  1.00  0.00    -0.206 F 
ATOM     94  C   UNL A   1      45.091  33.843  26.286  1.00  0.00     0.022 A 
BRANCH  91  95
ATOM     95  S   UNL A   1      47.846  34.231  26.116  1.00  0.00     0.124 S 
ATOM     96  O   UNL A   1      48.120  32.802  26.204  1.00  0.00    -0.237 OA
ATOM     97  O   UNL A   1      47.584  34.744  24.773  1.00  0.00    -0.237 OA
ATOM     98  O   UNL A   1      48.701  35.095  26.928  1.00  0.00    -0.744 OA
ENDBRANCH  91  95
ENDBRANCH  64  88
BRANCH  76  99
ATOM     99  C   UNL A   1      41.304  33.890  35.313  1.00  0.00     0.023 A 
ATOM    100  C   UNL A   1      39.991  33.425  35.167  1.00  0.00     0.031 A 
ATOM    101  C   UNL A   1      41.509  34.773  36.405  1.00  0.00     0.131 A 
ATOM    102  C   UNL A   1      38.947  33.898  35.982  1.00  0.00     0.055 A 
ATOM    103  C   UNL A   1      40.490  35.162  37.281  1.00  0.00     0.041 A 
ATOM    104  F   UNL A   1      42.712  35.295  36.683  1.00  0.00    -0.206 F 
ATOM    105  C   UNL A   1      39.190  34.743  37.059  1.00  0.00     0.022 A 
BRANCH 102 106
ATOM    106  S   UNL A   1      37.253  33.453  35.526  1.00  0.00     0.124 S 
ATOM    107  O   UNL A   1      36.910  34.515  34.584  1.00  0.00    -0.237 OA
ATOM    108  O   UNL A   1      37.421  32.125  34.947  1.00  0.00    -0.237 OA
ATOM    109  O   UNL A   1      36.531  33.495  36.796  1.00  0.00    -0.744 OA
ENDBRANCH 102 106
ENDBRANCH  76  99
ENDBRANCH  50  51
ENDBRANCH  42  45
ENDBRANCH  40  41
ENDBRANCH  39  40
ENDBRANCH  38  39
ENDBRANCH  37  38
ENDBRANCH   1  37
TORSDOF 22
ENDMDL
MODEL 3
REMARK VINA RESULT:     -11.2      5.000      9.534
REMARK SMILES Cc1ccc(NC(=O)CN2C(=O)S/C(=C\c3cc(Cl)c(OCC(=O)NCCCCCCNC(=O)c4ccc(-c5c6nc(c(-c7cc(S(=O)(=O)[O-])ccc7F)c7ccc([nH]7)c(-c7cc(S(=O)(=O)[O-])ccc7F)c7nc(c(-c8cc(S(=O)(=O)[O-])ccc8F)c8ccc5[nH]8)C=C7)C=C6)cc4)c(Cl)c3)C2=O)cc1
REMARK SMILES IDX 27 1 26 2 25 3 23 4 24 5 22 7 21 8 20 9 16 10 17 11 100 12
REMARK SMILES IDX 18 13 98 14 19 15 99 16 15 17 10 18 11 19 101 20 12 21 13 22
REMARK SMILES IDX 14 23 102 24 9 25 7 26 6 27 8 29 5 30 1 31 2 32 3 33 104 34
REMARK SMILES IDX 4 35 103 36 28 37 29 38 30 39 31 40 32 41 33 42 34 44 35 45
REMARK SMILES IDX 36 46 97 47 37 48 96 49 38 50 39 51 40 52 90 53 41 54 95 55
REMARK SMILES IDX 89 56 91 57 42 58 94 59 88 60 87 61 43 63 75 64 55 65 74 66
REMARK SMILES IDX 56 67 59 68 73 69 92 70 57 71 58 72 72 74 93 75 60 76 44 77
REMARK SMILES IDX 45 78 53 79 46 80 52 81 54 82 51 83 47 84 48 85 49 86 50 87
REMARK SMILES IDX 76 88 77 89 85 90 78 91 84 92 86 93 83 94 79 95 80 96 81 97
REMARK SMILES IDX 82 98 61 99 62 100 70 101 63 102 69 103 71 104 68 105 64 106
REMARK SMILES IDX 65 107 66 108 67 109
REMARK H PARENT 25 6 6 28 32 43 91 62 59 73
REMARK Flexibility Score: inf
ROOT
ATOM      1  C   UNL A   1      37.015  30.449  31.827  1.00  0.00     0.021 C 
ENDROOT
BRANCH   1   2
ATOM      2  C   UNL A   1      35.999  31.455  31.296  1.00  0.00     0.116 C 
BRANCH   2   3
ATOM      3  N   UNL A   1      36.564  32.367  30.324  1.00  0.00    -0.353 N 
ATOM      4  C   UNL A   1      35.937  33.044  29.323  1.00  0.00     0.257 C 
ATOM      5  O   UNL A   1      36.547  33.960  28.768  1.00  0.00    -0.271 OA
ATOM      6  H   UNL A   1      37.534  32.519  30.398  1.00  0.00     0.163 HD
BRANCH   4   7
ATOM      7  C   UNL A   1      34.475  32.712  28.976  1.00  0.00     0.329 C 
BRANCH   7   8
ATOM      8  O   UNL A   1      34.156  32.251  27.678  1.00  0.00    -0.481 OA
BRANCH   8   9
ATOM      9  C   UNL A   1      33.921  30.937  27.379  1.00  0.00     0.157 A 
ATOM     10  C   UNL A   1      33.062  28.299  26.655  1.00  0.00    -0.021 A 
ATOM     11  C   UNL A   1      32.171  29.363  26.585  1.00  0.00     0.032 A 
ATOM     12  C   UNL A   1      34.351  28.563  27.135  1.00  0.00     0.032 A 
ATOM     13  C   UNL A   1      32.596  30.657  26.954  1.00  0.00     0.085 A 
ATOM     14  C   UNL A   1      34.806  29.859  27.418  1.00  0.00     0.085 A 
ATOM     15  Cl  UNL A   1      31.420  31.930  26.838  1.00  0.00    -0.080 Cl
ATOM     16  Cl  UNL A   1      36.513  29.937  27.663  1.00  0.00    -0.080 Cl
BRANCH  10  17
ATOM     17  C   UNL A   1      32.698  26.906  26.317  1.00  0.00     0.029 C 
ATOM     18  N   UNL A   1      33.135  24.956  23.365  1.00  0.00    -0.259 N 
ATOM     19  C   UNL A   1      33.292  26.155  22.735  1.00  0.00     0.294 C 
ATOM     20  C   UNL A   1      32.700  25.016  24.684  1.00  0.00     0.268 C 
ATOM     21  O   UNL A   1      33.958  26.399  21.732  1.00  0.00    -0.261 OA
ATOM     22  S   UNL A   1      32.451  27.403  23.614  1.00  0.00    -0.022 SA
ATOM     23  C   UNL A   1      32.518  26.459  25.059  1.00  0.00     0.083 C 
ATOM     24  O   UNL A   1      32.626  24.090  25.454  1.00  0.00    -0.268 OA
BRANCH  18  25
ATOM     25  C   UNL A   1      33.817  23.774  22.860  1.00  0.00     0.230 C 
BRANCH  25  26
ATOM     26  C   UNL A   1      33.330  22.474  23.506  1.00  0.00     0.244 C 
ATOM     27  N   UNL A   1      34.022  21.884  24.525  1.00  0.00    -0.325 N 
ATOM     28  H   UNL A   1      33.462  21.390  25.165  1.00  0.00     0.169 HD
ATOM     29  O   UNL A   1      32.279  21.943  23.133  1.00  0.00    -0.273 OA
BRANCH  27  30
ATOM     30  C   UNL A   1      35.392  21.859  24.816  1.00  0.00     0.041 A 
ATOM     31  C   UNL A   1      39.514  21.885  26.095  1.00  0.00     0.044 C 
ATOM     32  C   UNL A   1      38.080  21.894  25.655  1.00  0.00    -0.051 A 
ATOM     33  C   UNL A   1      37.501  20.722  25.158  1.00  0.00     0.005 A 
ATOM     34  C   UNL A   1      37.302  23.051  25.732  1.00  0.00     0.005 A 
ATOM     35  C   UNL A   1      36.168  20.704  24.743  1.00  0.00     0.026 A 
ATOM     36  C   UNL A   1      35.964  23.030  25.328  1.00  0.00     0.026 A 
ENDBRANCH  27  30
ENDBRANCH  25  26
ENDBRANCH  18  25
ENDBRANCH  10  17
ENDBRANCH   8   9
ENDBRANCH   7   8
ENDBRANCH   4   7
ENDBRANCH   2   3
ENDBRANCH   1   2
BRANCH   1  37
ATOM     37  C   UNL A   1      37.069  29.099  31.097  1.00  0.00     0.002 C 
BRANCH  37  38
ATOM     38  C   UNL A   1      38.426  28.380  31.046  1.00  0.00     0.002 C 
BRANCH  38  39
ATOM     39  C   UNL A   1      38.602  27.347  29.938  1.00  0.00     0.021 C 
BRANCH  39  40
ATOM     40  C   UNL A   1      39.940  27.397  29.213  1.00  0.00     0.116 C 
BRANCH  40  41
ATOM     41  N   UNL A   1      40.352  26.130  28.611  1.00  0.00    -0.352 N 
ATOM     42  C   UNL A   1      41.547  25.801  27.988  1.00  0.00     0.251 C 
ATOM     43  H   UNL A   1      39.685  25.406  28.654  1.00  0.00     0.163 HD
ATOM     44  O   UNL A   1      41.717  24.728  27.415  1.00  0.00    -0.269 OA
BRANCH  42  45
ATOM     45  C   UNL A   1      42.715  26.692  28.192  1.00  0.00     0.039 A 
ATOM     46  C   UNL A   1      43.277  26.674  29.476  1.00  0.00     0.014 A 
ATOM     47  C   UNL A   1      42.946  27.755  27.330  1.00  0.00     0.014 A 
ATOM     48  C   UNL A   1      43.770  27.854  30.011  1.00  0.00     0.010 A 
ATOM     49  C   UNL A   1      43.309  28.956  27.893  1.00  0.00     0.010 A 
ATOM     50  C   UNL A   1      43.634  29.009  29.252  1.00  0.00    -0.014 A 
BRANCH  50  51
ATOM     51  C   UNL A   1      43.736  30.347  29.800  1.00  0.00     0.031 A 
ATOM     52  C   UNL A   1      42.497  31.047  30.161  1.00  0.00     0.074 A 
ATOM     53  C   UNL A   1      44.959  30.853  30.069  1.00  0.00     0.049 A 
ATOM     54  N   UNL A   1      42.413  32.311  30.360  1.00  0.00    -0.248 NA
ATOM     55  C   UNL A   1      41.206  30.366  30.245  1.00  0.00     0.031 C 
ATOM     56  C   UNL A   1      45.297  32.023  30.872  1.00  0.00     0.029 A 
ATOM     57  N   UNL A   1      46.158  30.507  29.444  1.00  0.00    -0.354 N 
ATOM     58  C   UNL A   1      41.172  32.563  30.894  1.00  0.00     0.074 A 
ATOM     59  C   UNL A   1      40.419  31.360  30.662  1.00  0.00     0.031 C 
ATOM     60  C   UNL A   1      46.515  32.461  30.511  1.00  0.00     0.029 A 
ATOM     61  C   UNL A   1      46.924  31.684  29.355  1.00  0.00     0.049 A 
ATOM     62  H   UNL A   1      46.417  29.611  29.127  1.00  0.00     0.167 HD
ATOM     63  C   UNL A   1      41.005  33.713  31.602  1.00  0.00     0.034 A 
ATOM     64  C   UNL A   1      47.222  32.210  28.128  1.00  0.00     0.034 A 
ATOM     65  C   UNL A   1      42.151  34.602  31.386  1.00  0.00     0.049 A 
ATOM     66  C   UNL A   1      46.585  33.566  27.906  1.00  0.00     0.074 A 
ATOM     67  C   UNL A   1      43.260  34.922  32.150  1.00  0.00     0.029 A 
ATOM     68  N   UNL A   1      42.421  35.046  30.095  1.00  0.00    -0.354 N 
ATOM     69  N   UNL A   1      45.571  34.024  28.594  1.00  0.00    -0.248 NA
ATOM     70  C   UNL A   1      47.066  34.525  26.919  1.00  0.00     0.031 C 
ATOM     71  C   UNL A   1      44.247  35.456  31.273  1.00  0.00     0.029 A 
ATOM     72  C   UNL A   1      43.715  35.515  29.994  1.00  0.00     0.049 A 
ATOM     73  H   UNL A   1      41.775  35.027  29.352  1.00  0.00     0.167 HD
ATOM     74  C   UNL A   1      45.260  35.293  28.176  1.00  0.00     0.074 A 
ATOM     75  C   UNL A   1      46.242  35.566  27.138  1.00  0.00     0.031 C 
ATOM     76  C   UNL A   1      44.223  36.009  28.718  1.00  0.00     0.034 A 
BRANCH  63  77
ATOM     77  C   UNL A   1      39.956  33.960  32.669  1.00  0.00     0.023 A 
ATOM     78  C   UNL A   1      40.234  33.525  33.984  1.00  0.00     0.031 A 
ATOM     79  C   UNL A   1      38.653  34.472  32.478  1.00  0.00     0.131 A 
ATOM     80  C   UNL A   1      39.259  33.568  35.000  1.00  0.00     0.055 A 
ATOM     81  C   UNL A   1      37.694  34.546  33.497  1.00  0.00     0.041 A 
ATOM     82  F   UNL A   1      38.204  34.898  31.296  1.00  0.00    -0.206 F 
ATOM     83  C   UNL A   1      37.989  34.081  34.765  1.00  0.00     0.022 A 
BRANCH  80  84
ATOM     84  S   UNL A   1      39.654  32.878  36.629  1.00  0.00     0.124 S 
ATOM     85  O   UNL A   1      41.100  33.057  36.695  1.00  0.00    -0.237 OA
ATOM     86  O   UNL A   1      38.854  33.711  37.519  1.00  0.00    -0.237 OA
ATOM     87  O   UNL A   1      39.211  31.487  36.524  1.00  0.00    -0.744 OA
ENDBRANCH  80  84
ENDBRANCH  63  77
BRANCH  64  88
ATOM     88  C   UNL A   1      47.458  31.147  27.101  1.00  0.00     0.023 A 
ATOM     89  C   UNL A   1      48.665  30.419  27.221  1.00  0.00     0.031 A 
ATOM     90  C   UNL A   1      46.407  30.552  26.393  1.00  0.00     0.131 A 
ATOM     91  C   UNL A   1      48.718  29.068  26.847  1.00  0.00     0.055 A 
ATOM     92  C   UNL A   1      46.497  29.227  25.939  1.00  0.00     0.041 A 
ATOM     93  F   UNL A   1      45.229  31.180  26.258  1.00  0.00    -0.206 F 
ATOM     94  C   UNL A   1      47.630  28.460  26.221  1.00  0.00     0.022 A 
BRANCH  91  95
ATOM     95  S   UNL A   1      50.090  28.039  27.461  1.00  0.00     0.124 S 
ATOM     96  O   UNL A   1      49.603  27.628  28.771  1.00  0.00    -0.237 OA
ATOM     97  O   UNL A   1      50.179  26.981  26.457  1.00  0.00    -0.237 OA
ATOM     98  O   UNL A   1      51.231  28.954  27.464  1.00  0.00    -0.744 OA
ENDBRANCH  91  95
ENDBRANCH  64  88
BRANCH  76  99
ATOM     99  C   UNL A   1      43.631  37.286  28.143  1.00  0.00     0.023 A 
ATOM    100  C   UNL A   1      44.240  38.540  28.264  1.00  0.00     0.031 A 
ATOM    101  C   UNL A   1      42.441  37.269  27.369  1.00  0.00     0.131 A 
ATOM    102  C   UNL A   1      43.642  39.703  27.746  1.00  0.00     0.055 A 
ATOM    103  C   UNL A   1      41.901  38.409  26.764  1.00  0.00     0.041 A 
ATOM    104  F   UNL A   1      41.748  36.142  27.152  1.00  0.00    -0.206 F 
ATOM    105  C   UNL A   1      42.490  39.644  26.970  1.00  0.00     0.022 A 
BRANCH 102 106
ATOM    106  S   UNL A   1      44.363  41.299  28.203  1.00  0.00     0.124 S 
ATOM    107  O   UNL A   1      44.070  42.107  27.023  1.00  0.00    -0.237 OA
ATOM    108  O   UNL A   1      43.617  41.647  29.408  1.00  0.00    -0.237 OA
ATOM    109  O   UNL A   1      45.776  40.993  28.411  1.00  0.00    -0.744 OA
ENDBRANCH 102 106
ENDBRANCH  76  99
ENDBRANCH  50  51
ENDBRANCH  42  45
ENDBRANCH  40  41
ENDBRANCH  39  40
ENDBRANCH  38  39
ENDBRANCH  37  38
ENDBRANCH   1  37
TORSDOF 22
ENDMDL
