MODEL 1
REMARK VINA RESULT:     -13.2      0.000      0.000
REMARK SMILES COc1cc(/C=C2/C(=O)N(c3ccccc3)C(=O)[NH+]=C2NCCCCCCNC(=O)c2ccc(-c3c4nc(c(-c5cc(S(=O)(=O)[O-])ccc5F)c5ccc([nH]5)c(-c5cc(S(=O)(=O)[O-])ccc5F)c5nc(c(-c6cc(S(=O)(=O)[O-])ccc6F)c6ccc3[nH]6)C=C5)C=C4)cc2)ccc1OCC(=O)[O-]
REMARK SMILES IDX 24 1 23 2 22 3 21 4 6 5 7 6 8 7 20 8 9 9 10 10 19 11 17 12
REMARK SMILES IDX 18 15 5 16 3 17 4 18 96 19 95 20 94 21 2 22 1 23 97 24 98 25
REMARK SMILES IDX 99 26 100 27 101 28 11 29 12 30 16 31 13 32 15 33 14 34
REMARK SMILES IDX 25 35 26 36 27 37 28 38 29 39 30 41 31 42 32 43 93 44 33 45
REMARK SMILES IDX 92 46 34 47 35 48 36 49 86 50 37 51 91 52 85 53 87 54 38 55
REMARK SMILES IDX 90 56 84 57 83 58 39 60 71 61 51 62 70 63 52 64 55 65 69 66
REMARK SMILES IDX 88 67 53 68 54 69 68 71 89 72 56 73 40 74 41 75 49 76 42 77
REMARK SMILES IDX 48 78 50 79 47 80 43 81 44 82 45 83 46 84 72 85 73 86 81 87
REMARK SMILES IDX 74 88 80 89 82 90 79 91 75 92 76 93 77 94 78 95 57 96 58 97
REMARK SMILES IDX 66 98 59 99 65 100 67 101 64 102 60 103 61 104 62 105 63 106
REMARK H PARENT 19 13 21 14 28 40 87 59 55 70
REMARK Flexibility Score: inf
ROOT
ATOM      1  C   UNL A   1      37.001  23.700  24.737  1.00  0.00     0.003 C 
ENDROOT
BRANCH   1   2
ATOM      2  C   UNL A   1      35.532  24.171  25.529  1.00  0.00     0.037 C 
BRANCH   2   3
ATOM      3  C   UNL A   1      33.742  25.306  24.972  1.00  0.00     0.194 C 
BRANCH   3   4
ATOM      4  N   UNL A   1      33.596  26.743  24.326  1.00  0.00    -0.305 N 
ATOM      5  C   UNL A   1      30.798  25.585  24.020  1.00  0.00     0.030 C 
ATOM      6  C   UNL A   1      31.085  26.893  23.896  1.00  0.00     0.129 C 
ATOM      7  C   UNL A   1      30.013  27.883  23.680  1.00  0.00     0.328 C 
ATOM      8  C   UNL A   1      32.487  27.403  23.850  1.00  0.00     0.236 C 
ATOM      9  O   UNL A   1      28.851  27.620  23.986  1.00  0.00    -0.249 OA
ATOM     10  N   UNL A   1      30.449  29.037  23.036  1.00  0.00    -0.155 N 
ATOM     11  N   UNL A   1      32.754  28.519  23.243  1.00  0.00    -0.209 N 
ATOM     12  C   UNL A   1      31.766  29.207  22.595  1.00  0.00     0.448 C 
ATOM     13  H   UNL A   1      33.674  28.872  23.250  1.00  0.00     0.270 HD
ATOM     14  H   UNL A   1      34.437  27.248  24.253  1.00  0.00     0.256 HD
ATOM     15  O   UNL A   1      32.073  29.960  21.674  1.00  0.00    -0.212 OA
BRANCH   5  16
ATOM     16  C   UNL A   1      31.940  24.687  24.117  1.00  0.00    -0.021 A 
ATOM     17  C   UNL A   1      32.814  22.164  25.766  1.00  0.00     0.161 A 
ATOM     18  C   UNL A   1      32.144  23.849  25.714  1.00  0.00     0.058 A 
ATOM     19  C   UNL A   1      33.466  21.397  24.279  1.00  0.00     0.161 A 
ATOM     20  C   UNL A   1      33.303  22.249  22.693  1.00  0.00     0.051 A 
ATOM     21  C   UNL A   1      32.600  23.917  22.614  1.00  0.00     0.012 A 
BRANCH  17  22
ATOM     22  O   UNL A   1      32.532  21.555  26.959  1.00  0.00    -0.493 OA
ATOM     23  C   UNL A   1      33.603  21.390  27.862  1.00  0.00     0.278 C 
ENDBRANCH  17  22
BRANCH  19  24
ATOM     24  O   UNL A   1      33.554  20.021  24.245  1.00  0.00    -0.484 OA
BRANCH  24  25
ATOM     25  C   UNL A   1      32.444  19.362  23.652  1.00  0.00     0.282 C 
BRANCH  25  26
ATOM     26  C   UNL A   1      32.439  17.883  24.011  1.00  0.00     0.079 C 
ATOM     27  O   UNL A   1      32.073  17.394  25.068  1.00  0.00    -0.546 OA
ATOM     28  O   UNL A   1      32.958  17.094  23.048  1.00  0.00    -0.546 OA
ENDBRANCH  25  26
ENDBRANCH  24  25
ENDBRANCH  19  24
ENDBRANCH   5  16
BRANCH  10  29
ATOM     29  C   UNL A   1      29.483  30.027  22.709  1.00  0.00     0.111 A 
ATOM     30  C   UNL A   1      29.063  30.981  23.644  1.00  0.00     0.044 A 
ATOM     31  C   UNL A   1      28.910  30.017  21.431  1.00  0.00     0.044 A 
ATOM     32  C   UNL A   1      28.092  31.921  23.299  1.00  0.00     0.004 A 
ATOM     33  C   UNL A   1      27.917  30.937  21.099  1.00  0.00     0.004 A 
ATOM     34  C   UNL A   1      27.514  31.892  22.031  1.00  0.00     0.000 A 
ENDBRANCH  10  29
ENDBRANCH   3   4
ENDBRANCH   2   3
ENDBRANCH   1   2
BRANCH   1  35
ATOM     35  C   UNL A   1      36.859  22.635  23.650  1.00  0.00     0.002 C 
BRANCH  35  36
ATOM     36  C   UNL A   1      37.074  21.224  24.175  1.00  0.00     0.021 C 
BRANCH  36  37
ATOM     37  C   UNL A   1      37.718  21.170  25.537  1.00  0.00     0.116 C 
BRANCH  37  38
ATOM     38  N   UNL A   1      38.897  20.325  25.642  1.00  0.00    -0.352 N 
ATOM     39  C   UNL A   1      40.074  20.572  26.320  1.00  0.00     0.251 C 
ATOM     40  H   UNL A   1      38.849  19.464  25.167  1.00  0.00     0.163 HD
ATOM     41  O   UNL A   1      40.990  19.755  26.292  1.00  0.00    -0.269 OA
BRANCH  39  42
ATOM     42  C   UNL A   1      40.239  21.895  26.963  1.00  0.00     0.039 A 
ATOM     43  C   UNL A   1      41.167  22.038  27.996  1.00  0.00     0.014 A 
ATOM     44  C   UNL A   1      39.645  23.017  26.394  1.00  0.00     0.014 A 
ATOM     45  C   UNL A   1      41.587  23.317  28.364  1.00  0.00     0.010 A 
ATOM     46  C   UNL A   1      40.209  24.259  26.618  1.00  0.00     0.010 A 
ATOM     47  C   UNL A   1      41.166  24.435  27.627  1.00  0.00    -0.014 A 
BRANCH  47  48
ATOM     48  C   UNL A   1      41.640  25.816  27.915  1.00  0.00     0.031 A 
ATOM     49  C   UNL A   1      43.023  26.211  27.457  1.00  0.00     0.074 A 
ATOM     50  C   UNL A   1      40.893  26.660  28.656  1.00  0.00     0.049 A 
ATOM     51  N   UNL A   1      43.740  27.256  27.777  1.00  0.00    -0.248 NA
ATOM     52  C   UNL A   1      43.730  25.250  26.591  1.00  0.00     0.031 C 
ATOM     53  C   UNL A   1      39.574  26.363  29.224  1.00  0.00     0.029 A 
ATOM     54  N   UNL A   1      41.138  27.947  29.065  1.00  0.00    -0.354 N 
ATOM     55  C   UNL A   1      44.987  27.043  27.196  1.00  0.00     0.074 A 
ATOM     56  C   UNL A   1      44.964  25.721  26.617  1.00  0.00     0.031 C 
ATOM     57  C   UNL A   1      39.109  27.450  29.861  1.00  0.00     0.029 A 
ATOM     58  C   UNL A   1      40.112  28.507  29.794  1.00  0.00     0.049 A 
ATOM     59  H   UNL A   1      41.972  28.426  28.856  1.00  0.00     0.167 HD
ATOM     60  C   UNL A   1      46.036  27.895  27.094  1.00  0.00     0.034 A 
ATOM     61  C   UNL A   1      40.003  29.733  30.343  1.00  0.00     0.034 A 
ATOM     62  C   UNL A   1      45.995  29.242  27.599  1.00  0.00     0.049 A 
ATOM     63  C   UNL A   1      41.155  30.695  30.158  1.00  0.00     0.074 A 
ATOM     64  C   UNL A   1      46.960  30.228  27.520  1.00  0.00     0.029 A 
ATOM     65  N   UNL A   1      44.903  29.800  28.252  1.00  0.00    -0.354 N 
ATOM     66  N   UNL A   1      42.317  30.487  29.578  1.00  0.00    -0.248 NA
ATOM     67  C   UNL A   1      40.976  32.055  30.678  1.00  0.00     0.031 C 
ATOM     68  C   UNL A   1      46.463  31.374  28.151  1.00  0.00     0.029 A 
ATOM     69  C   UNL A   1      45.167  31.120  28.573  1.00  0.00     0.049 A 
ATOM     70  H   UNL A   1      44.064  29.327  28.455  1.00  0.00     0.167 HD
ATOM     71  C   UNL A   1      42.991  31.703  29.638  1.00  0.00     0.074 A 
ATOM     72  C   UNL A   1      42.097  32.640  30.286  1.00  0.00     0.031 C 
ATOM     73  C   UNL A   1      44.239  32.023  29.206  1.00  0.00     0.034 A 
BRANCH  60  74
ATOM     74  C   UNL A   1      47.276  27.392  26.392  1.00  0.00     0.023 A 
ATOM     75  C   UNL A   1      48.213  26.579  27.057  1.00  0.00     0.031 A 
ATOM     76  C   UNL A   1      47.563  27.774  25.071  1.00  0.00     0.131 A 
ATOM     77  C   UNL A   1      49.435  26.269  26.445  1.00  0.00     0.055 A 
ATOM     78  C   UNL A   1      48.738  27.375  24.430  1.00  0.00     0.041 A 
ATOM     79  F   UNL A   1      46.719  28.563  24.389  1.00  0.00    -0.206 F 
ATOM     80  C   UNL A   1      49.693  26.636  25.123  1.00  0.00     0.022 A 
BRANCH  77  81
ATOM     81  S   UNL A   1      50.741  25.522  27.457  1.00  0.00     0.124 S 
ATOM     82  O   UNL A   1      50.134  24.242  27.817  1.00  0.00    -0.237 OA
ATOM     83  O   UNL A   1      51.865  25.456  26.529  1.00  0.00    -0.237 OA
ATOM     84  O   UNL A   1      50.898  26.464  28.563  1.00  0.00    -0.744 OA
ENDBRANCH  77  81
ENDBRANCH  60  74
BRANCH  61  85
ATOM     85  C   UNL A   1      38.779  30.138  31.096  1.00  0.00     0.023 A 
ATOM     86  C   UNL A   1      37.738  30.837  30.461  1.00  0.00     0.031 A 
ATOM     87  C   UNL A   1      38.649  29.885  32.473  1.00  0.00     0.131 A 
ATOM     88  C   UNL A   1      36.650  31.316  31.210  1.00  0.00     0.055 A 
ATOM     89  C   UNL A   1      37.535  30.312  33.202  1.00  0.00     0.041 A 
ATOM     90  F   UNL A   1      39.604  29.211  33.134  1.00  0.00    -0.206 F 
ATOM     91  C   UNL A   1      36.537  31.048  32.574  1.00  0.00     0.022 A 
BRANCH  88  92
ATOM     92  S   UNL A   1      35.442  32.396  30.393  1.00  0.00     0.124 S 
ATOM     93  O   UNL A   1      34.370  32.445  31.380  1.00  0.00    -0.237 OA
ATOM     94  O   UNL A   1      36.209  33.625  30.217  1.00  0.00    -0.237 OA
ATOM     95  O   UNL A   1      35.124  31.678  29.160  1.00  0.00    -0.744 OA
ENDBRANCH  88  92
ENDBRANCH  61  85
BRANCH  73  96
ATOM     96  C   UNL A   1      44.669  33.455  29.377  1.00  0.00     0.023 A 
ATOM     97  C   UNL A   1      44.364  34.431  28.415  1.00  0.00     0.031 A 
ATOM     98  C   UNL A   1      45.388  33.843  30.520  1.00  0.00     0.131 A 
ATOM     99  C   UNL A   1      44.827  35.742  28.586  1.00  0.00     0.055 A 
ATOM    100  C   UNL A   1      45.795  35.163  30.713  1.00  0.00     0.041 A 
ATOM    101  F   UNL A   1      45.700  32.947  31.470  1.00  0.00    -0.206 F 
ATOM    102  C   UNL A   1      45.525  36.118  29.737  1.00  0.00     0.022 A 
BRANCH  99 103
ATOM    103  S   UNL A   1      44.574  36.931  27.242  1.00  0.00     0.124 S 
ATOM    104  O   UNL A   1      43.402  36.381  26.568  1.00  0.00    -0.237 OA
ATOM    105  O   UNL A   1      44.364  38.181  27.966  1.00  0.00    -0.237 OA
ATOM    106  O   UNL A   1      45.819  36.858  26.482  1.00  0.00    -0.744 OA
ENDBRANCH  99 103
ENDBRANCH  73  96
ENDBRANCH  47  48
ENDBRANCH  39  42
ENDBRANCH  37  38
ENDBRANCH  36  37
ENDBRANCH  35  36
ENDBRANCH   1  35
TORSDOF 21
ENDMDL
MODEL 2
REMARK VINA RESULT:     -13.0      5.915      9.908
REMARK SMILES COc1cc(/C=C2/C(=O)N(c3ccccc3)C(=O)[NH+]=C2NCCCCCCNC(=O)c2ccc(-c3c4nc(c(-c5cc(S(=O)(=O)[O-])ccc5F)c5ccc([nH]5)c(-c5cc(S(=O)(=O)[O-])ccc5F)c5nc(c(-c6cc(S(=O)(=O)[O-])ccc6F)c6ccc3[nH]6)C=C5)C=C4)cc2)ccc1OCC(=O)[O-]
REMARK SMILES IDX 24 1 23 2 22 3 21 4 6 5 7 6 8 7 20 8 9 9 10 10 19 11 17 12
REMARK SMILES IDX 18 15 5 16 3 17 4 18 96 19 95 20 94 21 2 22 1 23 97 24 98 25
REMARK SMILES IDX 99 26 100 27 101 28 11 29 12 30 16 31 13 32 15 33 14 34
REMARK SMILES IDX 25 35 26 36 27 37 28 38 29 39 30 41 31 42 32 43 93 44 33 45
REMARK SMILES IDX 92 46 34 47 35 48 36 49 86 50 37 51 91 52 85 53 87 54 38 55
REMARK SMILES IDX 90 56 84 57 83 58 39 60 71 61 51 62 70 63 52 64 55 65 69 66
REMARK SMILES IDX 88 67 53 68 54 69 68 71 89 72 56 73 40 74 41 75 49 76 42 77
REMARK SMILES IDX 48 78 50 79 47 80 43 81 44 82 45 83 46 84 72 85 73 86 81 87
REMARK SMILES IDX 74 88 80 89 82 90 79 91 75 92 76 93 77 94 78 95 57 96 58 97
REMARK SMILES IDX 66 98 59 99 65 100 67 101 64 102 60 103 61 104 62 105 63 106
REMARK H PARENT 19 13 21 14 28 40 87 59 55 70
REMARK Flexibility Score: inf
ROOT
ATOM      1  C   UNL A   1      44.133  24.060  24.998  1.00  0.00     0.003 C 
ENDROOT
BRANCH   1   2
ATOM      2  C   UNL A   1      42.885  25.263  25.051  1.00  0.00     0.037 C 
BRANCH   2   3
ATOM      3  C   UNL A   1      41.747  26.277  26.625  1.00  0.00     0.194 C 
BRANCH   3   4
ATOM      4  N   UNL A   1      40.821  27.558  26.560  1.00  0.00    -0.305 N 
ATOM      5  C   UNL A   1      40.853  26.908  29.533  1.00  0.00     0.030 C 
ATOM      6  C   UNL A   1      40.451  28.088  29.028  1.00  0.00     0.129 C 
ATOM      7  C   UNL A   1      40.069  29.199  29.922  1.00  0.00     0.328 C 
ATOM      8  C   UNL A   1      40.254  28.307  27.566  1.00  0.00     0.236 C 
ATOM      9  O   UNL A   1      40.460  29.224  31.087  1.00  0.00    -0.249 OA
ATOM     10  N   UNL A   1      39.185  30.099  29.335  1.00  0.00    -0.155 N 
ATOM     11  N   UNL A   1      39.420  29.210  27.149  1.00  0.00    -0.209 N 
ATOM     12  C   UNL A   1      38.676  29.928  28.043  1.00  0.00     0.448 C 
ATOM     13  H   UNL A   1      39.324  29.378  26.183  1.00  0.00     0.270 HD
ATOM     14  H   UNL A   1      40.617  27.873  25.650  1.00  0.00     0.256 HD
ATOM     15  O   UNL A   1      37.608  30.413  27.673  1.00  0.00    -0.212 OA
BRANCH   5  16
ATOM     16  C   UNL A   1      41.098  25.849  28.564  1.00  0.00    -0.021 A 
ATOM     17  C   UNL A   1      42.958  23.343  28.238  1.00  0.00     0.161 A 
ATOM     18  C   UNL A   1      42.752  25.105  28.618  1.00  0.00     0.058 A 
ATOM     19  C   UNL A   1      41.578  22.378  27.613  1.00  0.00     0.161 A 
ATOM     20  C   UNL A   1      39.937  23.132  27.518  1.00  0.00     0.051 A 
ATOM     21  C   UNL A   1      39.703  24.880  27.930  1.00  0.00     0.012 A 
BRANCH  17  22
ATOM     22  O   UNL A   1      44.156  22.872  28.703  1.00  0.00    -0.493 OA
ATOM     23  C   UNL A   1      44.339  22.856  30.101  1.00  0.00     0.278 C 
ENDBRANCH  17  22
BRANCH  19  24
ATOM     24  O   UNL A   1      41.631  21.008  27.750  1.00  0.00    -0.484 OA
BRANCH  24  25
ATOM     25  C   UNL A   1      41.099  20.273  26.657  1.00  0.00     0.282 C 
BRANCH  25  26
ATOM     26  C   UNL A   1      42.201  19.532  25.914  1.00  0.00     0.079 C 
ATOM     27  O   UNL A   1      42.399  18.328  25.922  1.00  0.00    -0.546 OA
ATOM     28  O   UNL A   1      43.045  20.349  25.252  1.00  0.00    -0.546 OA
ENDBRANCH  25  26
ENDBRANCH  24  25
ENDBRANCH  19  24
ENDBRANCH   5  16
BRANCH  10  29
ATOM     29  C   UNL A   1      38.690  31.168  30.132  1.00  0.00     0.111 A 
ATOM     30  C   UNL A   1      39.283  32.436  30.108  1.00  0.00     0.044 A 
ATOM     31  C   UNL A   1      37.610  30.929  30.990  1.00  0.00     0.044 A 
ATOM     32  C   UNL A   1      38.791  33.455  30.923  1.00  0.00     0.004 A 
ATOM     33  C   UNL A   1      37.141  31.939  31.827  1.00  0.00     0.004 A 
ATOM     34  C   UNL A   1      37.727  33.203  31.788  1.00  0.00     0.000 A 
ENDBRANCH  10  29
ENDBRANCH   3   4
ENDBRANCH   2   3
ENDBRANCH   1   2
BRANCH   1  35
ATOM     35  C   UNL A   1      45.502  24.544  24.519  1.00  0.00     0.002 C 
BRANCH  35  36
ATOM     36  C   UNL A   1      46.609  24.271  25.526  1.00  0.00     0.021 C 
BRANCH  36  37
ATOM     37  C   UNL A   1      47.679  25.331  25.559  1.00  0.00     0.116 C 
BRANCH  37  38
ATOM     38  N   UNL A   1      47.465  26.470  24.680  1.00  0.00    -0.352 N 
ATOM     39  C   UNL A   1      46.878  27.684  24.974  1.00  0.00     0.251 C 
ATOM     40  H   UNL A   1      47.779  26.360  23.754  1.00  0.00     0.163 HD
ATOM     41  O   UNL A   1      46.753  28.541  24.104  1.00  0.00    -0.269 OA
BRANCH  39  42
ATOM     42  C   UNL A   1      46.294  27.864  26.322  1.00  0.00     0.039 A 
ATOM     43  C   UNL A   1      47.058  28.472  27.319  1.00  0.00     0.014 A 
ATOM     44  C   UNL A   1      44.936  27.636  26.521  1.00  0.00     0.014 A 
ATOM     45  C   UNL A   1      46.423  28.963  28.462  1.00  0.00     0.010 A 
ATOM     46  C   UNL A   1      44.289  28.298  27.548  1.00  0.00     0.010 A 
ATOM     47  C   UNL A   1      45.023  28.947  28.551  1.00  0.00    -0.014 A 
BRANCH  47  48
ATOM     48  C   UNL A   1      44.281  29.527  29.703  1.00  0.00     0.031 A 
ATOM     49  C   UNL A   1      43.898  30.987  29.648  1.00  0.00     0.074 A 
ATOM     50  C   UNL A   1      44.046  28.795  30.811  1.00  0.00     0.049 A 
ATOM     51  N   UNL A   1      43.459  31.769  30.598  1.00  0.00    -0.248 NA
ATOM     52  C   UNL A   1      44.127  31.681  28.368  1.00  0.00     0.031 C 
ATOM     53  C   UNL A   1      44.442  27.397  31.013  1.00  0.00     0.029 A 
ATOM     54  N   UNL A   1      43.419  29.126  31.985  1.00  0.00    -0.354 N 
ATOM     55  C   UNL A   1      43.416  33.044  30.041  1.00  0.00     0.074 A 
ATOM     56  C   UNL A   1      43.990  32.947  28.720  1.00  0.00     0.031 C 
ATOM     57  C   UNL A   1      44.003  26.981  32.212  1.00  0.00     0.029 A 
ATOM     58  C   UNL A   1      43.341  28.090  32.890  1.00  0.00     0.049 A 
ATOM     59  H   UNL A   1      43.057  30.024  32.165  1.00  0.00     0.167 HD
ATOM     60  C   UNL A   1      42.887  34.180  30.554  1.00  0.00     0.034 A 
ATOM     61  C   UNL A   1      42.797  28.050  34.122  1.00  0.00     0.034 A 
ATOM     62  C   UNL A   1      42.236  34.224  31.836  1.00  0.00     0.049 A 
ATOM     63  C   UNL A   1      42.148  29.309  34.649  1.00  0.00     0.074 A 
ATOM     64  C   UNL A   1      41.612  35.291  32.456  1.00  0.00     0.029 A 
ATOM     65  N   UNL A   1      42.099  33.132  32.683  1.00  0.00    -0.354 N 
ATOM     66  N   UNL A   1      42.089  30.500  34.095  1.00  0.00    -0.248 NA
ATOM     67  C   UNL A   1      41.477  29.217  35.951  1.00  0.00     0.031 C 
ATOM     68  C   UNL A   1      41.122  34.849  33.690  1.00  0.00     0.029 A 
ATOM     69  C   UNL A   1      41.391  33.495  33.815  1.00  0.00     0.049 A 
ATOM     70  H   UNL A   1      42.452  32.230  32.503  1.00  0.00     0.167 HD
ATOM     71  C   UNL A   1      41.346  31.287  34.969  1.00  0.00     0.074 A 
ATOM     72  C   UNL A   1      40.960  30.430  36.071  1.00  0.00     0.031 C 
ATOM     73  C   UNL A   1      41.014  32.602  34.882  1.00  0.00     0.034 A 
BRANCH  60  74
ATOM     74  C   UNL A   1      42.974  35.431  29.711  1.00  0.00     0.023 A 
ATOM     75  C   UNL A   1      44.063  36.315  29.825  1.00  0.00     0.031 A 
ATOM     76  C   UNL A   1      41.937  35.783  28.831  1.00  0.00     0.131 A 
ATOM     77  C   UNL A   1      44.039  37.550  29.163  1.00  0.00     0.055 A 
ATOM     78  C   UNL A   1      41.967  36.969  28.095  1.00  0.00     0.041 A 
ATOM     79  F   UNL A   1      40.862  34.991  28.690  1.00  0.00    -0.206 F 
ATOM     80  C   UNL A   1      43.012  37.873  28.274  1.00  0.00     0.022 A 
BRANCH  77  81
ATOM     81  S   UNL A   1      45.283  38.792  29.609  1.00  0.00     0.124 S 
ATOM     82  O   UNL A   1      45.628  38.382  30.969  1.00  0.00    -0.237 OA
ATOM     83  O   UNL A   1      46.316  38.583  28.600  1.00  0.00    -0.237 OA
ATOM     84  O   UNL A   1      44.558  40.056  29.509  1.00  0.00    -0.744 OA
ENDBRANCH  77  81
ENDBRANCH  60  74
BRANCH  61  85
ATOM     85  C   UNL A   1      42.818  26.798  34.937  1.00  0.00     0.023 A 
ATOM     86  C   UNL A   1      43.994  26.375  35.581  1.00  0.00     0.031 A 
ATOM     87  C   UNL A   1      41.684  25.974  35.042  1.00  0.00     0.131 A 
ATOM     88  C   UNL A   1      44.029  25.135  36.241  1.00  0.00     0.055 A 
ATOM     89  C   UNL A   1      41.707  24.769  35.751  1.00  0.00     0.041 A 
ATOM     90  F   UNL A   1      40.528  26.330  34.459  1.00  0.00    -0.206 F 
ATOM     91  C   UNL A   1      42.890  24.335  36.339  1.00  0.00     0.022 A 
BRANCH  88  92
ATOM     92  S   UNL A   1      45.621  24.530  36.869  1.00  0.00     0.124 S 
ATOM     93  O   UNL A   1      45.515  24.833  38.292  1.00  0.00    -0.237 OA
ATOM     94  O   UNL A   1      45.569  23.117  36.507  1.00  0.00    -0.237 OA
ATOM     95  O   UNL A   1      46.600  25.327  36.132  1.00  0.00    -0.744 OA
ENDBRANCH  88  92
ENDBRANCH  61  85
BRANCH  73  96
ATOM     96  C   UNL A   1      40.151  33.158  35.982  1.00  0.00     0.023 A 
ATOM     97  C   UNL A   1      40.707  33.838  37.076  1.00  0.00     0.031 A 
ATOM     98  C   UNL A   1      38.755  33.007  35.927  1.00  0.00     0.131 A 
ATOM     99  C   UNL A   1      39.874  34.296  38.106  1.00  0.00     0.055 A 
ATOM    100  C   UNL A   1      37.925  33.517  36.925  1.00  0.00     0.041 A 
ATOM    101  F   UNL A   1      38.176  32.367  34.898  1.00  0.00    -0.206 F 
ATOM    102  C   UNL A   1      38.485  34.154  38.028  1.00  0.00     0.022 A 
BRANCH  99 103
ATOM    103  S   UNL A   1      40.639  35.005  39.587  1.00  0.00     0.124 S 
ATOM    104  O   UNL A   1      41.495  36.042  39.019  1.00  0.00    -0.237 OA
ATOM    105  O   UNL A   1      39.481  35.477  40.341  1.00  0.00    -0.237 OA
ATOM    106  O   UNL A   1      41.346  33.873  40.182  1.00  0.00    -0.744 OA
ENDBRANCH  99 103
ENDBRANCH  73  96
ENDBRANCH  47  48
ENDBRANCH  39  42
ENDBRANCH  37  38
ENDBRANCH  36  37
ENDBRANCH  35  36
ENDBRANCH   1  35
TORSDOF 21
ENDMDL
MODEL 3
REMARK VINA RESULT:     -12.9      2.330      2.886
REMARK SMILES COc1cc(/C=C2/C(=O)N(c3ccccc3)C(=O)[NH+]=C2NCCCCCCNC(=O)c2ccc(-c3c4nc(c(-c5cc(S(=O)(=O)[O-])ccc5F)c5ccc([nH]5)c(-c5cc(S(=O)(=O)[O-])ccc5F)c5nc(c(-c6cc(S(=O)(=O)[O-])ccc6F)c6ccc3[nH]6)C=C5)C=C4)cc2)ccc1OCC(=O)[O-]
REMARK SMILES IDX 24 1 23 2 22 3 21 4 6 5 7 6 8 7 20 8 9 9 10 10 19 11 17 12
REMARK SMILES IDX 18 15 5 16 3 17 4 18 96 19 95 20 94 21 2 22 1 23 97 24 98 25
REMARK SMILES IDX 99 26 100 27 101 28 11 29 12 30 16 31 13 32 15 33 14 34
REMARK SMILES IDX 25 35 26 36 27 37 28 38 29 39 30 41 31 42 32 43 93 44 33 45
REMARK SMILES IDX 92 46 34 47 35 48 36 49 86 50 37 51 91 52 85 53 87 54 38 55
REMARK SMILES IDX 90 56 84 57 83 58 39 60 71 61 51 62 70 63 52 64 55 65 69 66
REMARK SMILES IDX 88 67 53 68 54 69 68 71 89 72 56 73 40 74 41 75 49 76 42 77
REMARK SMILES IDX 48 78 50 79 47 80 43 81 44 82 45 83 46 84 72 85 73 86 81 87
REMARK SMILES IDX 74 88 80 89 82 90 79 91 75 92 76 93 77 94 78 95 57 96 58 97
REMARK SMILES IDX 66 98 59 99 65 100 67 101 64 102 60 103 61 104 62 105 63 106
REMARK H PARENT 19 13 21 14 28 40 87 59 55 70
REMARK Flexibility Score: inf
ROOT
ATOM      1  C   UNL A   1      35.456  23.722  25.457  1.00  0.00     0.003 C 
ENDROOT
BRANCH   1   2
ATOM      2  C   UNL A   1      33.949  24.294  26.095  1.00  0.00     0.037 C 
BRANCH   2   3
ATOM      3  C   UNL A   1      32.420  25.733  25.465  1.00  0.00     0.194 C 
BRANCH   3   4
ATOM      4  N   UNL A   1      32.552  27.076  24.639  1.00  0.00    -0.305 N 
ATOM      5  C   UNL A   1      29.684  26.226  24.081  1.00  0.00     0.030 C 
ATOM      6  C   UNL A   1      30.158  27.463  23.846  1.00  0.00     0.129 C 
ATOM      7  C   UNL A   1      29.264  28.534  23.365  1.00  0.00     0.328 C 
ATOM      8  C   UNL A   1      31.610  27.792  23.937  1.00  0.00     0.236 C 
ATOM      9  O   UNL A   1      28.049  28.454  23.533  1.00  0.00    -0.249 OA
ATOM     10  N   UNL A   1      29.930  29.531  22.658  1.00  0.00    -0.155 N 
ATOM     11  N   UNL A   1      32.100  28.776  23.247  1.00  0.00    -0.209 N 
ATOM     12  C   UNL A   1      31.302  29.482  22.389  1.00  0.00     0.448 C 
ATOM     13  H   UNL A   1      33.051  29.015  23.341  1.00  0.00     0.270 HD
ATOM     14  H   UNL A   1      33.457  27.464  24.627  1.00  0.00     0.256 HD
ATOM     15  O   UNL A   1      31.821  30.062  21.438  1.00  0.00    -0.212 OA
BRANCH   5  16
ATOM     16  C   UNL A   1      30.672  25.221  24.444  1.00  0.00    -0.021 A 
ATOM     17  C   UNL A   1      30.927  22.765  26.380  1.00  0.00     0.161 A 
ATOM     18  C   UNL A   1      30.488  24.503  26.100  1.00  0.00     0.058 A 
ATOM     19  C   UNL A   1      31.732  21.810  25.091  1.00  0.00     0.161 A 
ATOM     20  C   UNL A   1      31.956  22.539  23.452  1.00  0.00     0.051 A 
ATOM     21  C   UNL A   1      31.487  24.261  23.140  1.00  0.00     0.012 A 
BRANCH  17  22
ATOM     22  O   UNL A   1      30.368  22.292  27.537  1.00  0.00    -0.493 OA
ATOM     23  C   UNL A   1      28.960  22.313  27.622  1.00  0.00     0.278 C 
ENDBRANCH  17  22
BRANCH  19  24
ATOM     24  O   UNL A   1      31.656  20.435  25.160  1.00  0.00    -0.484 OA
BRANCH  24  25
ATOM     25  C   UNL A   1      32.907  19.762  25.167  1.00  0.00     0.282 C 
BRANCH  25  26
ATOM     26  C   UNL A   1      32.712  18.256  25.069  1.00  0.00     0.079 C 
ATOM     27  O   UNL A   1      31.783  17.678  24.528  1.00  0.00    -0.546 OA
ATOM     28  O   UNL A   1      33.660  17.549  25.717  1.00  0.00    -0.546 OA
ENDBRANCH  25  26
ENDBRANCH  24  25
ENDBRANCH  19  24
ENDBRANCH   5  16
BRANCH  10  29
ATOM     29  C   UNL A   1      29.155  30.575  22.082  1.00  0.00     0.111 A 
ATOM     30  C   UNL A   1      28.535  30.427  20.836  1.00  0.00     0.044 A 
ATOM     31  C   UNL A   1      29.047  31.793  22.765  1.00  0.00     0.044 A 
ATOM     32  C   UNL A   1      27.806  31.481  20.287  1.00  0.00     0.004 A 
ATOM     33  C   UNL A   1      28.345  32.855  22.199  1.00  0.00     0.004 A 
ATOM     34  C   UNL A   1      27.719  32.697  20.965  1.00  0.00     0.000 A 
ENDBRANCH  10  29
ENDBRANCH   3   4
ENDBRANCH   2   3
ENDBRANCH   1   2
BRANCH   1  35
ATOM     35  C   UNL A   1      35.426  22.329  24.828  1.00  0.00     0.002 C 
BRANCH  35  36
ATOM     36  C   UNL A   1      36.687  21.527  25.109  1.00  0.00     0.021 C 
BRANCH  36  37
ATOM     37  C   UNL A   1      37.806  22.339  25.709  1.00  0.00     0.116 C 
BRANCH  37  38
ATOM     38  N   UNL A   1      39.132  21.749  25.618  1.00  0.00    -0.352 N 
ATOM     39  C   UNL A   1      40.309  22.188  26.189  1.00  0.00     0.251 C 
ATOM     40  H   UNL A   1      39.198  20.929  25.077  1.00  0.00     0.163 HD
ATOM     41  O   UNL A   1      41.358  21.580  25.995  1.00  0.00    -0.269 OA
BRANCH  39  42
ATOM     42  C   UNL A   1      40.287  23.472  26.925  1.00  0.00     0.039 A 
ATOM     43  C   UNL A   1      41.078  23.617  28.065  1.00  0.00     0.014 A 
ATOM     44  C   UNL A   1      39.664  24.580  26.359  1.00  0.00     0.014 A 
ATOM     45  C   UNL A   1      41.341  24.897  28.556  1.00  0.00     0.010 A 
ATOM     46  C   UNL A   1      40.090  25.845  26.720  1.00  0.00     0.010 A 
ATOM     47  C   UNL A   1      40.910  26.027  27.842  1.00  0.00    -0.014 A 
BRANCH  47  48
ATOM     48  C   UNL A   1      41.227  27.417  28.265  1.00  0.00     0.031 A 
ATOM     49  C   UNL A   1      42.674  27.849  28.289  1.00  0.00     0.074 A 
ATOM     50  C   UNL A   1      40.256  28.239  28.714  1.00  0.00     0.049 A 
ATOM     51  N   UNL A   1      43.218  28.910  28.824  1.00  0.00    -0.248 NA
ATOM     52  C   UNL A   1      43.651  26.910  27.710  1.00  0.00     0.031 C 
ATOM     53  C   UNL A   1      38.831  27.907  28.814  1.00  0.00     0.029 A 
ATOM     54  N   UNL A   1      40.320  29.530  29.175  1.00  0.00    -0.354 N 
ATOM     55  C   UNL A   1      44.592  28.731  28.690  1.00  0.00     0.074 A 
ATOM     56  C   UNL A   1      44.795  27.411  28.142  1.00  0.00     0.031 C 
ATOM     57  C   UNL A   1      38.155  28.979  29.256  1.00  0.00     0.029 A 
ATOM     58  C   UNL A   1      39.097  30.061  29.521  1.00  0.00     0.049 A 
ATOM     59  H   UNL A   1      41.164  30.031  29.252  1.00  0.00     0.167 HD
ATOM     60  C   UNL A   1      45.593  29.609  28.938  1.00  0.00     0.034 A 
ATOM     61  C   UNL A   1      38.781  31.282  29.998  1.00  0.00     0.034 A 
ATOM     62  C   UNL A   1      45.354  30.952  29.394  1.00  0.00     0.049 A 
ATOM     63  C   UNL A   1      39.905  32.273  30.200  1.00  0.00     0.074 A 
ATOM     64  C   UNL A   1      46.266  31.962  29.636  1.00  0.00     0.029 A 
ATOM     65  N   UNL A   1      44.094  31.480  29.647  1.00  0.00    -0.354 N 
ATOM     66  N   UNL A   1      41.198  32.097  30.039  1.00  0.00    -0.248 NA
ATOM     67  C   UNL A   1      39.530  33.626  30.626  1.00  0.00     0.031 C 
ATOM     68  C   UNL A   1      45.559  33.093  30.061  1.00  0.00     0.029 A 
ATOM     69  C   UNL A   1      44.203  32.805  30.032  1.00  0.00     0.049 A 
ATOM     70  H   UNL A   1      43.247  30.985  29.563  1.00  0.00     0.167 HD
ATOM     71  C   UNL A   1      41.784  33.328  30.313  1.00  0.00     0.074 A 
ATOM     72  C   UNL A   1      40.703  34.240  30.625  1.00  0.00     0.031 C 
ATOM     73  C   UNL A   1      43.096  33.682  30.318  1.00  0.00     0.034 A 
BRANCH  60  74
ATOM     74  C   UNL A   1      47.008  29.140  28.688  1.00  0.00     0.023 A 
ATOM     75  C   UNL A   1      47.505  28.981  27.382  1.00  0.00     0.031 A 
ATOM     76  C   UNL A   1      47.850  28.786  29.756  1.00  0.00     0.131 A 
ATOM     77  C   UNL A   1      48.755  28.382  27.173  1.00  0.00     0.055 A 
ATOM     78  C   UNL A   1      49.136  28.284  29.543  1.00  0.00     0.041 A 
ATOM     79  F   UNL A   1      47.428  28.898  31.025  1.00  0.00    -0.206 F 
ATOM     80  C   UNL A   1      49.589  28.059  28.245  1.00  0.00     0.022 A 
BRANCH  77  81
ATOM     81  S   UNL A   1      49.201  27.882  25.487  1.00  0.00     0.124 S 
ATOM     82  O   UNL A   1      47.977  28.204  24.756  1.00  0.00    -0.237 OA
ATOM     83  O   UNL A   1      50.355  28.727  25.200  1.00  0.00    -0.237 OA
ATOM     84  O   UNL A   1      49.487  26.455  25.617  1.00  0.00    -0.744 OA
ENDBRANCH  77  81
ENDBRANCH  60  74
BRANCH  61  85
ATOM     85  C   UNL A   1      37.367  31.653  30.301  1.00  0.00     0.023 A 
ATOM     86  C   UNL A   1      36.517  32.144  29.295  1.00  0.00     0.031 A 
ATOM     87  C   UNL A   1      36.854  31.577  31.608  1.00  0.00     0.131 A 
ATOM     88  C   UNL A   1      35.230  32.602  29.621  1.00  0.00     0.055 A 
ATOM     89  C   UNL A   1      35.551  31.978  31.917  1.00  0.00     0.041 A 
ATOM     90  F   UNL A   1      37.613  31.105  32.610  1.00  0.00    -0.206 F 
ATOM     91  C   UNL A   1      34.737  32.511  30.923  1.00  0.00     0.022 A 
BRANCH  88  92
ATOM     92  S   UNL A   1      34.250  33.427  28.334  1.00  0.00     0.124 S 
ATOM     93  O   UNL A   1      35.291  33.977  27.474  1.00  0.00    -0.237 OA
ATOM     94  O   UNL A   1      33.481  32.315  27.783  1.00  0.00    -0.237 OA
ATOM     95  O   UNL A   1      33.471  34.413  29.082  1.00  0.00    -0.744 OA
ENDBRANCH  88  92
ENDBRANCH  61  85
BRANCH  73  96
ATOM     96  C   UNL A   1      43.409  35.123  30.616  1.00  0.00     0.023 A 
ATOM     97  C   UNL A   1      43.551  35.583  31.934  1.00  0.00     0.031 A 
ATOM     98  C   UNL A   1      43.571  36.041  29.566  1.00  0.00     0.131 A 
ATOM     99  C   UNL A   1      43.792  36.943  32.172  1.00  0.00     0.055 A 
ATOM    100  C   UNL A   1      43.870  37.382  29.806  1.00  0.00     0.041 A 
ATOM    101  F   UNL A   1      43.449  35.648  28.287  1.00  0.00    -0.206 F 
ATOM    102  C   UNL A   1      43.969  37.842  31.117  1.00  0.00     0.022 A 
BRANCH  99 103
ATOM    103  S   UNL A   1      43.787  37.536  33.885  1.00  0.00     0.124 S 
ATOM    104  O   UNL A   1      43.287  36.370  34.608  1.00  0.00    -0.237 OA
ATOM    105  O   UNL A   1      45.192  37.867  34.105  1.00  0.00    -0.237 OA
ATOM    106  O   UNL A   1      42.880  38.680  33.849  1.00  0.00    -0.744 OA
ENDBRANCH  99 103
ENDBRANCH  73  96
ENDBRANCH  47  48
ENDBRANCH  39  42
ENDBRANCH  37  38
ENDBRANCH  36  37
ENDBRANCH  35  36
ENDBRANCH   1  35
TORSDOF 21
ENDMDL
