MODEL 1
REMARK VINA RESULT:     -12.6      0.000      0.000
REMARK SMILES NS(=O)(=O)c1ccc(-n2ccnc2-c2ccc(O)c(C(=O)NCCCCCCNC(=O)c3ccc(-c4c5nc(c(-c6cc(S(=O)(=O)[O-])ccc6F)c6ccc([nH]6)c(-c6cc(S(=O)(=O)[O-])ccc6F)c6nc(c(-c7cc(S(=O)(=O)[O-])ccc7F)c7ccc4[nH]7)C=C6)C=C5)cc3)c2)cc1
REMARK SMILES IDX 25 1 24 2 23 3 22 4 20 5 21 6 19 8 14 9 15 10 95 11 16 12
REMARK SMILES IDX 17 13 13 14 9 15 10 16 11 17 12 18 8 19 5 20 6 21 97 22 7 23
REMARK SMILES IDX 96 24 2 25 3 26 4 27 1 28 18 31 26 33 27 34 28 35 29 36
REMARK SMILES IDX 30 37 31 39 32 40 33 41 94 42 34 43 93 44 35 45 36 46 37 47
REMARK SMILES IDX 87 48 38 49 92 50 86 51 88 52 39 53 91 54 85 55 84 56 40 58
REMARK SMILES IDX 72 59 52 60 71 61 53 62 56 63 70 64 89 65 54 66 55 67 69 69
REMARK SMILES IDX 90 70 57 71 41 72 42 73 50 74 43 75 49 76 51 77 48 78 44 79
REMARK SMILES IDX 45 80 46 81 47 82 73 83 74 84 82 85 75 86 81 87 83 88 80 89
REMARK SMILES IDX 76 90 77 91 78 92 79 93 58 94 59 95 67 96 60 97 66 98 68 99
REMARK SMILES IDX 65 100 61 101 62 102 63 103 64 104
REMARK H PARENT 22 7 1 29 1 30 18 32 29 38 88 57 56 68
REMARK Flexibility Score: inf
ROOT
ATOM      1  C   UNL A   1      32.687  27.941  26.261  1.00  0.00     0.002 C 
ENDROOT
BRANCH   1   2
ATOM      2  C   UNL A   1      31.945  27.257  25.116  1.00  0.00     0.021 C 
BRANCH   2   3
ATOM      3  C   UNL A   1      30.499  26.847  25.371  1.00  0.00     0.116 C 
BRANCH   3   4
ATOM      4  N   UNL A   1      30.322  25.708  26.262  1.00  0.00    -0.352 N 
ATOM      5  C   UNL A   1      30.831  24.425  26.231  1.00  0.00     0.255 C 
ATOM      6  O   UNL A   1      30.500  23.642  27.126  1.00  0.00    -0.269 OA
ATOM      7  H   UNL A   1      29.730  25.886  27.028  1.00  0.00     0.163 HD
BRANCH   5   8
ATOM      8  C   UNL A   1      31.718  23.906  25.151  1.00  0.00     0.082 A 
ATOM      9  C   UNL A   1      33.934  23.215  24.368  1.00  0.00     0.019 A 
ATOM     10  C   UNL A   1      33.469  23.208  23.053  1.00  0.00     0.016 A 
ATOM     11  C   UNL A   1      33.026  23.502  25.402  1.00  0.00     0.029 A 
ATOM     12  C   UNL A   1      32.118  23.461  22.791  1.00  0.00     0.048 A 
ATOM     13  C   UNL A   1      31.254  23.815  23.832  1.00  0.00     0.128 A 
BRANCH   9  14
ATOM     14  C   UNL A   1      35.366  23.067  24.684  1.00  0.00     0.144 A 
ATOM     15  N   UNL A   1      35.975  21.895  25.142  1.00  0.00    -0.300 N 
ATOM     16  C   UNL A   1      37.120  22.284  25.798  1.00  0.00     0.113 A 
ATOM     17  C   UNL A   1      37.259  23.624  25.532  1.00  0.00     0.132 A 
ATOM     18  N   UNL A   1      36.196  24.088  24.808  1.00  0.00    -0.236 NA
BRANCH  15  19
ATOM     19  C   UNL A   1      35.488  20.568  25.017  1.00  0.00     0.047 A 
ATOM     20  C   UNL A   1      34.577  17.974  24.590  1.00  0.00     0.082 A 
ATOM     21  C   UNL A   1      35.948  18.209  24.704  1.00  0.00     0.024 A 
ATOM     22  C   UNL A   1      33.657  19.023  24.697  1.00  0.00     0.024 A 
ATOM     23  C   UNL A   1      36.404  19.508  24.914  1.00  0.00     0.028 A 
ATOM     24  C   UNL A   1      34.111  20.324  24.934  1.00  0.00     0.028 A 
BRANCH  20  25
ATOM     25  S   UNL A   1      33.999  16.334  24.278  1.00  0.00     0.238 S 
ATOM     26  O   UNL A   1      34.120  16.054  22.862  1.00  0.00    -0.207 OA
ATOM     27  O   UNL A   1      32.777  16.132  25.014  1.00  0.00    -0.207 OA
BRANCH  25  28
ATOM     28  N   UNL A   1      35.156  15.363  25.014  1.00  0.00    -0.225 NA
ATOM     29  H   UNL A   1      35.218  15.598  26.005  1.00  0.00     0.137 HD
ATOM     30  H   UNL A   1      36.061  15.517  24.570  1.00  0.00     0.137 HD
ENDBRANCH  25  28
ENDBRANCH  20  25
ENDBRANCH  15  19
ENDBRANCH   9  14
BRANCH  13  31
ATOM     31  O   UNL A   1      29.953  24.065  23.478  1.00  0.00    -0.507 OA
ATOM     32  H   UNL A   1      29.683  23.967  22.587  1.00  0.00     0.293 HD
ENDBRANCH  13  31
ENDBRANCH   5   8
ENDBRANCH   3   4
ENDBRANCH   2   3
ENDBRANCH   1   2
BRANCH   1  33
ATOM     33  C   UNL A   1      33.154  29.384  26.030  1.00  0.00     0.002 C 
BRANCH  33  34
ATOM     34  C   UNL A   1      34.599  29.734  26.415  1.00  0.00     0.021 C 
BRANCH  34  35
ATOM     35  C   UNL A   1      34.902  29.649  27.904  1.00  0.00     0.116 C 
BRANCH  35  36
ATOM     36  N   UNL A   1      34.892  30.954  28.562  1.00  0.00    -0.352 N 
ATOM     37  C   UNL A   1      35.818  31.466  29.452  1.00  0.00     0.251 C 
ATOM     38  H   UNL A   1      34.133  31.542  28.344  1.00  0.00     0.163 HD
ATOM     39  O   UNL A   1      35.516  32.382  30.208  1.00  0.00    -0.269 OA
BRANCH  37  40
ATOM     40  C   UNL A   1      37.178  30.896  29.470  1.00  0.00     0.039 A 
ATOM     41  C   UNL A   1      38.317  31.703  29.573  1.00  0.00     0.014 A 
ATOM     42  C   UNL A   1      37.296  29.512  29.391  1.00  0.00     0.014 A 
ATOM     43  C   UNL A   1      39.571  31.097  29.671  1.00  0.00     0.010 A 
ATOM     44  C   UNL A   1      38.503  28.917  29.642  1.00  0.00     0.010 A 
ATOM     45  C   UNL A   1      39.652  29.699  29.717  1.00  0.00    -0.014 A 
BRANCH  45  46
ATOM     46  C   UNL A   1      40.907  29.004  29.997  1.00  0.00     0.031 A 
ATOM     47  C   UNL A   1      41.136  28.731  31.445  1.00  0.00     0.074 A 
ATOM     48  C   UNL A   1      41.590  28.386  29.005  1.00  0.00     0.049 A 
ATOM     49  N   UNL A   1      42.119  29.124  32.185  1.00  0.00    -0.248 NA
ATOM     50  C   UNL A   1      40.057  28.077  32.213  1.00  0.00     0.031 C 
ATOM     51  C   UNL A   1      41.243  28.346  27.578  1.00  0.00     0.029 A 
ATOM     52  N   UNL A   1      42.634  27.516  29.066  1.00  0.00    -0.354 N 
ATOM     53  C   UNL A   1      41.917  28.534  33.431  1.00  0.00     0.074 A 
ATOM     54  C   UNL A   1      40.538  28.137  33.456  1.00  0.00     0.031 C 
ATOM     55  C   UNL A   1      41.858  27.298  26.992  1.00  0.00     0.029 A 
ATOM     56  C   UNL A   1      42.751  26.677  27.955  1.00  0.00     0.049 A 
ATOM     57  H   UNL A   1      43.255  27.480  29.830  1.00  0.00     0.167 HD
ATOM     58  C   UNL A   1      42.969  28.158  34.213  1.00  0.00     0.034 A 
ATOM     59  C   UNL A   1      43.463  25.518  27.860  1.00  0.00     0.034 A 
ATOM     60  C   UNL A   1      44.189  28.804  33.771  1.00  0.00     0.049 A 
ATOM     61  C   UNL A   1      44.477  25.566  28.949  1.00  0.00     0.074 A 
ATOM     62  C   UNL A   1      44.552  30.120  33.552  1.00  0.00     0.029 A 
ATOM     63  N   UNL A   1      45.116  28.051  33.079  1.00  0.00    -0.354 N 
ATOM     64  N   UNL A   1      45.423  26.468  29.005  1.00  0.00    -0.248 NA
ATOM     65  C   UNL A   1      44.120  24.970  30.229  1.00  0.00     0.031 C 
ATOM     66  C   UNL A   1      45.293  30.091  32.333  1.00  0.00     0.029 A 
ATOM     67  C   UNL A   1      45.448  28.757  31.948  1.00  0.00     0.049 A 
ATOM     68  H   UNL A   1      45.471  27.172  33.345  1.00  0.00     0.167 HD
ATOM     69  C   UNL A   1      45.457  26.871  30.332  1.00  0.00     0.074 A 
ATOM     70  C   UNL A   1      44.692  25.852  31.054  1.00  0.00     0.031 C 
ATOM     71  C   UNL A   1      45.825  28.141  30.687  1.00  0.00     0.034 A 
BRANCH  58  72
ATOM     72  C   UNL A   1      42.991  26.928  35.104  1.00  0.00     0.023 A 
ATOM     73  C   UNL A   1      43.769  25.839  34.663  1.00  0.00     0.031 A 
ATOM     74  C   UNL A   1      42.098  26.645  36.164  1.00  0.00     0.131 A 
ATOM     75  C   UNL A   1      43.553  24.543  35.162  1.00  0.00     0.055 A 
ATOM     76  C   UNL A   1      41.938  25.366  36.707  1.00  0.00     0.041 A 
ATOM     77  F   UNL A   1      41.266  27.552  36.683  1.00  0.00    -0.206 F 
ATOM     78  C   UNL A   1      42.638  24.296  36.180  1.00  0.00     0.022 A 
BRANCH  75  79
ATOM     79  S   UNL A   1      44.346  23.158  34.308  1.00  0.00     0.124 S 
ATOM     80  O   UNL A   1      43.327  22.802  33.327  1.00  0.00    -0.237 OA
ATOM     81  O   UNL A   1      45.555  23.785  33.785  1.00  0.00    -0.237 OA
ATOM     82  O   UNL A   1      44.560  22.182  35.374  1.00  0.00    -0.744 OA
ENDBRANCH  75  79
ENDBRANCH  58  72
BRANCH  59  83
ATOM     83  C   UNL A   1      43.061  24.266  27.135  1.00  0.00     0.023 A 
ATOM     84  C   UNL A   1      43.916  23.564  26.252  1.00  0.00     0.031 A 
ATOM     85  C   UNL A   1      41.858  23.603  27.484  1.00  0.00     0.131 A 
ATOM     86  C   UNL A   1      43.550  22.281  25.760  1.00  0.00     0.055 A 
ATOM     87  C   UNL A   1      41.501  22.345  26.991  1.00  0.00     0.041 A 
ATOM     88  F   UNL A   1      41.013  24.116  28.392  1.00  0.00    -0.206 F 
ATOM     89  C   UNL A   1      42.351  21.673  26.133  1.00  0.00     0.022 A 
BRANCH  86  90
ATOM     90  S   UNL A   1      44.678  21.322  24.689  1.00  0.00     0.124 S 
ATOM     91  O   UNL A   1      44.049  20.006  24.676  1.00  0.00    -0.237 OA
ATOM     92  O   UNL A   1      44.643  22.072  23.439  1.00  0.00    -0.237 OA
ATOM     93  O   UNL A   1      45.958  21.381  25.398  1.00  0.00    -0.744 OA
ENDBRANCH  86  90
ENDBRANCH  59  83
BRANCH  71  94
ATOM     94  C   UNL A   1      46.471  29.051  29.656  1.00  0.00     0.023 A 
ATOM     95  C   UNL A   1      45.821  29.607  28.528  1.00  0.00     0.031 A 
ATOM     96  C   UNL A   1      47.781  29.487  29.926  1.00  0.00     0.131 A 
ATOM     97  C   UNL A   1      46.489  30.556  27.725  1.00  0.00     0.055 A 
ATOM     98  C   UNL A   1      48.428  30.443  29.146  1.00  0.00     0.041 A 
ATOM     99  F   UNL A   1      48.448  29.017  30.994  1.00  0.00    -0.206 F 
ATOM    100  C   UNL A   1      47.784  30.979  28.037  1.00  0.00     0.022 A 
BRANCH  97 101
ATOM    101  S   UNL A   1      45.697  31.252  26.236  1.00  0.00     0.124 S 
ATOM    102  O   UNL A   1      46.146  32.639  26.227  1.00  0.00    -0.237 OA
ATOM    103  O   UNL A   1      46.223  30.402  25.171  1.00  0.00    -0.237 OA
ATOM    104  O   UNL A   1      44.267  31.077  26.500  1.00  0.00    -0.744 OA
ENDBRANCH  97 101
ENDBRANCH  71  94
ENDBRANCH  45  46
ENDBRANCH  37  40
ENDBRANCH  35  36
ENDBRANCH  34  35
ENDBRANCH  33  34
ENDBRANCH   1  33
TORSDOF 21
ENDMDL
MODEL 2
REMARK VINA RESULT:     -12.3      3.539      8.312
REMARK SMILES NS(=O)(=O)c1ccc(-n2ccnc2-c2ccc(O)c(C(=O)NCCCCCCNC(=O)c3ccc(-c4c5nc(c(-c6cc(S(=O)(=O)[O-])ccc6F)c6ccc([nH]6)c(-c6cc(S(=O)(=O)[O-])ccc6F)c6nc(c(-c7cc(S(=O)(=O)[O-])ccc7F)c7ccc4[nH]7)C=C6)C=C5)cc3)c2)cc1
REMARK SMILES IDX 25 1 24 2 23 3 22 4 20 5 21 6 19 8 14 9 15 10 95 11 16 12
REMARK SMILES IDX 17 13 13 14 9 15 10 16 11 17 12 18 8 19 5 20 6 21 97 22 7 23
REMARK SMILES IDX 96 24 2 25 3 26 4 27 1 28 18 31 26 33 27 34 28 35 29 36
REMARK SMILES IDX 30 37 31 39 32 40 33 41 94 42 34 43 93 44 35 45 36 46 37 47
REMARK SMILES IDX 87 48 38 49 92 50 86 51 88 52 39 53 91 54 85 55 84 56 40 58
REMARK SMILES IDX 72 59 52 60 71 61 53 62 56 63 70 64 89 65 54 66 55 67 69 69
REMARK SMILES IDX 90 70 57 71 41 72 42 73 50 74 43 75 49 76 51 77 48 78 44 79
REMARK SMILES IDX 45 80 46 81 47 82 73 83 74 84 82 85 75 86 81 87 83 88 80 89
REMARK SMILES IDX 76 90 77 91 78 92 79 93 58 94 59 95 67 96 60 97 66 98 68 99
REMARK SMILES IDX 65 100 61 101 62 102 63 103 64 104
REMARK H PARENT 22 7 1 29 1 30 18 32 29 38 88 57 56 68
REMARK Flexibility Score: inf
ROOT
ATOM      1  C   UNL A   1      35.586  23.046  24.393  1.00  0.00     0.002 C 
ENDROOT
BRANCH   1   2
ATOM      2  C   UNL A   1      34.447  22.055  24.175  1.00  0.00     0.021 C 
BRANCH   2   3
ATOM      3  C   UNL A   1      33.224  22.192  25.075  1.00  0.00     0.116 C 
BRANCH   3   4
ATOM      4  N   UNL A   1      31.986  22.546  24.395  1.00  0.00    -0.352 N 
ATOM      5  C   UNL A   1      31.599  23.684  23.716  1.00  0.00     0.255 C 
ATOM      6  O   UNL A   1      30.462  23.723  23.237  1.00  0.00    -0.269 OA
ATOM      7  H   UNL A   1      31.297  21.844  24.425  1.00  0.00     0.163 HD
BRANCH   5   8
ATOM      8  C   UNL A   1      32.453  24.897  23.569  1.00  0.00     0.082 A 
ATOM      9  C   UNL A   1      33.359  26.984  24.478  1.00  0.00     0.019 A 
ATOM     10  C   UNL A   1      33.822  27.337  23.211  1.00  0.00     0.016 A 
ATOM     11  C   UNL A   1      32.738  25.734  24.644  1.00  0.00     0.029 A 
ATOM     12  C   UNL A   1      33.684  26.442  22.145  1.00  0.00     0.048 A 
ATOM     13  C   UNL A   1      32.997  25.238  22.322  1.00  0.00     0.128 A 
BRANCH   9  14
ATOM     14  C   UNL A   1      33.379  27.935  25.604  1.00  0.00     0.144 A 
ATOM     15  N   UNL A   1      32.600  29.092  25.698  1.00  0.00    -0.300 N 
ATOM     16  C   UNL A   1      33.258  29.933  26.565  1.00  0.00     0.113 A 
ATOM     17  C   UNL A   1      34.273  29.183  27.107  1.00  0.00     0.132 A 
ATOM     18  N   UNL A   1      34.312  27.939  26.540  1.00  0.00    -0.236 NA
BRANCH  15  19
ATOM     19  C   UNL A   1      31.401  29.380  24.996  1.00  0.00     0.047 A 
ATOM     20  C   UNL A   1      29.149  29.942  23.461  1.00  0.00     0.082 A 
ATOM     21  C   UNL A   1      29.622  28.631  23.531  1.00  0.00     0.024 A 
ATOM     22  C   UNL A   1      29.787  30.973  24.160  1.00  0.00     0.024 A 
ATOM     23  C   UNL A   1      30.751  28.350  24.296  1.00  0.00     0.028 A 
ATOM     24  C   UNL A   1      30.905  30.689  24.950  1.00  0.00     0.028 A 
BRANCH  20  25
ATOM     25  S   UNL A   1      27.744  30.308  22.454  1.00  0.00     0.238 S 
ATOM     26  O   UNL A   1      28.118  30.181  21.061  1.00  0.00    -0.207 OA
ATOM     27  O   UNL A   1      27.091  31.476  22.987  1.00  0.00    -0.207 OA
BRANCH  25  28
ATOM     28  N   UNL A   1      26.707  29.017  22.744  1.00  0.00    -0.225 NA
ATOM     29  H   UNL A   1      26.251  28.744  21.874  1.00  0.00     0.137 HD
ATOM     30  H   UNL A   1      26.001  29.294  23.426  1.00  0.00     0.137 HD
ENDBRANCH  25  28
ENDBRANCH  20  25
ENDBRANCH  15  19
ENDBRANCH   9  14
BRANCH  13  31
ATOM     31  O   UNL A   1      32.893  24.433  21.217  1.00  0.00    -0.507 OA
ATOM     32  H   UNL A   1      32.216  24.586  20.588  1.00  0.00     0.293 HD
ENDBRANCH  13  31
ENDBRANCH   5   8
ENDBRANCH   3   4
ENDBRANCH   2   3
ENDBRANCH   1   2
BRANCH   1  33
ATOM     33  C   UNL A   1      36.997  22.589  23.999  1.00  0.00     0.002 C 
BRANCH  33  34
ATOM     34  C   UNL A   1      37.346  21.107  24.197  1.00  0.00     0.021 C 
BRANCH  34  35
ATOM     35  C   UNL A   1      37.786  20.737  25.606  1.00  0.00     0.116 C 
BRANCH  35  36
ATOM     36  N   UNL A   1      38.767  19.654  25.630  1.00  0.00    -0.352 N 
ATOM     37  C   UNL A   1      40.118  19.735  25.919  1.00  0.00     0.251 C 
ATOM     38  H   UNL A   1      38.425  18.756  25.416  1.00  0.00     0.163 HD
ATOM     39  O   UNL A   1      40.888  18.859  25.544  1.00  0.00    -0.269 OA
BRANCH  37  40
ATOM     40  C   UNL A   1      40.612  20.890  26.691  1.00  0.00     0.039 A 
ATOM     41  C   UNL A   1      41.854  20.870  27.338  1.00  0.00     0.014 A 
ATOM     42  C   UNL A   1      39.801  22.019  26.751  1.00  0.00     0.014 A 
ATOM     43  C   UNL A   1      42.302  22.025  27.981  1.00  0.00     0.010 A 
ATOM     44  C   UNL A   1      40.305  23.192  27.244  1.00  0.00     0.010 A 
ATOM     45  C   UNL A   1      41.523  23.187  27.918  1.00  0.00    -0.014 A 
BRANCH  45  46
ATOM     46  C   UNL A   1      42.010  24.475  28.411  1.00  0.00     0.031 A 
ATOM     47  C   UNL A   1      41.073  25.609  28.165  1.00  0.00     0.074 A 
ATOM     48  C   UNL A   1      43.036  24.532  29.292  1.00  0.00     0.049 A 
ATOM     49  N   UNL A   1      41.291  26.692  27.495  1.00  0.00    -0.248 NA
ATOM     50  C   UNL A   1      39.663  25.453  28.575  1.00  0.00     0.031 C 
ATOM     51  C   UNL A   1      43.809  23.406  29.832  1.00  0.00     0.029 A 
ATOM     52  N   UNL A   1      43.499  25.573  30.036  1.00  0.00    -0.354 N 
ATOM     53  C   UNL A   1      40.140  27.464  27.637  1.00  0.00     0.074 A 
ATOM     54  C   UNL A   1      39.114  26.560  28.074  1.00  0.00     0.031 C 
ATOM     55  C   UNL A   1      44.407  23.777  30.983  1.00  0.00     0.029 A 
ATOM     56  C   UNL A   1      44.183  25.196  31.194  1.00  0.00     0.049 A 
ATOM     57  H   UNL A   1      43.363  26.515  29.778  1.00  0.00     0.167 HD
ATOM     58  C   UNL A   1      40.205  28.826  27.671  1.00  0.00     0.034 A 
ATOM     59  C   UNL A   1      44.472  25.971  32.278  1.00  0.00     0.034 A 
ATOM     60  C   UNL A   1      41.475  29.289  27.152  1.00  0.00     0.049 A 
ATOM     61  C   UNL A   1      44.386  27.382  31.811  1.00  0.00     0.074 A 
ATOM     62  C   UNL A   1      42.163  29.078  25.971  1.00  0.00     0.029 A 
ATOM     63  N   UNL A   1      42.422  29.748  28.045  1.00  0.00    -0.354 N 
ATOM     64  N   UNL A   1      45.176  27.882  30.896  1.00  0.00    -0.248 NA
ATOM     65  C   UNL A   1      43.106  28.063  31.956  1.00  0.00     0.031 C 
ATOM     66  C   UNL A   1      43.518  28.884  26.372  1.00  0.00     0.029 A 
ATOM     67  C   UNL A   1      43.603  29.113  27.748  1.00  0.00     0.049 A 
ATOM     68  H   UNL A   1      42.277  30.407  28.762  1.00  0.00     0.167 HD
ATOM     69  C   UNL A   1      44.344  28.619  30.066  1.00  0.00     0.074 A 
ATOM     70  C   UNL A   1      43.095  28.764  30.818  1.00  0.00     0.031 C 
ATOM     71  C   UNL A   1      44.616  28.777  28.734  1.00  0.00     0.034 A 
BRANCH  58  72
ATOM     72  C   UNL A   1      39.316  29.714  28.524  1.00  0.00     0.023 A 
ATOM     73  C   UNL A   1      39.651  29.825  29.889  1.00  0.00     0.031 A 
ATOM     74  C   UNL A   1      38.036  30.204  28.173  1.00  0.00     0.131 A 
ATOM     75  C   UNL A   1      38.708  30.263  30.835  1.00  0.00     0.055 A 
ATOM     76  C   UNL A   1      37.127  30.708  29.110  1.00  0.00     0.041 A 
ATOM     77  F   UNL A   1      37.547  30.151  26.931  1.00  0.00    -0.206 F 
ATOM     78  C   UNL A   1      37.444  30.702  30.456  1.00  0.00     0.022 A 
BRANCH  75  79
ATOM     79  S   UNL A   1      39.100  30.053  32.589  1.00  0.00     0.124 S 
ATOM     80  O   UNL A   1      38.972  28.608  32.743  1.00  0.00    -0.237 OA
ATOM     81  O   UNL A   1      40.455  30.591  32.657  1.00  0.00    -0.237 OA
ATOM     82  O   UNL A   1      38.077  30.849  33.262  1.00  0.00    -0.744 OA
ENDBRANCH  75  79
ENDBRANCH  58  72
BRANCH  59  83
ATOM     83  C   UNL A   1      44.443  25.555  33.720  1.00  0.00     0.023 A 
ATOM     84  C   UNL A   1      43.438  25.959  34.632  1.00  0.00     0.031 A 
ATOM     85  C   UNL A   1      45.320  24.541  34.181  1.00  0.00     0.131 A 
ATOM     86  C   UNL A   1      43.353  25.368  35.922  1.00  0.00     0.055 A 
ATOM     87  C   UNL A   1      45.236  23.970  35.454  1.00  0.00     0.041 A 
ATOM     88  F   UNL A   1      46.248  23.999  33.377  1.00  0.00    -0.206 F 
ATOM     89  C   UNL A   1      44.245  24.375  36.328  1.00  0.00     0.022 A 
BRANCH  86  90
ATOM     90  S   UNL A   1      42.011  25.814  37.080  1.00  0.00     0.124 S 
ATOM     91  O   UNL A   1      41.260  26.805  36.317  1.00  0.00    -0.237 OA
ATOM     92  O   UNL A   1      41.353  24.533  37.310  1.00  0.00    -0.237 OA
ATOM     93  O   UNL A   1      42.725  26.348  38.241  1.00  0.00    -0.744 OA
ENDBRANCH  86  90
ENDBRANCH  59  83
BRANCH  71  94
ATOM     94  C   UNL A   1      45.980  28.382  28.195  1.00  0.00     0.023 A 
ATOM     95  C   UNL A   1      46.344  27.089  27.747  1.00  0.00     0.031 A 
ATOM     96  C   UNL A   1      46.908  29.420  27.994  1.00  0.00     0.131 A 
ATOM     97  C   UNL A   1      47.597  26.882  27.131  1.00  0.00     0.055 A 
ATOM     98  C   UNL A   1      48.133  29.217  27.361  1.00  0.00     0.041 A 
ATOM     99  F   UNL A   1      46.618  30.676  28.374  1.00  0.00    -0.206 F 
ATOM    100  C   UNL A   1      48.485  27.944  26.932  1.00  0.00     0.022 A 
BRANCH  97 101
ATOM    101  S   UNL A   1      48.116  25.219  26.591  1.00  0.00     0.124 S 
ATOM    102  O   UNL A   1      49.568  25.255  26.720  1.00  0.00    -0.237 OA
ATOM    103  O   UNL A   1      47.412  24.347  27.528  1.00  0.00    -0.237 OA
ATOM    104  O   UNL A   1      47.630  25.144  25.212  1.00  0.00    -0.744 OA
ENDBRANCH  97 101
ENDBRANCH  71  94
ENDBRANCH  45  46
ENDBRANCH  37  40
ENDBRANCH  35  36
ENDBRANCH  34  35
ENDBRANCH  33  34
ENDBRANCH   1  33
TORSDOF 21
ENDMDL
MODEL 3
REMARK VINA RESULT:     -12.1      3.108      7.891
REMARK SMILES NS(=O)(=O)c1ccc(-n2ccnc2-c2ccc(O)c(C(=O)NCCCCCCNC(=O)c3ccc(-c4c5nc(c(-c6cc(S(=O)(=O)[O-])ccc6F)c6ccc([nH]6)c(-c6cc(S(=O)(=O)[O-])ccc6F)c6nc(c(-c7cc(S(=O)(=O)[O-])ccc7F)c7ccc4[nH]7)C=C6)C=C5)cc3)c2)cc1
REMARK SMILES IDX 25 1 24 2 23 3 22 4 20 5 21 6 19 8 14 9 15 10 95 11 16 12
REMARK SMILES IDX 17 13 13 14 9 15 10 16 11 17 12 18 8 19 5 20 6 21 97 22 7 23
REMARK SMILES IDX 96 24 2 25 3 26 4 27 1 28 18 31 26 33 27 34 28 35 29 36
REMARK SMILES IDX 30 37 31 39 32 40 33 41 94 42 34 43 93 44 35 45 36 46 37 47
REMARK SMILES IDX 87 48 38 49 92 50 86 51 88 52 39 53 91 54 85 55 84 56 40 58
REMARK SMILES IDX 72 59 52 60 71 61 53 62 56 63 70 64 89 65 54 66 55 67 69 69
REMARK SMILES IDX 90 70 57 71 41 72 42 73 50 74 43 75 49 76 51 77 48 78 44 79
REMARK SMILES IDX 45 80 46 81 47 82 73 83 74 84 82 85 75 86 81 87 83 88 80 89
REMARK SMILES IDX 76 90 77 91 78 92 79 93 58 94 59 95 67 96 60 97 66 98 68 99
REMARK SMILES IDX 65 100 61 101 62 102 63 103 64 104
REMARK H PARENT 22 7 1 29 1 30 18 32 29 38 88 57 56 68
REMARK Flexibility Score: inf
ROOT
ATOM      1  C   UNL A   1      37.435  22.375  24.722  1.00  0.00     0.002 C 
ENDROOT
BRANCH   1   2
ATOM      2  C   UNL A   1      36.488  23.175  25.613  1.00  0.00     0.021 C 
BRANCH   2   3
ATOM      3  C   UNL A   1      35.412  22.396  26.360  1.00  0.00     0.116 C 
BRANCH   3   4
ATOM      4  N   UNL A   1      35.068  21.102  25.785  1.00  0.00    -0.352 N 
ATOM      5  C   UNL A   1      34.062  20.713  24.923  1.00  0.00     0.255 C 
ATOM      6  O   UNL A   1      33.993  19.524  24.601  1.00  0.00    -0.269 OA
ATOM      7  H   UNL A   1      35.662  20.369  26.064  1.00  0.00     0.163 HD
BRANCH   5   8
ATOM      8  C   UNL A   1      33.016  21.635  24.394  1.00  0.00     0.082 A 
ATOM      9  C   UNL A   1      32.347  23.461  22.905  1.00  0.00     0.019 A 
ATOM     10  C   UNL A   1      31.137  23.577  23.589  1.00  0.00     0.016 A 
ATOM     11  C   UNL A   1      33.238  22.443  23.283  1.00  0.00     0.029 A 
ATOM     12  C   UNL A   1      30.825  22.675  24.611  1.00  0.00     0.048 A 
ATOM     13  C   UNL A   1      31.762  21.718  25.014  1.00  0.00     0.128 A 
BRANCH   9  14
ATOM     14  C   UNL A   1      32.768  24.455  21.902  1.00  0.00     0.144 A 
ATOM     15  N   UNL A   1      32.704  25.842  22.062  1.00  0.00    -0.300 N 
ATOM     16  C   UNL A   1      32.670  26.378  20.795  1.00  0.00     0.113 A 
ATOM     17  C   UNL A   1      32.923  25.329  19.945  1.00  0.00     0.132 A 
ATOM     18  N   UNL A   1      33.025  24.155  20.640  1.00  0.00    -0.236 NA
BRANCH  15  19
ATOM     19  C   UNL A   1      32.624  26.564  23.281  1.00  0.00     0.047 A 
ATOM     20  C   UNL A   1      32.538  28.128  25.581  1.00  0.00     0.082 A 
ATOM     21  C   UNL A   1      31.543  28.275  24.614  1.00  0.00     0.024 A 
ATOM     22  C   UNL A   1      33.571  27.199  25.413  1.00  0.00     0.024 A 
ATOM     23  C   UNL A   1      31.588  27.495  23.461  1.00  0.00     0.028 A 
ATOM     24  C   UNL A   1      33.604  26.396  24.268  1.00  0.00     0.028 A 
BRANCH  20  25
ATOM     25  S   UNL A   1      32.508  29.148  27.023  1.00  0.00     0.238 S 
ATOM     26  O   UNL A   1      31.529  30.199  26.835  1.00  0.00    -0.207 OA
ATOM     27  O   UNL A   1      33.866  29.407  27.429  1.00  0.00    -0.207 OA
BRANCH  25  28
ATOM     28  N   UNL A   1      31.848  28.146  28.199  1.00  0.00    -0.225 NA
ATOM     29  H   UNL A   1      31.559  27.265  27.773  1.00  0.00     0.137 HD
ATOM     30  H   UNL A   1      31.039  28.602  28.621  1.00  0.00     0.137 HD
ENDBRANCH  25  28
ENDBRANCH  20  25
ENDBRANCH  15  19
ENDBRANCH   9  14
BRANCH  13  31
ATOM     31  O   UNL A   1      31.377  20.890  26.037  1.00  0.00    -0.507 OA
ATOM     32  H   UNL A   1      31.235  21.238  26.894  1.00  0.00     0.293 HD
ENDBRANCH  13  31
ENDBRANCH   5   8
ENDBRANCH   3   4
ENDBRANCH   2   3
ENDBRANCH   1   2
BRANCH   1  33
ATOM     33  C   UNL A   1      38.530  21.558  25.420  1.00  0.00     0.002 C 
BRANCH  33  34
ATOM     34  C   UNL A   1      38.762  20.120  24.936  1.00  0.00     0.021 C 
BRANCH  34  35
ATOM     35  C   UNL A   1      39.259  19.158  26.004  1.00  0.00     0.116 C 
BRANCH  35  36
ATOM     36  N   UNL A   1      40.624  18.695  25.763  1.00  0.00    -0.352 N 
ATOM     37  C   UNL A   1      41.784  19.447  25.729  1.00  0.00     0.251 C 
ATOM     38  H   UNL A   1      40.732  17.729  25.608  1.00  0.00     0.163 HD
ATOM     39  O   UNL A   1      42.783  19.025  25.156  1.00  0.00    -0.269 OA
BRANCH  37  40
ATOM     40  C   UNL A   1      41.802  20.760  26.399  1.00  0.00     0.039 A 
ATOM     41  C   UNL A   1      41.433  20.911  27.741  1.00  0.00     0.014 A 
ATOM     42  C   UNL A   1      42.211  21.859  25.649  1.00  0.00     0.014 A 
ATOM     43  C   UNL A   1      41.553  22.166  28.340  1.00  0.00     0.010 A 
ATOM     44  C   UNL A   1      42.475  23.048  26.274  1.00  0.00     0.010 A 
ATOM     45  C   UNL A   1      42.088  23.228  27.600  1.00  0.00    -0.014 A 
BRANCH  45  46
ATOM     46  C   UNL A   1      42.408  24.516  28.211  1.00  0.00     0.031 A 
ATOM     47  C   UNL A   1      41.339  25.544  28.051  1.00  0.00     0.074 A 
ATOM     48  C   UNL A   1      43.415  24.622  29.110  1.00  0.00     0.049 A 
ATOM     49  N   UNL A   1      41.423  26.700  27.481  1.00  0.00    -0.248 NA
ATOM     50  C   UNL A   1      39.957  25.179  28.423  1.00  0.00     0.031 C 
ATOM     51  C   UNL A   1      44.319  23.556  29.561  1.00  0.00     0.029 A 
ATOM     52  N   UNL A   1      43.741  25.642  29.949  1.00  0.00    -0.354 N 
ATOM     53  C   UNL A   1      40.185  27.309  27.672  1.00  0.00     0.074 A 
ATOM     54  C   UNL A   1      39.277  26.250  28.012  1.00  0.00     0.031 C 
ATOM     55  C   UNL A   1      44.861  23.895  30.750  1.00  0.00     0.029 A 
ATOM     56  C   UNL A   1      44.461  25.251  31.080  1.00  0.00     0.049 A 
ATOM     57  H   UNL A   1      43.490  26.579  29.773  1.00  0.00     0.167 HD
ATOM     58  C   UNL A   1      40.079  28.660  27.826  1.00  0.00     0.034 A 
ATOM     59  C   UNL A   1      44.646  25.957  32.232  1.00  0.00     0.034 A 
ATOM     60  C   UNL A   1      41.285  29.321  27.369  1.00  0.00     0.049 A 
ATOM     61  C   UNL A   1      44.387  27.382  31.890  1.00  0.00     0.074 A 
ATOM     62  C   UNL A   1      41.999  29.301  26.185  1.00  0.00     0.029 A 
ATOM     63  N   UNL A   1      42.162  29.812  28.314  1.00  0.00    -0.354 N 
ATOM     64  N   UNL A   1      45.114  28.054  31.034  1.00  0.00    -0.248 NA
ATOM     65  C   UNL A   1      43.032  27.884  32.073  1.00  0.00     0.031 C 
ATOM     66  C   UNL A   1      43.366  29.241  26.590  1.00  0.00     0.029 A 
ATOM     67  C   UNL A   1      43.415  29.356  27.981  1.00  0.00     0.049 A 
ATOM     68  H   UNL A   1      41.934  30.382  29.084  1.00  0.00     0.167 HD
ATOM     69  C   UNL A   1      44.200  28.754  30.259  1.00  0.00     0.074 A 
ATOM     70  C   UNL A   1      42.940  28.677  31.001  1.00  0.00     0.031 C 
ATOM     71  C   UNL A   1      44.457  29.062  28.950  1.00  0.00     0.034 A 
BRANCH  58  72
ATOM     72  C   UNL A   1      39.083  29.353  28.740  1.00  0.00     0.023 A 
ATOM     73  C   UNL A   1      39.299  29.227  30.126  1.00  0.00     0.031 A 
ATOM     74  C   UNL A   1      37.815  29.858  28.367  1.00  0.00     0.131 A 
ATOM     75  C   UNL A   1      38.262  29.458  31.047  1.00  0.00     0.055 A 
ATOM     76  C   UNL A   1      36.810  30.156  29.293  1.00  0.00     0.041 A 
ATOM     77  F   UNL A   1      37.433  30.014  27.096  1.00  0.00    -0.206 F 
ATOM     78  C   UNL A   1      37.014  29.919  30.639  1.00  0.00     0.022 A 
BRANCH  75  79
ATOM     79  S   UNL A   1      38.517  28.949  32.765  1.00  0.00     0.124 S 
ATOM     80  O   UNL A   1      37.207  28.401  33.101  1.00  0.00    -0.237 OA
ATOM     81  O   UNL A   1      39.604  27.985  32.629  1.00  0.00    -0.237 OA
ATOM     82  O   UNL A   1      38.869  30.196  33.438  1.00  0.00    -0.744 OA
ENDBRANCH  75  79
ENDBRANCH  58  72
BRANCH  59  83
ATOM     83  C   UNL A   1      44.663  25.414  33.632  1.00  0.00     0.023 A 
ATOM     84  C   UNL A   1      45.033  24.085  33.952  1.00  0.00     0.031 A 
ATOM     85  C   UNL A   1      44.517  26.294  34.733  1.00  0.00     0.131 A 
ATOM     86  C   UNL A   1      45.226  23.695  35.305  1.00  0.00     0.055 A 
ATOM     87  C   UNL A   1      44.701  25.902  36.062  1.00  0.00     0.041 A 
ATOM     88  F   UNL A   1      44.272  27.601  34.558  1.00  0.00    -0.206 F 
ATOM     89  C   UNL A   1      45.067  24.601  36.354  1.00  0.00     0.022 A 
BRANCH  86  90
ATOM     90  S   UNL A   1      45.788  22.009  35.733  1.00  0.00     0.124 S 
ATOM     91  O   UNL A   1      47.190  22.039  35.333  1.00  0.00    -0.237 OA
ATOM     92  O   UNL A   1      45.520  21.940  37.164  1.00  0.00    -0.237 OA
ATOM     93  O   UNL A   1      44.936  21.146  34.911  1.00  0.00    -0.744 OA
ENDBRANCH  86  90
ENDBRANCH  59  83
BRANCH  71  94
ATOM     94  C   UNL A   1      45.862  28.887  28.400  1.00  0.00     0.023 A 
ATOM     95  C   UNL A   1      46.398  27.685  27.879  1.00  0.00     0.031 A 
ATOM     96  C   UNL A   1      46.642  30.052  28.269  1.00  0.00     0.131 A 
ATOM     97  C   UNL A   1      47.668  27.687  27.262  1.00  0.00     0.055 A 
ATOM     98  C   UNL A   1      47.884  30.054  27.637  1.00  0.00     0.041 A 
ATOM     99  F   UNL A   1      46.185  31.231  28.722  1.00  0.00    -0.206 F 
ATOM    100  C   UNL A   1      48.404  28.868  27.134  1.00  0.00     0.022 A 
BRANCH  97 101
ATOM    101  S   UNL A   1      48.407  26.144  26.628  1.00  0.00     0.124 S 
ATOM    102  O   UNL A   1      47.785  25.981  25.319  1.00  0.00    -0.237 OA
ATOM    103  O   UNL A   1      49.834  26.454  26.626  1.00  0.00    -0.237 OA
ATOM    104  O   UNL A   1      48.005  25.144  27.620  1.00  0.00    -0.744 OA
ENDBRANCH  97 101
ENDBRANCH  71  94
ENDBRANCH  45  46
ENDBRANCH  37  40
ENDBRANCH  35  36
ENDBRANCH  34  35
ENDBRANCH  33  34
ENDBRANCH   1  33
TORSDOF 21
ENDMDL
