MODEL 1
REMARK VINA RESULT:     -11.5      0.000      0.000
REMARK SMILES O=C(NCCCCCCNC(=O)c1cccc(CS(=O)(=O)Nc2ncccn2)c1)c1ccc(-c2c3nc(c(-c4cc(S(=O)(=O)[O-])ccc4F)c4ccc([nH]4)c(-c4cc(S(=O)(=O)[O-])ccc4F)c4nc(c(-c5cc(S(=O)(=O)[O-])ccc5F)c5ccc2[nH]5)C=C4)C=C3)cc1
REMARK SMILES IDX 7 1 6 2 5 3 4 4 3 5 1 6 2 7 30 9 31 10 92 11 32 12 91 13
REMARK SMILES IDX 33 14 34 15 35 16 85 17 36 18 90 19 84 20 86 21 37 22 89 23
REMARK SMILES IDX 83 24 82 25 38 27 70 28 50 29 69 30 51 31 54 32 68 33 87 34
REMARK SMILES IDX 52 35 53 36 67 38 88 39 55 40 39 41 40 42 48 43 41 44 47 45
REMARK SMILES IDX 49 46 46 47 42 48 43 49 44 50 45 51 71 52 72 53 80 54 73 55
REMARK SMILES IDX 79 56 81 57 78 58 74 59 75 60 76 61 77 62 56 63 57 64 65 65
REMARK SMILES IDX 58 66 64 67 66 68 63 69 59 70 60 71 61 72 62 73 8 74 9 75
REMARK SMILES IDX 10 76 11 77 12 79 13 80 14 81 29 82 15 83 17 84 16 85 18 86
REMARK SMILES IDX 19 87 20 88 21 89 22 90 23 92 24 93 28 94 25 95 27 96 26 97
REMARK H PARENT 3 8 86 26 54 37 10 78 22 91
REMARK Flexibility Score: inf
ROOT
ATOM      1  C   UNL A   1      33.455  27.776  25.295  1.00  0.00     0.002 C 
ENDROOT
BRANCH   1   2
ATOM      2  C   UNL A   1      31.978  28.094  25.547  1.00  0.00     0.002 C 
BRANCH   2   3
ATOM      3  C   UNL A   1      31.669  29.517  26.008  1.00  0.00     0.021 C 
BRANCH   3   4
ATOM      4  C   UNL A   1      32.734  30.172  26.875  1.00  0.00     0.116 C 
BRANCH   4   5
ATOM      5  N   UNL A   1      32.607  31.617  26.958  1.00  0.00    -0.352 N 
ATOM      6  O   UNL A   1      33.175  33.702  27.625  1.00  0.00    -0.269 OA
ATOM      7  C   UNL A   1      33.471  32.512  27.547  1.00  0.00     0.251 C 
ATOM      8  H   UNL A   1      31.804  32.005  26.541  1.00  0.00     0.163 HD
BRANCH   7   9
ATOM      9  C   UNL A   1      34.748  32.020  28.115  1.00  0.00     0.039 A 
ATOM     10  C   UNL A   1      34.828  30.742  28.671  1.00  0.00     0.014 A 
ATOM     11  C   UNL A   1      35.867  32.859  28.121  1.00  0.00     0.014 A 
ATOM     12  C   UNL A   1      35.972  30.361  29.361  1.00  0.00     0.010 A 
ATOM     13  C   UNL A   1      37.051  32.435  28.735  1.00  0.00     0.010 A 
ATOM     14  C   UNL A   1      37.105  31.193  29.387  1.00  0.00    -0.014 A 
BRANCH  14  15
ATOM     15  C   UNL A   1      38.341  30.694  30.044  1.00  0.00     0.031 A 
ATOM     16  C   UNL A   1      38.696  31.081  31.454  1.00  0.00     0.074 A 
ATOM     17  C   UNL A   1      39.115  29.823  29.364  1.00  0.00     0.049 A 
ATOM     18  N   UNL A   1      39.703  30.680  32.187  1.00  0.00    -0.248 NA
ATOM     19  C   UNL A   1      37.816  32.050  32.122  1.00  0.00     0.031 C 
ATOM     20  C   UNL A   1      38.875  29.394  27.982  1.00  0.00     0.029 A 
ATOM     21  N   UNL A   1      40.228  29.119  29.739  1.00  0.00    -0.354 N 
ATOM     22  C   UNL A   1      39.585  31.348  33.402  1.00  0.00     0.074 A 
ATOM     23  C   UNL A   1      38.426  32.212  33.288  1.00  0.00     0.031 C 
ATOM     24  C   UNL A   1      39.774  28.459  27.650  1.00  0.00     0.029 A 
ATOM     25  C   UNL A   1      40.696  28.270  28.763  1.00  0.00     0.049 A 
ATOM     26  H   UNL A   1      40.653  29.212  30.622  1.00  0.00     0.167 HD
ATOM     27  C   UNL A   1      40.365  31.243  34.508  1.00  0.00     0.034 A 
ATOM     28  C   UNL A   1      41.757  27.441  28.754  1.00  0.00     0.034 A 
ATOM     29  C   UNL A   1      41.523  30.382  34.599  1.00  0.00     0.049 A 
ATOM     30  C   UNL A   1      42.605  27.348  29.992  1.00  0.00     0.074 A 
ATOM     31  C   UNL A   1      42.384  30.201  35.668  1.00  0.00     0.029 A 
ATOM     32  N   UNL A   1      41.983  29.556  33.581  1.00  0.00    -0.354 N 
ATOM     33  N   UNL A   1      42.473  27.987  31.131  1.00  0.00    -0.248 NA
ATOM     34  C   UNL A   1      43.738  26.419  29.945  1.00  0.00     0.031 C 
ATOM     35  C   UNL A   1      43.392  29.311  35.279  1.00  0.00     0.029 A 
ATOM     36  C   UNL A   1      43.124  28.879  33.991  1.00  0.00     0.049 A 
ATOM     37  H   UNL A   1      41.561  29.463  32.696  1.00  0.00     0.167 HD
ATOM     38  C   UNL A   1      43.509  27.533  31.939  1.00  0.00     0.074 A 
ATOM     39  C   UNL A   1      44.228  26.537  31.170  1.00  0.00     0.031 C 
ATOM     40  C   UNL A   1      43.846  27.913  33.198  1.00  0.00     0.034 A 
BRANCH  27  41
ATOM     41  C   UNL A   1      40.012  32.109  35.694  1.00  0.00     0.023 A 
ATOM     42  C   UNL A   1      39.056  31.706  36.644  1.00  0.00     0.031 A 
ATOM     43  C   UNL A   1      40.632  33.358  35.877  1.00  0.00     0.131 A 
ATOM     44  C   UNL A   1      38.707  32.564  37.697  1.00  0.00     0.055 A 
ATOM     45  C   UNL A   1      40.332  34.179  36.967  1.00  0.00     0.041 A 
ATOM     46  F   UNL A   1      41.538  33.807  34.994  1.00  0.00    -0.206 F 
ATOM     47  C   UNL A   1      39.355  33.789  37.879  1.00  0.00     0.022 A 
BRANCH  44  48
ATOM     48  S   UNL A   1      37.307  32.113  38.758  1.00  0.00     0.124 S 
ATOM     49  O   UNL A   1      37.835  32.412  40.088  1.00  0.00    -0.237 OA
ATOM     50  O   UNL A   1      36.250  32.997  38.277  1.00  0.00    -0.237 OA
ATOM     51  O   UNL A   1      37.108  30.692  38.480  1.00  0.00    -0.744 OA
ENDBRANCH  44  48
ENDBRANCH  27  41
BRANCH  28  52
ATOM     52  C   UNL A   1      42.091  26.666  27.526  1.00  0.00     0.023 A 
ATOM     53  C   UNL A   1      41.823  25.292  27.434  1.00  0.00     0.031 A 
ATOM     54  C   UNL A   1      42.711  27.293  26.430  1.00  0.00     0.131 A 
ATOM     55  C   UNL A   1      42.211  24.581  26.287  1.00  0.00     0.055 A 
ATOM     56  C   UNL A   1      43.044  26.594  25.270  1.00  0.00     0.041 A 
ATOM     57  F   UNL A   1      42.984  28.607  26.465  1.00  0.00    -0.206 F 
ATOM     58  C   UNL A   1      42.806  25.226  25.200  1.00  0.00     0.022 A 
BRANCH  55  59
ATOM     59  S   UNL A   1      42.005  22.779  26.272  1.00  0.00     0.124 S 
ATOM     60  O   UNL A   1      40.556  22.643  26.341  1.00  0.00    -0.237 OA
ATOM     61  O   UNL A   1      42.624  22.417  25.001  1.00  0.00    -0.237 OA
ATOM     62  O   UNL A   1      42.732  22.345  27.463  1.00  0.00    -0.744 OA
ENDBRANCH  55  59
ENDBRANCH  28  52
BRANCH  40  63
ATOM     63  C   UNL A   1      45.042  27.223  33.806  1.00  0.00     0.023 A 
ATOM     64  C   UNL A   1      44.897  26.061  34.586  1.00  0.00     0.031 A 
ATOM     65  C   UNL A   1      46.331  27.762  33.652  1.00  0.00     0.131 A 
ATOM     66  C   UNL A   1      46.010  25.519  35.243  1.00  0.00     0.055 A 
ATOM     67  C   UNL A   1      47.445  27.181  34.259  1.00  0.00     0.041 A 
ATOM     68  F   UNL A   1      46.525  28.870  32.920  1.00  0.00    -0.206 F 
ATOM     69  C   UNL A   1      47.286  26.064  35.075  1.00  0.00     0.022 A 
BRANCH  66  70
ATOM     70  S   UNL A   1      45.748  24.162  36.418  1.00  0.00     0.124 S 
ATOM     71  O   UNL A   1      45.064  23.172  35.592  1.00  0.00    -0.237 OA
ATOM     72  O   UNL A   1      47.111  23.827  36.817  1.00  0.00    -0.237 OA
ATOM     73  O   UNL A   1      44.927  24.768  37.465  1.00  0.00    -0.744 OA
ENDBRANCH  66  70
ENDBRANCH  40  63
ENDBRANCH  14  15
ENDBRANCH   7   9
ENDBRANCH   4   5
ENDBRANCH   3   4
ENDBRANCH   2   3
ENDBRANCH   1   2
BRANCH   1  74
ATOM     74  C   UNL A   1      34.002  28.148  23.912  1.00  0.00     0.021 C 
BRANCH  74  75
ATOM     75  C   UNL A   1      32.953  28.365  22.825  1.00  0.00     0.116 C 
BRANCH  75  76
ATOM     76  N   UNL A   1      33.134  27.451  21.712  1.00  0.00    -0.352 N 
ATOM     77  C   UNL A   1      32.922  26.099  21.661  1.00  0.00     0.251 C 
ATOM     78  H   UNL A   1      33.455  27.861  20.876  1.00  0.00     0.163 HD
ATOM     79  O   UNL A   1      33.268  25.458  20.671  1.00  0.00    -0.269 OA
BRANCH  77  80
ATOM     80  C   UNL A   1      32.238  25.408  22.773  1.00  0.00     0.040 A 
ATOM     81  C   UNL A   1      30.873  25.629  22.967  1.00  0.00     0.014 A 
ATOM     82  C   UNL A   1      32.974  24.657  23.699  1.00  0.00     0.018 A 
ATOM     83  C   UNL A   1      30.237  25.057  24.067  1.00  0.00     0.001 A 
ATOM     84  C   UNL A   1      32.356  24.131  24.841  1.00  0.00    -0.030 A 
ATOM     85  C   UNL A   1      30.971  24.304  24.987  1.00  0.00     0.005 A 
BRANCH  84  86
ATOM     86  C   UNL A   1      33.181  23.373  25.853  1.00  0.00     0.195 C 
BRANCH  86  87
ATOM     87  S   UNL A   1      33.602  21.687  25.325  1.00  0.00     0.239 S 
ATOM     88  O   UNL A   1      34.107  21.692  23.965  1.00  0.00    -0.206 OA
ATOM     89  O   UNL A   1      34.451  21.119  26.355  1.00  0.00    -0.206 OA
BRANCH  87  90
ATOM     90  N   UNL A   1      32.250  20.723  25.286  1.00  0.00    -0.251 N 
ATOM     91  H   UNL A   1      31.365  21.085  25.522  1.00  0.00     0.183 HD
BRANCH  90  92
ATOM     92  C   UNL A   1      32.398  19.390  24.912  1.00  0.00     0.236 A 
ATOM     93  N   UNL A   1      32.546  18.516  25.909  1.00  0.00    -0.221 NA
ATOM     94  N   UNL A   1      32.560  19.153  23.612  1.00  0.00    -0.221 NA
ATOM     95  C   UNL A   1      32.906  17.273  25.542  1.00  0.00     0.117 A 
ATOM     96  C   UNL A   1      32.865  17.878  23.295  1.00  0.00     0.117 A 
ATOM     97  C   UNL A   1      33.068  16.889  24.231  1.00  0.00     0.040 A 
ENDBRANCH  90  92
ENDBRANCH  87  90
ENDBRANCH  86  87
ENDBRANCH  84  86
ENDBRANCH  77  80
ENDBRANCH  75  76
ENDBRANCH  74  75
ENDBRANCH   1  74
TORSDOF 20
ENDMDL
MODEL 2
REMARK VINA RESULT:     -11.4      1.442      2.025
REMARK SMILES O=C(NCCCCCCNC(=O)c1cccc(CS(=O)(=O)Nc2ncccn2)c1)c1ccc(-c2c3nc(c(-c4cc(S(=O)(=O)[O-])ccc4F)c4ccc([nH]4)c(-c4cc(S(=O)(=O)[O-])ccc4F)c4nc(c(-c5cc(S(=O)(=O)[O-])ccc5F)c5ccc2[nH]5)C=C4)C=C3)cc1
REMARK SMILES IDX 7 1 6 2 5 3 4 4 3 5 1 6 2 7 30 9 31 10 92 11 32 12 91 13
REMARK SMILES IDX 33 14 34 15 35 16 85 17 36 18 90 19 84 20 86 21 37 22 89 23
REMARK SMILES IDX 83 24 82 25 38 27 70 28 50 29 69 30 51 31 54 32 68 33 87 34
REMARK SMILES IDX 52 35 53 36 67 38 88 39 55 40 39 41 40 42 48 43 41 44 47 45
REMARK SMILES IDX 49 46 46 47 42 48 43 49 44 50 45 51 71 52 72 53 80 54 73 55
REMARK SMILES IDX 79 56 81 57 78 58 74 59 75 60 76 61 77 62 56 63 57 64 65 65
REMARK SMILES IDX 58 66 64 67 66 68 63 69 59 70 60 71 61 72 62 73 8 74 9 75
REMARK SMILES IDX 10 76 11 77 12 79 13 80 14 81 29 82 15 83 17 84 16 85 18 86
REMARK SMILES IDX 19 87 20 88 21 89 22 90 23 92 24 93 28 94 25 95 27 96 26 97
REMARK H PARENT 3 8 86 26 54 37 10 78 22 91
REMARK Flexibility Score: inf
ROOT
ATOM      1  C   UNL A   1      31.197  28.100  23.247  1.00  0.00     0.002 C 
ENDROOT
BRANCH   1   2
ATOM      2  C   UNL A   1      32.697  27.967  22.969  1.00  0.00     0.002 C 
BRANCH   2   3
ATOM      3  C   UNL A   1      33.597  29.005  23.636  1.00  0.00     0.021 C 
BRANCH   3   4
ATOM      4  C   UNL A   1      33.565  29.022  25.157  1.00  0.00     0.116 C 
BRANCH   4   5
ATOM      5  N   UNL A   1      32.867  30.169  25.710  1.00  0.00    -0.352 N 
ATOM      6  O   UNL A   1      32.471  31.817  27.207  1.00  0.00    -0.269 OA
ATOM      7  C   UNL A   1      33.221  30.935  26.798  1.00  0.00     0.251 C 
ATOM      8  H   UNL A   1      32.037  30.433  25.250  1.00  0.00     0.163 HD
BRANCH   7   9
ATOM      9  C   UNL A   1      34.503  30.662  27.489  1.00  0.00     0.039 A 
ATOM     10  C   UNL A   1      34.763  29.399  28.023  1.00  0.00     0.014 A 
ATOM     11  C   UNL A   1      35.439  31.691  27.633  1.00  0.00     0.014 A 
ATOM     12  C   UNL A   1      35.882  29.206  28.823  1.00  0.00     0.010 A 
ATOM     13  C   UNL A   1      36.614  31.465  28.361  1.00  0.00     0.010 A 
ATOM     14  C   UNL A   1      36.831  30.229  28.988  1.00  0.00    -0.014 A 
BRANCH  14  15
ATOM     15  C   UNL A   1      38.065  29.938  29.764  1.00  0.00     0.031 A 
ATOM     16  C   UNL A   1      38.255  30.449  31.165  1.00  0.00     0.074 A 
ATOM     17  C   UNL A   1      38.996  29.140  29.201  1.00  0.00     0.049 A 
ATOM     18  N   UNL A   1      39.244  30.230  31.994  1.00  0.00    -0.248 NA
ATOM     19  C   UNL A   1      37.208  31.329  31.703  1.00  0.00     0.031 C 
ATOM     20  C   UNL A   1      38.923  28.603  27.837  1.00  0.00     0.029 A 
ATOM     21  N   UNL A   1      40.157  28.614  29.700  1.00  0.00    -0.354 N 
ATOM     22  C   UNL A   1      38.946  30.945  33.149  1.00  0.00     0.074 A 
ATOM     23  C   UNL A   1      37.698  31.638  32.895  1.00  0.00     0.031 C 
ATOM     24  C   UNL A   1      39.959  27.779  27.633  1.00  0.00     0.029 A 
ATOM     25  C   UNL A   1      40.807  27.780  28.819  1.00  0.00     0.049 A 
ATOM     26  H   UNL A   1      40.496  28.813  30.603  1.00  0.00     0.167 HD
ATOM     27  C   UNL A   1      39.643  31.009  34.312  1.00  0.00     0.034 A 
ATOM     28  C   UNL A   1      41.962  27.100  28.941  1.00  0.00     0.034 A 
ATOM     29  C   UNL A   1      40.890  30.317  34.543  1.00  0.00     0.049 A 
ATOM     30  C   UNL A   1      42.715  27.193  30.239  1.00  0.00     0.074 A 
ATOM     31  C   UNL A   1      41.681  30.314  35.680  1.00  0.00     0.029 A 
ATOM     32  N   UNL A   1      41.532  29.502  33.618  1.00  0.00    -0.354 N 
ATOM     33  N   UNL A   1      42.412  27.874  31.321  1.00  0.00    -0.248 NA
ATOM     34  C   UNL A   1      43.958  26.422  30.336  1.00  0.00     0.031 C 
ATOM     35  C   UNL A   1      42.823  29.545  35.425  1.00  0.00     0.029 A 
ATOM     36  C   UNL A   1      42.715  29.008  34.152  1.00  0.00     0.049 A 
ATOM     37  H   UNL A   1      41.197  29.302  32.714  1.00  0.00     0.167 HD
ATOM     38  C   UNL A   1      43.431  27.609  32.229  1.00  0.00     0.074 A 
ATOM     39  C   UNL A   1      44.330  26.675  31.582  1.00  0.00     0.031 C 
ATOM     40  C   UNL A   1      43.616  28.102  33.480  1.00  0.00     0.034 A 
BRANCH  27  41
ATOM     41  C   UNL A   1      39.088  31.887  35.409  1.00  0.00     0.023 A 
ATOM     42  C   UNL A   1      38.504  31.342  36.566  1.00  0.00     0.031 A 
ATOM     43  C   UNL A   1      39.137  33.288  35.296  1.00  0.00     0.131 A 
ATOM     44  C   UNL A   1      37.941  32.188  37.535  1.00  0.00     0.055 A 
ATOM     45  C   UNL A   1      38.639  34.127  36.296  1.00  0.00     0.041 A 
ATOM     46  F   UNL A   1      39.664  33.867  34.206  1.00  0.00    -0.206 F 
ATOM     47  C   UNL A   1      38.025  33.578  37.419  1.00  0.00     0.022 A 
BRANCH  44  48
ATOM     48  S   UNL A   1      36.990  31.446  38.888  1.00  0.00     0.124 S 
ATOM     49  O   UNL A   1      36.784  30.085  38.395  1.00  0.00    -0.237 OA
ATOM     50  O   UNL A   1      37.897  31.583  40.023  1.00  0.00    -0.237 OA
ATOM     51  O   UNL A   1      35.783  32.267  38.951  1.00  0.00    -0.744 OA
ENDBRANCH  44  48
ENDBRANCH  27  41
BRANCH  28  52
ATOM     52  C   UNL A   1      42.490  26.307  27.796  1.00  0.00     0.023 A 
ATOM     53  C   UNL A   1      42.080  24.984  27.573  1.00  0.00     0.031 A 
ATOM     54  C   UNL A   1      43.438  26.862  26.917  1.00  0.00     0.131 A 
ATOM     55  C   UNL A   1      42.646  24.246  26.522  1.00  0.00     0.055 A 
ATOM     56  C   UNL A   1      43.956  26.144  25.840  1.00  0.00     0.041 A 
ATOM     57  F   UNL A   1      43.859  28.127  27.082  1.00  0.00    -0.206 F 
ATOM     58  C   UNL A   1      43.570  24.822  25.646  1.00  0.00     0.022 A 
BRANCH  55  59
ATOM     59  S   UNL A   1      42.223  22.490  26.367  1.00  0.00     0.124 S 
ATOM     60  O   UNL A   1      40.786  22.506  26.615  1.00  0.00    -0.237 OA
ATOM     61  O   UNL A   1      42.634  22.200  24.997  1.00  0.00    -0.237 OA
ATOM     62  O   UNL A   1      43.030  21.853  27.405  1.00  0.00    -0.744 OA
ENDBRANCH  55  59
ENDBRANCH  28  52
BRANCH  40  63
ATOM     63  C   UNL A   1      44.839  27.615  34.217  1.00  0.00     0.023 A 
ATOM     64  C   UNL A   1      44.854  26.364  34.860  1.00  0.00     0.031 A 
ATOM     65  C   UNL A   1      45.979  28.430  34.324  1.00  0.00     0.131 A 
ATOM     66  C   UNL A   1      45.956  25.995  35.643  1.00  0.00     0.055 A 
ATOM     67  C   UNL A   1      47.098  28.030  35.056  1.00  0.00     0.041 A 
ATOM     68  F   UNL A   1      46.016  29.634  33.733  1.00  0.00    -0.206 F 
ATOM     69  C   UNL A   1      47.084  26.815  35.736  1.00  0.00     0.022 A 
BRANCH  66  70
ATOM     70  S   UNL A   1      45.847  24.482  36.638  1.00  0.00     0.124 S 
ATOM     71  O   UNL A   1      46.729  23.575  35.909  1.00  0.00    -0.237 OA
ATOM     72  O   UNL A   1      46.329  24.930  37.940  1.00  0.00    -0.237 OA
ATOM     73  O   UNL A   1      44.427  24.139  36.586  1.00  0.00    -0.744 OA
ENDBRANCH  66  70
ENDBRANCH  40  63
ENDBRANCH  14  15
ENDBRANCH   7   9
ENDBRANCH   4   5
ENDBRANCH   3   4
ENDBRANCH   2   3
ENDBRANCH   1   2
BRANCH   1  74
ATOM     74  C   UNL A   1      30.311  26.951  22.754  1.00  0.00     0.021 C 
BRANCH  74  75
ATOM     75  C   UNL A   1      30.105  25.808  23.744  1.00  0.00     0.116 C 
BRANCH  75  76
ATOM     76  N   UNL A   1      30.340  26.231  25.112  1.00  0.00    -0.352 N 
ATOM     77  C   UNL A   1      31.335  25.853  25.974  1.00  0.00     0.251 C 
ATOM     78  H   UNL A   1      29.692  26.880  25.471  1.00  0.00     0.163 HD
ATOM     79  O   UNL A   1      31.297  26.204  27.151  1.00  0.00    -0.269 OA
BRANCH  77  80
ATOM     80  C   UNL A   1      32.483  25.061  25.488  1.00  0.00     0.040 A 
ATOM     81  C   UNL A   1      33.776  25.514  25.753  1.00  0.00     0.014 A 
ATOM     82  C   UNL A   1      32.276  23.953  24.657  1.00  0.00     0.018 A 
ATOM     83  C   UNL A   1      34.865  24.827  25.221  1.00  0.00     0.001 A 
ATOM     84  C   UNL A   1      33.362  23.293  24.065  1.00  0.00    -0.030 A 
ATOM     85  C   UNL A   1      34.658  23.719  24.395  1.00  0.00     0.005 A 
BRANCH  84  86
ATOM     86  C   UNL A   1      33.112  22.136  23.128  1.00  0.00     0.195 C 
BRANCH  86  87
ATOM     87  S   UNL A   1      32.528  20.637  23.970  1.00  0.00     0.239 S 
ATOM     88  O   UNL A   1      31.592  20.979  25.026  1.00  0.00    -0.206 OA
ATOM     89  O   UNL A   1      32.074  19.721  22.941  1.00  0.00    -0.206 OA
BRANCH  87  90
ATOM     90  N   UNL A   1      33.781  19.859  24.733  1.00  0.00    -0.251 N 
ATOM     91  H   UNL A   1      34.566  20.360  25.051  1.00  0.00     0.183 HD
BRANCH  90  92
ATOM     92  C   UNL A   1      33.694  18.481  24.911  1.00  0.00     0.236 A 
ATOM     93  N   UNL A   1      34.461  17.738  24.112  1.00  0.00    -0.221 NA
ATOM     94  N   UNL A   1      32.731  18.047  25.721  1.00  0.00    -0.221 NA
ATOM     95  C   UNL A   1      34.214  16.416  24.134  1.00  0.00     0.117 A 
ATOM     96  C   UNL A   1      32.562  16.709  25.748  1.00  0.00     0.117 A 
ATOM     97  C   UNL A   1      33.273  15.836  24.955  1.00  0.00     0.040 A 
ENDBRANCH  90  92
ENDBRANCH  87  90
ENDBRANCH  86  87
ENDBRANCH  84  86
ENDBRANCH  77  80
ENDBRANCH  75  76
ENDBRANCH  74  75
ENDBRANCH   1  74
TORSDOF 20
ENDMDL
MODEL 3
REMARK VINA RESULT:     -11.3      2.479      3.034
REMARK SMILES O=C(NCCCCCCNC(=O)c1cccc(CS(=O)(=O)Nc2ncccn2)c1)c1ccc(-c2c3nc(c(-c4cc(S(=O)(=O)[O-])ccc4F)c4ccc([nH]4)c(-c4cc(S(=O)(=O)[O-])ccc4F)c4nc(c(-c5cc(S(=O)(=O)[O-])ccc5F)c5ccc2[nH]5)C=C4)C=C3)cc1
REMARK SMILES IDX 7 1 6 2 5 3 4 4 3 5 1 6 2 7 30 9 31 10 92 11 32 12 91 13
REMARK SMILES IDX 33 14 34 15 35 16 85 17 36 18 90 19 84 20 86 21 37 22 89 23
REMARK SMILES IDX 83 24 82 25 38 27 70 28 50 29 69 30 51 31 54 32 68 33 87 34
REMARK SMILES IDX 52 35 53 36 67 38 88 39 55 40 39 41 40 42 48 43 41 44 47 45
REMARK SMILES IDX 49 46 46 47 42 48 43 49 44 50 45 51 71 52 72 53 80 54 73 55
REMARK SMILES IDX 79 56 81 57 78 58 74 59 75 60 76 61 77 62 56 63 57 64 65 65
REMARK SMILES IDX 58 66 64 67 66 68 63 69 59 70 60 71 61 72 62 73 8 74 9 75
REMARK SMILES IDX 10 76 11 77 12 79 13 80 14 81 29 82 15 83 17 84 16 85 18 86
REMARK SMILES IDX 19 87 20 88 21 89 22 90 23 92 24 93 28 94 25 95 27 96 26 97
REMARK H PARENT 3 8 86 26 54 37 10 78 22 91
REMARK Flexibility Score: inf
ROOT
ATOM      1  C   UNL A   1      32.827  29.015  23.282  1.00  0.00     0.002 C 
ENDROOT
BRANCH   1   2
ATOM      2  C   UNL A   1      32.780  29.373  24.770  1.00  0.00     0.002 C 
BRANCH   2   3
ATOM      3  C   UNL A   1      33.907  28.807  25.632  1.00  0.00     0.021 C 
BRANCH   3   4
ATOM      4  C   UNL A   1      33.728  28.966  27.135  1.00  0.00     0.116 C 
BRANCH   4   5
ATOM      5  N   UNL A   1      33.586  30.348  27.559  1.00  0.00    -0.352 N 
ATOM      6  O   UNL A   1      34.156  32.232  28.672  1.00  0.00    -0.269 OA
ATOM      7  C   UNL A   1      34.464  31.101  28.306  1.00  0.00     0.251 C 
ATOM      8  H   UNL A   1      32.760  30.804  27.278  1.00  0.00     0.163 HD
BRANCH   7   9
ATOM      9  C   UNL A   1      35.772  30.520  28.689  1.00  0.00     0.039 A 
ATOM     10  C   UNL A   1      35.926  29.877  29.919  1.00  0.00     0.014 A 
ATOM     11  C   UNL A   1      36.863  30.649  27.823  1.00  0.00     0.014 A 
ATOM     12  C   UNL A   1      37.193  29.499  30.345  1.00  0.00     0.010 A 
ATOM     13  C   UNL A   1      38.122  30.180  28.217  1.00  0.00     0.010 A 
ATOM     14  C   UNL A   1      38.304  29.628  29.494  1.00  0.00    -0.014 A 
BRANCH  14  15
ATOM     15  C   UNL A   1      39.619  29.108  29.955  1.00  0.00     0.031 A 
ATOM     16  C   UNL A   1      40.302  29.664  31.174  1.00  0.00     0.074 A 
ATOM     17  C   UNL A   1      40.161  28.070  29.285  1.00  0.00     0.049 A 
ATOM     18  N   UNL A   1      41.418  29.276  31.738  1.00  0.00    -0.248 NA
ATOM     19  C   UNL A   1      39.661  30.806  31.837  1.00  0.00     0.031 C 
ATOM     20  C   UNL A   1      39.592  27.466  28.075  1.00  0.00     0.029 A 
ATOM     21  N   UNL A   1      41.280  27.321  29.533  1.00  0.00    -0.354 N 
ATOM     22  C   UNL A   1      41.618  30.127  32.821  1.00  0.00     0.074 A 
ATOM     23  C   UNL A   1      40.524  31.078  32.807  1.00  0.00     0.031 C 
ATOM     24  C   UNL A   1      40.330  26.405  27.725  1.00  0.00     0.029 A 
ATOM     25  C   UNL A   1      41.461  26.292  28.638  1.00  0.00     0.049 A 
ATOM     26  H   UNL A   1      41.895  27.500  30.280  1.00  0.00     0.167 HD
ATOM     27  C   UNL A   1      42.615  30.109  33.742  1.00  0.00     0.034 A 
ATOM     28  C   UNL A   1      42.435  25.366  28.548  1.00  0.00     0.034 A 
ATOM     29  C   UNL A   1      43.703  29.157  33.735  1.00  0.00     0.049 A 
ATOM     30  C   UNL A   1      43.528  25.373  29.580  1.00  0.00     0.074 A 
ATOM     31  C   UNL A   1      44.765  29.050  34.616  1.00  0.00     0.029 A 
ATOM     32  N   UNL A   1      43.869  28.145  32.796  1.00  0.00    -0.354 N 
ATOM     33  N   UNL A   1      43.695  26.185  30.598  1.00  0.00    -0.248 NA
ATOM     34  C   UNL A   1      44.557  24.336  29.456  1.00  0.00     0.031 C 
ATOM     35  C   UNL A   1      45.600  28.013  34.181  1.00  0.00     0.029 A 
ATOM     36  C   UNL A   1      45.023  27.424  33.068  1.00  0.00     0.049 A 
ATOM     37  H   UNL A   1      43.255  27.964  32.048  1.00  0.00     0.167 HD
ATOM     38  C   UNL A   1      44.852  25.753  31.237  1.00  0.00     0.074 A 
ATOM     39  C   UNL A   1      45.313  24.585  30.515  1.00  0.00     0.031 C 
ATOM     40  C   UNL A   1      45.485  26.280  32.317  1.00  0.00     0.034 A 
BRANCH  27  41
ATOM     41  C   UNL A   1      42.593  31.174  34.813  1.00  0.00     0.023 A 
ATOM     42  C   UNL A   1      43.136  32.453  34.594  1.00  0.00     0.031 A 
ATOM     43  C   UNL A   1      42.028  30.908  36.073  1.00  0.00     0.131 A 
ATOM     44  C   UNL A   1      43.156  33.395  35.633  1.00  0.00     0.055 A 
ATOM     45  C   UNL A   1      41.986  31.874  37.081  1.00  0.00     0.041 A 
ATOM     46  F   UNL A   1      41.512  29.701  36.349  1.00  0.00    -0.206 F 
ATOM     47  C   UNL A   1      42.563  33.124  36.869  1.00  0.00     0.022 A 
BRANCH  44  48
ATOM     48  S   UNL A   1      44.074  34.940  35.387  1.00  0.00     0.124 S 
ATOM     49  O   UNL A   1      43.069  35.781  34.740  1.00  0.00    -0.237 OA
ATOM     50  O   UNL A   1      44.434  35.312  36.751  1.00  0.00    -0.237 OA
ATOM     51  O   UNL A   1      45.190  34.544  34.531  1.00  0.00    -0.744 OA
ENDBRANCH  44  48
ENDBRANCH  27  41
BRANCH  28  52
ATOM     52  C   UNL A   1      42.436  24.386  27.426  1.00  0.00     0.023 A 
ATOM     53  C   UNL A   1      41.591  23.265  27.435  1.00  0.00     0.031 A 
ATOM     54  C   UNL A   1      43.307  24.548  26.334  1.00  0.00     0.131 A 
ATOM     55  C   UNL A   1      41.665  22.329  26.392  1.00  0.00     0.055 A 
ATOM     56  C   UNL A   1      43.337  23.645  25.272  1.00  0.00     0.041 A 
ATOM     57  F   UNL A   1      44.131  25.607  26.274  1.00  0.00    -0.206 F 
ATOM     58  C   UNL A   1      42.521  22.519  25.304  1.00  0.00     0.022 A 
BRANCH  55  59
ATOM     59  S   UNL A   1      40.685  20.808  26.519  1.00  0.00     0.124 S 
ATOM     60  O   UNL A   1      40.842  20.469  27.928  1.00  0.00    -0.237 OA
ATOM     61  O   UNL A   1      39.361  21.268  26.112  1.00  0.00    -0.237 OA
ATOM     62  O   UNL A   1      41.343  19.901  25.581  1.00  0.00    -0.744 OA
ENDBRANCH  55  59
ENDBRANCH  28  52
BRANCH  40  63
ATOM     63  C   UNL A   1      46.736  25.571  32.770  1.00  0.00     0.023 A 
ATOM     64  C   UNL A   1      46.691  24.571  33.759  1.00  0.00     0.031 A 
ATOM     65  C   UNL A   1      47.990  25.934  32.250  1.00  0.00     0.131 A 
ATOM     66  C   UNL A   1      47.884  24.022  34.251  1.00  0.00     0.055 A 
ATOM     67  C   UNL A   1      49.170  25.339  32.701  1.00  0.00     0.041 A 
ATOM     68  F   UNL A   1      48.090  26.884  31.307  1.00  0.00    -0.206 F 
ATOM     69  C   UNL A   1      49.123  24.391  33.719  1.00  0.00     0.022 A 
BRANCH  66  70
ATOM     70  S   UNL A   1      47.802  22.907  35.679  1.00  0.00     0.124 S 
ATOM     71  O   UNL A   1      46.910  23.631  36.579  1.00  0.00    -0.237 OA
ATOM     72  O   UNL A   1      47.261  21.686  35.090  1.00  0.00    -0.237 OA
ATOM     73  O   UNL A   1      49.192  22.817  36.124  1.00  0.00    -0.744 OA
ENDBRANCH  66  70
ENDBRANCH  40  63
ENDBRANCH  14  15
ENDBRANCH   7   9
ENDBRANCH   4   5
ENDBRANCH   3   4
ENDBRANCH   2   3
ENDBRANCH   1   2
BRANCH   1  74
ATOM     74  C   UNL A   1      31.475  28.868  22.576  1.00  0.00     0.021 C 
BRANCH  74  75
ATOM     75  C   UNL A   1      30.927  27.446  22.492  1.00  0.00     0.116 C 
BRANCH  75  76
ATOM     76  N   UNL A   1      31.633  26.656  21.500  1.00  0.00    -0.352 N 
ATOM     77  C   UNL A   1      32.617  25.721  21.680  1.00  0.00     0.251 C 
ATOM     78  H   UNL A   1      31.367  26.815  20.565  1.00  0.00     0.163 HD
ATOM     79  O   UNL A   1      33.207  25.252  20.710  1.00  0.00    -0.269 OA
BRANCH  77  80
ATOM     80  C   UNL A   1      32.947  25.238  23.036  1.00  0.00     0.040 A 
ATOM     81  C   UNL A   1      34.033  25.801  23.708  1.00  0.00     0.014 A 
ATOM     82  C   UNL A   1      32.269  24.139  23.580  1.00  0.00     0.018 A 
ATOM     83  C   UNL A   1      34.412  25.290  24.948  1.00  0.00     0.001 A 
ATOM     84  C   UNL A   1      32.681  23.577  24.795  1.00  0.00    -0.030 A 
ATOM     85  C   UNL A   1      33.732  24.196  25.491  1.00  0.00     0.005 A 
BRANCH  84  86
ATOM     86  C   UNL A   1      31.972  22.358  25.333  1.00  0.00     0.195 C 
BRANCH  86  87
ATOM     87  S   UNL A   1      33.059  20.916  25.526  1.00  0.00     0.239 S 
ATOM     88  O   UNL A   1      34.039  20.872  24.456  1.00  0.00    -0.206 OA
ATOM     89  O   UNL A   1      33.553  20.936  26.890  1.00  0.00    -0.206 OA
BRANCH  87  90
ATOM     90  N   UNL A   1      32.198  19.502  25.389  1.00  0.00    -0.251 N 
ATOM     91  H   UNL A   1      31.316  19.406  25.816  1.00  0.00     0.183 HD
BRANCH  90  92
ATOM     92  C   UNL A   1      32.754  18.458  24.656  1.00  0.00     0.236 A 
ATOM     93  N   UNL A   1      33.753  17.798  25.243  1.00  0.00    -0.221 NA
ATOM     94  N   UNL A   1      32.360  18.346  23.389  1.00  0.00    -0.221 NA
ATOM     95  C   UNL A   1      34.427  16.942  24.453  1.00  0.00     0.117 A 
ATOM     96  C   UNL A   1      33.031  17.435  22.656  1.00  0.00     0.117 A 
ATOM     97  C   UNL A   1      34.096  16.707  23.138  1.00  0.00     0.040 A 
ENDBRANCH  90  92
ENDBRANCH  87  90
ENDBRANCH  86  87
ENDBRANCH  84  86
ENDBRANCH  77  80
ENDBRANCH  75  76
ENDBRANCH  74  75
ENDBRANCH   1  74
TORSDOF 20
ENDMDL
