MODEL 1
REMARK VINA RESULT:      -9.0      0.000      0.000
REMARK SMILES Cc1coc2cc3c(cc12)[C@@H](C)[C@H](CCC(=O)N[C@@H](Cc1c[nH]c2ccccc12)C(=O)NCCCCCCNC(=O)c1ccc(-c2c4nc(c(-c5cc(S(=O)(=O)[O-])ccc5F)c5ccc([nH]5)c(-c5cc(S(=O)(=O)[O-])ccc5F)c5nc(c(-c6cc(S(=O)(=O)[O-])ccc6F)c6ccc2[nH]6)C=C5)C=C4)cc1)C(=O)O3
REMARK SMILES IDX 35 1 34 2 33 3 32 4 30 5 31 6 19 8 18 9 16 10 17 11 15 13
REMARK SMILES IDX 14 14 13 15 1 16 2 17 3 18 10 19 4 20 5 21 9 22 6 23 8 24
REMARK SMILES IDX 7 25 11 26 107 27 12 28 105 29 106 30 20 31 21 32 22 33
REMARK SMILES IDX 29 34 23 35 24 36 28 37 25 39 27 40 26 41 36 42 37 43 38 44
REMARK SMILES IDX 39 45 40 46 41 48 42 49 43 50 104 51 44 52 103 53 45 54
REMARK SMILES IDX 46 55 47 56 97 57 48 58 102 59 96 60 98 61 49 62 101 63
REMARK SMILES IDX 95 64 94 65 50 67 82 68 62 69 81 70 63 71 66 72 80 73 99 74
REMARK SMILES IDX 64 75 65 76 79 78 100 79 67 80 51 81 52 82 60 83 53 84 59 85
REMARK SMILES IDX 61 86 58 87 54 88 55 89 56 90 57 91 83 92 84 93 92 94 85 95
REMARK SMILES IDX 91 96 93 97 90 98 86 99 87 100 88 101 89 102 68 103 69 104
REMARK SMILES IDX 77 105 70 106 76 107 78 108 75 109 71 110 72 111 73 112
REMARK SMILES IDX 74 113
REMARK H PARENT 32 7 18 12 23 38 39 47 98 66 66 77
REMARK Flexibility Score: inf
ROOT
ATOM      1  C   UNL A   1      47.186  25.944  30.656  1.00  0.00     0.002 C 
ENDROOT
BRANCH   1   2
ATOM      2  C   UNL A   1      47.899  26.902  29.697  1.00  0.00     0.021 C 
BRANCH   2   3
ATOM      3  C   UNL A   1      48.154  26.273  28.350  1.00  0.00     0.116 C 
BRANCH   3   4
ATOM      4  N   UNL A   1      48.778  27.187  27.428  1.00  0.00    -0.354 N 
ATOM      5  C   UNL A   1      48.307  27.648  26.242  1.00  0.00     0.242 C 
ATOM      6  O   UNL A   1      48.926  28.573  25.705  1.00  0.00    -0.273 OA
ATOM      7  H   UNL A   1      49.664  27.522  27.694  1.00  0.00     0.163 HD
BRANCH   5   8
ATOM      8  C   UNL A   1      47.019  27.089  25.618  1.00  0.00     0.175 C 
BRANCH   8   9
ATOM      9  N   UNL A   1      47.285  25.928  24.701  1.00  0.00    -0.344 N 
ATOM     10  C   UNL A   1      46.913  24.605  24.658  1.00  0.00     0.220 C 
ATOM     11  O   UNL A   1      47.216  23.990  23.626  1.00  0.00    -0.275 OA
ATOM     12  H   UNL A   1      47.869  26.175  23.946  1.00  0.00     0.164 HD
BRANCH  10  13
ATOM     13  C   UNL A   1      46.202  23.821  25.795  1.00  0.00     0.101 C 
BRANCH  13  14
ATOM     14  C   UNL A   1      44.616  23.670  25.714  1.00  0.00     0.026 C 
BRANCH  14  15
ATOM     15  C   UNL A   1      43.943  22.909  26.913  1.00  0.00     0.107 C 
ATOM     16  C   UNL A   1      40.461  28.137  30.300  1.00  0.00     0.048 C 
ATOM     17  C   UNL A   1      40.672  27.915  28.852  1.00  0.00    -0.005 A 
ATOM     18  C   UNL A   1      40.133  28.630  27.801  1.00  0.00     0.199 A 
ATOM     19  C   UNL A   1      41.402  26.842  28.260  1.00  0.00     0.024 A 
ATOM     20  O   UNL A   1      40.400  28.024  26.616  1.00  0.00    -0.464 OA
ATOM     21  C   UNL A   1      41.111  26.899  26.899  1.00  0.00     0.137 A 
ATOM     22  C   UNL A   1      42.199  25.785  28.750  1.00  0.00     0.020 A 
ATOM     23  C   UNL A   1      41.399  25.883  26.000  1.00  0.00     0.095 A 
ATOM     24  C   UNL A   1      42.554  24.767  27.869  1.00  0.00    -0.001 A 
ATOM     25  C   UNL A   1      42.004  24.776  26.593  1.00  0.00     0.138 A 
ATOM     26  C   UNL A   1      43.392  23.567  28.227  1.00  0.00     0.034 C 
ATOM     27  O   UNL A   1      41.865  23.503  25.980  1.00  0.00    -0.426 OA
ATOM     28  C   UNL A   1      42.467  22.581  29.009  1.00  0.00     0.014 C 
ATOM     29  C   UNL A   1      42.687  22.416  26.340  1.00  0.00     0.314 C 
ATOM     30  O   UNL A   1      42.464  21.238  26.170  1.00  0.00    -0.251 OA
ENDBRANCH  14  15
ENDBRANCH  13  14
ENDBRANCH  10  13
ENDBRANCH   8   9
BRANCH   8  31
ATOM     31  C   UNL A   1      45.838  27.081  26.698  1.00  0.00     0.072 C 
BRANCH  31  32
ATOM     32  C   UNL A   1      44.854  28.208  26.937  1.00  0.00    -0.020 A 
ATOM     33  C   UNL A   1      43.963  28.672  25.980  1.00  0.00     0.087 A 
ATOM     34  C   UNL A   1      44.401  28.823  28.169  1.00  0.00     0.003 A 
ATOM     35  N   UNL A   1      43.242  29.710  26.504  1.00  0.00    -0.361 N 
ATOM     36  C   UNL A   1      43.551  29.876  27.829  1.00  0.00     0.046 A 
ATOM     37  C   UNL A   1      44.567  28.587  29.548  1.00  0.00     0.010 A 
ATOM     38  H   UNL A   1      42.595  30.257  26.002  1.00  0.00     0.166 HD
ATOM     39  C   UNL A   1      43.068  30.817  28.752  1.00  0.00     0.026 A 
ATOM     40  C   UNL A   1      44.054  29.485  30.499  1.00  0.00     0.001 A 
ATOM     41  C   UNL A   1      43.361  30.617  30.100  1.00  0.00     0.002 A 
ENDBRANCH  31  32
ENDBRANCH   8  31
ENDBRANCH   5   8
ENDBRANCH   3   4
ENDBRANCH   2   3
ENDBRANCH   1   2
BRANCH   1  42
ATOM     42  C   UNL A   1      45.801  25.452  30.203  1.00  0.00     0.002 C 
BRANCH  42  43
ATOM     43  C   UNL A   1      44.927  24.823  31.297  1.00  0.00     0.021 C 
BRANCH  43  44
ATOM     44  C   UNL A   1      45.397  25.099  32.724  1.00  0.00     0.116 C 
BRANCH  44  45
ATOM     45  N   UNL A   1      44.569  24.477  33.729  1.00  0.00    -0.352 N 
ATOM     46  C   UNL A   1      43.477  24.861  34.445  1.00  0.00     0.251 C 
ATOM     47  H   UNL A   1      44.861  23.563  33.945  1.00  0.00     0.163 HD
ATOM     48  O   UNL A   1      43.044  24.028  35.245  1.00  0.00    -0.269 OA
BRANCH  46  49
ATOM     49  C   UNL A   1      42.840  26.198  34.363  1.00  0.00     0.039 A 
ATOM     50  C   UNL A   1      43.001  27.117  33.323  1.00  0.00     0.014 A 
ATOM     51  C   UNL A   1      42.040  26.555  35.463  1.00  0.00     0.014 A 
ATOM     52  C   UNL A   1      42.479  28.397  33.430  1.00  0.00     0.010 A 
ATOM     53  C   UNL A   1      41.486  27.821  35.561  1.00  0.00     0.010 A 
ATOM     54  C   UNL A   1      41.756  28.755  34.567  1.00  0.00    -0.014 A 
BRANCH  54  55
ATOM     55  C   UNL A   1      41.235  30.112  34.634  1.00  0.00     0.031 A 
ATOM     56  C   UNL A   1      40.197  30.440  33.618  1.00  0.00     0.074 A 
ATOM     57  C   UNL A   1      41.597  30.969  35.606  1.00  0.00     0.049 A 
ATOM     58  N   UNL A   1      40.242  31.345  32.695  1.00  0.00    -0.248 NA
ATOM     59  C   UNL A   1      39.021  29.564  33.535  1.00  0.00     0.031 C 
ATOM     60  C   UNL A   1      42.382  30.687  36.811  1.00  0.00     0.029 A 
ATOM     61  N   UNL A   1      41.226  32.266  35.778  1.00  0.00    -0.354 N 
ATOM     62  C   UNL A   1      39.025  31.272  32.017  1.00  0.00     0.074 A 
ATOM     63  C   UNL A   1      38.380  30.070  32.482  1.00  0.00     0.031 C 
ATOM     64  C   UNL A   1      42.202  31.691  37.698  1.00  0.00     0.029 A 
ATOM     65  C   UNL A   1      41.415  32.738  37.066  1.00  0.00     0.049 A 
ATOM     66  H   UNL A   1      40.856  32.818  35.052  1.00  0.00     0.167 HD
ATOM     67  C   UNL A   1      38.560  32.298  31.245  1.00  0.00     0.034 A 
ATOM     68  C   UNL A   1      40.869  33.857  37.606  1.00  0.00     0.034 A 
ATOM     69  C   UNL A   1      39.600  33.247  30.960  1.00  0.00     0.049 A 
ATOM     70  C   UNL A   1      40.425  34.737  36.498  1.00  0.00     0.074 A 
ATOM     71  C   UNL A   1      40.784  33.199  30.255  1.00  0.00     0.029 A 
ATOM     72  N   UNL A   1      39.662  34.380  31.735  1.00  0.00    -0.354 N 
ATOM     73  N   UNL A   1      41.239  35.364  35.697  1.00  0.00    -0.248 NA
ATOM     74  C   UNL A   1      39.072  34.552  35.991  1.00  0.00     0.031 C 
ATOM     75  C   UNL A   1      41.680  34.024  30.988  1.00  0.00     0.029 A 
ATOM     76  C   UNL A   1      40.979  34.579  32.062  1.00  0.00     0.049 A 
ATOM     77  H   UNL A   1      38.902  34.944  32.005  1.00  0.00     0.167 HD
ATOM     78  C   UNL A   1      40.664  35.224  34.442  1.00  0.00     0.074 A 
ATOM     79  C   UNL A   1      39.283  34.817  34.699  1.00  0.00     0.031 C 
ATOM     80  C   UNL A   1      41.429  35.158  33.312  1.00  0.00     0.034 A 
BRANCH  67  81
ATOM     81  C   UNL A   1      37.102  32.599  30.998  1.00  0.00     0.023 A 
ATOM     82  C   UNL A   1      36.291  33.266  31.934  1.00  0.00     0.031 A 
ATOM     83  C   UNL A   1      36.543  32.431  29.713  1.00  0.00     0.131 A 
ATOM     84  C   UNL A   1      35.011  33.730  31.601  1.00  0.00     0.055 A 
ATOM     85  C   UNL A   1      35.290  32.950  29.361  1.00  0.00     0.041 A 
ATOM     86  F   UNL A   1      37.223  31.806  28.737  1.00  0.00    -0.206 F 
ATOM     87  C   UNL A   1      34.517  33.607  30.307  1.00  0.00     0.022 A 
BRANCH  84  88
ATOM     88  S   UNL A   1      33.972  34.526  32.857  1.00  0.00     0.124 S 
ATOM     89  O   UNL A   1      33.346  35.599  32.093  1.00  0.00    -0.237 OA
ATOM     90  O   UNL A   1      33.091  33.429  33.251  1.00  0.00    -0.237 OA
ATOM     91  O   UNL A   1      34.930  34.945  33.877  1.00  0.00    -0.744 OA
ENDBRANCH  84  88
ENDBRANCH  67  81
BRANCH  68  92
ATOM     92  C   UNL A   1      40.298  33.955  38.970  1.00  0.00     0.023 A 
ATOM     93  C   UNL A   1      39.296  33.052  39.371  1.00  0.00     0.031 A 
ATOM     94  C   UNL A   1      40.503  35.087  39.774  1.00  0.00     0.131 A 
ATOM     95  C   UNL A   1      38.507  33.309  40.497  1.00  0.00     0.055 A 
ATOM     96  C   UNL A   1      39.726  35.335  40.914  1.00  0.00     0.041 A 
ATOM     97  F   UNL A   1      41.416  36.010  39.431  1.00  0.00    -0.206 F 
ATOM     98  C   UNL A   1      38.713  34.449  41.273  1.00  0.00     0.022 A 
BRANCH  95  99
ATOM     99  S   UNL A   1      37.137  32.198  40.916  1.00  0.00     0.124 S 
ATOM    100  O   UNL A   1      36.218  32.401  39.798  1.00  0.00    -0.237 OA
ATOM    101  O   UNL A   1      37.807  30.903  40.953  1.00  0.00    -0.237 OA
ATOM    102  O   UNL A   1      36.665  32.706  42.201  1.00  0.00    -0.744 OA
ENDBRANCH  95  99
ENDBRANCH  68  92
BRANCH  80 103
ATOM    103  C   UNL A   1      42.915  35.445  33.408  1.00  0.00     0.023 A 
ATOM    104  C   UNL A   1      43.776  34.346  33.566  1.00  0.00     0.031 A 
ATOM    105  C   UNL A   1      43.465  36.728  33.600  1.00  0.00     0.131 A 
ATOM    106  C   UNL A   1      45.109  34.538  33.949  1.00  0.00     0.055 A 
ATOM    107  C   UNL A   1      44.817  36.920  33.907  1.00  0.00     0.041 A 
ATOM    108  F   UNL A   1      42.705  37.829  33.592  1.00  0.00    -0.206 F 
ATOM    109  C   UNL A   1      45.641  35.821  34.102  1.00  0.00     0.022 A 
BRANCH 106 110
ATOM    110  S   UNL A   1      46.130  33.125  34.437  1.00  0.00     0.124 S 
ATOM    111  O   UNL A   1      45.889  32.181  33.350  1.00  0.00    -0.237 OA
ATOM    112  O   UNL A   1      47.470  33.709  34.476  1.00  0.00    -0.237 OA
ATOM    113  O   UNL A   1      45.594  32.733  35.737  1.00  0.00    -0.744 OA
ENDBRANCH 106 110
ENDBRANCH  80 103
ENDBRANCH  54  55
ENDBRANCH  46  49
ENDBRANCH  44  45
ENDBRANCH  43  44
ENDBRANCH  42  43
ENDBRANCH   1  42
TORSDOF 22
ENDMDL
MODEL 2
REMARK VINA RESULT:      -8.8      2.852      7.684
REMARK SMILES Cc1coc2cc3c(cc12)[C@@H](C)[C@H](CCC(=O)N[C@@H](Cc1c[nH]c2ccccc12)C(=O)NCCCCCCNC(=O)c1ccc(-c2c4nc(c(-c5cc(S(=O)(=O)[O-])ccc5F)c5ccc([nH]5)c(-c5cc(S(=O)(=O)[O-])ccc5F)c5nc(c(-c6cc(S(=O)(=O)[O-])ccc6F)c6ccc2[nH]6)C=C5)C=C4)cc1)C(=O)O3
REMARK SMILES IDX 35 1 34 2 33 3 32 4 30 5 31 6 19 8 18 9 16 10 17 11 15 13
REMARK SMILES IDX 14 14 13 15 1 16 2 17 3 18 10 19 4 20 5 21 9 22 6 23 8 24
REMARK SMILES IDX 7 25 11 26 107 27 12 28 105 29 106 30 20 31 21 32 22 33
REMARK SMILES IDX 29 34 23 35 24 36 28 37 25 39 27 40 26 41 36 42 37 43 38 44
REMARK SMILES IDX 39 45 40 46 41 48 42 49 43 50 104 51 44 52 103 53 45 54
REMARK SMILES IDX 46 55 47 56 97 57 48 58 102 59 96 60 98 61 49 62 101 63
REMARK SMILES IDX 95 64 94 65 50 67 82 68 62 69 81 70 63 71 66 72 80 73 99 74
REMARK SMILES IDX 64 75 65 76 79 78 100 79 67 80 51 81 52 82 60 83 53 84 59 85
REMARK SMILES IDX 61 86 58 87 54 88 55 89 56 90 57 91 83 92 84 93 92 94 85 95
REMARK SMILES IDX 91 96 93 97 90 98 86 99 87 100 88 101 89 102 68 103 69 104
REMARK SMILES IDX 77 105 70 106 76 107 78 108 75 109 71 110 72 111 73 112
REMARK SMILES IDX 74 113
REMARK H PARENT 32 7 18 12 23 38 39 47 98 66 66 77
REMARK Flexibility Score: inf
ROOT
ATOM      1  C   UNL A   1      46.744  25.572  32.388  1.00  0.00     0.002 C 
ENDROOT
BRANCH   1   2
ATOM      2  C   UNL A   1      47.660  26.500  31.584  1.00  0.00     0.021 C 
BRANCH   2   3
ATOM      3  C   UNL A   1      47.309  26.512  30.117  1.00  0.00     0.116 C 
BRANCH   3   4
ATOM      4  N   UNL A   1      48.120  25.600  29.353  1.00  0.00    -0.354 N 
ATOM      5  C   UNL A   1      47.899  25.108  28.107  1.00  0.00     0.242 C 
ATOM      6  O   UNL A   1      48.822  24.487  27.569  1.00  0.00    -0.273 OA
ATOM      7  H   UNL A   1      48.946  25.293  29.792  1.00  0.00     0.163 HD
BRANCH   5   8
ATOM      8  C   UNL A   1      46.578  25.363  27.367  1.00  0.00     0.175 C 
BRANCH   8   9
ATOM      9  N   UNL A   1      46.649  26.567  26.469  1.00  0.00    -0.344 N 
ATOM     10  C   UNL A   1      46.029  27.794  26.421  1.00  0.00     0.220 C 
ATOM     11  O   UNL A   1      46.484  28.599  25.597  1.00  0.00    -0.275 OA
ATOM     12  H   UNL A   1      47.297  26.449  25.737  1.00  0.00     0.164 HD
BRANCH  10  13
ATOM     13  C   UNL A   1      44.798  28.226  27.264  1.00  0.00     0.101 C 
BRANCH  13  14
ATOM     14  C   UNL A   1      43.350  28.006  26.631  1.00  0.00     0.026 C 
BRANCH  14  15
ATOM     15  C   UNL A   1      42.662  26.633  26.967  1.00  0.00     0.107 C 
ATOM     16  C   UNL A   1      38.071  28.428  32.127  1.00  0.00     0.048 C 
ATOM     17  C   UNL A   1      38.480  29.171  30.914  1.00  0.00    -0.005 A 
ATOM     18  C   UNL A   1      37.967  30.363  30.441  1.00  0.00     0.199 A 
ATOM     19  C   UNL A   1      39.426  28.739  29.938  1.00  0.00     0.024 A 
ATOM     20  O   UNL A   1      38.458  30.646  29.208  1.00  0.00    -0.464 OA
ATOM     21  C   UNL A   1      39.290  29.624  28.870  1.00  0.00     0.137 A 
ATOM     22  C   UNL A   1      40.308  27.645  29.816  1.00  0.00     0.020 A 
ATOM     23  C   UNL A   1      39.829  29.409  27.610  1.00  0.00     0.095 A 
ATOM     24  C   UNL A   1      40.911  27.420  28.582  1.00  0.00    -0.001 A 
ATOM     25  C   UNL A   1      40.518  28.202  27.503  1.00  0.00     0.138 A 
ATOM     26  C   UNL A   1      41.871  26.298  28.280  1.00  0.00     0.034 C 
ATOM     27  O   UNL A   1      40.642  27.590  26.228  1.00  0.00    -0.426 OA
ATOM     28  C   UNL A   1      41.018  25.000  28.110  1.00  0.00     0.014 C 
ATOM     29  C   UNL A   1      41.569  26.554  25.993  1.00  0.00     0.314 C 
ATOM     30  O   UNL A   1      41.546  25.734  25.102  1.00  0.00    -0.251 OA
ENDBRANCH  14  15
ENDBRANCH  13  14
ENDBRANCH  10  13
ENDBRANCH   8   9
BRANCH   8  31
ATOM     31  C   UNL A   1      45.927  23.978  26.901  1.00  0.00     0.072 C 
BRANCH  31  32
ATOM     32  C   UNL A   1      44.799  23.251  27.606  1.00  0.00    -0.020 A 
ATOM     33  C   UNL A   1      44.641  23.221  28.983  1.00  0.00     0.087 A 
ATOM     34  C   UNL A   1      43.550  22.722  27.095  1.00  0.00     0.003 A 
ATOM     35  N   UNL A   1      43.548  22.458  29.293  1.00  0.00    -0.361 N 
ATOM     36  C   UNL A   1      42.904  22.071  28.147  1.00  0.00     0.046 A 
ATOM     37  C   UNL A   1      42.853  22.753  25.871  1.00  0.00     0.010 A 
ATOM     38  H   UNL A   1      43.266  22.223  30.207  1.00  0.00     0.166 HD
ATOM     39  C   UNL A   1      41.758  21.277  27.987  1.00  0.00     0.026 A 
ATOM     40  C   UNL A   1      41.676  22.008  25.693  1.00  0.00     0.001 A 
ATOM     41  C   UNL A   1      41.167  21.234  26.725  1.00  0.00     0.002 A 
ENDBRANCH  31  32
ENDBRANCH   8  31
ENDBRANCH   5   8
ENDBRANCH   3   4
ENDBRANCH   2   3
ENDBRANCH   1   2
BRANCH   1  42
ATOM     42  C   UNL A   1      45.276  25.523  31.934  1.00  0.00     0.002 C 
BRANCH  42  43
ATOM     43  C   UNL A   1      44.411  24.440  32.592  1.00  0.00     0.021 C 
BRANCH  43  44
ATOM     44  C   UNL A   1      44.896  23.986  33.968  1.00  0.00     0.116 C 
BRANCH  44  45
ATOM     45  N   UNL A   1      43.827  23.808  34.921  1.00  0.00    -0.352 N 
ATOM     46  C   UNL A   1      42.865  24.614  35.446  1.00  0.00     0.251 C 
ATOM     47  H   UNL A   1      43.784  22.890  35.271  1.00  0.00     0.163 HD
ATOM     48  O   UNL A   1      42.115  24.085  36.270  1.00  0.00    -0.269 OA
BRANCH  46  49
ATOM     49  C   UNL A   1      42.710  26.058  35.137  1.00  0.00     0.039 A 
ATOM     50  C   UNL A   1      43.725  27.017  35.186  1.00  0.00     0.014 A 
ATOM     51  C   UNL A   1      41.407  26.468  34.806  1.00  0.00     0.014 A 
ATOM     52  C   UNL A   1      43.428  28.361  35.027  1.00  0.00     0.010 A 
ATOM     53  C   UNL A   1      41.109  27.807  34.612  1.00  0.00     0.010 A 
ATOM     54  C   UNL A   1      42.114  28.754  34.779  1.00  0.00    -0.014 A 
BRANCH  54  55
ATOM     55  C   UNL A   1      41.853  30.177  34.627  1.00  0.00     0.031 A 
ATOM     56  C   UNL A   1      41.875  30.962  35.892  1.00  0.00     0.074 A 
ATOM     57  C   UNL A   1      41.700  30.751  33.419  1.00  0.00     0.049 A 
ATOM     58  N   UNL A   1      40.915  31.645  36.425  1.00  0.00    -0.248 NA
ATOM     59  C   UNL A   1      43.075  30.863  36.736  1.00  0.00     0.031 C 
ATOM     60  C   UNL A   1      41.931  30.153  32.101  1.00  0.00     0.029 A 
ATOM     61  N   UNL A   1      41.420  32.048  33.123  1.00  0.00    -0.354 N 
ATOM     62  C   UNL A   1      41.437  32.210  37.589  1.00  0.00     0.074 A 
ATOM     63  C   UNL A   1      42.716  31.579  37.802  1.00  0.00     0.031 C 
ATOM     64  C   UNL A   1      42.039  31.139  31.184  1.00  0.00     0.029 A 
ATOM     65  C   UNL A   1      41.743  32.410  31.825  1.00  0.00     0.049 A 
ATOM     66  H   UNL A   1      41.024  32.672  33.772  1.00  0.00     0.167 HD
ATOM     67  C   UNL A   1      40.853  33.280  38.204  1.00  0.00     0.034 A 
ATOM     68  C   UNL A   1      41.865  33.673  31.345  1.00  0.00     0.034 A 
ATOM     69  C   UNL A   1      39.518  33.494  37.718  1.00  0.00     0.049 A 
ATOM     70  C   UNL A   1      41.159  34.592  32.271  1.00  0.00     0.074 A 
ATOM     71  C   UNL A   1      38.344  32.772  37.769  1.00  0.00     0.029 A 
ATOM     72  N   UNL A   1      39.336  34.450  36.749  1.00  0.00    -0.354 N 
ATOM     73  N   UNL A   1      39.863  34.631  32.408  1.00  0.00    -0.248 NA
ATOM     74  C   UNL A   1      41.920  35.146  33.382  1.00  0.00     0.031 C 
ATOM     75  C   UNL A   1      37.710  33.015  36.520  1.00  0.00     0.029 A 
ATOM     76  C   UNL A   1      38.497  33.919  35.802  1.00  0.00     0.049 A 
ATOM     77  H   UNL A   1      39.733  35.351  36.736  1.00  0.00     0.167 HD
ATOM     78  C   UNL A   1      39.665  34.759  33.775  1.00  0.00     0.074 A 
ATOM     79  C   UNL A   1      40.959  35.183  34.310  1.00  0.00     0.031 C 
ATOM     80  C   UNL A   1      38.566  34.226  34.388  1.00  0.00     0.034 A 
BRANCH  67  81
ATOM     81  C   UNL A   1      41.589  34.312  39.023  1.00  0.00     0.023 A 
ATOM     82  C   UNL A   1      42.351  35.342  38.445  1.00  0.00     0.031 A 
ATOM     83  C   UNL A   1      41.352  34.428  40.410  1.00  0.00     0.131 A 
ATOM     84  C   UNL A   1      42.840  36.412  39.207  1.00  0.00     0.055 A 
ATOM     85  C   UNL A   1      41.786  35.528  41.160  1.00  0.00     0.041 A 
ATOM     86  F   UNL A   1      40.640  33.501  41.072  1.00  0.00    -0.206 F 
ATOM     87  C   UNL A   1      42.533  36.531  40.558  1.00  0.00     0.022 A 
BRANCH  84  88
ATOM     88  S   UNL A   1      43.876  37.686  38.436  1.00  0.00     0.124 S 
ATOM     89  O   UNL A   1      43.584  37.495  37.020  1.00  0.00    -0.237 OA
ATOM     90  O   UNL A   1      43.341  38.906  39.036  1.00  0.00    -0.237 OA
ATOM     91  O   UNL A   1      45.227  37.331  38.861  1.00  0.00    -0.744 OA
ENDBRANCH  84  88
ENDBRANCH  67  81
BRANCH  68  92
ATOM     92  C   UNL A   1      42.937  34.139  30.434  1.00  0.00     0.023 A 
ATOM     93  C   UNL A   1      42.596  34.811  29.245  1.00  0.00     0.031 A 
ATOM     94  C   UNL A   1      44.259  33.685  30.560  1.00  0.00     0.131 A 
ATOM     95  C   UNL A   1      43.530  34.968  28.216  1.00  0.00     0.055 A 
ATOM     96  C   UNL A   1      45.201  33.860  29.537  1.00  0.00     0.041 A 
ATOM     97  F   UNL A   1      44.644  33.004  31.650  1.00  0.00    -0.206 F 
ATOM     98  C   UNL A   1      44.835  34.493  28.352  1.00  0.00     0.022 A 
BRANCH  95  99
ATOM     99  S   UNL A   1      43.029  35.720  26.644  1.00  0.00     0.124 S 
ATOM    100  O   UNL A   1      41.570  35.668  26.726  1.00  0.00    -0.237 OA
ATOM    101  O   UNL A   1      43.618  37.049  26.750  1.00  0.00    -0.237 OA
ATOM    102  O   UNL A   1      43.621  34.840  25.640  1.00  0.00    -0.744 OA
ENDBRANCH  95  99
ENDBRANCH  68  92
BRANCH  80 103
ATOM    103  C   UNL A   1      37.445  33.664  33.536  1.00  0.00     0.023 A 
ATOM    104  C   UNL A   1      36.460  34.562  33.090  1.00  0.00     0.031 A 
ATOM    105  C   UNL A   1      37.187  32.289  33.370  1.00  0.00     0.131 A 
ATOM    106  C   UNL A   1      35.257  34.087  32.554  1.00  0.00     0.055 A 
ATOM    107  C   UNL A   1      36.017  31.820  32.763  1.00  0.00     0.041 A 
ATOM    108  F   UNL A   1      38.003  31.354  33.869  1.00  0.00    -0.206 F 
ATOM    109  C   UNL A   1      35.036  32.720  32.370  1.00  0.00     0.022 A 
BRANCH 106 110
ATOM    110  S   UNL A   1      33.880  35.224  32.256  1.00  0.00     0.124 S 
ATOM    111  O   UNL A   1      33.820  35.260  30.798  1.00  0.00    -0.237 OA
ATOM    112  O   UNL A   1      32.766  34.541  32.914  1.00  0.00    -0.237 OA
ATOM    113  O   UNL A   1      34.301  36.466  32.897  1.00  0.00    -0.744 OA
ENDBRANCH 106 110
ENDBRANCH  80 103
ENDBRANCH  54  55
ENDBRANCH  46  49
ENDBRANCH  44  45
ENDBRANCH  43  44
ENDBRANCH  42  43
ENDBRANCH   1  42
TORSDOF 22
ENDMDL
MODEL 3
REMARK VINA RESULT:      -8.7      3.126      8.013
REMARK SMILES Cc1coc2cc3c(cc12)[C@@H](C)[C@H](CCC(=O)N[C@@H](Cc1c[nH]c2ccccc12)C(=O)NCCCCCCNC(=O)c1ccc(-c2c4nc(c(-c5cc(S(=O)(=O)[O-])ccc5F)c5ccc([nH]5)c(-c5cc(S(=O)(=O)[O-])ccc5F)c5nc(c(-c6cc(S(=O)(=O)[O-])ccc6F)c6ccc2[nH]6)C=C5)C=C4)cc1)C(=O)O3
REMARK SMILES IDX 35 1 34 2 33 3 32 4 30 5 31 6 19 8 18 9 16 10 17 11 15 13
REMARK SMILES IDX 14 14 13 15 1 16 2 17 3 18 10 19 4 20 5 21 9 22 6 23 8 24
REMARK SMILES IDX 7 25 11 26 107 27 12 28 105 29 106 30 20 31 21 32 22 33
REMARK SMILES IDX 29 34 23 35 24 36 28 37 25 39 27 40 26 41 36 42 37 43 38 44
REMARK SMILES IDX 39 45 40 46 41 48 42 49 43 50 104 51 44 52 103 53 45 54
REMARK SMILES IDX 46 55 47 56 97 57 48 58 102 59 96 60 98 61 49 62 101 63
REMARK SMILES IDX 95 64 94 65 50 67 82 68 62 69 81 70 63 71 66 72 80 73 99 74
REMARK SMILES IDX 64 75 65 76 79 78 100 79 67 80 51 81 52 82 60 83 53 84 59 85
REMARK SMILES IDX 61 86 58 87 54 88 55 89 56 90 57 91 83 92 84 93 92 94 85 95
REMARK SMILES IDX 91 96 93 97 90 98 86 99 87 100 88 101 89 102 68 103 69 104
REMARK SMILES IDX 77 105 70 106 76 107 78 108 75 109 71 110 72 111 73 112
REMARK SMILES IDX 74 113
REMARK H PARENT 32 7 18 12 23 38 39 47 98 66 66 77
REMARK Flexibility Score: inf
ROOT
ATOM      1  C   UNL A   1      43.803  35.044  26.636  1.00  0.00     0.002 C 
ENDROOT
BRANCH   1   2
ATOM      2  C   UNL A   1      44.138  33.758  27.397  1.00  0.00     0.021 C 
BRANCH   2   3
ATOM      3  C   UNL A   1      44.060  32.538  26.514  1.00  0.00     0.116 C 
BRANCH   3   4
ATOM      4  N   UNL A   1      44.869  31.453  27.006  1.00  0.00    -0.354 N 
ATOM      5  C   UNL A   1      44.515  30.161  27.221  1.00  0.00     0.242 C 
ATOM      6  O   UNL A   1      45.419  29.356  27.467  1.00  0.00    -0.273 OA
ATOM      7  H   UNL A   1      45.804  31.679  27.215  1.00  0.00     0.163 HD
BRANCH   5   8
ATOM      8  C   UNL A   1      43.055  29.699  27.100  1.00  0.00     0.175 C 
BRANCH   8   9
ATOM      9  N   UNL A   1      42.849  28.744  25.957  1.00  0.00    -0.344 N 
ATOM     10  C   UNL A   1      42.802  27.376  25.816  1.00  0.00     0.220 C 
ATOM     11  O   UNL A   1      42.444  26.958  24.706  1.00  0.00    -0.275 OA
ATOM     12  H   UNL A   1      42.715  29.211  25.100  1.00  0.00     0.164 HD
BRANCH  10  13
ATOM     13  C   UNL A   1      43.202  26.335  26.897  1.00  0.00     0.101 C 
BRANCH  13  14
ATOM     14  C   UNL A   1      44.044  25.064  26.428  1.00  0.00     0.026 C 
BRANCH  14  15
ATOM     15  C   UNL A   1      45.596  25.152  26.662  1.00  0.00     0.107 C 
ATOM     16  C   UNL A   1      46.058  25.687  33.763  1.00  0.00     0.048 C 
ATOM     17  C   UNL A   1      45.128  24.898  32.926  1.00  0.00    -0.005 A 
ATOM     18  C   UNL A   1      44.187  23.978  33.346  1.00  0.00     0.199 A 
ATOM     19  C   UNL A   1      45.097  24.864  31.500  1.00  0.00     0.024 A 
ATOM     20  O   UNL A   1      43.650  23.318  32.288  1.00  0.00    -0.464 OA
ATOM     21  C   UNL A   1      44.253  23.805  31.170  1.00  0.00     0.137 A 
ATOM     22  C   UNL A   1      45.764  25.559  30.469  1.00  0.00     0.020 A 
ATOM     23  C   UNL A   1      44.154  23.258  29.900  1.00  0.00     0.095 A 
ATOM     24  C   UNL A   1      45.652  25.074  29.169  1.00  0.00    -0.001 A 
ATOM     25  C   UNL A   1      44.999  23.863  28.971  1.00  0.00     0.138 A 
ATOM     26  C   UNL A   1      46.301  25.689  27.957  1.00  0.00     0.034 C 
ATOM     27  O   UNL A   1      45.423  23.120  27.838  1.00  0.00    -0.426 OA
ATOM     28  C   UNL A   1      47.809  25.281  27.990  1.00  0.00     0.014 C 
ATOM     29  C   UNL A   1      46.010  23.747  26.721  1.00  0.00     0.314 C 
ATOM     30  O   UNL A   1      46.710  23.237  25.874  1.00  0.00    -0.251 OA
ENDBRANCH  14  15
ENDBRANCH  13  14
ENDBRANCH  10  13
ENDBRANCH   8   9
BRANCH   8  31
ATOM     31  C   UNL A   1      42.430  29.452  28.552  1.00  0.00     0.072 C 
BRANCH  31  32
ATOM     32  C   UNL A   1      41.024  28.962  28.837  1.00  0.00    -0.020 A 
ATOM     33  C   UNL A   1      40.168  28.464  27.866  1.00  0.00     0.087 A 
ATOM     34  C   UNL A   1      40.377  28.621  30.087  1.00  0.00     0.003 A 
ATOM     35  N   UNL A   1      38.972  28.140  28.446  1.00  0.00    -0.361 N 
ATOM     36  C   UNL A   1      39.047  28.304  29.804  1.00  0.00     0.046 A 
ATOM     37  C   UNL A   1      40.766  28.491  31.435  1.00  0.00     0.010 A 
ATOM     38  H   UNL A   1      38.174  27.833  27.957  1.00  0.00     0.166 HD
ATOM     39  C   UNL A   1      38.066  28.105  30.787  1.00  0.00     0.026 A 
ATOM     40  C   UNL A   1      39.814  28.244  32.439  1.00  0.00     0.001 A 
ATOM     41  C   UNL A   1      38.471  28.109  32.121  1.00  0.00     0.002 A 
ENDBRANCH  31  32
ENDBRANCH   8  31
ENDBRANCH   5   8
ENDBRANCH   3   4
ENDBRANCH   2   3
ENDBRANCH   1   2
BRANCH   1  42
ATOM     42  C   UNL A   1      44.707  36.252  26.932  1.00  0.00     0.002 C 
BRANCH  42  43
ATOM     43  C   UNL A   1      46.143  36.158  26.399  1.00  0.00     0.021 C 
BRANCH  43  44
ATOM     44  C   UNL A   1      47.153  35.584  27.392  1.00  0.00     0.116 C 
BRANCH  44  45
ATOM     45  N   UNL A   1      47.583  36.538  28.385  1.00  0.00    -0.352 N 
ATOM     46  C   UNL A   1      47.153  36.890  29.628  1.00  0.00     0.251 C 
ATOM     47  H   UNL A   1      48.370  37.052  28.098  1.00  0.00     0.163 HD
ATOM     48  O   UNL A   1      47.794  37.789  30.180  1.00  0.00    -0.269 OA
BRANCH  46  49
ATOM     49  C   UNL A   1      45.964  36.316  30.306  1.00  0.00     0.039 A 
ATOM     50  C   UNL A   1      44.682  36.870  30.311  1.00  0.00     0.014 A 
ATOM     51  C   UNL A   1      46.194  35.132  31.028  1.00  0.00     0.014 A 
ATOM     52  C   UNL A   1      43.686  36.325  31.108  1.00  0.00     0.010 A 
ATOM     53  C   UNL A   1      45.193  34.563  31.799  1.00  0.00     0.010 A 
ATOM     54  C   UNL A   1      43.958  35.196  31.878  1.00  0.00    -0.014 A 
BRANCH  54  55
ATOM     55  C   UNL A   1      42.882  34.667  32.702  1.00  0.00     0.031 A 
ATOM     56  C   UNL A   1      42.813  35.223  34.082  1.00  0.00     0.074 A 
ATOM     57  C   UNL A   1      41.964  33.812  32.216  1.00  0.00     0.049 A 
ATOM     58  N   UNL A   1      42.922  34.589  35.205  1.00  0.00    -0.248 NA
ATOM     59  C   UNL A   1      42.746  36.684  34.228  1.00  0.00     0.031 C 
ATOM     60  C   UNL A   1      41.754  33.411  30.823  1.00  0.00     0.029 A 
ATOM     61  N   UNL A   1      40.932  33.212  32.868  1.00  0.00    -0.354 N 
ATOM     62  C   UNL A   1      42.767  35.545  36.209  1.00  0.00     0.074 A 
ATOM     63  C   UNL A   1      42.808  36.827  35.551  1.00  0.00     0.031 C 
ATOM     64  C   UNL A   1      40.526  32.859  30.704  1.00  0.00     0.029 A 
ATOM     65  C   UNL A   1      39.935  32.742  32.028  1.00  0.00     0.049 A 
ATOM     66  H   UNL A   1      40.897  33.121  33.847  1.00  0.00     0.167 HD
ATOM     67  C   UNL A   1      42.446  35.206  37.492  1.00  0.00     0.034 A 
ATOM     68  C   UNL A   1      38.676  32.387  32.386  1.00  0.00     0.034 A 
ATOM     69  C   UNL A   1      42.637  33.801  37.722  1.00  0.00     0.049 A 
ATOM     70  C   UNL A   1      38.664  32.134  33.848  1.00  0.00     0.074 A 
ATOM     71  C   UNL A   1      43.734  32.964  37.732  1.00  0.00     0.029 A 
ATOM     72  N   UNL A   1      41.535  32.984  37.647  1.00  0.00    -0.354 N 
ATOM     73  N   UNL A   1      39.251  31.117  34.414  1.00  0.00    -0.248 NA
ATOM     74  C   UNL A   1      38.391  33.263  34.726  1.00  0.00     0.031 C 
ATOM     75  C   UNL A   1      43.264  31.739  37.183  1.00  0.00     0.029 A 
ATOM     76  C   UNL A   1      41.897  31.873  36.929  1.00  0.00     0.049 A 
ATOM     77  H   UNL A   1      40.649  33.163  38.037  1.00  0.00     0.167 HD
ATOM     78  C   UNL A   1      39.838  31.648  35.553  1.00  0.00     0.074 A 
ATOM     79  C   UNL A   1      39.184  32.941  35.752  1.00  0.00     0.031 C 
ATOM     80  C   UNL A   1      41.001  31.138  36.059  1.00  0.00     0.034 A 
BRANCH  67  81
ATOM     81  C   UNL A   1      41.678  36.083  38.450  1.00  0.00     0.023 A 
ATOM     82  C   UNL A   1      42.306  36.896  39.411  1.00  0.00     0.031 A 
ATOM     83  C   UNL A   1      40.296  36.305  38.269  1.00  0.00     0.131 A 
ATOM     84  C   UNL A   1      41.595  37.862  40.136  1.00  0.00     0.055 A 
ATOM     85  C   UNL A   1      39.597  37.312  38.946  1.00  0.00     0.041 A 
ATOM     86  F   UNL A   1      39.589  35.586  37.381  1.00  0.00    -0.206 F 
ATOM     87  C   UNL A   1      40.248  38.101  39.885  1.00  0.00     0.022 A 
BRANCH  84  88
ATOM     88  S   UNL A   1      42.428  38.844  41.413  1.00  0.00     0.124 S 
ATOM     89  O   UNL A   1      43.172  37.822  42.141  1.00  0.00    -0.237 OA
ATOM     90  O   UNL A   1      43.231  39.759  40.605  1.00  0.00    -0.237 OA
ATOM     91  O   UNL A   1      41.325  39.467  42.138  1.00  0.00    -0.744 OA
ENDBRANCH  84  88
ENDBRANCH  67  81
BRANCH  68  92
ATOM     92  C   UNL A   1      37.446  32.729  31.634  1.00  0.00     0.023 A 
ATOM     93  C   UNL A   1      36.551  33.680  32.161  1.00  0.00     0.031 A 
ATOM     94  C   UNL A   1      36.989  31.937  30.570  1.00  0.00     0.131 A 
ATOM     95  C   UNL A   1      35.246  33.787  31.670  1.00  0.00     0.055 A 
ATOM     96  C   UNL A   1      35.688  32.058  30.064  1.00  0.00     0.041 A 
ATOM     97  F   UNL A   1      37.775  30.985  30.044  1.00  0.00    -0.206 F 
ATOM     98  C   UNL A   1      34.804  32.978  30.624  1.00  0.00     0.022 A 
BRANCH  95  99
ATOM     99  S   UNL A   1      34.074  34.928  32.453  1.00  0.00     0.124 S 
ATOM    100  O   UNL A   1      34.907  35.592  33.453  1.00  0.00    -0.237 OA
ATOM    101  O   UNL A   1      33.667  35.755  31.323  1.00  0.00    -0.237 OA
ATOM    102  O   UNL A   1      33.047  34.044  32.996  1.00  0.00    -0.744 OA
ENDBRANCH  95  99
ENDBRANCH  68  92
BRANCH  80 103
ATOM    103  C   UNL A   1      41.550  29.846  35.487  1.00  0.00     0.023 A 
ATOM    104  C   UNL A   1      41.295  28.663  36.203  1.00  0.00     0.031 A 
ATOM    105  C   UNL A   1      42.494  29.777  34.444  1.00  0.00     0.131 A 
ATOM    106  C   UNL A   1      41.999  27.489  35.908  1.00  0.00     0.055 A 
ATOM    107  C   UNL A   1      43.139  28.583  34.101  1.00  0.00     0.041 A 
ATOM    108  F   UNL A   1      42.896  30.868  33.784  1.00  0.00    -0.206 F 
ATOM    109  C   UNL A   1      42.907  27.436  34.848  1.00  0.00     0.022 A 
BRANCH 106 110
ATOM    110  S   UNL A   1      41.887  26.058  37.011  1.00  0.00     0.124 S 
ATOM    111  O   UNL A   1      40.504  26.131  37.472  1.00  0.00    -0.237 OA
ATOM    112  O   UNL A   1      42.191  24.947  36.110  1.00  0.00    -0.237 OA
ATOM    113  O   UNL A   1      42.901  26.316  38.030  1.00  0.00    -0.744 OA
ENDBRANCH 106 110
ENDBRANCH  80 103
ENDBRANCH  54  55
ENDBRANCH  46  49
ENDBRANCH  44  45
ENDBRANCH  43  44
ENDBRANCH  42  43
ENDBRANCH   1  42
TORSDOF 22
ENDMDL
