MODEL 1
REMARK VINA RESULT:     -12.2      0.000      0.000
REMARK SMILES C#Cc1ccc2c(c1)C=C(C(=O)NCCCCCCNC(=O)c1ccc(-c3c4nc(c(-c5cc(S(=O)(=O)[O-])ccc5F)c5ccc([nH]5)c(-c5cc(S(=O)(=O)[O-])ccc5F)c5nc(c(-c6cc(S(=O)(=O)[O-])ccc6F)c6ccc3[nH]6)C=C5)C=C4)cc1)[C@@H](C(F)(F)F)O2
REMARK SMILES IDX 17 1 16 2 15 3 14 4 13 5 11 6 12 7 10 9 3 10 4 11 8 12 5 13
REMARK SMILES IDX 7 14 6 15 9 16 91 17 86 18 2 19 1 20 87 21 88 22 89 23 90 24
REMARK SMILES IDX 18 25 19 26 20 27 21 28 22 30 23 31 24 32 85 33 25 34 84 35
REMARK SMILES IDX 26 36 27 37 28 38 78 39 29 40 83 41 77 42 79 43 30 44 82 45
REMARK SMILES IDX 76 46 75 47 31 49 63 50 43 51 62 52 44 53 47 54 61 55 80 56
REMARK SMILES IDX 45 57 46 58 60 60 81 61 48 62 32 63 33 64 41 65 34 66 40 67
REMARK SMILES IDX 42 68 39 69 35 70 36 71 37 72 38 73 64 74 65 75 73 76 66 77
REMARK SMILES IDX 72 78 74 79 71 80 67 81 68 82 69 83 70 84 49 85 50 86 58 87
REMARK SMILES IDX 51 88 57 89 59 90 56 91 52 92 53 93 54 94 55 95
REMARK H PARENT 13 8 20 29 79 48 47 59
REMARK Flexibility Score: inf
ROOT
ATOM      1  C   UNL A   1      33.100  29.355  25.010  1.00  0.00     0.002 C 
ENDROOT
BRANCH   1   2
ATOM      2  C   UNL A   1      33.408  29.307  23.507  1.00  0.00     0.002 C 
BRANCH   2   3
ATOM      3  C   UNL A   1      34.159  28.057  23.050  1.00  0.00     0.021 C 
BRANCH   3   4
ATOM      4  C   UNL A   1      33.989  26.880  24.002  1.00  0.00     0.116 C 
BRANCH   4   5
ATOM      5  N   UNL A   1      33.390  25.734  23.338  1.00  0.00    -0.352 N 
ATOM      6  C   UNL A   1      32.152  25.355  22.942  1.00  0.00     0.251 C 
ATOM      7  O   UNL A   1      32.087  24.268  22.362  1.00  0.00    -0.270 OA
ATOM      8  H   UNL A   1      34.065  25.053  23.114  1.00  0.00     0.163 HD
BRANCH   6   9
ATOM      9  C   UNL A   1      30.906  26.151  23.165  1.00  0.00     0.067 C 
ATOM     10  C   UNL A   1      28.379  30.189  22.329  1.00  0.00     0.025 A 
ATOM     11  C   UNL A   1      27.277  29.633  22.984  1.00  0.00     0.021 A 
ATOM     12  C   UNL A   1      29.561  29.453  22.187  1.00  0.00     0.029 A 
ATOM     13  C   UNL A   1      27.357  28.347  23.502  1.00  0.00     0.048 A 
ATOM     14  C   UNL A   1      29.643  28.157  22.708  1.00  0.00     0.018 A 
ATOM     15  C   UNL A   1      28.538  27.623  23.369  1.00  0.00     0.128 A 
ATOM     16  C   UNL A   1      30.838  27.338  22.533  1.00  0.00     0.025 C 
ATOM     17  O   UNL A   1      28.513  26.365  23.886  1.00  0.00    -0.475 OA
ATOM     18  C   UNL A   1      29.787  25.702  24.061  1.00  0.00     0.314 C 
BRANCH  10  19
ATOM     19  C   UNL A   1      28.279  31.510  21.794  1.00  0.00    -0.070 C 
ATOM     20  C   UNL A   1      28.161  32.617  21.340  1.00  0.00     0.010 C 
ENDBRANCH  10  19
BRANCH  18  21
ATOM     21  C   UNL A   1      30.174  25.747  25.552  1.00  0.00     0.429 C 
ATOM     22  F   UNL A   1      30.721  26.946  25.865  1.00  0.00    -0.167 F 
ATOM     23  F   UNL A   1      29.113  25.585  26.377  1.00  0.00    -0.167 F 
ATOM     24  F   UNL A   1      31.070  24.788  25.880  1.00  0.00    -0.167 F 
ENDBRANCH  18  21
ENDBRANCH   6   9
ENDBRANCH   4   5
ENDBRANCH   3   4
ENDBRANCH   2   3
ENDBRANCH   1   2
BRANCH   1  25
ATOM     25  C   UNL A   1      31.804  30.081  25.377  1.00  0.00     0.021 C 
BRANCH  25  26
ATOM     26  C   UNL A   1      31.766  30.586  26.812  1.00  0.00     0.116 C 
BRANCH  26  27
ATOM     27  N   UNL A   1      31.790  32.041  26.878  1.00  0.00    -0.352 N 
ATOM     28  C   UNL A   1      32.739  32.869  27.427  1.00  0.00     0.251 C 
ATOM     29  H   UNL A   1      31.016  32.494  26.474  1.00  0.00     0.163 HD
ATOM     30  O   UNL A   1      32.498  34.061  27.587  1.00  0.00    -0.269 OA
BRANCH  28  31
ATOM     31  C   UNL A   1      34.031  32.293  27.851  1.00  0.00     0.039 A 
ATOM     32  C   UNL A   1      34.124  30.935  28.162  1.00  0.00     0.014 A 
ATOM     33  C   UNL A   1      35.135  33.133  28.009  1.00  0.00     0.014 A 
ATOM     34  C   UNL A   1      35.250  30.461  28.821  1.00  0.00     0.010 A 
ATOM     35  C   UNL A   1      36.306  32.625  28.572  1.00  0.00     0.010 A 
ATOM     36  C   UNL A   1      36.352  31.302  29.043  1.00  0.00    -0.014 A 
BRANCH  36  37
ATOM     37  C   UNL A   1      37.532  30.793  29.790  1.00  0.00     0.031 A 
ATOM     38  C   UNL A   1      38.483  29.820  29.143  1.00  0.00     0.074 A 
ATOM     39  C   UNL A   1      37.763  31.233  31.042  1.00  0.00     0.049 A 
ATOM     40  N   UNL A   1      39.537  29.239  29.654  1.00  0.00    -0.248 NA
ATOM     41  C   UNL A   1      38.216  29.443  27.745  1.00  0.00     0.031 C 
ATOM     42  C   UNL A   1      36.923  32.194  31.759  1.00  0.00     0.029 A 
ATOM     43  N   UNL A   1      38.769  30.944  31.931  1.00  0.00    -0.354 N 
ATOM     44  C   UNL A   1      40.042  28.413  28.656  1.00  0.00     0.074 A 
ATOM     45  C   UNL A   1      39.159  28.537  27.519  1.00  0.00     0.031 C 
ATOM     46  C   UNL A   1      37.464  32.440  32.959  1.00  0.00     0.029 A 
ATOM     47  C   UNL A   1      38.640  31.592  33.138  1.00  0.00     0.049 A 
ATOM     48  H   UNL A   1      39.512  30.332  31.725  1.00  0.00     0.167 HD
ATOM     49  C   UNL A   1      41.151  27.638  28.684  1.00  0.00     0.034 A 
ATOM     50  C   UNL A   1      39.360  31.496  34.274  1.00  0.00     0.034 A 
ATOM     51  C   UNL A   1      42.037  27.554  29.818  1.00  0.00     0.049 A 
ATOM     52  C   UNL A   1      40.561  30.587  34.296  1.00  0.00     0.074 A 
ATOM     53  C   UNL A   1      43.209  26.827  29.928  1.00  0.00     0.029 A 
ATOM     54  N   UNL A   1      41.861  28.210  31.028  1.00  0.00    -0.354 N 
ATOM     55  N   UNL A   1      41.055  29.854  33.325  1.00  0.00    -0.248 NA
ATOM     56  C   UNL A   1      41.310  30.492  35.556  1.00  0.00     0.031 C 
ATOM     57  C   UNL A   1      43.690  26.969  31.227  1.00  0.00     0.029 A 
ATOM     58  C   UNL A   1      42.882  27.871  31.901  1.00  0.00     0.049 A 
ATOM     59  H   UNL A   1      41.120  28.824  31.236  1.00  0.00     0.167 HD
ATOM     60  C   UNL A   1      42.189  29.239  33.847  1.00  0.00     0.074 A 
ATOM     61  C   UNL A   1      42.321  29.703  35.212  1.00  0.00     0.031 C 
ATOM     62  C   UNL A   1      43.035  28.364  33.249  1.00  0.00     0.034 A 
BRANCH  49  63
ATOM     63  C   UNL A   1      41.511  26.816  27.469  1.00  0.00     0.023 A 
ATOM     64  C   UNL A   1      41.258  25.430  27.467  1.00  0.00     0.031 A 
ATOM     65  C   UNL A   1      42.257  27.355  26.406  1.00  0.00     0.131 A 
ATOM     66  C   UNL A   1      41.801  24.623  26.461  1.00  0.00     0.055 A 
ATOM     67  C   UNL A   1      42.746  26.554  25.374  1.00  0.00     0.041 A 
ATOM     68  F   UNL A   1      42.529  28.670  26.361  1.00  0.00    -0.206 F 
ATOM     69  C   UNL A   1      42.537  25.178  25.409  1.00  0.00     0.022 A 
BRANCH  66  70
ATOM     70  S   UNL A   1      41.665  22.816  26.536  1.00  0.00     0.124 S 
ATOM     71  O   UNL A   1      40.216  22.623  26.518  1.00  0.00    -0.237 OA
ATOM     72  O   UNL A   1      42.365  22.408  25.321  1.00  0.00    -0.237 OA
ATOM     73  O   UNL A   1      42.320  22.466  27.792  1.00  0.00    -0.744 OA
ENDBRANCH  66  70
ENDBRANCH  49  63
BRANCH  50  74
ATOM     74  C   UNL A   1      38.961  32.311  35.461  1.00  0.00     0.023 A 
ATOM     75  C   UNL A   1      39.402  33.640  35.604  1.00  0.00     0.031 A 
ATOM     76  C   UNL A   1      38.227  31.743  36.516  1.00  0.00     0.131 A 
ATOM     77  C   UNL A   1      39.177  34.325  36.805  1.00  0.00     0.055 A 
ATOM     78  C   UNL A   1      37.930  32.461  37.676  1.00  0.00     0.041 A 
ATOM     79  F   UNL A   1      37.798  30.475  36.437  1.00  0.00    -0.206 F 
ATOM     80  C   UNL A   1      38.423  33.753  37.832  1.00  0.00     0.022 A 
BRANCH  77  81
ATOM     81  S   UNL A   1      39.983  35.918  37.127  1.00  0.00     0.124 S 
ATOM     82  O   UNL A   1      41.381  35.527  37.285  1.00  0.00    -0.237 OA
ATOM     83  O   UNL A   1      39.669  36.661  35.909  1.00  0.00    -0.237 OA
ATOM     84  O   UNL A   1      39.323  36.402  38.335  1.00  0.00    -0.744 OA
ENDBRANCH  77  81
ENDBRANCH  50  74
BRANCH  62  85
ATOM     85  C   UNL A   1      44.224  27.844  34.023  1.00  0.00     0.023 A 
ATOM     86  C   UNL A   1      44.061  26.747  34.893  1.00  0.00     0.031 A 
ATOM     87  C   UNL A   1      45.444  28.540  34.057  1.00  0.00     0.131 A 
ATOM     88  C   UNL A   1      45.069  26.426  35.810  1.00  0.00     0.055 A 
ATOM     89  C   UNL A   1      46.473  28.174  34.927  1.00  0.00     0.041 A 
ATOM     90  F   UNL A   1      45.647  29.601  33.258  1.00  0.00    -0.206 F 
ATOM     91  C   UNL A   1      46.278  27.127  35.823  1.00  0.00     0.022 A 
BRANCH  88  92
ATOM     92  S   UNL A   1      44.797  25.175  37.096  1.00  0.00     0.124 S 
ATOM     93  O   UNL A   1      44.880  25.975  38.317  1.00  0.00    -0.237 OA
ATOM     94  O   UNL A   1      43.464  24.680  36.764  1.00  0.00    -0.237 OA
ATOM     95  O   UNL A   1      45.888  24.227  36.901  1.00  0.00    -0.744 OA
ENDBRANCH  88  92
ENDBRANCH  62  85
ENDBRANCH  36  37
ENDBRANCH  28  31
ENDBRANCH  26  27
ENDBRANCH  25  26
ENDBRANCH   1  25
TORSDOF 18
ENDMDL
MODEL 2
REMARK VINA RESULT:     -12.1      0.228      7.667
REMARK SMILES C#Cc1ccc2c(c1)C=C(C(=O)NCCCCCCNC(=O)c1ccc(-c3c4nc(c(-c5cc(S(=O)(=O)[O-])ccc5F)c5ccc([nH]5)c(-c5cc(S(=O)(=O)[O-])ccc5F)c5nc(c(-c6cc(S(=O)(=O)[O-])ccc6F)c6ccc3[nH]6)C=C5)C=C4)cc1)[C@@H](C(F)(F)F)O2
REMARK SMILES IDX 17 1 16 2 15 3 14 4 13 5 11 6 12 7 10 9 3 10 4 11 8 12 5 13
REMARK SMILES IDX 7 14 6 15 9 16 91 17 86 18 2 19 1 20 87 21 88 22 89 23 90 24
REMARK SMILES IDX 18 25 19 26 20 27 21 28 22 30 23 31 24 32 85 33 25 34 84 35
REMARK SMILES IDX 26 36 27 37 28 38 78 39 29 40 83 41 77 42 79 43 30 44 82 45
REMARK SMILES IDX 76 46 75 47 31 49 63 50 43 51 62 52 44 53 47 54 61 55 80 56
REMARK SMILES IDX 45 57 46 58 60 60 81 61 48 62 32 63 33 64 41 65 34 66 40 67
REMARK SMILES IDX 42 68 39 69 35 70 36 71 37 72 38 73 64 74 65 75 73 76 66 77
REMARK SMILES IDX 72 78 74 79 71 80 67 81 68 82 69 83 70 84 49 85 50 86 58 87
REMARK SMILES IDX 51 88 57 89 59 90 56 91 52 92 53 93 54 94 55 95
REMARK H PARENT 13 8 20 29 79 48 47 59
REMARK Flexibility Score: inf
ROOT
ATOM      1  C   UNL A   1      32.938  29.348  25.090  1.00  0.00     0.002 C 
ENDROOT
BRANCH   1   2
ATOM      2  C   UNL A   1      33.348  29.301  23.612  1.00  0.00     0.002 C 
BRANCH   2   3
ATOM      3  C   UNL A   1      34.199  28.091  23.224  1.00  0.00     0.021 C 
BRANCH   3   4
ATOM      4  C   UNL A   1      34.016  26.910  24.168  1.00  0.00     0.116 C 
BRANCH   4   5
ATOM      5  N   UNL A   1      33.452  25.758  23.484  1.00  0.00    -0.352 N 
ATOM      6  C   UNL A   1      32.230  25.361  23.056  1.00  0.00     0.251 C 
ATOM      7  O   UNL A   1      32.197  24.276  22.469  1.00  0.00    -0.270 OA
ATOM      8  H   UNL A   1      34.143  25.089  23.273  1.00  0.00     0.163 HD
BRANCH   6   9
ATOM      9  C   UNL A   1      30.966  26.135  23.253  1.00  0.00     0.067 C 
ATOM     10  C   UNL A   1      28.358  30.095  22.303  1.00  0.00     0.025 A 
ATOM     11  C   UNL A   1      27.265  29.533  22.966  1.00  0.00     0.021 A 
ATOM     12  C   UNL A   1      29.556  29.382  22.186  1.00  0.00     0.029 A 
ATOM     13  C   UNL A   1      27.369  28.261  23.517  1.00  0.00     0.048 A 
ATOM     14  C   UNL A   1      29.663  28.101  22.740  1.00  0.00     0.018 A 
ATOM     15  C   UNL A   1      28.567  27.560  23.409  1.00  0.00     0.128 A 
ATOM     16  C   UNL A   1      30.876  27.304  22.591  1.00  0.00     0.025 C 
ATOM     17  O   UNL A   1      28.566  26.316  23.957  1.00  0.00    -0.475 OA
ATOM     18  C   UNL A   1      29.853  25.684  24.155  1.00  0.00     0.314 C 
BRANCH  10  19
ATOM     19  C   UNL A   1      28.232  31.400  21.734  1.00  0.00    -0.070 C 
ATOM     20  C   UNL A   1      28.095  32.500  21.269  1.00  0.00     0.010 C 
ENDBRANCH  10  19
BRANCH  18  21
ATOM     21  C   UNL A   1      30.230  25.775  25.646  1.00  0.00     0.429 C 
ATOM     22  F   UNL A   1      29.138  25.589  26.425  1.00  0.00    -0.167 F 
ATOM     23  F   UNL A   1      31.131  24.836  26.020  1.00  0.00    -0.167 F 
ATOM     24  F   UNL A   1      30.766  26.975  25.968  1.00  0.00    -0.167 F 
ENDBRANCH  18  21
ENDBRANCH   6   9
ENDBRANCH   4   5
ENDBRANCH   3   4
ENDBRANCH   2   3
ENDBRANCH   1   2
BRANCH   1  25
ATOM     25  C   UNL A   1      31.762  30.277  25.402  1.00  0.00     0.021 C 
BRANCH  25  26
ATOM     26  C   UNL A   1      31.728  30.765  26.843  1.00  0.00     0.116 C 
BRANCH  26  27
ATOM     27  N   UNL A   1      31.779  32.217  26.928  1.00  0.00    -0.352 N 
ATOM     28  C   UNL A   1      32.745  33.021  27.482  1.00  0.00     0.251 C 
ATOM     29  H   UNL A   1      31.011  32.690  26.534  1.00  0.00     0.163 HD
ATOM     30  O   UNL A   1      32.527  34.214  27.659  1.00  0.00    -0.269 OA
BRANCH  28  31
ATOM     31  C   UNL A   1      34.029  32.416  27.891  1.00  0.00     0.039 A 
ATOM     32  C   UNL A   1      34.089  31.061  28.227  1.00  0.00     0.014 A 
ATOM     33  C   UNL A   1      35.159  33.226  28.010  1.00  0.00     0.014 A 
ATOM     34  C   UNL A   1      35.214  30.568  28.873  1.00  0.00     0.010 A 
ATOM     35  C   UNL A   1      36.327  32.695  28.560  1.00  0.00     0.010 A 
ATOM     36  C   UNL A   1      36.345  31.380  29.055  1.00  0.00    -0.014 A 
BRANCH  36  37
ATOM     37  C   UNL A   1      37.525  30.852  29.788  1.00  0.00     0.031 A 
ATOM     38  C   UNL A   1      37.803  31.289  31.203  1.00  0.00     0.074 A 
ATOM     39  C   UNL A   1      38.331  29.955  29.187  1.00  0.00     0.049 A 
ATOM     40  N   UNL A   1      38.804  30.967  31.980  1.00  0.00    -0.248 NA
ATOM     41  C   UNL A   1      36.838  32.209  31.828  1.00  0.00     0.031 C 
ATOM     42  C   UNL A   1      38.145  29.443  27.829  1.00  0.00     0.029 A 
ATOM     43  N   UNL A   1      39.457  29.308  29.634  1.00  0.00    -0.354 N 
ATOM     44  C   UNL A   1      38.606  31.661  33.168  1.00  0.00     0.074 A 
ATOM     45  C   UNL A   1      37.408  32.451  33.000  1.00  0.00     0.031 C 
ATOM     46  C   UNL A   1      39.098  28.539  27.566  1.00  0.00     0.029 A 
ATOM     47  C   UNL A   1      40.017  28.469  28.699  1.00  0.00     0.049 A 
ATOM     48  H   UNL A   1      39.828  29.433  30.537  1.00  0.00     0.167 HD
ATOM     49  C   UNL A   1      39.348  31.625  34.300  1.00  0.00     0.034 A 
ATOM     50  C   UNL A   1      41.156  27.748  28.729  1.00  0.00     0.034 A 
ATOM     51  C   UNL A   1      40.522  30.804  34.458  1.00  0.00     0.049 A 
ATOM     52  C   UNL A   1      41.992  27.765  29.982  1.00  0.00     0.074 A 
ATOM     53  C   UNL A   1      41.318  30.668  35.581  1.00  0.00     0.029 A 
ATOM     54  N   UNL A   1      41.068  29.983  33.481  1.00  0.00    -0.354 N 
ATOM     55  N   UNL A   1      41.760  28.384  31.116  1.00  0.00    -0.248 NA
ATOM     56  C   UNL A   1      43.236  26.984  29.972  1.00  0.00     0.031 C 
ATOM     57  C   UNL A   1      42.392  29.842  35.257  1.00  0.00     0.029 A 
ATOM     58  C   UNL A   1      42.212  29.371  33.966  1.00  0.00     0.049 A 
ATOM     59  H   UNL A   1      40.699  29.855  32.578  1.00  0.00     0.167 HD
ATOM     60  C   UNL A   1      42.811  28.042  31.962  1.00  0.00     0.074 A 
ATOM     61  C   UNL A   1      43.666  27.141  31.218  1.00  0.00     0.031 C 
ATOM     62  C   UNL A   1      43.045  28.444  33.236  1.00  0.00     0.034 A 
BRANCH  49  63
ATOM     63  C   UNL A   1      38.938  32.471  35.482  1.00  0.00     0.023 A 
ATOM     64  C   UNL A   1      39.422  33.789  35.594  1.00  0.00     0.031 A 
ATOM     65  C   UNL A   1      38.232  31.929  36.570  1.00  0.00     0.131 A 
ATOM     66  C   UNL A   1      39.252  34.495  36.791  1.00  0.00     0.055 A 
ATOM     67  C   UNL A   1      38.014  32.659  37.739  1.00  0.00     0.041 A 
ATOM     68  F   UNL A   1      37.751  30.676  36.515  1.00  0.00    -0.206 F 
ATOM     69  C   UNL A   1      38.543  33.941  37.861  1.00  0.00     0.022 A 
BRANCH  66  70
ATOM     70  S   UNL A   1      40.034  36.112  37.043  1.00  0.00     0.124 S 
ATOM     71  O   UNL A   1      41.411  35.734  37.357  1.00  0.00    -0.237 OA
ATOM     72  O   UNL A   1      39.842  36.748  35.743  1.00  0.00    -0.237 OA
ATOM     73  O   UNL A   1      39.285  36.696  38.151  1.00  0.00    -0.744 OA
ENDBRANCH  66  70
ENDBRANCH  49  63
BRANCH  50  74
ATOM     74  C   UNL A   1      41.538  26.939  27.532  1.00  0.00     0.023 A 
ATOM     75  C   UNL A   1      41.361  25.542  27.520  1.00  0.00     0.031 A 
ATOM     76  C   UNL A   1      42.182  27.530  26.433  1.00  0.00     0.131 A 
ATOM     77  C   UNL A   1      41.894  24.779  26.474  1.00  0.00     0.055 A 
ATOM     78  C   UNL A   1      42.633  26.773  25.349  1.00  0.00     0.041 A 
ATOM     79  F   UNL A   1      42.390  28.855  26.402  1.00  0.00    -0.206 F 
ATOM     80  C   UNL A   1      42.507  25.388  25.377  1.00  0.00     0.022 A 
BRANCH  77  81
ATOM     81  S   UNL A   1      41.940  22.968  26.578  1.00  0.00     0.124 S 
ATOM     82  O   UNL A   1      40.602  22.602  26.125  1.00  0.00    -0.237 OA
ATOM     83  O   UNL A   1      43.028  22.647  25.658  1.00  0.00    -0.237 OA
ATOM     84  O   UNL A   1      42.223  22.710  27.986  1.00  0.00    -0.744 OA
ENDBRANCH  77  81
ENDBRANCH  50  74
BRANCH  62  85
ATOM     85  C   UNL A   1      44.256  27.910  33.966  1.00  0.00     0.023 A 
ATOM     86  C   UNL A   1      44.134  26.749  34.756  1.00  0.00     0.031 A 
ATOM     87  C   UNL A   1      45.451  28.644  34.046  1.00  0.00     0.131 A 
ATOM     88  C   UNL A   1      45.157  26.398  35.644  1.00  0.00     0.055 A 
ATOM     89  C   UNL A   1      46.497  28.251  34.884  1.00  0.00     0.041 A 
ATOM     90  F   UNL A   1      45.614  29.764  33.324  1.00  0.00    -0.206 F 
ATOM     91  C   UNL A   1      46.343  27.137  35.704  1.00  0.00     0.022 A 
BRANCH  88  92
ATOM     92  S   UNL A   1      44.935  25.051  36.839  1.00  0.00     0.124 S 
ATOM     93  O   UNL A   1      43.481  24.904  36.863  1.00  0.00    -0.237 OA
ATOM     94  O   UNL A   1      45.662  23.956  36.202  1.00  0.00    -0.237 OA
ATOM     95  O   UNL A   1      45.526  25.569  38.068  1.00  0.00    -0.744 OA
ENDBRANCH  88  92
ENDBRANCH  62  85
ENDBRANCH  36  37
ENDBRANCH  28  31
ENDBRANCH  26  27
ENDBRANCH  25  26
ENDBRANCH   1  25
TORSDOF 18
ENDMDL
MODEL 3
REMARK VINA RESULT:     -12.0      4.925      7.596
REMARK SMILES C#Cc1ccc2c(c1)C=C(C(=O)NCCCCCCNC(=O)c1ccc(-c3c4nc(c(-c5cc(S(=O)(=O)[O-])ccc5F)c5ccc([nH]5)c(-c5cc(S(=O)(=O)[O-])ccc5F)c5nc(c(-c6cc(S(=O)(=O)[O-])ccc6F)c6ccc3[nH]6)C=C5)C=C4)cc1)[C@@H](C(F)(F)F)O2
REMARK SMILES IDX 17 1 16 2 15 3 14 4 13 5 11 6 12 7 10 9 3 10 4 11 8 12 5 13
REMARK SMILES IDX 7 14 6 15 9 16 91 17 86 18 2 19 1 20 87 21 88 22 89 23 90 24
REMARK SMILES IDX 18 25 19 26 20 27 21 28 22 30 23 31 24 32 85 33 25 34 84 35
REMARK SMILES IDX 26 36 27 37 28 38 78 39 29 40 83 41 77 42 79 43 30 44 82 45
REMARK SMILES IDX 76 46 75 47 31 49 63 50 43 51 62 52 44 53 47 54 61 55 80 56
REMARK SMILES IDX 45 57 46 58 60 60 81 61 48 62 32 63 33 64 41 65 34 66 40 67
REMARK SMILES IDX 42 68 39 69 35 70 36 71 37 72 38 73 64 74 65 75 73 76 66 77
REMARK SMILES IDX 72 78 74 79 71 80 67 81 68 82 69 83 70 84 49 85 50 86 58 87
REMARK SMILES IDX 51 88 57 89 59 90 56 91 52 92 53 93 54 94 55 95
REMARK H PARENT 13 8 20 29 79 48 47 59
REMARK Flexibility Score: inf
ROOT
ATOM      1  C   UNL A   1      36.158  23.088  23.753  1.00  0.00     0.002 C 
ENDROOT
BRANCH   1   2
ATOM      2  C   UNL A   1      34.736  22.960  23.192  1.00  0.00     0.002 C 
BRANCH   2   3
ATOM      3  C   UNL A   1      33.724  22.338  24.154  1.00  0.00     0.021 C 
BRANCH   3   4
ATOM      4  C   UNL A   1      32.310  22.869  23.956  1.00  0.00     0.116 C 
BRANCH   4   5
ATOM      5  N   UNL A   1      31.596  22.979  25.217  1.00  0.00    -0.352 N 
ATOM      6  C   UNL A   1      31.090  23.975  25.983  1.00  0.00     0.251 C 
ATOM      7  O   UNL A   1      30.509  23.613  27.011  1.00  0.00    -0.270 OA
ATOM      8  H   UNL A   1      31.437  22.096  25.621  1.00  0.00     0.163 HD
BRANCH   6   9
ATOM      9  C   UNL A   1      31.195  25.432  25.666  1.00  0.00     0.067 C 
ATOM     10  C   UNL A   1      29.577  29.242  23.165  1.00  0.00     0.025 A 
ATOM     11  C   UNL A   1      30.417  30.080  23.902  1.00  0.00     0.021 A 
ATOM     12  C   UNL A   1      29.541  27.868  23.431  1.00  0.00     0.029 A 
ATOM     13  C   UNL A   1      31.223  29.548  24.901  1.00  0.00     0.048 A 
ATOM     14  C   UNL A   1      30.352  27.330  24.436  1.00  0.00     0.018 A 
ATOM     15  C   UNL A   1      31.192  28.179  25.154  1.00  0.00     0.128 A 
ATOM     16  C   UNL A   1      30.302  25.913  24.781  1.00  0.00     0.025 C 
ATOM     17  O   UNL A   1      31.998  27.755  26.164  1.00  0.00    -0.475 OA
ATOM     18  C   UNL A   1      32.244  26.332  26.254  1.00  0.00     0.314 C 
BRANCH  10  19
ATOM     19  C   UNL A   1      28.748  29.806  22.147  1.00  0.00    -0.070 C 
ATOM     20  C   UNL A   1      28.079  30.292  21.275  1.00  0.00     0.010 C 
ENDBRANCH  10  19
BRANCH  18  21
ATOM     21  C   UNL A   1      33.651  26.032  25.704  1.00  0.00     0.429 C 
ATOM     22  F   UNL A   1      34.506  27.038  26.010  1.00  0.00    -0.167 F 
ATOM     23  F   UNL A   1      34.190  24.903  26.222  1.00  0.00    -0.167 F 
ATOM     24  F   UNL A   1      33.657  25.883  24.359  1.00  0.00    -0.167 F 
ENDBRANCH  18  21
ENDBRANCH   6   9
ENDBRANCH   4   5
ENDBRANCH   3   4
ENDBRANCH   2   3
ENDBRANCH   1   2
BRANCH   1  25
ATOM     25  C   UNL A   1      36.818  21.762  24.139  1.00  0.00     0.021 C 
BRANCH  25  26
ATOM     26  C   UNL A   1      37.278  21.702  25.588  1.00  0.00     0.116 C 
BRANCH  26  27
ATOM     27  N   UNL A   1      38.377  20.764  25.773  1.00  0.00    -0.352 N 
ATOM     28  C   UNL A   1      39.654  21.000  26.218  1.00  0.00     0.251 C 
ATOM     29  H   UNL A   1      38.174  19.828  25.544  1.00  0.00     0.163 HD
ATOM     30  O   UNL A   1      40.515  20.134  26.108  1.00  0.00    -0.269 OA
BRANCH  28  31
ATOM     31  C   UNL A   1      39.977  22.322  26.792  1.00  0.00     0.039 A 
ATOM     32  C   UNL A   1      39.372  23.473  26.284  1.00  0.00     0.014 A 
ATOM     33  C   UNL A   1      40.946  22.414  27.793  1.00  0.00     0.014 A 
ATOM     34  C   UNL A   1      39.879  24.719  26.627  1.00  0.00     0.010 A 
ATOM     35  C   UNL A   1      41.377  23.672  28.216  1.00  0.00     0.010 A 
ATOM     36  C   UNL A   1      40.894  24.834  27.590  1.00  0.00    -0.014 A 
BRANCH  36  37
ATOM     37  C   UNL A   1      41.458  26.171  27.914  1.00  0.00     0.031 A 
ATOM     38  C   UNL A   1      42.859  26.530  27.490  1.00  0.00     0.074 A 
ATOM     39  C   UNL A   1      40.697  27.072  28.564  1.00  0.00     0.049 A 
ATOM     40  N   UNL A   1      43.530  27.628  27.722  1.00  0.00    -0.248 NA
ATOM     41  C   UNL A   1      43.607  25.529  26.713  1.00  0.00     0.031 C 
ATOM     42  C   UNL A   1      39.319  26.841  29.002  1.00  0.00     0.029 A 
ATOM     43  N   UNL A   1      40.961  28.359  28.965  1.00  0.00    -0.354 N 
ATOM     44  C   UNL A   1      44.781  27.442  27.144  1.00  0.00     0.074 A 
ATOM     45  C   UNL A   1      44.792  26.110  26.583  1.00  0.00     0.031 C 
ATOM     46  C   UNL A   1      38.848  27.956  29.576  1.00  0.00     0.029 A 
ATOM     47  C   UNL A   1      39.914  28.953  29.631  1.00  0.00     0.049 A 
ATOM     48  H   UNL A   1      41.817  28.813  28.792  1.00  0.00     0.167 HD
ATOM     49  C   UNL A   1      45.817  28.312  27.076  1.00  0.00     0.034 A 
ATOM     50  C   UNL A   1      39.824  30.150  30.246  1.00  0.00     0.034 A 
ATOM     51  C   UNL A   1      45.773  29.648  27.615  1.00  0.00     0.049 A 
ATOM     52  C   UNL A   1      41.009  31.080  30.200  1.00  0.00     0.074 A 
ATOM     53  C   UNL A   1      46.757  30.618  27.560  1.00  0.00     0.029 A 
ATOM     54  N   UNL A   1      44.702  30.205  28.299  1.00  0.00    -0.354 N 
ATOM     55  N   UNL A   1      42.165  30.908  29.603  1.00  0.00    -0.248 NA
ATOM     56  C   UNL A   1      40.883  32.366  30.898  1.00  0.00     0.031 C 
ATOM     57  C   UNL A   1      46.321  31.723  28.286  1.00  0.00     0.029 A 
ATOM     58  C   UNL A   1      45.020  31.491  28.704  1.00  0.00     0.049 A 
ATOM     59  H   UNL A   1      43.844  29.754  28.472  1.00  0.00     0.167 HD
ATOM     60  C   UNL A   1      42.889  32.075  29.826  1.00  0.00     0.074 A 
ATOM     61  C   UNL A   1      42.032  32.955  30.592  1.00  0.00     0.031 C 
ATOM     62  C   UNL A   1      44.151  32.382  29.436  1.00  0.00     0.034 A 
BRANCH  49  63
ATOM     63  C   UNL A   1      47.095  27.889  26.391  1.00  0.00     0.023 A 
ATOM     64  C   UNL A   1      47.249  28.112  25.009  1.00  0.00     0.031 A 
ATOM     65  C   UNL A   1      48.066  27.115  27.051  1.00  0.00     0.131 A 
ATOM     66  C   UNL A   1      48.311  27.513  24.320  1.00  0.00     0.055 A 
ATOM     67  C   UNL A   1      49.155  26.570  26.370  1.00  0.00     0.041 A 
ATOM     68  F   UNL A   1      47.965  26.871  28.368  1.00  0.00    -0.206 F 
ATOM     69  C   UNL A   1      49.270  26.751  24.994  1.00  0.00     0.022 A 
BRANCH  66  70
ATOM     70  S   UNL A   1      48.428  27.612  22.513  1.00  0.00     0.124 S 
ATOM     71  O   UNL A   1      47.194  28.318  22.171  1.00  0.00    -0.237 OA
ATOM     72  O   UNL A   1      49.657  28.378  22.330  1.00  0.00    -0.237 OA
ATOM     73  O   UNL A   1      48.481  26.217  22.087  1.00  0.00    -0.744 OA
ENDBRANCH  66  70
ENDBRANCH  49  63
BRANCH  50  74
ATOM     74  C   UNL A   1      38.549  30.523  30.930  1.00  0.00     0.023 A 
ATOM     75  C   UNL A   1      37.507  31.149  30.220  1.00  0.00     0.031 A 
ATOM     76  C   UNL A   1      38.396  30.361  32.317  1.00  0.00     0.131 A 
ATOM     77  C   UNL A   1      36.401  31.661  30.909  1.00  0.00     0.055 A 
ATOM     78  C   UNL A   1      37.250  30.795  32.987  1.00  0.00     0.041 A 
ATOM     79  F   UNL A   1      39.366  29.786  33.043  1.00  0.00    -0.206 F 
ATOM     80  C   UNL A   1      36.254  31.467  32.284  1.00  0.00     0.022 A 
BRANCH  77  81
ATOM     81  S   UNL A   1      35.195  32.724  30.066  1.00  0.00     0.124 S 
ATOM     82  O   UNL A   1      34.254  33.029  31.139  1.00  0.00    -0.237 OA
ATOM     83  O   UNL A   1      36.036  33.836  29.629  1.00  0.00    -0.237 OA
ATOM     84  O   UNL A   1      34.679  31.879  28.995  1.00  0.00    -0.744 OA
ENDBRANCH  77  81
ENDBRANCH  50  74
BRANCH  62  85
ATOM     85  C   UNL A   1      44.719  33.740  29.783  1.00  0.00     0.023 A 
ATOM     86  C   UNL A   1      44.601  34.798  28.859  1.00  0.00     0.031 A 
ATOM     87  C   UNL A   1      45.536  33.931  30.909  1.00  0.00     0.131 A 
ATOM     88  C   UNL A   1      45.345  35.969  29.040  1.00  0.00     0.055 A 
ATOM     89  C   UNL A   1      46.225  35.127  31.120  1.00  0.00     0.041 A 
ATOM     90  F   UNL A   1      45.694  32.951  31.813  1.00  0.00    -0.206 F 
ATOM     91  C   UNL A   1      46.148  36.144  30.171  1.00  0.00     0.022 A 
BRANCH  88  92
ATOM     92  S   UNL A   1      45.398  37.250  27.756  1.00  0.00     0.124 S 
ATOM     93  O   UNL A   1      44.023  37.236  27.259  1.00  0.00    -0.237 OA
ATOM     94  O   UNL A   1      45.771  38.435  28.522  1.00  0.00    -0.237 OA
ATOM     95  O   UNL A   1      46.402  36.765  26.815  1.00  0.00    -0.744 OA
ENDBRANCH  88  92
ENDBRANCH  62  85
ENDBRANCH  36  37
ENDBRANCH  28  31
ENDBRANCH  26  27
ENDBRANCH  25  26
ENDBRANCH   1  25
TORSDOF 18
ENDMDL
