MODEL 1
REMARK VINA RESULT:     -11.5      0.000      0.000
REMARK SMILES [NH3+]C[C@H]1CC[C@@H](C(=O)N[C@H](C(=O)NCCCCCCNC(=O)c2ccc(-c3c4nc(c(-c5cc(S(=O)(=O)[O-])ccc5F)c5ccc([nH]5)c(-c5cc(S(=O)(=O)[O-])ccc5F)c5nc(c(-c6cc(S(=O)(=O)[O-])ccc6F)c6ccc3[nH]6)C=C5)C=C4)cc2)C2CCCCC2)O1
REMARK SMILES IDX 16 1 15 2 14 3 13 4 11 5 12 6 10 8 9 9 7 10 8 11 6 13 3 14
REMARK SMILES IDX 4 15 92 16 5 17 2 18 1 19 86 23 87 24 91 25 88 26 90 27
REMARK SMILES IDX 89 28 17 29 18 30 19 31 20 32 21 33 22 35 23 36 24 37 85 38
REMARK SMILES IDX 25 39 84 40 26 41 27 42 28 43 78 44 29 45 83 46 77 47 79 48
REMARK SMILES IDX 30 49 82 50 76 51 75 52 31 54 63 55 43 56 62 57 44 58 47 59
REMARK SMILES IDX 61 60 80 61 45 62 46 63 60 65 81 66 48 67 32 68 33 69 41 70
REMARK SMILES IDX 34 71 40 72 42 73 39 74 35 75 36 76 37 77 38 78 64 79 65 80
REMARK SMILES IDX 73 81 66 82 72 83 74 84 71 85 67 86 68 87 69 88 70 89 49 90
REMARK SMILES IDX 50 91 58 92 51 93 57 94 59 95 56 96 52 97 53 98 54 99 55 100
REMARK H PARENT 13 7 9 12 1 20 1 21 1 22 20 34 79 53 47 64
REMARK Flexibility Score: inf
ROOT
ATOM      1  C   UNL A   1      34.592  23.914  22.989  1.00  0.00     0.002 C 
ENDROOT
BRANCH   1   2
ATOM      2  C   UNL A   1      33.323  23.896  22.137  1.00  0.00     0.021 C 
BRANCH   2   3
ATOM      3  C   UNL A   1      32.942  25.224  21.489  1.00  0.00     0.116 C 
BRANCH   3   4
ATOM      4  N   UNL A   1      33.264  26.384  22.304  1.00  0.00    -0.354 N 
ATOM      5  C   UNL A   1      32.606  27.073  23.272  1.00  0.00     0.242 C 
ATOM      6  O   UNL A   1      33.277  27.947  23.843  1.00  0.00    -0.273 OA
ATOM      7  H   UNL A   1      34.157  26.753  22.111  1.00  0.00     0.163 HD
BRANCH   5   8
ATOM      8  C   UNL A   1      31.089  26.965  23.624  1.00  0.00     0.174 C 
BRANCH   8   9
ATOM      9  N   UNL A   1      30.982  27.157  25.078  1.00  0.00    -0.342 N 
ATOM     10  C   UNL A   1      31.279  26.347  26.136  1.00  0.00     0.249 C 
ATOM     11  O   UNL A   1      31.122  26.844  27.257  1.00  0.00    -0.272 OA
ATOM     12  H   UNL A   1      30.628  28.038  25.338  1.00  0.00     0.164 HD
BRANCH  10  13
ATOM     13  C   UNL A   1      31.809  24.897  25.962  1.00  0.00     0.207 C 
ATOM     14  C   UNL A   1      30.793  22.938  26.819  1.00  0.00     0.174 C 
ATOM     15  C   UNL A   1      31.155  22.687  25.372  1.00  0.00     0.041 C 
ATOM     16  O   UNL A   1      31.565  24.109  27.161  1.00  0.00    -0.359 OA
ATOM     17  C   UNL A   1      31.187  24.090  24.836  1.00  0.00     0.045 C 
BRANCH  14  18
ATOM     18  C   UNL A   1      29.287  23.209  27.077  1.00  0.00     0.291 C 
BRANCH  18  19
ATOM     19  N   UNL A   1      28.506  22.051  27.522  1.00  0.00    -0.355 N 
ATOM     20  H   UNL A   1      27.999  22.291  28.374  1.00  0.00     0.344 HD
ATOM     21  H   UNL A   1      29.134  21.269  27.707  1.00  0.00     0.344 HD
ATOM     22  H   UNL A   1      27.842  21.789  26.793  1.00  0.00     0.344 HD
ENDBRANCH  18  19
ENDBRANCH  14  18
ENDBRANCH  10  13
ENDBRANCH   8   9
BRANCH   8  23
ATOM     23  C   UNL A   1      30.058  27.832  22.874  1.00  0.00     0.021 C 
ATOM     24  C   UNL A   1      28.707  27.864  23.609  1.00  0.00     0.006 C 
ATOM     25  C   UNL A   1      30.487  29.296  22.649  1.00  0.00     0.006 C 
ATOM     26  C   UNL A   1      27.653  28.578  22.764  1.00  0.00     0.000 C 
ATOM     27  C   UNL A   1      29.469  30.048  21.794  1.00  0.00     0.000 C 
ATOM     28  C   UNL A   1      28.080  30.003  22.424  1.00  0.00     0.000 C 
ENDBRANCH   8  23
ENDBRANCH   5   8
ENDBRANCH   3   4
ENDBRANCH   2   3
ENDBRANCH   1   2
BRANCH   1  29
ATOM     29  C   UNL A   1      34.708  22.813  24.047  1.00  0.00     0.002 C 
BRANCH  29  30
ATOM     30  C   UNL A   1      36.089  22.171  24.203  1.00  0.00     0.021 C 
BRANCH  30  31
ATOM     31  C   UNL A   1      36.555  21.936  25.638  1.00  0.00     0.116 C 
BRANCH  31  32
ATOM     32  N   UNL A   1      37.591  20.926  25.736  1.00  0.00    -0.352 N 
ATOM     33  C   UNL A   1      38.921  21.059  26.044  1.00  0.00     0.251 C 
ATOM     34  H   UNL A   1      37.295  20.004  25.554  1.00  0.00     0.163 HD
ATOM     35  O   UNL A   1      39.661  20.080  25.925  1.00  0.00    -0.269 OA
BRANCH  33  36
ATOM     36  C   UNL A   1      39.476  22.360  26.481  1.00  0.00     0.039 A 
ATOM     37  C   UNL A   1      40.510  22.359  27.421  1.00  0.00     0.014 A 
ATOM     38  C   UNL A   1      38.977  23.575  26.001  1.00  0.00     0.014 A 
ATOM     39  C   UNL A   1      41.071  23.568  27.841  1.00  0.00     0.010 A 
ATOM     40  C   UNL A   1      39.589  24.776  26.363  1.00  0.00     0.010 A 
ATOM     41  C   UNL A   1      40.637  24.787  27.293  1.00  0.00    -0.014 A 
BRANCH  41  42
ATOM     42  C   UNL A   1      41.282  26.066  27.698  1.00  0.00     0.031 A 
ATOM     43  C   UNL A   1      42.688  26.388  27.263  1.00  0.00     0.074 A 
ATOM     44  C   UNL A   1      40.602  26.934  28.473  1.00  0.00     0.049 A 
ATOM     45  N   UNL A   1      43.400  27.462  27.494  1.00  0.00    -0.248 NA
ATOM     46  C   UNL A   1      43.396  25.355  26.493  1.00  0.00     0.031 C 
ATOM     47  C   UNL A   1      39.254  26.711  29.004  1.00  0.00     0.029 A 
ATOM     48  N   UNL A   1      40.939  28.178  28.943  1.00  0.00    -0.354 N 
ATOM     49  C   UNL A   1      44.638  27.235  26.899  1.00  0.00     0.074 A 
ATOM     50  C   UNL A   1      44.600  25.890  26.362  1.00  0.00     0.031 C 
ATOM     51  C   UNL A   1      38.865  27.798  29.688  1.00  0.00     0.029 A 
ATOM     52  C   UNL A   1      39.944  28.779  29.681  1.00  0.00     0.049 A 
ATOM     53  H   UNL A   1      41.811  28.601  28.771  1.00  0.00     0.167 HD
ATOM     54  C   UNL A   1      45.696  28.077  26.787  1.00  0.00     0.034 A 
ATOM     55  C   UNL A   1      39.904  29.986  30.279  1.00  0.00     0.034 A 
ATOM     56  C   UNL A   1      45.714  29.417  27.326  1.00  0.00     0.049 A 
ATOM     57  C   UNL A   1      41.092  30.903  30.144  1.00  0.00     0.074 A 
ATOM     58  C   UNL A   1      46.713  30.372  27.230  1.00  0.00     0.029 A 
ATOM     59  N   UNL A   1      44.691  29.992  28.070  1.00  0.00    -0.354 N 
ATOM     60  N   UNL A   1      42.231  30.696  29.523  1.00  0.00    -0.248 NA
ATOM     61  C   UNL A   1      40.980  32.224  30.774  1.00  0.00     0.031 C 
ATOM     62  C   UNL A   1      46.325  31.492  27.974  1.00  0.00     0.029 A 
ATOM     63  C   UNL A   1      45.047  31.274  28.464  1.00  0.00     0.049 A 
ATOM     64  H   UNL A   1      43.837  29.553  28.286  1.00  0.00     0.167 HD
ATOM     65  C   UNL A   1      42.957  31.876  29.662  1.00  0.00     0.074 A 
ATOM     66  C   UNL A   1      42.115  32.795  30.401  1.00  0.00     0.031 C 
ATOM     67  C   UNL A   1      44.207  32.175  29.219  1.00  0.00     0.034 A 
BRANCH  54  68
ATOM     68  C   UNL A   1      46.926  27.559  26.075  1.00  0.00     0.023 A 
ATOM     69  C   UNL A   1      47.228  27.934  24.753  1.00  0.00     0.031 A 
ATOM     70  C   UNL A   1      47.798  26.660  26.715  1.00  0.00     0.131 A 
ATOM     71  C   UNL A   1      48.320  27.354  24.090  1.00  0.00     0.055 A 
ATOM     72  C   UNL A   1      48.933  26.153  26.078  1.00  0.00     0.041 A 
ATOM     73  F   UNL A   1      47.555  26.246  27.969  1.00  0.00    -0.206 F 
ATOM     74  C   UNL A   1      49.191  26.487  24.752  1.00  0.00     0.022 A 
BRANCH  71  75
ATOM     75  S   UNL A   1      48.497  27.632  22.306  1.00  0.00     0.124 S 
ATOM     76  O   UNL A   1      48.628  26.266  21.806  1.00  0.00    -0.237 OA
ATOM     77  O   UNL A   1      47.258  28.321  21.968  1.00  0.00    -0.237 OA
ATOM     78  O   UNL A   1      49.710  28.441  22.205  1.00  0.00    -0.744 OA
ENDBRANCH  71  75
ENDBRANCH  54  68
BRANCH  55  79
ATOM     79  C   UNL A   1      38.699  30.407  31.053  1.00  0.00     0.023 A 
ATOM     80  C   UNL A   1      37.643  31.098  30.435  1.00  0.00     0.031 A 
ATOM     81  C   UNL A   1      38.606  30.163  32.435  1.00  0.00     0.131 A 
ATOM     82  C   UNL A   1      36.568  31.566  31.205  1.00  0.00     0.055 A 
ATOM     83  C   UNL A   1      37.506  30.581  33.186  1.00  0.00     0.041 A 
ATOM     84  F   UNL A   1      39.584  29.502  33.075  1.00  0.00    -0.206 F 
ATOM     85  C   UNL A   1      36.485  31.299  32.573  1.00  0.00     0.022 A 
BRANCH  82  86
ATOM     86  S   UNL A   1      35.317  32.611  30.407  1.00  0.00     0.124 S 
ATOM     87  O   UNL A   1      36.078  33.824  30.129  1.00  0.00    -0.237 OA
ATOM     88  O   UNL A   1      34.946  31.805  29.249  1.00  0.00    -0.237 OA
ATOM     89  O   UNL A   1      34.282  32.742  31.430  1.00  0.00    -0.744 OA
ENDBRANCH  82  86
ENDBRANCH  55  79
BRANCH  67  90
ATOM     90  C   UNL A   1      44.710  33.573  29.496  1.00  0.00     0.023 A 
ATOM     91  C   UNL A   1      44.655  34.587  28.523  1.00  0.00     0.031 A 
ATOM     92  C   UNL A   1      45.296  33.884  30.737  1.00  0.00     0.131 A 
ATOM     93  C   UNL A   1      45.250  35.833  28.774  1.00  0.00     0.055 A 
ATOM     94  C   UNL A   1      45.817  35.149  31.009  1.00  0.00     0.041 A 
ATOM     95  F   UNL A   1      45.379  32.958  31.705  1.00  0.00    -0.206 F 
ATOM     96  C   UNL A   1      45.815  36.126  30.017  1.00  0.00     0.022 A 
BRANCH  93  97
ATOM     97  S   UNL A   1      45.398  37.015  27.406  1.00  0.00     0.124 S 
ATOM     98  O   UNL A   1      46.368  37.970  27.935  1.00  0.00    -0.237 OA
ATOM     99  O   UNL A   1      45.868  36.169  26.313  1.00  0.00    -0.237 OA
ATOM    100  O   UNL A   1      44.040  37.531  27.251  1.00  0.00    -0.744 OA
ENDBRANCH  93  97
ENDBRANCH  67  90
ENDBRANCH  41  42
ENDBRANCH  33  36
ENDBRANCH  31  32
ENDBRANCH  30  31
ENDBRANCH  29  30
ENDBRANCH   1  29
TORSDOF 21
ENDMDL
MODEL 2
REMARK VINA RESULT:     -11.5      2.542      8.636
REMARK SMILES [NH3+]C[C@H]1CC[C@@H](C(=O)N[C@H](C(=O)NCCCCCCNC(=O)c2ccc(-c3c4nc(c(-c5cc(S(=O)(=O)[O-])ccc5F)c5ccc([nH]5)c(-c5cc(S(=O)(=O)[O-])ccc5F)c5nc(c(-c6cc(S(=O)(=O)[O-])ccc6F)c6ccc3[nH]6)C=C5)C=C4)cc2)C2CCCCC2)O1
REMARK SMILES IDX 16 1 15 2 14 3 13 4 11 5 12 6 10 8 9 9 7 10 8 11 6 13 3 14
REMARK SMILES IDX 4 15 92 16 5 17 2 18 1 19 86 23 87 24 91 25 88 26 90 27
REMARK SMILES IDX 89 28 17 29 18 30 19 31 20 32 21 33 22 35 23 36 24 37 85 38
REMARK SMILES IDX 25 39 84 40 26 41 27 42 28 43 78 44 29 45 83 46 77 47 79 48
REMARK SMILES IDX 30 49 82 50 76 51 75 52 31 54 63 55 43 56 62 57 44 58 47 59
REMARK SMILES IDX 61 60 80 61 45 62 46 63 60 65 81 66 48 67 32 68 33 69 41 70
REMARK SMILES IDX 34 71 40 72 42 73 39 74 35 75 36 76 37 77 38 78 64 79 65 80
REMARK SMILES IDX 73 81 66 82 72 83 74 84 71 85 67 86 68 87 69 88 70 89 49 90
REMARK SMILES IDX 50 91 58 92 51 93 57 94 59 95 56 96 52 97 53 98 54 99 55 100
REMARK H PARENT 13 7 9 12 1 20 1 21 1 22 20 34 79 53 47 64
REMARK Flexibility Score: inf
ROOT
ATOM      1  C   UNL A   1      37.151  22.402  25.589  1.00  0.00     0.002 C 
ENDROOT
BRANCH   1   2
ATOM      2  C   UNL A   1      35.733  22.868  25.921  1.00  0.00     0.021 C 
BRANCH   2   3
ATOM      3  C   UNL A   1      34.831  21.826  26.575  1.00  0.00     0.116 C 
BRANCH   3   4
ATOM      4  N   UNL A   1      33.424  22.192  26.580  1.00  0.00    -0.354 N 
ATOM      5  C   UNL A   1      32.369  21.906  25.774  1.00  0.00     0.242 C 
ATOM      6  O   UNL A   1      31.268  22.303  26.189  1.00  0.00    -0.273 OA
ATOM      7  H   UNL A   1      33.182  22.778  27.334  1.00  0.00     0.163 HD
BRANCH   5   8
ATOM      8  C   UNL A   1      32.430  21.268  24.351  1.00  0.00     0.174 C 
BRANCH   8   9
ATOM      9  N   UNL A   1      33.422  22.040  23.589  1.00  0.00    -0.342 N 
ATOM     10  C   UNL A   1      33.368  23.262  22.983  1.00  0.00     0.249 C 
ATOM     11  O   UNL A   1      34.418  23.655  22.463  1.00  0.00    -0.272 OA
ATOM     12  H   UNL A   1      34.293  21.589  23.498  1.00  0.00     0.164 HD
BRANCH  10  13
ATOM     13  C   UNL A   1      32.081  24.132  22.961  1.00  0.00     0.207 C 
ATOM     14  C   UNL A   1      31.837  26.271  23.947  1.00  0.00     0.174 C 
ATOM     15  C   UNL A   1      31.275  26.332  22.544  1.00  0.00     0.041 C 
ATOM     16  O   UNL A   1      31.922  24.855  24.215  1.00  0.00    -0.359 OA
ATOM     17  C   UNL A   1      32.019  25.204  21.887  1.00  0.00     0.045 C 
BRANCH  14  18
ATOM     18  C   UNL A   1      33.235  26.922  24.118  1.00  0.00     0.291 C 
BRANCH  18  19
ATOM     19  N   UNL A   1      34.207  26.136  24.883  1.00  0.00    -0.355 N 
ATOM     20  H   UNL A   1      35.140  26.525  24.747  1.00  0.00     0.344 HD
ATOM     21  H   UNL A   1      34.191  25.168  24.560  1.00  0.00     0.344 HD
ATOM     22  H   UNL A   1      33.966  26.167  25.873  1.00  0.00     0.344 HD
ENDBRANCH  18  19
ENDBRANCH  14  18
ENDBRANCH  10  13
ENDBRANCH   8   9
BRANCH   8  23
ATOM     23  C   UNL A   1      32.668  19.753  24.193  1.00  0.00     0.021 C 
ATOM     24  C   UNL A   1      32.356  19.279  22.763  1.00  0.00     0.006 C 
ATOM     25  C   UNL A   1      34.100  19.286  24.524  1.00  0.00     0.006 C 
ATOM     26  C   UNL A   1      32.426  17.756  22.674  1.00  0.00     0.000 C 
ATOM     27  C   UNL A   1      34.216  17.764  24.463  1.00  0.00     0.000 C 
ATOM     28  C   UNL A   1      33.798  17.234  23.095  1.00  0.00     0.000 C 
ENDBRANCH   8  23
ENDBRANCH   5   8
ENDBRANCH   3   4
ENDBRANCH   2   3
ENDBRANCH   1   2
BRANCH   1  29
ATOM     29  C   UNL A   1      37.264  21.280  24.554  1.00  0.00     0.002 C 
BRANCH  29  30
ATOM     30  C   UNL A   1      38.145  20.089  24.945  1.00  0.00     0.021 C 
BRANCH  30  31
ATOM     31  C   UNL A   1      39.173  20.355  26.042  1.00  0.00     0.116 C 
BRANCH  31  32
ATOM     32  N   UNL A   1      40.261  19.395  26.039  1.00  0.00    -0.352 N 
ATOM     33  C   UNL A   1      41.614  19.601  26.119  1.00  0.00     0.251 C 
ATOM     34  H   UNL A   1      39.986  18.451  25.968  1.00  0.00     0.163 HD
ATOM     35  O   UNL A   1      42.374  18.646  25.948  1.00  0.00    -0.269 OA
BRANCH  33  36
ATOM     36  C   UNL A   1      42.166  20.951  26.374  1.00  0.00     0.039 A 
ATOM     37  C   UNL A   1      42.235  21.853  25.309  1.00  0.00     0.014 A 
ATOM     38  C   UNL A   1      42.640  21.329  27.634  1.00  0.00     0.014 A 
ATOM     39  C   UNL A   1      42.732  23.142  25.518  1.00  0.00     0.010 A 
ATOM     40  C   UNL A   1      43.065  22.640  27.859  1.00  0.00     0.010 A 
ATOM     41  C   UNL A   1      43.124  23.558  26.802  1.00  0.00    -0.014 A 
BRANCH  41  42
ATOM     42  C   UNL A   1      43.593  24.953  27.030  1.00  0.00     0.031 A 
ATOM     43  C   UNL A   1      42.660  25.995  27.589  1.00  0.00     0.074 A 
ATOM     44  C   UNL A   1      44.862  25.283  26.718  1.00  0.00     0.049 A 
ATOM     45  N   UNL A   1      42.900  27.248  27.880  1.00  0.00    -0.248 NA
ATOM     46  C   UNL A   1      41.269  25.582  27.823  1.00  0.00     0.031 C 
ATOM     47  C   UNL A   1      45.845  24.375  26.118  1.00  0.00     0.029 A 
ATOM     48  N   UNL A   1      45.549  26.461  26.866  1.00  0.00    -0.354 N 
ATOM     49  C   UNL A   1      41.692  27.773  28.332  1.00  0.00     0.074 A 
ATOM     50  C   UNL A   1      40.708  26.719  28.203  1.00  0.00     0.031 C 
ATOM     51  C   UNL A   1      47.017  25.018  25.992  1.00  0.00     0.029 A 
ATOM     52  C   UNL A   1      46.863  26.390  26.461  1.00  0.00     0.049 A 
ATOM     53  H   UNL A   1      45.141  27.281  27.227  1.00  0.00     0.167 HD
ATOM     54  C   UNL A   1      41.433  29.008  28.831  1.00  0.00     0.034 A 
ATOM     55  C   UNL A   1      47.835  27.324  26.471  1.00  0.00     0.034 A 
ATOM     56  C   UNL A   1      42.430  30.047  28.956  1.00  0.00     0.049 A 
ATOM     57  C   UNL A   1      47.524  28.690  27.027  1.00  0.00     0.074 A 
ATOM     58  C   UNL A   1      42.291  31.317  29.491  1.00  0.00     0.029 A 
ATOM     59  N   UNL A   1      43.749  29.941  28.533  1.00  0.00    -0.354 N 
ATOM     60  N   UNL A   1      46.392  29.149  27.510  1.00  0.00    -0.248 NA
ATOM     61  C   UNL A   1      48.629  29.654  27.060  1.00  0.00     0.031 C 
ATOM     62  C   UNL A   1      43.500  32.000  29.325  1.00  0.00     0.029 A 
ATOM     63  C   UNL A   1      44.424  31.132  28.767  1.00  0.00     0.049 A 
ATOM     64  H   UNL A   1      44.148  29.138  28.126  1.00  0.00     0.167 HD
ATOM     65  C   UNL A   1      46.660  30.449  27.931  1.00  0.00     0.074 A 
ATOM     66  C   UNL A   1      48.065  30.685  27.670  1.00  0.00     0.031 C 
ATOM     67  C   UNL A   1      45.822  31.364  28.484  1.00  0.00     0.034 A 
BRANCH  54  68
ATOM     68  C   UNL A   1      40.012  29.304  29.256  1.00  0.00     0.023 A 
ATOM     69  C   UNL A   1      39.642  29.364  30.611  1.00  0.00     0.031 A 
ATOM     70  C   UNL A   1      39.006  29.508  28.294  1.00  0.00     0.131 A 
ATOM     71  C   UNL A   1      38.296  29.539  30.966  1.00  0.00     0.055 A 
ATOM     72  C   UNL A   1      37.682  29.768  28.655  1.00  0.00     0.041 A 
ATOM     73  F   UNL A   1      39.290  29.443  26.983  1.00  0.00    -0.206 F 
ATOM     74  C   UNL A   1      37.317  29.769  29.998  1.00  0.00     0.022 A 
BRANCH  71  75
ATOM     75  S   UNL A   1      37.821  29.311  32.702  1.00  0.00     0.124 S 
ATOM     76  O   UNL A   1      37.712  27.856  32.788  1.00  0.00    -0.237 OA
ATOM     77  O   UNL A   1      38.939  29.911  33.418  1.00  0.00    -0.237 OA
ATOM     78  O   UNL A   1      36.552  30.029  32.807  1.00  0.00    -0.744 OA
ENDBRANCH  71  75
ENDBRANCH  54  68
BRANCH  55  79
ATOM     79  C   UNL A   1      49.196  27.004  25.949  1.00  0.00     0.023 A 
ATOM     80  C   UNL A   1      49.604  27.431  24.674  1.00  0.00     0.031 A 
ATOM     81  C   UNL A   1      50.095  26.226  26.700  1.00  0.00     0.131 A 
ATOM     82  C   UNL A   1      50.851  27.035  24.168  1.00  0.00     0.055 A 
ATOM     83  C   UNL A   1      51.359  25.883  26.215  1.00  0.00     0.041 A 
ATOM     84  F   UNL A   1      49.759  25.796  27.927  1.00  0.00    -0.206 F 
ATOM     85  C   UNL A   1      51.737  26.276  24.936  1.00  0.00     0.022 A 
BRANCH  82  86
ATOM     86  S   UNL A   1      51.265  27.451  22.451  1.00  0.00     0.124 S 
ATOM     87  O   UNL A   1      51.155  28.905  22.464  1.00  0.00    -0.237 OA
ATOM     88  O   UNL A   1      52.615  26.909  22.327  1.00  0.00    -0.237 OA
ATOM     89  O   UNL A   1      50.242  26.752  21.677  1.00  0.00    -0.744 OA
ENDBRANCH  82  86
ENDBRANCH  55  79
BRANCH  67  90
ATOM     90  C   UNL A   1      46.429  32.691  28.877  1.00  0.00     0.023 A 
ATOM     91  C   UNL A   1      46.482  33.775  27.983  1.00  0.00     0.031 A 
ATOM     92  C   UNL A   1      47.004  32.860  30.150  1.00  0.00     0.131 A 
ATOM     93  C   UNL A   1      47.168  34.946  28.340  1.00  0.00     0.055 A 
ATOM     94  C   UNL A   1      47.618  34.054  30.528  1.00  0.00     0.041 A 
ATOM     95  F   UNL A   1      46.986  31.861  31.047  1.00  0.00    -0.206 F 
ATOM     96  C   UNL A   1      47.721  35.099  29.613  1.00  0.00     0.022 A 
BRANCH  93  97
ATOM     97  S   UNL A   1      47.448  36.210  27.070  1.00  0.00     0.124 S 
ATOM     98  O   UNL A   1      47.235  37.445  27.818  1.00  0.00    -0.237 OA
ATOM     99  O   UNL A   1      48.824  35.942  26.662  1.00  0.00    -0.237 OA
ATOM    100  O   UNL A   1      46.434  35.913  26.061  1.00  0.00    -0.744 OA
ENDBRANCH  93  97
ENDBRANCH  67  90
ENDBRANCH  41  42
ENDBRANCH  33  36
ENDBRANCH  31  32
ENDBRANCH  30  31
ENDBRANCH  29  30
ENDBRANCH   1  29
TORSDOF 21
ENDMDL
MODEL 3
REMARK VINA RESULT:     -11.4      2.865      4.432
REMARK SMILES [NH3+]C[C@H]1CC[C@@H](C(=O)N[C@H](C(=O)NCCCCCCNC(=O)c2ccc(-c3c4nc(c(-c5cc(S(=O)(=O)[O-])ccc5F)c5ccc([nH]5)c(-c5cc(S(=O)(=O)[O-])ccc5F)c5nc(c(-c6cc(S(=O)(=O)[O-])ccc6F)c6ccc3[nH]6)C=C5)C=C4)cc2)C2CCCCC2)O1
REMARK SMILES IDX 16 1 15 2 14 3 13 4 11 5 12 6 10 8 9 9 7 10 8 11 6 13 3 14
REMARK SMILES IDX 4 15 92 16 5 17 2 18 1 19 86 23 87 24 91 25 88 26 90 27
REMARK SMILES IDX 89 28 17 29 18 30 19 31 20 32 21 33 22 35 23 36 24 37 85 38
REMARK SMILES IDX 25 39 84 40 26 41 27 42 28 43 78 44 29 45 83 46 77 47 79 48
REMARK SMILES IDX 30 49 82 50 76 51 75 52 31 54 63 55 43 56 62 57 44 58 47 59
REMARK SMILES IDX 61 60 80 61 45 62 46 63 60 65 81 66 48 67 32 68 33 69 41 70
REMARK SMILES IDX 34 71 40 72 42 73 39 74 35 75 36 76 37 77 38 78 64 79 65 80
REMARK SMILES IDX 73 81 66 82 72 83 74 84 71 85 67 86 68 87 69 88 70 89 49 90
REMARK SMILES IDX 50 91 58 92 51 93 57 94 59 95 56 96 52 97 53 98 54 99 55 100
REMARK H PARENT 13 7 9 12 1 20 1 21 1 22 20 34 79 53 47 64
REMARK Flexibility Score: inf
ROOT
ATOM      1  C   UNL A   1      36.678  21.921  24.623  1.00  0.00     0.002 C 
ENDROOT
BRANCH   1   2
ATOM      2  C   UNL A   1      36.494  22.928  25.758  1.00  0.00     0.021 C 
BRANCH   2   3
ATOM      3  C   UNL A   1      35.719  24.194  25.401  1.00  0.00     0.116 C 
BRANCH   3   4
ATOM      4  N   UNL A   1      34.401  24.263  26.010  1.00  0.00    -0.354 N 
ATOM      5  C   UNL A   1      33.177  23.776  25.675  1.00  0.00     0.242 C 
ATOM      6  O   UNL A   1      32.297  23.933  26.537  1.00  0.00    -0.273 OA
ATOM      7  H   UNL A   1      34.393  24.775  26.851  1.00  0.00     0.163 HD
BRANCH   5   8
ATOM      8  C   UNL A   1      32.756  23.185  24.294  1.00  0.00     0.174 C 
BRANCH   8   9
ATOM      9  N   UNL A   1      33.383  24.031  23.268  1.00  0.00    -0.342 N 
ATOM     10  C   UNL A   1      32.900  25.044  22.491  1.00  0.00     0.249 C 
ATOM     11  O   UNL A   1      33.722  25.597  21.752  1.00  0.00    -0.272 OA
ATOM     12  H   UNL A   1      34.334  23.828  23.111  1.00  0.00     0.164 HD
BRANCH  10  13
ATOM     13  C   UNL A   1      31.417  25.504  22.537  1.00  0.00     0.207 C 
ATOM     14  C   UNL A   1      30.327  26.483  24.397  1.00  0.00     0.174 C 
ATOM     15  C   UNL A   1      30.000  27.308  23.172  1.00  0.00     0.041 C 
ATOM     16  O   UNL A   1      30.836  25.249  23.848  1.00  0.00    -0.359 OA
ATOM     17  C   UNL A   1      31.169  26.981  22.285  1.00  0.00     0.045 C 
BRANCH  14  18
ATOM     18  C   UNL A   1      31.385  27.112  25.343  1.00  0.00     0.291 C 
BRANCH  18  19
ATOM     19  N   UNL A   1      31.208  26.821  26.768  1.00  0.00    -0.355 N 
ATOM     20  H   UNL A   1      31.109  27.696  27.283  1.00  0.00     0.344 HD
ATOM     21  H   UNL A   1      32.021  26.312  27.115  1.00  0.00     0.344 HD
ATOM     22  H   UNL A   1      30.370  26.253  26.898  1.00  0.00     0.344 HD
ENDBRANCH  18  19
ENDBRANCH  14  18
ENDBRANCH  10  13
ENDBRANCH   8   9
BRANCH   8  23
ATOM     23  C   UNL A   1      32.982  21.690  23.992  1.00  0.00     0.021 C 
ATOM     24  C   UNL A   1      32.882  20.835  25.267  1.00  0.00     0.006 C 
ATOM     25  C   UNL A   1      32.005  21.085  22.963  1.00  0.00     0.006 C 
ATOM     26  C   UNL A   1      33.282  19.390  24.978  1.00  0.00     0.000 C 
ATOM     27  C   UNL A   1      32.375  19.640  22.629  1.00  0.00     0.000 C 
ATOM     28  C   UNL A   1      32.409  18.776  23.886  1.00  0.00     0.000 C 
ENDBRANCH   8  23
ENDBRANCH   5   8
ENDBRANCH   3   4
ENDBRANCH   2   3
ENDBRANCH   1   2
BRANCH   1  29
ATOM     29  C   UNL A   1      36.751  20.449  25.035  1.00  0.00     0.002 C 
BRANCH  29  30
ATOM     30  C   UNL A   1      38.108  19.763  24.850  1.00  0.00     0.021 C 
BRANCH  30  31
ATOM     31  C   UNL A   1      39.219  20.222  25.791  1.00  0.00     0.116 C 
BRANCH  31  32
ATOM     32  N   UNL A   1      40.300  19.261  25.897  1.00  0.00    -0.352 N 
ATOM     33  C   UNL A   1      41.629  19.461  26.173  1.00  0.00     0.251 C 
ATOM     34  H   UNL A   1      40.041  18.322  25.748  1.00  0.00     0.163 HD
ATOM     35  O   UNL A   1      42.409  18.512  26.067  1.00  0.00    -0.269 OA
BRANCH  33  36
ATOM     36  C   UNL A   1      42.135  20.797  26.560  1.00  0.00     0.039 A 
ATOM     37  C   UNL A   1      42.416  21.720  25.550  1.00  0.00     0.014 A 
ATOM     38  C   UNL A   1      42.361  21.142  27.896  1.00  0.00     0.014 A 
ATOM     39  C   UNL A   1      42.877  22.997  25.880  1.00  0.00     0.010 A 
ATOM     40  C   UNL A   1      42.748  22.442  28.229  1.00  0.00     0.010 A 
ATOM     41  C   UNL A   1      43.019  23.381  27.225  1.00  0.00    -0.014 A 
BRANCH  41  42
ATOM     42  C   UNL A   1      43.449  24.764  27.571  1.00  0.00     0.031 A 
ATOM     43  C   UNL A   1      44.901  25.157  27.496  1.00  0.00     0.074 A 
ATOM     44  C   UNL A   1      42.527  25.663  27.969  1.00  0.00     0.049 A 
ATOM     45  N   UNL A   1      45.457  26.319  27.731  1.00  0.00    -0.248 NA
ATOM     46  C   UNL A   1      45.857  24.099  27.138  1.00  0.00     0.031 C 
ATOM     47  C   UNL A   1      41.097  25.385  28.135  1.00  0.00     0.029 A 
ATOM     48  N   UNL A   1      42.646  26.989  28.298  1.00  0.00    -0.354 N 
ATOM     49  C   UNL A   1      46.824  26.132  27.550  1.00  0.00     0.074 A 
ATOM     50  C   UNL A   1      47.016  24.727  27.258  1.00  0.00     0.031 C 
ATOM     51  C   UNL A   1      40.469  26.517  28.490  1.00  0.00     0.029 A 
ATOM     52  C   UNL A   1      41.449  27.589  28.618  1.00  0.00     0.049 A 
ATOM     53  H   UNL A   1      43.506  27.467  28.305  1.00  0.00     0.167 HD
ATOM     54  C   UNL A   1      47.822  27.050  27.595  1.00  0.00     0.034 A 
ATOM     55  C   UNL A   1      41.171  28.861  28.969  1.00  0.00     0.034 A 
ATOM     56  C   UNL A   1      47.611  28.450  27.884  1.00  0.00     0.049 A 
ATOM     57  C   UNL A   1      42.297  29.862  29.016  1.00  0.00     0.074 A 
ATOM     58  C   UNL A   1      48.541  29.476  27.909  1.00  0.00     0.029 A 
ATOM     59  N   UNL A   1      46.386  29.022  28.207  1.00  0.00    -0.354 N 
ATOM     60  N   UNL A   1      43.576  29.682  28.779  1.00  0.00    -0.248 NA
ATOM     61  C   UNL A   1      41.935  31.243  29.358  1.00  0.00     0.031 C 
ATOM     62  C   UNL A   1      47.894  30.648  28.317  1.00  0.00     0.029 A 
ATOM     63  C   UNL A   1      46.543  30.378  28.462  1.00  0.00     0.049 A 
ATOM     64  H   UNL A   1      45.531  28.537  28.248  1.00  0.00     0.167 HD
ATOM     65  C   UNL A   1      44.166  30.936  28.914  1.00  0.00     0.074 A 
ATOM     66  C   UNL A   1      43.097  31.864  29.224  1.00  0.00     0.031 C 
ATOM     67  C   UNL A   1      45.472  31.290  28.791  1.00  0.00     0.034 A 
BRANCH  54  68
ATOM     68  C   UNL A   1      49.232  26.560  27.350  1.00  0.00     0.023 A 
ATOM     69  C   UNL A   1      50.206  26.572  28.364  1.00  0.00     0.031 A 
ATOM     70  C   UNL A   1      49.616  26.093  26.080  1.00  0.00     0.131 A 
ATOM     71  C   UNL A   1      51.529  26.206  28.072  1.00  0.00     0.055 A 
ATOM     72  C   UNL A   1      50.913  25.648  25.819  1.00  0.00     0.041 A 
ATOM     73  F   UNL A   1      48.738  26.075  25.064  1.00  0.00    -0.206 F 
ATOM     74  C   UNL A   1      51.884  25.718  26.814  1.00  0.00     0.022 A 
BRANCH  71  75
ATOM     75  S   UNL A   1      52.809  26.521  29.319  1.00  0.00     0.124 S 
ATOM     76  O   UNL A   1      52.288  25.785  30.468  1.00  0.00    -0.237 OA
ATOM     77  O   UNL A   1      54.004  25.968  28.693  1.00  0.00    -0.237 OA
ATOM     78  O   UNL A   1      52.795  27.976  29.464  1.00  0.00    -0.744 OA
ENDBRANCH  71  75
ENDBRANCH  54  68
BRANCH  55  79
ATOM     79  C   UNL A   1      39.773  29.267  29.296  1.00  0.00     0.023 A 
ATOM     80  C   UNL A   1      39.351  29.412  30.628  1.00  0.00     0.031 A 
ATOM     81  C   UNL A   1      38.824  29.473  28.279  1.00  0.00     0.131 A 
ATOM     82  C   UNL A   1      38.007  29.700  30.909  1.00  0.00     0.055 A 
ATOM     83  C   UNL A   1      37.501  29.817  28.562  1.00  0.00     0.041 A 
ATOM     84  F   UNL A   1      39.175  29.354  26.988  1.00  0.00    -0.206 F 
ATOM     85  C   UNL A   1      37.083  29.918  29.885  1.00  0.00     0.022 A 
BRANCH  82  86
ATOM     86  S   UNL A   1      37.461  29.697  32.639  1.00  0.00     0.124 S 
ATOM     87  O   UNL A   1      36.166  30.361  32.542  1.00  0.00    -0.237 OA
ATOM     88  O   UNL A   1      37.430  28.271  32.943  1.00  0.00    -0.237 OA
ATOM     89  O   UNL A   1      38.503  30.457  33.325  1.00  0.00    -0.744 OA
ENDBRANCH  82  86
ENDBRANCH  55  79
BRANCH  67  90
ATOM     90  C   UNL A   1      45.797  32.757  28.957  1.00  0.00     0.023 A 
ATOM     91  C   UNL A   1      45.842  33.635  27.859  1.00  0.00     0.031 A 
ATOM     92  C   UNL A   1      46.112  33.276  30.226  1.00  0.00     0.131 A 
ATOM     93  C   UNL A   1      46.274  34.958  28.037  1.00  0.00     0.055 A 
ATOM     94  C   UNL A   1      46.467  34.612  30.408  1.00  0.00     0.041 A 
ATOM     95  F   UNL A   1      46.089  32.487  31.312  1.00  0.00    -0.206 F 
ATOM     96  C   UNL A   1      46.569  35.457  29.306  1.00  0.00     0.022 A 
BRANCH  93  97
ATOM     97  S   UNL A   1      46.578  35.977  26.566  1.00  0.00     0.124 S 
ATOM     98  O   UNL A   1      48.021  36.180  26.632  1.00  0.00    -0.237 OA
ATOM     99  O   UNL A   1      46.104  35.115  25.487  1.00  0.00    -0.237 OA
ATOM    100  O   UNL A   1      45.771  37.172  26.805  1.00  0.00    -0.744 OA
ENDBRANCH  93  97
ENDBRANCH  67  90
ENDBRANCH  41  42
ENDBRANCH  33  36
ENDBRANCH  31  32
ENDBRANCH  30  31
ENDBRANCH  29  30
ENDBRANCH   1  29
TORSDOF 21
ENDMDL
