MODEL 1
REMARK VINA RESULT:     -11.3      0.000      0.000
REMARK SMILES C[C@H]1CCC[C@@](NC(=O)N2CCO[C@H](C#N)C2)(C(=O)NCCCCCCNC(=O)c2ccc(-c3c4nc(c(-c5cc(S(=O)(=O)[O-])ccc5F)c5ccc([nH]5)c(-c5cc(S(=O)(=O)[O-])ccc5F)c5nc(c(-c6cc(S(=O)(=O)[O-])ccc6F)c6ccc3[nH]6)C=C5)C=C4)cc2)C1
REMARK SMILES IDX 23 1 22 2 21 3 20 4 18 5 19 6 6 8 1 9 2 10 3 11 93 12 4 13
REMARK SMILES IDX 5 14 7 15 8 16 9 18 10 19 11 20 17 21 12 22 14 23 13 24
REMARK SMILES IDX 15 25 16 26 24 27 25 28 26 29 27 30 28 31 29 33 30 34 31 35
REMARK SMILES IDX 92 36 32 37 91 38 33 39 34 40 35 41 85 42 36 43 90 44 84 45
REMARK SMILES IDX 86 46 37 47 89 48 83 49 82 50 38 52 70 53 50 54 69 55 51 56
REMARK SMILES IDX 54 57 68 58 87 59 52 60 53 61 67 63 88 64 55 65 39 66 40 67
REMARK SMILES IDX 48 68 41 69 47 70 49 71 46 72 42 73 43 74 44 75 45 76 71 77
REMARK SMILES IDX 72 78 80 79 73 80 79 81 81 82 78 83 74 84 75 85 76 86 77 87
REMARK SMILES IDX 56 88 57 89 65 90 58 91 64 92 66 93 63 94 59 95 60 96 61 97
REMARK SMILES IDX 62 98
REMARK H PARENT 20 7 7 17 27 32 86 51 54 62
REMARK Flexibility Score: inf
ROOT
ATOM      1  C   UNL A   1      32.294  29.322  27.019  1.00  0.00     0.002 C 
ENDROOT
BRANCH   1   2
ATOM      2  C   UNL A   1      31.438  28.055  26.971  1.00  0.00     0.021 C 
BRANCH   2   3
ATOM      3  C   UNL A   1      32.201  26.913  26.330  1.00  0.00     0.116 C 
BRANCH   3   4
ATOM      4  N   UNL A   1      33.277  27.460  25.515  1.00  0.00    -0.354 N 
ATOM      5  C   UNL A   1      33.298  27.843  24.207  1.00  0.00     0.245 C 
ATOM      6  O   UNL A   1      34.346  28.347  23.791  1.00  0.00    -0.272 OA
ATOM      7  H   UNL A   1      34.133  27.574  25.988  1.00  0.00     0.163 HD
BRANCH   5   8
ATOM      8  C   UNL A   1      32.092  27.564  23.281  1.00  0.00     0.121 C 
ATOM      9  C   UNL A   1      28.467  26.316  24.212  1.00  0.00     0.008 C 
ATOM     10  C   UNL A   1      29.552  26.961  23.349  1.00  0.00    -0.011 C 
ATOM     11  C   UNL A   1      29.190  28.430  23.125  1.00  0.00     0.003 C 
ATOM     12  C   UNL A   1      30.949  26.793  23.998  1.00  0.00     0.042 C 
ATOM     13  C   UNL A   1      30.238  29.102  22.269  1.00  0.00     0.003 C 
ATOM     14  C   UNL A   1      31.584  29.010  22.956  1.00  0.00     0.039 C 
BRANCH   8  15
ATOM     15  N   UNL A   1      32.519  26.824  22.068  1.00  0.00    -0.323 N 
ATOM     16  C   UNL A   1      32.938  25.564  21.784  1.00  0.00     0.318 C 
ATOM     17  H   UNL A   1      32.492  27.392  21.265  1.00  0.00     0.166 HD
ATOM     18  O   UNL A   1      33.171  25.327  20.595  1.00  0.00    -0.249 OA
BRANCH  16  19
ATOM     19  N   UNL A   1      33.307  24.680  22.765  1.00  0.00    -0.319 N 
ATOM     20  C   UNL A   1      34.721  24.679  23.177  1.00  0.00     0.150 C 
ATOM     21  C   UNL A   1      32.625  23.419  23.111  1.00  0.00     0.169 C 
ATOM     22  C   UNL A   1      34.857  24.266  24.650  1.00  0.00     0.183 C 
ATOM     23  C   UNL A   1      32.833  23.060  24.601  1.00  0.00     0.240 C 
ATOM     24  O   UNL A   1      34.253  22.987  24.887  1.00  0.00    -0.360 OA
BRANCH  23  25
ATOM     25  C   UNL A   1      32.175  21.788  24.951  1.00  0.00     0.096 C 
ATOM     26  N   UNL A   1      31.683  20.775  25.225  1.00  0.00    -0.195 NA
ENDBRANCH  23  25
ENDBRANCH  16  19
ENDBRANCH   8  15
ENDBRANCH   5   8
ENDBRANCH   3   4
ENDBRANCH   2   3
ENDBRANCH   1   2
BRANCH   1  27
ATOM     27  C   UNL A   1      31.745  30.463  26.152  1.00  0.00     0.002 C 
BRANCH  27  28
ATOM     28  C   UNL A   1      31.542  31.778  26.894  1.00  0.00     0.021 C 
BRANCH  28  29
ATOM     29  C   UNL A   1      32.845  32.460  27.258  1.00  0.00     0.116 C 
BRANCH  29  30
ATOM     30  N   UNL A   1      32.626  33.851  27.620  1.00  0.00    -0.352 N 
ATOM     31  C   UNL A   1      33.219  34.572  28.621  1.00  0.00     0.251 C 
ATOM     32  H   UNL A   1      31.966  34.338  27.075  1.00  0.00     0.163 HD
ATOM     33  O   UNL A   1      32.738  35.642  28.979  1.00  0.00    -0.269 OA
BRANCH  31  34
ATOM     34  C   UNL A   1      34.423  34.018  29.270  1.00  0.00     0.039 A 
ATOM     35  C   UNL A   1      34.270  33.054  30.261  1.00  0.00     0.014 A 
ATOM     36  C   UNL A   1      35.698  34.419  28.855  1.00  0.00     0.014 A 
ATOM     37  C   UNL A   1      35.404  32.453  30.801  1.00  0.00     0.010 A 
ATOM     38  C   UNL A   1      36.817  33.732  29.304  1.00  0.00     0.010 A 
ATOM     39  C   UNL A   1      36.684  32.754  30.296  1.00  0.00    -0.014 A 
BRANCH  39  40
ATOM     40  C   UNL A   1      37.881  32.051  30.818  1.00  0.00     0.031 A 
ATOM     41  C   UNL A   1      38.409  32.367  32.190  1.00  0.00     0.074 A 
ATOM     42  C   UNL A   1      38.481  31.121  30.047  1.00  0.00     0.049 A 
ATOM     43  N   UNL A   1      39.413  31.826  32.829  1.00  0.00    -0.248 NA
ATOM     44  C   UNL A   1      37.741  33.447  32.937  1.00  0.00     0.031 C 
ATOM     45  C   UNL A   1      38.084  30.776  28.677  1.00  0.00     0.029 A 
ATOM     46  N   UNL A   1      39.533  30.282  30.304  1.00  0.00    -0.354 N 
ATOM     47  C   UNL A   1      39.485  32.483  34.052  1.00  0.00     0.074 A 
ATOM     48  C   UNL A   1      38.482  33.524  34.032  1.00  0.00     0.031 C 
ATOM     49  C   UNL A   1      38.838  29.754  28.244  1.00  0.00     0.029 A 
ATOM     50  C   UNL A   1      39.812  29.412  29.274  1.00  0.00     0.049 A 
ATOM     51  H   UNL A   1      40.041  30.300  31.147  1.00  0.00     0.167 HD
ATOM     52  C   UNL A   1      40.287  32.217  35.110  1.00  0.00     0.034 A 
ATOM     53  C   UNL A   1      40.751  28.451  29.173  1.00  0.00     0.034 A 
ATOM     54  C   UNL A   1      41.281  31.175  35.115  1.00  0.00     0.049 A 
ATOM     55  C   UNL A   1      41.664  28.216  30.352  1.00  0.00     0.074 A 
ATOM     56  C   UNL A   1      42.134  30.804  36.140  1.00  0.00     0.029 A 
ATOM     57  N   UNL A   1      41.562  30.336  34.043  1.00  0.00    -0.354 N 
ATOM     58  N   UNL A   1      41.674  28.812  31.524  1.00  0.00    -0.248 NA
ATOM     59  C   UNL A   1      42.677  27.167  30.201  1.00  0.00     0.031 C 
ATOM     60  C   UNL A   1      42.980  29.800  35.665  1.00  0.00     0.029 A 
ATOM     61  C   UNL A   1      42.595  29.473  34.374  1.00  0.00     0.049 A 
ATOM     62  H   UNL A   1      41.095  30.353  33.177  1.00  0.00     0.167 HD
ATOM     63  C   UNL A   1      42.676  28.181  32.258  1.00  0.00     0.074 A 
ATOM     64  C   UNL A   1      43.210  27.134  31.411  1.00  0.00     0.031 C 
ATOM     65  C   UNL A   1      43.122  28.443  33.513  1.00  0.00     0.034 A 
BRANCH  52  66
ATOM     66  C   UNL A   1      40.124  33.068  36.345  1.00  0.00     0.023 A 
ATOM     67  C   UNL A   1      39.315  32.657  37.419  1.00  0.00     0.031 A 
ATOM     68  C   UNL A   1      40.802  34.294  36.464  1.00  0.00     0.131 A 
ATOM     69  C   UNL A   1      39.165  33.484  38.542  1.00  0.00     0.055 A 
ATOM     70  C   UNL A   1      40.713  35.076  37.616  1.00  0.00     0.041 A 
ATOM     71  F   UNL A   1      41.565  34.753  35.459  1.00  0.00    -0.206 F 
ATOM     72  C   UNL A   1      39.884  34.676  38.661  1.00  0.00     0.022 A 
BRANCH  69  73
ATOM     73  S   UNL A   1      37.928  33.038  39.790  1.00  0.00     0.124 S 
ATOM     74  O   UNL A   1      38.481  31.793  40.320  1.00  0.00    -0.237 OA
ATOM     75  O   UNL A   1      37.958  34.186  40.689  1.00  0.00    -0.237 OA
ATOM     76  O   UNL A   1      36.700  32.885  39.013  1.00  0.00    -0.744 OA
ENDBRANCH  69  73
ENDBRANCH  52  66
BRANCH  53  77
ATOM     77  C   UNL A   1      40.903  27.649  27.922  1.00  0.00     0.023 A 
ATOM     78  C   UNL A   1      40.539  26.293  27.882  1.00  0.00     0.031 A 
ATOM     79  C   UNL A   1      41.513  28.197  26.779  1.00  0.00     0.131 A 
ATOM     80  C   UNL A   1      40.873  25.512  26.766  1.00  0.00     0.055 A 
ATOM     81  C   UNL A   1      41.763  27.434  25.637  1.00  0.00     0.041 A 
ATOM     82  F   UNL A   1      41.883  29.487  26.757  1.00  0.00    -0.206 F 
ATOM     83  C   UNL A   1      41.467  26.077  25.636  1.00  0.00     0.022 A 
BRANCH  80  84
ATOM     84  S   UNL A   1      40.676  23.711  26.883  1.00  0.00     0.124 S 
ATOM     85  O   UNL A   1      41.027  23.467  28.277  1.00  0.00    -0.237 OA
ATOM     86  O   UNL A   1      39.270  23.539  26.536  1.00  0.00    -0.237 OA
ATOM     87  O   UNL A   1      41.628  23.202  25.898  1.00  0.00    -0.744 OA
ENDBRANCH  80  84
ENDBRANCH  53  77
BRANCH  65  88
ATOM     88  C   UNL A   1      44.215  27.547  34.046  1.00  0.00     0.023 A 
ATOM     89  C   UNL A   1      45.574  27.875  33.894  1.00  0.00     0.031 A 
ATOM     90  C   UNL A   1      43.898  26.325  34.664  1.00  0.00     0.131 A 
ATOM     91  C   UNL A   1      46.560  26.947  34.258  1.00  0.00     0.055 A 
ATOM     92  C   UNL A   1      44.886  25.447  35.109  1.00  0.00     0.041 A 
ATOM     93  F   UNL A   1      42.618  25.956  34.837  1.00  0.00    -0.206 F 
ATOM     94  C   UNL A   1      46.227  25.744  34.885  1.00  0.00     0.022 A 
BRANCH  91  95
ATOM     95  S   UNL A   1      48.272  27.267  33.749  1.00  0.00     0.124 S 
ATOM     96  O   UNL A   1      48.905  25.975  33.995  1.00  0.00    -0.237 OA
ATOM     97  O   UNL A   1      48.115  27.643  32.348  1.00  0.00    -0.237 OA
ATOM     98  O   UNL A   1      48.697  28.347  34.637  1.00  0.00    -0.744 OA
ENDBRANCH  91  95
ENDBRANCH  65  88
ENDBRANCH  39  40
ENDBRANCH  31  34
ENDBRANCH  29  30
ENDBRANCH  28  29
ENDBRANCH  27  28
ENDBRANCH   1  27
TORSDOF 19
ENDMDL
MODEL 2
REMARK VINA RESULT:     -11.3      2.389      7.817
REMARK SMILES C[C@H]1CCC[C@@](NC(=O)N2CCO[C@H](C#N)C2)(C(=O)NCCCCCCNC(=O)c2ccc(-c3c4nc(c(-c5cc(S(=O)(=O)[O-])ccc5F)c5ccc([nH]5)c(-c5cc(S(=O)(=O)[O-])ccc5F)c5nc(c(-c6cc(S(=O)(=O)[O-])ccc6F)c6ccc3[nH]6)C=C5)C=C4)cc2)C1
REMARK SMILES IDX 23 1 22 2 21 3 20 4 18 5 19 6 6 8 1 9 2 10 3 11 93 12 4 13
REMARK SMILES IDX 5 14 7 15 8 16 9 18 10 19 11 20 17 21 12 22 14 23 13 24
REMARK SMILES IDX 15 25 16 26 24 27 25 28 26 29 27 30 28 31 29 33 30 34 31 35
REMARK SMILES IDX 92 36 32 37 91 38 33 39 34 40 35 41 85 42 36 43 90 44 84 45
REMARK SMILES IDX 86 46 37 47 89 48 83 49 82 50 38 52 70 53 50 54 69 55 51 56
REMARK SMILES IDX 54 57 68 58 87 59 52 60 53 61 67 63 88 64 55 65 39 66 40 67
REMARK SMILES IDX 48 68 41 69 47 70 49 71 46 72 42 73 43 74 44 75 45 76 71 77
REMARK SMILES IDX 72 78 80 79 73 80 79 81 81 82 78 83 74 84 75 85 76 86 77 87
REMARK SMILES IDX 56 88 57 89 65 90 58 91 64 92 66 93 63 94 59 95 60 96 61 97
REMARK SMILES IDX 62 98
REMARK H PARENT 20 7 7 17 27 32 86 51 54 62
REMARK Flexibility Score: inf
ROOT
ATOM      1  C   UNL A   1      32.492  29.474  26.977  1.00  0.00     0.002 C 
ENDROOT
BRANCH   1   2
ATOM      2  C   UNL A   1      31.621  28.227  26.806  1.00  0.00     0.021 C 
BRANCH   2   3
ATOM      3  C   UNL A   1      32.409  27.106  26.157  1.00  0.00     0.116 C 
BRANCH   3   4
ATOM      4  N   UNL A   1      33.411  27.681  25.271  1.00  0.00    -0.354 N 
ATOM      5  C   UNL A   1      33.341  28.038  23.958  1.00  0.00     0.245 C 
ATOM      6  O   UNL A   1      34.341  28.576  23.473  1.00  0.00    -0.272 OA
ATOM      7  H   UNL A   1      34.287  27.839  25.692  1.00  0.00     0.163 HD
BRANCH   5   8
ATOM      8  C   UNL A   1      32.096  27.692  23.109  1.00  0.00     0.121 C 
ATOM      9  C   UNL A   1      28.651  26.144  24.248  1.00  0.00     0.008 C 
ATOM     10  C   UNL A   1      29.621  26.893  23.333  1.00  0.00    -0.011 C 
ATOM     11  C   UNL A   1      29.134  28.335  23.181  1.00  0.00     0.003 C 
ATOM     12  C   UNL A   1      31.069  26.817  23.878  1.00  0.00     0.042 C 
ATOM     13  C   UNL A   1      30.065  29.108  22.277  1.00  0.00     0.003 C 
ATOM     14  C   UNL A   1      31.460  29.102  22.866  1.00  0.00     0.039 C 
BRANCH   8  15
ATOM     15  N   UNL A   1      32.490  27.020  21.847  1.00  0.00    -0.323 N 
ATOM     16  C   UNL A   1      32.880  25.771  21.479  1.00  0.00     0.318 C 
ATOM     17  H   UNL A   1      32.464  27.636  21.080  1.00  0.00     0.166 HD
ATOM     18  O   UNL A   1      33.090  25.603  20.275  1.00  0.00    -0.249 OA
BRANCH  16  19
ATOM     19  N   UNL A   1      33.245  24.822  22.399  1.00  0.00    -0.319 N 
ATOM     20  C   UNL A   1      32.215  23.855  22.818  1.00  0.00     0.150 C 
ATOM     21  C   UNL A   1      34.343  24.926  23.378  1.00  0.00     0.169 C 
ATOM     22  C   UNL A   1      32.855  22.513  23.201  1.00  0.00     0.183 C 
ATOM     23  C   UNL A   1      34.913  23.532  23.732  1.00  0.00     0.240 C 
ATOM     24  O   UNL A   1      33.845  22.684  24.225  1.00  0.00    -0.360 OA
BRANCH  23  25
ATOM     25  C   UNL A   1      35.995  23.624  24.729  1.00  0.00     0.096 C 
ATOM     26  N   UNL A   1      36.859  23.676  25.499  1.00  0.00    -0.195 NA
ENDBRANCH  23  25
ENDBRANCH  16  19
ENDBRANCH   8  15
ENDBRANCH   5   8
ENDBRANCH   3   4
ENDBRANCH   2   3
ENDBRANCH   1   2
BRANCH   1  27
ATOM     27  C   UNL A   1      31.974  30.692  26.200  1.00  0.00     0.002 C 
BRANCH  27  28
ATOM     28  C   UNL A   1      31.762  31.939  27.048  1.00  0.00     0.021 C 
BRANCH  28  29
ATOM     29  C   UNL A   1      33.054  32.664  27.367  1.00  0.00     0.116 C 
BRANCH  29  30
ATOM     30  N   UNL A   1      32.806  34.063  27.679  1.00  0.00    -0.352 N 
ATOM     31  C   UNL A   1      33.269  34.792  28.742  1.00  0.00     0.251 C 
ATOM     32  H   UNL A   1      32.232  34.550  27.044  1.00  0.00     0.163 HD
ATOM     33  O   UNL A   1      32.758  35.872  29.018  1.00  0.00    -0.269 OA
BRANCH  31  34
ATOM     34  C   UNL A   1      34.367  34.233  29.554  1.00  0.00     0.039 A 
ATOM     35  C   UNL A   1      34.055  33.452  30.662  1.00  0.00     0.014 A 
ATOM     36  C   UNL A   1      35.700  34.442  29.181  1.00  0.00     0.014 A 
ATOM     37  C   UNL A   1      35.086  32.838  31.368  1.00  0.00     0.010 A 
ATOM     38  C   UNL A   1      36.712  33.730  29.809  1.00  0.00     0.010 A 
ATOM     39  C   UNL A   1      36.417  32.935  30.922  1.00  0.00    -0.014 A 
BRANCH  39  40
ATOM     40  C   UNL A   1      37.501  32.210  31.630  1.00  0.00     0.031 A 
ATOM     41  C   UNL A   1      38.241  31.094  30.945  1.00  0.00     0.074 A 
ATOM     42  C   UNL A   1      37.814  32.572  32.891  1.00  0.00     0.049 A 
ATOM     43  N   UNL A   1      39.242  30.378  31.388  1.00  0.00    -0.248 NA
ATOM     44  C   UNL A   1      37.787  30.713  29.596  1.00  0.00     0.031 C 
ATOM     45  C   UNL A   1      37.121  33.604  33.669  1.00  0.00     0.029 A 
ATOM     46  N   UNL A   1      38.802  32.133  33.733  1.00  0.00    -0.354 N 
ATOM     47  C   UNL A   1      39.547  29.480  30.371  1.00  0.00     0.074 A 
ATOM     48  C   UNL A   1      38.569  29.678  29.325  1.00  0.00     0.031 C 
ATOM     49  C   UNL A   1      37.749  33.763  34.845  1.00  0.00     0.029 A 
ATOM     50  C   UNL A   1      38.845  32.806  34.933  1.00  0.00     0.049 A 
ATOM     51  H   UNL A   1      39.423  31.405  33.501  1.00  0.00     0.167 HD
ATOM     52  C   UNL A   1      40.572  28.598  30.299  1.00  0.00     0.034 A 
ATOM     53  C   UNL A   1      39.674  32.662  35.986  1.00  0.00     0.034 A 
ATOM     54  C   UNL A   1      41.539  28.414  31.351  1.00  0.00     0.049 A 
ATOM     55  C   UNL A   1      40.774  31.632  35.894  1.00  0.00     0.074 A 
ATOM     56  C   UNL A   1      42.631  27.564  31.375  1.00  0.00     0.029 A 
ATOM     57  N   UNL A   1      41.532  29.086  32.567  1.00  0.00    -0.354 N 
ATOM     58  N   UNL A   1      41.080  30.833  34.896  1.00  0.00    -0.248 NA
ATOM     59  C   UNL A   1      41.650  31.500  37.063  1.00  0.00     0.031 C 
ATOM     60  C   UNL A   1      43.236  27.663  32.631  1.00  0.00     0.029 A 
ATOM     61  C   UNL A   1      42.581  28.644  33.358  1.00  0.00     0.049 A 
ATOM     62  H   UNL A   1      40.879  29.774  32.828  1.00  0.00     0.167 HD
ATOM     63  C   UNL A   1      42.208  30.129  35.311  1.00  0.00     0.074 A 
ATOM     64  C   UNL A   1      42.548  30.633  36.626  1.00  0.00     0.031 C 
ATOM     65  C   UNL A   1      42.899  29.151  34.672  1.00  0.00     0.034 A 
BRANCH  52  66
ATOM     66  C   UNL A   1      40.696  27.767  29.047  1.00  0.00     0.023 A 
ATOM     67  C   UNL A   1      41.597  28.110  28.023  1.00  0.00     0.031 A 
ATOM     68  C   UNL A   1      39.923  26.604  28.881  1.00  0.00     0.131 A 
ATOM     69  C   UNL A   1      41.669  27.328  26.861  1.00  0.00     0.055 A 
ATOM     70  C   UNL A   1      40.056  25.786  27.758  1.00  0.00     0.041 A 
ATOM     71  F   UNL A   1      39.025  26.243  29.811  1.00  0.00    -0.206 F 
ATOM     72  C   UNL A   1      40.927  26.152  26.735  1.00  0.00     0.022 A 
BRANCH  69  73
ATOM     73  S   UNL A   1      42.656  27.936  25.467  1.00  0.00     0.124 S 
ATOM     74  O   UNL A   1      42.712  26.753  24.609  1.00  0.00    -0.237 OA
ATOM     75  O   UNL A   1      41.853  29.047  24.972  1.00  0.00    -0.237 OA
ATOM     76  O   UNL A   1      43.926  28.309  26.085  1.00  0.00    -0.744 OA
ENDBRANCH  69  73
ENDBRANCH  52  66
BRANCH  53  77
ATOM     77  C   UNL A   1      39.501  33.482  37.222  1.00  0.00     0.023 A 
ATOM     78  C   UNL A   1      40.349  34.568  37.495  1.00  0.00     0.031 A 
ATOM     79  C   UNL A   1      38.554  33.128  38.200  1.00  0.00     0.131 A 
ATOM     80  C   UNL A   1      40.298  35.197  38.748  1.00  0.00     0.055 A 
ATOM     81  C   UNL A   1      38.450  33.815  39.411  1.00  0.00     0.041 A 
ATOM     82  F   UNL A   1      37.716  32.100  37.997  1.00  0.00    -0.206 F 
ATOM     83  C   UNL A   1      39.342  34.840  39.701  1.00  0.00     0.022 A 
BRANCH  80  84
ATOM     84  S   UNL A   1      41.612  36.373  39.177  1.00  0.00     0.124 S 
ATOM     85  O   UNL A   1      41.809  36.090  40.594  1.00  0.00    -0.237 OA
ATOM     86  O   UNL A   1      42.690  35.959  38.285  1.00  0.00    -0.237 OA
ATOM     87  O   UNL A   1      41.016  37.672  38.874  1.00  0.00    -0.744 OA
ENDBRANCH  80  84
ENDBRANCH  53  77
BRANCH  65  88
ATOM     88  C   UNL A   1      44.113  28.601  35.382  1.00  0.00     0.023 A 
ATOM     89  C   UNL A   1      44.021  27.499  36.251  1.00  0.00     0.031 A 
ATOM     90  C   UNL A   1      45.367  29.219  35.233  1.00  0.00     0.131 A 
ATOM     91  C   UNL A   1      45.133  27.117  37.013  1.00  0.00     0.055 A 
ATOM     92  C   UNL A   1      46.493  28.773  35.925  1.00  0.00     0.041 A 
ATOM     93  F   UNL A   1      45.518  30.275  34.419  1.00  0.00    -0.206 F 
ATOM     94  C   UNL A   1      46.375  27.732  36.841  1.00  0.00     0.022 A 
BRANCH  91  95
ATOM     95  S   UNL A   1      44.888  25.915  38.350  1.00  0.00     0.124 S 
ATOM     96  O   UNL A   1      44.417  26.766  39.437  1.00  0.00    -0.237 OA
ATOM     97  O   UNL A   1      43.900  25.008  37.776  1.00  0.00    -0.237 OA
ATOM     98  O   UNL A   1      46.219  25.341  38.541  1.00  0.00    -0.744 OA
ENDBRANCH  91  95
ENDBRANCH  65  88
ENDBRANCH  39  40
ENDBRANCH  31  34
ENDBRANCH  29  30
ENDBRANCH  28  29
ENDBRANCH  27  28
ENDBRANCH   1  27
TORSDOF 19
ENDMDL
MODEL 3
REMARK VINA RESULT:     -11.1      1.487      7.520
REMARK SMILES C[C@H]1CCC[C@@](NC(=O)N2CCO[C@H](C#N)C2)(C(=O)NCCCCCCNC(=O)c2ccc(-c3c4nc(c(-c5cc(S(=O)(=O)[O-])ccc5F)c5ccc([nH]5)c(-c5cc(S(=O)(=O)[O-])ccc5F)c5nc(c(-c6cc(S(=O)(=O)[O-])ccc6F)c6ccc3[nH]6)C=C5)C=C4)cc2)C1
REMARK SMILES IDX 23 1 22 2 21 3 20 4 18 5 19 6 6 8 1 9 2 10 3 11 93 12 4 13
REMARK SMILES IDX 5 14 7 15 8 16 9 18 10 19 11 20 17 21 12 22 14 23 13 24
REMARK SMILES IDX 15 25 16 26 24 27 25 28 26 29 27 30 28 31 29 33 30 34 31 35
REMARK SMILES IDX 92 36 32 37 91 38 33 39 34 40 35 41 85 42 36 43 90 44 84 45
REMARK SMILES IDX 86 46 37 47 89 48 83 49 82 50 38 52 70 53 50 54 69 55 51 56
REMARK SMILES IDX 54 57 68 58 87 59 52 60 53 61 67 63 88 64 55 65 39 66 40 67
REMARK SMILES IDX 48 68 41 69 47 70 49 71 46 72 42 73 43 74 44 75 45 76 71 77
REMARK SMILES IDX 72 78 80 79 73 80 79 81 81 82 78 83 74 84 75 85 76 86 77 87
REMARK SMILES IDX 56 88 57 89 65 90 58 91 64 92 66 93 63 94 59 95 60 96 61 97
REMARK SMILES IDX 62 98
REMARK H PARENT 20 7 7 17 27 32 86 51 54 62
REMARK Flexibility Score: inf
ROOT
ATOM      1  C   UNL A   1      32.645  29.365  26.812  1.00  0.00     0.002 C 
ENDROOT
BRANCH   1   2
ATOM      2  C   UNL A   1      31.875  28.042  26.809  1.00  0.00     0.021 C 
BRANCH   2   3
ATOM      3  C   UNL A   1      32.653  26.967  26.076  1.00  0.00     0.116 C 
BRANCH   3   4
ATOM      4  N   UNL A   1      33.616  27.602  25.186  1.00  0.00    -0.354 N 
ATOM      5  C   UNL A   1      33.497  28.013  23.892  1.00  0.00     0.245 C 
ATOM      6  O   UNL A   1      34.470  28.594  23.401  1.00  0.00    -0.272 OA
ATOM      7  H   UNL A   1      34.500  27.763  25.587  1.00  0.00     0.163 HD
BRANCH   5   8
ATOM      8  C   UNL A   1      32.235  27.674  23.066  1.00  0.00     0.121 C 
ATOM      9  C   UNL A   1      28.688  26.474  24.308  1.00  0.00     0.008 C 
ATOM     10  C   UNL A   1      29.710  27.067  23.338  1.00  0.00    -0.011 C 
ATOM     11  C   UNL A   1      29.323  28.519  23.048  1.00  0.00     0.003 C 
ATOM     12  C   UNL A   1      31.147  26.945  23.902  1.00  0.00     0.042 C 
ATOM     13  C   UNL A   1      30.308  29.141  22.087  1.00  0.00     0.003 C 
ATOM     14  C   UNL A   1      31.697  29.095  22.687  1.00  0.00     0.039 C 
BRANCH   8  15
ATOM     15  N   UNL A   1      32.587  26.862  21.875  1.00  0.00    -0.323 N 
ATOM     16  C   UNL A   1      32.855  25.555  21.623  1.00  0.00     0.318 C 
ATOM     17  H   UNL A   1      32.641  27.411  21.060  1.00  0.00     0.166 HD
ATOM     18  O   UNL A   1      33.075  25.267  20.443  1.00  0.00    -0.249 OA
BRANCH  16  19
ATOM     19  N   UNL A   1      33.101  24.654  22.627  1.00  0.00    -0.319 N 
ATOM     20  C   UNL A   1      34.492  24.204  22.807  1.00  0.00     0.150 C 
ATOM     21  C   UNL A   1      32.130  23.714  23.217  1.00  0.00     0.169 C 
ATOM     22  C   UNL A   1      34.762  23.851  24.276  1.00  0.00     0.183 C 
ATOM     23  C   UNL A   1      32.488  23.388  24.687  1.00  0.00     0.240 C 
ATOM     24  O   UNL A   1      33.838  22.863  24.750  1.00  0.00    -0.360 OA
BRANCH  23  25
ATOM     25  C   UNL A   1      31.537  22.430  25.279  1.00  0.00     0.096 C 
ATOM     26  N   UNL A   1      30.804  21.656  25.733  1.00  0.00    -0.195 NA
ENDBRANCH  23  25
ENDBRANCH  16  19
ENDBRANCH   8  15
ENDBRANCH   5   8
ENDBRANCH   3   4
ENDBRANCH   2   3
ENDBRANCH   1   2
BRANCH   1  27
ATOM     27  C   UNL A   1      31.868  30.525  26.176  1.00  0.00     0.002 C 
BRANCH  27  28
ATOM     28  C   UNL A   1      31.688  31.736  27.082  1.00  0.00     0.021 C 
BRANCH  28  29
ATOM     29  C   UNL A   1      32.987  32.465  27.360  1.00  0.00     0.116 C 
BRANCH  29  30
ATOM     30  N   UNL A   1      32.750  33.876  27.623  1.00  0.00    -0.352 N 
ATOM     31  C   UNL A   1      33.234  34.642  28.650  1.00  0.00     0.251 C 
ATOM     32  H   UNL A   1      32.169  34.341  26.979  1.00  0.00     0.163 HD
ATOM     33  O   UNL A   1      32.732  35.733  28.894  1.00  0.00    -0.269 OA
BRANCH  31  34
ATOM     34  C   UNL A   1      34.342  34.109  29.465  1.00  0.00     0.039 A 
ATOM     35  C   UNL A   1      34.050  33.239  30.512  1.00  0.00     0.014 A 
ATOM     36  C   UNL A   1      35.667  34.431  29.154  1.00  0.00     0.014 A 
ATOM     37  C   UNL A   1      35.099  32.653  31.215  1.00  0.00     0.010 A 
ATOM     38  C   UNL A   1      36.707  33.751  29.772  1.00  0.00     0.010 A 
ATOM     39  C   UNL A   1      36.434  32.868  30.823  1.00  0.00    -0.014 A 
BRANCH  39  40
ATOM     40  C   UNL A   1      37.543  32.175  31.524  1.00  0.00     0.031 A 
ATOM     41  C   UNL A   1      38.267  31.037  30.858  1.00  0.00     0.074 A 
ATOM     42  C   UNL A   1      37.893  32.586  32.759  1.00  0.00     0.049 A 
ATOM     43  N   UNL A   1      39.285  30.343  31.297  1.00  0.00    -0.248 NA
ATOM     44  C   UNL A   1      37.773  30.603  29.540  1.00  0.00     0.031 C 
ATOM     45  C   UNL A   1      37.220  33.644  33.520  1.00  0.00     0.029 A 
ATOM     46  N   UNL A   1      38.910  32.184  33.586  1.00  0.00    -0.354 N 
ATOM     47  C   UNL A   1      39.563  29.408  30.305  1.00  0.00     0.074 A 
ATOM     48  C   UNL A   1      38.551  29.562  29.284  1.00  0.00     0.031 C 
ATOM     49  C   UNL A   1      37.883  33.850  34.668  1.00  0.00     0.029 A 
ATOM     50  C   UNL A   1      38.987  32.902  34.758  1.00  0.00     0.049 A 
ATOM     51  H   UNL A   1      39.527  31.450  33.362  1.00  0.00     0.167 HD
ATOM     52  C   UNL A   1      40.590  28.528  30.235  1.00  0.00     0.034 A 
ATOM     53  C   UNL A   1      39.849  32.801  35.789  1.00  0.00     0.034 A 
ATOM     54  C   UNL A   1      41.591  28.388  31.261  1.00  0.00     0.049 A 
ATOM     55  C   UNL A   1      40.951  31.773  35.702  1.00  0.00     0.074 A 
ATOM     56  C   UNL A   1      42.687  27.544  31.284  1.00  0.00     0.029 A 
ATOM     57  N   UNL A   1      41.618  29.105  32.451  1.00  0.00    -0.354 N 
ATOM     58  N   UNL A   1      41.230  30.938  34.726  1.00  0.00    -0.248 NA
ATOM     59  C   UNL A   1      41.864  31.689  36.847  1.00  0.00     0.031 C 
ATOM     60  C   UNL A   1      43.330  27.693  32.515  1.00  0.00     0.029 A 
ATOM     61  C   UNL A   1      42.694  28.699  33.226  1.00  0.00     0.049 A 
ATOM     62  H   UNL A   1      40.970  29.800  32.706  1.00  0.00     0.167 HD
ATOM     63  C   UNL A   1      42.374  30.255  35.131  1.00  0.00     0.074 A 
ATOM     64  C   UNL A   1      42.752  30.810  36.415  1.00  0.00     0.031 C 
ATOM     65  C   UNL A   1      43.049  29.256  34.508  1.00  0.00     0.034 A 
BRANCH  52  66
ATOM     66  C   UNL A   1      40.680  27.650  29.012  1.00  0.00     0.023 A 
ATOM     67  C   UNL A   1      41.632  27.887  28.005  1.00  0.00     0.031 A 
ATOM     68  C   UNL A   1      39.819  26.549  28.857  1.00  0.00     0.131 A 
ATOM     69  C   UNL A   1      41.671  27.066  26.869  1.00  0.00     0.055 A 
ATOM     70  C   UNL A   1      39.915  25.688  27.763  1.00  0.00     0.041 A 
ATOM     71  F   UNL A   1      38.870  26.291  29.771  1.00  0.00    -0.206 F 
ATOM     72  C   UNL A   1      40.840  25.949  26.756  1.00  0.00     0.022 A 
BRANCH  69  73
ATOM     73  S   UNL A   1      42.741  27.548  25.486  1.00  0.00     0.124 S 
ATOM     74  O   UNL A   1      42.832  26.297  24.736  1.00  0.00    -0.237 OA
ATOM     75  O   UNL A   1      41.979  28.618  24.855  1.00  0.00    -0.237 OA
ATOM     76  O   UNL A   1      43.979  27.964  26.142  1.00  0.00    -0.744 OA
ENDBRANCH  69  73
ENDBRANCH  52  66
BRANCH  53  77
ATOM     77  C   UNL A   1      39.710  33.666  36.998  1.00  0.00     0.023 A 
ATOM     78  C   UNL A   1      39.131  33.173  38.179  1.00  0.00     0.031 A 
ATOM     79  C   UNL A   1      40.057  35.029  36.959  1.00  0.00     0.131 A 
ATOM     80  C   UNL A   1      38.830  34.052  39.231  1.00  0.00     0.055 A 
ATOM     81  C   UNL A   1      39.834  35.881  38.043  1.00  0.00     0.041 A 
ATOM     82  F   UNL A   1      40.613  35.559  35.858  1.00  0.00    -0.206 F 
ATOM     83  C   UNL A   1      39.193  35.399  39.178  1.00  0.00     0.022 A 
BRANCH  80  84
ATOM     84  S   UNL A   1      37.801  33.443  40.596  1.00  0.00     0.124 S 
ATOM     85  O   UNL A   1      37.656  34.641  41.413  1.00  0.00    -0.237 OA
ATOM     86  O   UNL A   1      36.603  32.995  39.894  1.00  0.00    -0.237 OA
ATOM     87  O   UNL A   1      38.613  32.379  41.183  1.00  0.00    -0.744 OA
ENDBRANCH  80  84
ENDBRANCH  53  77
BRANCH  65  88
ATOM     88  C   UNL A   1      44.289  28.738  35.200  1.00  0.00     0.023 A 
ATOM     89  C   UNL A   1      45.557  29.290  34.945  1.00  0.00     0.031 A 
ATOM     90  C   UNL A   1      44.210  27.646  36.081  1.00  0.00     0.131 A 
ATOM     91  C   UNL A   1      46.701  28.683  35.481  1.00  0.00     0.055 A 
ATOM     92  C   UNL A   1      45.345  27.105  36.685  1.00  0.00     0.041 A 
ATOM     93  F   UNL A   1      43.028  27.076  36.362  1.00  0.00    -0.206 F 
ATOM     94  C   UNL A   1      46.604  27.608  36.367  1.00  0.00     0.022 A 
BRANCH  91  95
ATOM     95  S   UNL A   1      48.324  29.218  34.872  1.00  0.00     0.124 S 
ATOM     96  O   UNL A   1      48.815  28.008  34.222  1.00  0.00    -0.237 OA
ATOM     97  O   UNL A   1      47.974  30.322  33.984  1.00  0.00    -0.237 OA
ATOM     98  O   UNL A   1      49.036  29.603  36.089  1.00  0.00    -0.744 OA
ENDBRANCH  91  95
ENDBRANCH  65  88
ENDBRANCH  39  40
ENDBRANCH  31  34
ENDBRANCH  29  30
ENDBRANCH  28  29
ENDBRANCH  27  28
ENDBRANCH   1  27
TORSDOF 19
ENDMDL
