MODEL 1
REMARK VINA RESULT:     -12.2      0.000      0.000
REMARK SMILES C[C@@H]1Cc2ccccc2N1S(=O)(=O)c1c[nH]c(C(=O)NCCCCCCNC(=O)c2ccc(-c3c4nc(c(-c5cc(S(=O)(=O)[O-])ccc5F)c5ccc([nH]5)c(-c5cc(S(=O)(=O)[O-])ccc5F)c5nc(c(-c6cc(S(=O)(=O)[O-])ccc6F)c6ccc3[nH]6)C=C5)C=C4)cc2)c1
REMARK SMILES IDX 24 1 23 2 22 3 21 4 20 5 18 6 19 7 17 9 14 10 15 11 93 12
REMARK SMILES IDX 16 13 11 15 12 16 13 17 10 18 1 19 2 20 3 21 4 22 9 23 5 24
REMARK SMILES IDX 8 25 6 26 7 27 25 28 26 29 27 30 28 31 29 33 30 34 31 35
REMARK SMILES IDX 92 36 32 37 91 38 33 39 34 40 35 41 85 42 36 43 90 44 84 45
REMARK SMILES IDX 86 46 37 47 89 48 83 49 82 50 38 52 70 53 50 54 69 55 51 56
REMARK SMILES IDX 54 57 68 58 87 59 52 60 53 61 67 63 88 64 55 65 39 66 40 67
REMARK SMILES IDX 48 68 41 69 47 70 49 71 46 72 42 73 43 74 44 75 45 76 71 77
REMARK SMILES IDX 72 78 80 79 73 80 79 81 81 82 78 83 74 84 75 85 76 86 77 87
REMARK SMILES IDX 56 88 57 89 65 90 58 91 64 92 66 93 63 94 59 95 60 96 61 97
REMARK SMILES IDX 62 98
REMARK H PARENT 20 8 16 14 27 32 86 51 54 62
REMARK Flexibility Score: inf
ROOT
ATOM      1  C   UNL A   1      35.325  22.626  24.010  1.00  0.00     0.002 C 
ENDROOT
BRANCH   1   2
ATOM      2  C   UNL A   1      35.056  21.464  24.975  1.00  0.00     0.002 C 
BRANCH   2   3
ATOM      3  C   UNL A   1      33.687  21.500  25.670  1.00  0.00     0.021 C 
BRANCH   3   4
ATOM      4  C   UNL A   1      33.541  22.655  26.661  1.00  0.00     0.116 C 
BRANCH   4   5
ATOM      5  N   UNL A   1      32.201  22.682  27.208  1.00  0.00    -0.351 N 
ATOM      6  C   UNL A   1      31.073  23.356  26.843  1.00  0.00     0.267 C 
ATOM      7  O   UNL A   1      30.050  23.107  27.486  1.00  0.00    -0.268 OA
ATOM      8  H   UNL A   1      32.080  22.104  27.995  1.00  0.00     0.163 HD
BRANCH   6   9
ATOM      9  C   UNL A   1      31.033  24.308  25.751  1.00  0.00     0.105 A 
ATOM     10  C   UNL A   1      31.280  25.807  24.053  1.00  0.00     0.106 A 
ATOM     11  C   UNL A   1      29.963  25.832  24.459  1.00  0.00     0.105 A 
ATOM     12  C   UNL A   1      31.952  24.840  24.855  1.00  0.00     0.055 A 
ATOM     13  N   UNL A   1      29.829  24.938  25.478  1.00  0.00    -0.356 N 
ATOM     14  H   UNL A   1      28.988  24.765  25.958  1.00  0.00     0.166 HD
BRANCH  10  15
ATOM     15  S   UNL A   1      31.993  26.822  22.847  1.00  0.00     0.266 S 
ATOM     16  O   UNL A   1      31.080  26.712  21.718  1.00  0.00    -0.201 OA
ATOM     17  O   UNL A   1      33.348  26.366  22.754  1.00  0.00    -0.201 OA
BRANCH  15  18
ATOM     18  N   UNL A   1      32.022  28.467  23.339  1.00  0.00    -0.263 N 
ATOM     19  C   UNL A   1      30.452  29.844  21.971  1.00  0.00     0.032 C 
ATOM     20  C   UNL A   1      30.636  29.092  23.280  1.00  0.00     0.101 C 
ATOM     21  C   UNL A   1      30.513  30.014  24.512  1.00  0.00     0.063 C 
ATOM     22  C   UNL A   1      31.716  29.659  25.321  1.00  0.00    -0.021 A 
ATOM     23  C   UNL A   1      32.557  28.794  24.630  1.00  0.00     0.055 A 
ATOM     24  C   UNL A   1      32.058  30.155  26.572  1.00  0.00     0.006 A 
ATOM     25  C   UNL A   1      33.813  28.502  25.137  1.00  0.00     0.027 A 
ATOM     26  C   UNL A   1      33.291  29.797  27.119  1.00  0.00     0.000 A 
ATOM     27  C   UNL A   1      34.171  28.985  26.397  1.00  0.00     0.002 A 
ENDBRANCH  15  18
ENDBRANCH  10  15
ENDBRANCH   6   9
ENDBRANCH   4   5
ENDBRANCH   3   4
ENDBRANCH   2   3
ENDBRANCH   1   2
BRANCH   1  28
ATOM     28  C   UNL A   1      36.411  23.606  24.459  1.00  0.00     0.021 C 
BRANCH  28  29
ATOM     29  C   UNL A   1      36.986  23.309  25.845  1.00  0.00     0.116 C 
BRANCH  29  30
ATOM     30  N   UNL A   1      38.306  22.708  25.834  1.00  0.00    -0.352 N 
ATOM     31  C   UNL A   1      39.517  23.079  26.367  1.00  0.00     0.251 C 
ATOM     32  H   UNL A   1      38.342  21.855  25.342  1.00  0.00     0.163 HD
ATOM     33  O   UNL A   1      40.463  22.310  26.183  1.00  0.00    -0.269 OA
BRANCH  31  34
ATOM     34  C   UNL A   1      39.744  24.369  27.075  1.00  0.00     0.039 A 
ATOM     35  C   UNL A   1      39.284  24.630  28.367  1.00  0.00     0.014 A 
ATOM     36  C   UNL A   1      40.476  25.364  26.403  1.00  0.00     0.014 A 
ATOM     37  C   UNL A   1      39.440  25.888  28.930  1.00  0.00     0.010 A 
ATOM     38  C   UNL A   1      40.684  26.617  26.986  1.00  0.00     0.010 A 
ATOM     39  C   UNL A   1      40.141  26.884  28.244  1.00  0.00    -0.014 A 
BRANCH  39  40
ATOM     40  C   UNL A   1      40.391  28.139  28.988  1.00  0.00     0.031 A 
ATOM     41  C   UNL A   1      41.549  27.987  29.977  1.00  0.00     0.074 A 
ATOM     42  C   UNL A   1      39.492  29.152  28.824  1.00  0.00     0.049 A 
ATOM     43  N   UNL A   1      41.643  28.411  31.203  1.00  0.00    -0.248 NA
ATOM     44  C   UNL A   1      42.694  27.115  29.618  1.00  0.00     0.031 C 
ATOM     45  C   UNL A   1      38.402  29.154  27.826  1.00  0.00     0.029 A 
ATOM     46  N   UNL A   1      39.279  30.357  29.467  1.00  0.00    -0.354 N 
ATOM     47  C   UNL A   1      42.901  27.994  31.702  1.00  0.00     0.074 A 
ATOM     48  C   UNL A   1      43.450  27.108  30.718  1.00  0.00     0.031 C 
ATOM     49  C   UNL A   1      37.609  30.234  27.983  1.00  0.00     0.029 A 
ATOM     50  C   UNL A   1      38.115  31.050  29.071  1.00  0.00     0.049 A 
ATOM     51  H   UNL A   1      39.896  30.706  30.150  1.00  0.00     0.167 HD
ATOM     52  C   UNL A   1      43.458  28.508  32.841  1.00  0.00     0.034 A 
ATOM     53  C   UNL A   1      37.548  32.172  29.612  1.00  0.00     0.034 A 
ATOM     54  C   UNL A   1      42.597  29.509  33.376  1.00  0.00     0.049 A 
ATOM     55  C   UNL A   1      38.452  32.645  30.681  1.00  0.00     0.074 A 
ATOM     56  C   UNL A   1      41.420  29.484  34.079  1.00  0.00     0.029 A 
ATOM     57  N   UNL A   1      42.813  30.781  32.910  1.00  0.00    -0.354 N 
ATOM     58  N   UNL A   1      39.622  33.186  30.496  1.00  0.00    -0.248 NA
ATOM     59  C   UNL A   1      38.080  32.401  32.083  1.00  0.00     0.031 C 
ATOM     60  C   UNL A   1      40.751  30.660  33.672  1.00  0.00     0.029 A 
ATOM     61  C   UNL A   1      41.589  31.391  32.822  1.00  0.00     0.049 A 
ATOM     62  H   UNL A   1      43.683  31.180  32.681  1.00  0.00     0.167 HD
ATOM     63  C   UNL A   1      40.219  33.018  31.725  1.00  0.00     0.074 A 
ATOM     64  C   UNL A   1      39.155  32.889  32.691  1.00  0.00     0.031 C 
ATOM     65  C   UNL A   1      41.430  32.407  31.808  1.00  0.00     0.034 A 
BRANCH  52  66
ATOM     66  C   UNL A   1      44.844  28.405  33.443  1.00  0.00     0.023 A 
ATOM     67  C   UNL A   1      45.182  27.625  34.558  1.00  0.00     0.031 A 
ATOM     68  C   UNL A   1      45.935  28.959  32.713  1.00  0.00     0.131 A 
ATOM     69  C   UNL A   1      46.539  27.381  34.864  1.00  0.00     0.055 A 
ATOM     70  C   UNL A   1      47.270  28.656  32.978  1.00  0.00     0.041 A 
ATOM     71  F   UNL A   1      45.735  29.796  31.679  1.00  0.00    -0.206 F 
ATOM     72  C   UNL A   1      47.577  27.851  34.056  1.00  0.00     0.022 A 
BRANCH  69  73
ATOM     73  S   UNL A   1      47.031  26.473  36.356  1.00  0.00     0.124 S 
ATOM     74  O   UNL A   1      48.288  25.860  35.941  1.00  0.00    -0.237 OA
ATOM     75  O   UNL A   1      47.164  27.554  37.334  1.00  0.00    -0.237 OA
ATOM     76  O   UNL A   1      45.914  25.569  36.595  1.00  0.00    -0.744 OA
ENDBRANCH  69  73
ENDBRANCH  52  66
BRANCH  53  77
ATOM     77  C   UNL A   1      36.223  32.876  29.447  1.00  0.00     0.023 A 
ATOM     78  C   UNL A   1      35.787  33.754  30.471  1.00  0.00     0.031 A 
ATOM     79  C   UNL A   1      35.344  32.765  28.365  1.00  0.00     0.131 A 
ATOM     80  C   UNL A   1      34.521  34.351  30.493  1.00  0.00     0.055 A 
ATOM     81  C   UNL A   1      34.090  33.416  28.345  1.00  0.00     0.041 A 
ATOM     82  F   UNL A   1      35.669  32.055  27.276  1.00  0.00    -0.206 F 
ATOM     83  C   UNL A   1      33.661  34.195  29.421  1.00  0.00     0.022 A 
BRANCH  80  84
ATOM     84  S   UNL A   1      34.002  35.292  31.961  1.00  0.00     0.124 S 
ATOM     85  O   UNL A   1      35.255  35.479  32.687  1.00  0.00    -0.237 OA
ATOM     86  O   UNL A   1      33.440  36.494  31.352  1.00  0.00    -0.237 OA
ATOM     87  O   UNL A   1      33.033  34.413  32.609  1.00  0.00    -0.744 OA
ENDBRANCH  80  84
ENDBRANCH  53  77
BRANCH  65  88
ATOM     88  C   UNL A   1      42.330  32.573  30.600  1.00  0.00     0.023 A 
ATOM     89  C   UNL A   1      42.640  31.532  29.695  1.00  0.00     0.031 A 
ATOM     90  C   UNL A   1      42.865  33.843  30.330  1.00  0.00     0.131 A 
ATOM     91  C   UNL A   1      43.457  31.777  28.574  1.00  0.00     0.055 A 
ATOM     92  C   UNL A   1      43.672  34.086  29.215  1.00  0.00     0.041 A 
ATOM     93  F   UNL A   1      42.622  34.871  31.159  1.00  0.00    -0.206 F 
ATOM     94  C   UNL A   1      43.971  33.054  28.334  1.00  0.00     0.022 A 
BRANCH  91  95
ATOM     95  S   UNL A   1      43.848  30.485  27.349  1.00  0.00     0.124 S 
ATOM     96  O   UNL A   1      44.362  31.254  26.215  1.00  0.00    -0.237 OA
ATOM     97  O   UNL A   1      44.844  29.692  28.059  1.00  0.00    -0.237 OA
ATOM     98  O   UNL A   1      42.574  29.822  27.096  1.00  0.00    -0.744 OA
ENDBRANCH  91  95
ENDBRANCH  65  88
ENDBRANCH  39  40
ENDBRANCH  31  34
ENDBRANCH  29  30
ENDBRANCH  28  29
ENDBRANCH   1  28
TORSDOF 18
ENDMDL
MODEL 2
REMARK VINA RESULT:     -11.7      3.219      8.520
REMARK SMILES C[C@@H]1Cc2ccccc2N1S(=O)(=O)c1c[nH]c(C(=O)NCCCCCCNC(=O)c2ccc(-c3c4nc(c(-c5cc(S(=O)(=O)[O-])ccc5F)c5ccc([nH]5)c(-c5cc(S(=O)(=O)[O-])ccc5F)c5nc(c(-c6cc(S(=O)(=O)[O-])ccc6F)c6ccc3[nH]6)C=C5)C=C4)cc2)c1
REMARK SMILES IDX 24 1 23 2 22 3 21 4 20 5 18 6 19 7 17 9 14 10 15 11 93 12
REMARK SMILES IDX 16 13 11 15 12 16 13 17 10 18 1 19 2 20 3 21 4 22 9 23 5 24
REMARK SMILES IDX 8 25 6 26 7 27 25 28 26 29 27 30 28 31 29 33 30 34 31 35
REMARK SMILES IDX 92 36 32 37 91 38 33 39 34 40 35 41 85 42 36 43 90 44 84 45
REMARK SMILES IDX 86 46 37 47 89 48 83 49 82 50 38 52 70 53 50 54 69 55 51 56
REMARK SMILES IDX 54 57 68 58 87 59 52 60 53 61 67 63 88 64 55 65 39 66 40 67
REMARK SMILES IDX 48 68 41 69 47 70 49 71 46 72 42 73 43 74 44 75 45 76 71 77
REMARK SMILES IDX 72 78 80 79 73 80 79 81 81 82 78 83 74 84 75 85 76 86 77 87
REMARK SMILES IDX 56 88 57 89 65 90 58 91 64 92 66 93 63 94 59 95 60 96 61 97
REMARK SMILES IDX 62 98
REMARK H PARENT 20 8 16 14 27 32 86 51 54 62
REMARK Flexibility Score: inf
ROOT
ATOM      1  C   UNL A   1      35.915  32.357  28.158  1.00  0.00     0.002 C 
ENDROOT
BRANCH   1   2
ATOM      2  C   UNL A   1      36.010  30.892  28.602  1.00  0.00     0.002 C 
BRANCH   2   3
ATOM      3  C   UNL A   1      36.214  29.880  27.465  1.00  0.00     0.021 C 
BRANCH   3   4
ATOM      4  C   UNL A   1      34.903  29.366  26.869  1.00  0.00     0.116 C 
BRANCH   4   5
ATOM      5  N   UNL A   1      33.894  30.404  26.903  1.00  0.00    -0.351 N 
ATOM      6  C   UNL A   1      32.589  30.432  26.509  1.00  0.00     0.267 C 
ATOM      7  O   UNL A   1      31.965  31.471  26.739  1.00  0.00    -0.268 OA
ATOM      8  H   UNL A   1      34.212  31.255  27.284  1.00  0.00     0.163 HD
BRANCH   6   9
ATOM      9  C   UNL A   1      31.928  29.313  25.868  1.00  0.00     0.105 A 
ATOM     10  C   UNL A   1      31.007  27.380  25.090  1.00  0.00     0.106 A 
ATOM     11  C   UNL A   1      30.955  28.317  24.080  1.00  0.00     0.105 A 
ATOM     12  C   UNL A   1      31.607  28.008  26.220  1.00  0.00     0.055 A 
ATOM     13  N   UNL A   1      31.515  29.464  24.554  1.00  0.00    -0.356 N 
ATOM     14  H   UNL A   1      31.614  30.292  24.031  1.00  0.00     0.166 HD
BRANCH  10  15
ATOM     15  S   UNL A   1      30.507  25.728  24.972  1.00  0.00     0.266 S 
ATOM     16  O   UNL A   1      29.627  25.714  23.813  1.00  0.00    -0.201 OA
ATOM     17  O   UNL A   1      30.016  25.411  26.281  1.00  0.00    -0.201 OA
BRANCH  15  18
ATOM     18  N   UNL A   1      31.831  24.687  24.638  1.00  0.00    -0.263 N 
ATOM     19  C   UNL A   1      32.816  25.173  22.397  1.00  0.00     0.032 C 
ATOM     20  C   UNL A   1      32.939  25.415  23.893  1.00  0.00     0.101 C 
ATOM     21  C   UNL A   1      34.275  24.894  24.466  1.00  0.00     0.063 C 
ATOM     22  C   UNL A   1      33.846  24.111  25.662  1.00  0.00    -0.021 A 
ATOM     23  C   UNL A   1      32.462  23.998  25.728  1.00  0.00     0.055 A 
ATOM     24  C   UNL A   1      34.669  23.476  26.584  1.00  0.00     0.006 A 
ATOM     25  C   UNL A   1      31.883  23.151  26.658  1.00  0.00     0.027 A 
ATOM     26  C   UNL A   1      34.080  22.684  27.570  1.00  0.00     0.000 A 
ATOM     27  C   UNL A   1      32.693  22.511  27.598  1.00  0.00     0.002 A 
ENDBRANCH  15  18
ENDBRANCH  10  15
ENDBRANCH   6   9
ENDBRANCH   4   5
ENDBRANCH   3   4
ENDBRANCH   2   3
ENDBRANCH   1   2
BRANCH   1  28
ATOM     28  C   UNL A   1      35.113  33.269  29.089  1.00  0.00     0.021 C 
BRANCH  28  29
ATOM     29  C   UNL A   1      34.768  32.636  30.438  1.00  0.00     0.116 C 
BRANCH  29  30
ATOM     30  N   UNL A   1      35.378  33.285  31.582  1.00  0.00    -0.352 N 
ATOM     31  C   UNL A   1      36.634  33.235  32.138  1.00  0.00     0.251 C 
ATOM     32  H   UNL A   1      34.764  33.887  32.063  1.00  0.00     0.163 HD
ATOM     33  O   UNL A   1      36.833  33.945  33.126  1.00  0.00    -0.269 OA
BRANCH  31  34
ATOM     34  C   UNL A   1      37.713  32.333  31.651  1.00  0.00     0.039 A 
ATOM     35  C   UNL A   1      38.483  32.593  30.517  1.00  0.00     0.014 A 
ATOM     36  C   UNL A   1      37.973  31.166  32.393  1.00  0.00     0.014 A 
ATOM     37  C   UNL A   1      39.402  31.660  30.059  1.00  0.00     0.010 A 
ATOM     38  C   UNL A   1      38.937  30.247  31.968  1.00  0.00     0.010 A 
ATOM     39  C   UNL A   1      39.634  30.486  30.783  1.00  0.00    -0.014 A 
BRANCH  39  40
ATOM     40  C   UNL A   1      40.742  29.630  30.304  1.00  0.00     0.031 A 
ATOM     41  C   UNL A   1      42.057  30.408  30.210  1.00  0.00     0.074 A 
ATOM     42  C   UNL A   1      40.420  28.377  29.868  1.00  0.00     0.049 A 
ATOM     43  N   UNL A   1      42.960  30.385  29.275  1.00  0.00    -0.248 NA
ATOM     44  C   UNL A   1      42.338  31.470  31.208  1.00  0.00     0.031 C 
ATOM     45  C   UNL A   1      39.087  27.756  30.014  1.00  0.00     0.029 A 
ATOM     46  N   UNL A   1      41.113  27.391  29.194  1.00  0.00    -0.354 N 
ATOM     47  C   UNL A   1      43.974  31.303  29.641  1.00  0.00     0.074 A 
ATOM     48  C   UNL A   1      43.479  32.016  30.781  1.00  0.00     0.031 C 
ATOM     49  C   UNL A   1      39.043  26.563  29.383  1.00  0.00     0.029 A 
ATOM     50  C   UNL A   1      40.338  26.280  28.793  1.00  0.00     0.049 A 
ATOM     51  H   UNL A   1      42.078  27.456  29.007  1.00  0.00     0.167 HD
ATOM     52  C   UNL A   1      45.208  31.324  29.050  1.00  0.00     0.034 A 
ATOM     53  C   UNL A   1      40.683  25.227  27.991  1.00  0.00     0.034 A 
ATOM     54  C   UNL A   1      45.282  30.285  28.078  1.00  0.00     0.049 A 
ATOM     55  C   UNL A   1      42.116  25.378  27.664  1.00  0.00     0.074 A 
ATOM     56  C   UNL A   1      44.786  30.121  26.811  1.00  0.00     0.029 A 
ATOM     57  N   UNL A   1      45.725  29.074  28.546  1.00  0.00    -0.354 N 
ATOM     58  N   UNL A   1      43.102  25.212  28.499  1.00  0.00    -0.248 NA
ATOM     59  C   UNL A   1      42.491  25.860  26.327  1.00  0.00     0.031 C 
ATOM     60  C   UNL A   1      44.570  28.729  26.704  1.00  0.00     0.029 A 
ATOM     61  C   UNL A   1      45.036  28.103  27.866  1.00  0.00     0.049 A 
ATOM     62  H   UNL A   1      46.408  28.929  29.240  1.00  0.00     0.167 HD
ATOM     63  C   UNL A   1      44.127  25.890  27.879  1.00  0.00     0.074 A 
ATOM     64  C   UNL A   1      43.810  25.927  26.472  1.00  0.00     0.031 C 
ATOM     65  C   UNL A   1      44.803  26.855  28.555  1.00  0.00     0.034 A 
BRANCH  52  66
ATOM     66  C   UNL A   1      46.503  32.026  29.401  1.00  0.00     0.023 A 
ATOM     67  C   UNL A   1      47.034  33.129  28.716  1.00  0.00     0.031 A 
ATOM     68  C   UNL A   1      47.129  31.697  30.638  1.00  0.00     0.131 A 
ATOM     69  C   UNL A   1      48.089  33.874  29.288  1.00  0.00     0.055 A 
ATOM     70  C   UNL A   1      48.121  32.479  31.230  1.00  0.00     0.041 A 
ATOM     71  F   UNL A   1      46.767  30.609  31.342  1.00  0.00    -0.206 F 
ATOM     72  C   UNL A   1      48.599  33.584  30.555  1.00  0.00     0.022 A 
BRANCH  69  73
ATOM     73  S   UNL A   1      48.885  35.238  28.395  1.00  0.00     0.124 S 
ATOM     74  O   UNL A   1      50.153  35.370  29.103  1.00  0.00    -0.237 OA
ATOM     75  O   UNL A   1      48.986  34.691  27.041  1.00  0.00    -0.237 OA
ATOM     76  O   UNL A   1      47.943  36.341  28.537  1.00  0.00    -0.744 OA
ENDBRANCH  69  73
ENDBRANCH  52  66
BRANCH  53  77
ATOM     77  C   UNL A   1      39.918  24.118  27.309  1.00  0.00     0.023 A 
ATOM     78  C   UNL A   1      40.479  22.817  27.291  1.00  0.00     0.031 A 
ATOM     79  C   UNL A   1      38.676  24.224  26.674  1.00  0.00     0.131 A 
ATOM     80  C   UNL A   1      39.931  21.747  26.572  1.00  0.00     0.055 A 
ATOM     81  C   UNL A   1      38.080  23.134  26.001  1.00  0.00     0.041 A 
ATOM     82  F   UNL A   1      37.977  25.367  26.703  1.00  0.00    -0.206 F 
ATOM     83  C   UNL A   1      38.716  21.894  25.927  1.00  0.00     0.022 A 
BRANCH  80  84
ATOM     84  S   UNL A   1      40.852  20.182  26.458  1.00  0.00     0.124 S 
ATOM     85  O   UNL A   1      42.086  20.580  25.786  1.00  0.00    -0.237 OA
ATOM     86  O   UNL A   1      40.987  19.821  27.866  1.00  0.00    -0.237 OA
ATOM     87  O   UNL A   1      39.971  19.320  25.677  1.00  0.00    -0.744 OA
ENDBRANCH  80  84
ENDBRANCH  53  77
BRANCH  65  88
ATOM     88  C   UNL A   1      44.886  26.666  30.056  1.00  0.00     0.023 A 
ATOM     89  C   UNL A   1      44.086  27.367  30.988  1.00  0.00     0.031 A 
ATOM     90  C   UNL A   1      45.782  25.712  30.565  1.00  0.00     0.131 A 
ATOM     91  C   UNL A   1      44.198  27.105  32.367  1.00  0.00     0.055 A 
ATOM     92  C   UNL A   1      45.891  25.452  31.934  1.00  0.00     0.041 A 
ATOM     93  F   UNL A   1      46.583  25.024  29.734  1.00  0.00    -0.206 F 
ATOM     94  C   UNL A   1      45.099  26.148  32.839  1.00  0.00     0.022 A 
BRANCH  91  95
ATOM     95  S   UNL A   1      43.157  27.942  33.608  1.00  0.00     0.124 S 
ATOM     96  O   UNL A   1      41.811  27.804  33.052  1.00  0.00    -0.237 OA
ATOM     97  O   UNL A   1      43.417  27.149  34.802  1.00  0.00    -0.237 OA
ATOM     98  O   UNL A   1      43.655  29.313  33.638  1.00  0.00    -0.744 OA
ENDBRANCH  91  95
ENDBRANCH  65  88
ENDBRANCH  39  40
ENDBRANCH  31  34
ENDBRANCH  29  30
ENDBRANCH  28  29
ENDBRANCH   1  28
TORSDOF 18
ENDMDL
MODEL 3
REMARK VINA RESULT:     -11.7      3.508      8.515
REMARK SMILES C[C@@H]1Cc2ccccc2N1S(=O)(=O)c1c[nH]c(C(=O)NCCCCCCNC(=O)c2ccc(-c3c4nc(c(-c5cc(S(=O)(=O)[O-])ccc5F)c5ccc([nH]5)c(-c5cc(S(=O)(=O)[O-])ccc5F)c5nc(c(-c6cc(S(=O)(=O)[O-])ccc6F)c6ccc3[nH]6)C=C5)C=C4)cc2)c1
REMARK SMILES IDX 24 1 23 2 22 3 21 4 20 5 18 6 19 7 17 9 14 10 15 11 93 12
REMARK SMILES IDX 16 13 11 15 12 16 13 17 10 18 1 19 2 20 3 21 4 22 9 23 5 24
REMARK SMILES IDX 8 25 6 26 7 27 25 28 26 29 27 30 28 31 29 33 30 34 31 35
REMARK SMILES IDX 92 36 32 37 91 38 33 39 34 40 35 41 85 42 36 43 90 44 84 45
REMARK SMILES IDX 86 46 37 47 89 48 83 49 82 50 38 52 70 53 50 54 69 55 51 56
REMARK SMILES IDX 54 57 68 58 87 59 52 60 53 61 67 63 88 64 55 65 39 66 40 67
REMARK SMILES IDX 48 68 41 69 47 70 49 71 46 72 42 73 43 74 44 75 45 76 71 77
REMARK SMILES IDX 72 78 80 79 73 80 79 81 81 82 78 83 74 84 75 85 76 86 77 87
REMARK SMILES IDX 56 88 57 89 65 90 58 91 64 92 66 93 63 94 59 95 60 96 61 97
REMARK SMILES IDX 62 98
REMARK H PARENT 20 8 16 14 27 32 86 51 54 62
REMARK Flexibility Score: inf
ROOT
ATOM      1  C   UNL A   1      34.304  30.131  27.128  1.00  0.00     0.002 C 
ENDROOT
BRANCH   1   2
ATOM      2  C   UNL A   1      34.127  28.825  26.341  1.00  0.00     0.002 C 
BRANCH   2   3
ATOM      3  C   UNL A   1      32.900  28.785  25.418  1.00  0.00     0.021 C 
BRANCH   3   4
ATOM      4  C   UNL A   1      33.221  29.144  23.967  1.00  0.00     0.116 C 
BRANCH   4   5
ATOM      5  N   UNL A   1      32.027  29.063  23.152  1.00  0.00    -0.351 N 
ATOM      6  C   UNL A   1      31.273  28.009  22.727  1.00  0.00     0.267 C 
ATOM      7  O   UNL A   1      30.255  28.283  22.087  1.00  0.00    -0.268 OA
ATOM      8  H   UNL A   1      31.696  29.938  22.845  1.00  0.00     0.163 HD
BRANCH   6   9
ATOM      9  C   UNL A   1      31.606  26.628  23.010  1.00  0.00     0.105 A 
ATOM     10  C   UNL A   1      32.275  24.457  23.180  1.00  0.00     0.106 A 
ATOM     11  C   UNL A   1      31.286  24.675  24.115  1.00  0.00     0.105 A 
ATOM     12  C   UNL A   1      32.487  25.687  22.492  1.00  0.00     0.055 A 
ATOM     13  N   UNL A   1      30.889  25.973  23.999  1.00  0.00    -0.356 N 
ATOM     14  H   UNL A   1      30.185  26.390  24.545  1.00  0.00     0.166 HD
BRANCH  10  15
ATOM     15  S   UNL A   1      33.052  22.946  22.855  1.00  0.00     0.266 S 
ATOM     16  O   UNL A   1      34.159  23.306  21.982  1.00  0.00    -0.201 OA
ATOM     17  O   UNL A   1      31.994  22.093  22.398  1.00  0.00    -0.201 OA
BRANCH  15  18
ATOM     18  N   UNL A   1      33.711  22.252  24.280  1.00  0.00    -0.263 N 
ATOM     19  C   UNL A   1      32.294  20.367  25.101  1.00  0.00     0.032 C 
ATOM     20  C   UNL A   1      33.531  20.741  24.300  1.00  0.00     0.101 C 
ATOM     21  C   UNL A   1      34.825  20.149  24.901  1.00  0.00     0.063 C 
ATOM     22  C   UNL A   1      35.746  21.322  24.940  1.00  0.00    -0.021 A 
ATOM     23  C   UNL A   1      35.089  22.498  24.598  1.00  0.00     0.055 A 
ATOM     24  C   UNL A   1      37.076  21.327  25.339  1.00  0.00     0.006 A 
ATOM     25  C   UNL A   1      35.726  23.717  24.760  1.00  0.00     0.027 A 
ATOM     26  C   UNL A   1      37.744  22.549  25.427  1.00  0.00     0.000 A 
ATOM     27  C   UNL A   1      37.066  23.741  25.152  1.00  0.00     0.002 A 
ENDBRANCH  15  18
ENDBRANCH  10  15
ENDBRANCH   6   9
ENDBRANCH   4   5
ENDBRANCH   3   4
ENDBRANCH   2   3
ENDBRANCH   1   2
BRANCH   1  28
ATOM     28  C   UNL A   1      33.003  30.825  27.537  1.00  0.00     0.021 C 
BRANCH  28  29
ATOM     29  C   UNL A   1      32.810  32.208  26.914  1.00  0.00     0.116 C 
BRANCH  29  30
ATOM     30  N   UNL A   1      32.607  33.278  27.871  1.00  0.00    -0.352 N 
ATOM     31  C   UNL A   1      33.392  33.825  28.858  1.00  0.00     0.251 C 
ATOM     32  H   UNL A   1      31.721  33.703  27.800  1.00  0.00     0.163 HD
ATOM     33  O   UNL A   1      32.909  34.762  29.496  1.00  0.00    -0.269 OA
BRANCH  31  34
ATOM     34  C   UNL A   1      34.737  33.301  29.223  1.00  0.00     0.039 A 
ATOM     35  C   UNL A   1      35.901  33.605  28.517  1.00  0.00     0.014 A 
ATOM     36  C   UNL A   1      34.829  32.469  30.354  1.00  0.00     0.014 A 
ATOM     37  C   UNL A   1      37.105  33.000  28.848  1.00  0.00     0.010 A 
ATOM     38  C   UNL A   1      36.050  31.900  30.727  1.00  0.00     0.010 A 
ATOM     39  C   UNL A   1      37.185  32.149  29.954  1.00  0.00    -0.014 A 
BRANCH  39  40
ATOM     40  C   UNL A   1      38.539  31.679  30.323  1.00  0.00     0.031 A 
ATOM     41  C   UNL A   1      39.332  32.762  31.058  1.00  0.00     0.074 A 
ATOM     42  C   UNL A   1      38.936  30.470  29.830  1.00  0.00     0.049 A 
ATOM     43  N   UNL A   1      40.576  33.111  30.912  1.00  0.00    -0.248 NA
ATOM     44  C   UNL A   1      38.613  33.691  31.965  1.00  0.00     0.031 C 
ATOM     45  C   UNL A   1      38.052  29.523  29.118  1.00  0.00     0.029 A 
ATOM     46  N   UNL A   1      40.145  29.803  29.790  1.00  0.00    -0.354 N 
ATOM     47  C   UNL A   1      40.825  34.181  31.804  1.00  0.00     0.074 A 
ATOM     48  C   UNL A   1      39.552  34.562  32.340  1.00  0.00     0.031 C 
ATOM     49  C   UNL A   1      38.755  28.471  28.650  1.00  0.00     0.029 A 
ATOM     50  C   UNL A   1      40.149  28.612  29.030  1.00  0.00     0.049 A 
ATOM     51  H   UNL A   1      40.946  30.134  30.257  1.00  0.00     0.167 HD
ATOM     52  C   UNL A   1      42.086  34.600  32.133  1.00  0.00     0.034 A 
ATOM     53  C   UNL A   1      41.201  27.817  28.671  1.00  0.00     0.034 A 
ATOM     54  C   UNL A   1      43.042  33.777  31.471  1.00  0.00     0.049 A 
ATOM     55  C   UNL A   1      42.407  28.366  29.326  1.00  0.00     0.074 A 
ATOM     56  C   UNL A   1      43.510  33.695  30.186  1.00  0.00     0.029 A 
ATOM     57  N   UNL A   1      43.428  32.654  32.160  1.00  0.00    -0.354 N 
ATOM     58  N   UNL A   1      42.660  28.320  30.602  1.00  0.00    -0.248 NA
ATOM     59  C   UNL A   1      43.368  29.129  28.515  1.00  0.00     0.031 C 
ATOM     60  C   UNL A   1      43.822  32.327  30.019  1.00  0.00     0.029 A 
ATOM     61  C   UNL A   1      43.626  31.663  31.235  1.00  0.00     0.049 A 
ATOM     62  H   UNL A   1      43.541  32.576  33.135  1.00  0.00     0.167 HD
ATOM     63  C   UNL A   1      43.596  29.319  30.751  1.00  0.00     0.074 A 
ATOM     64  C   UNL A   1      44.223  29.497  29.464  1.00  0.00     0.031 C 
ATOM     65  C   UNL A   1      43.392  30.303  31.665  1.00  0.00     0.034 A 
BRANCH  52  66
ATOM     66  C   UNL A   1      42.612  35.536  33.201  1.00  0.00     0.023 A 
ATOM     67  C   UNL A   1      43.213  36.779  32.958  1.00  0.00     0.031 A 
ATOM     68  C   UNL A   1      42.288  35.252  34.559  1.00  0.00     0.131 A 
ATOM     69  C   UNL A   1      43.411  37.687  34.021  1.00  0.00     0.055 A 
ATOM     70  C   UNL A   1      42.420  36.180  35.591  1.00  0.00     0.041 A 
ATOM     71  F   UNL A   1      41.789  34.058  34.928  1.00  0.00    -0.206 F 
ATOM     72  C   UNL A   1      42.976  37.414  35.320  1.00  0.00     0.022 A 
BRANCH  69  73
ATOM     73  S   UNL A   1      44.284  39.260  33.781  1.00  0.00     0.124 S 
ATOM     74  O   UNL A   1      45.565  38.820  33.240  1.00  0.00    -0.237 OA
ATOM     75  O   UNL A   1      43.411  39.944  32.826  1.00  0.00    -0.237 OA
ATOM     76  O   UNL A   1      44.308  39.849  35.114  1.00  0.00    -0.744 OA
ENDBRANCH  69  73
ENDBRANCH  52  66
BRANCH  53  77
ATOM     77  C   UNL A   1      41.386  26.674  27.702  1.00  0.00     0.023 A 
ATOM     78  C   UNL A   1      41.524  25.360  28.217  1.00  0.00     0.031 A 
ATOM     79  C   UNL A   1      41.435  26.759  26.306  1.00  0.00     0.131 A 
ATOM     80  C   UNL A   1      41.837  24.248  27.426  1.00  0.00     0.055 A 
ATOM     81  C   UNL A   1      41.684  25.631  25.493  1.00  0.00     0.041 A 
ATOM     82  F   UNL A   1      41.214  27.919  25.673  1.00  0.00    -0.206 F 
ATOM     83  C   UNL A   1      41.911  24.371  26.050  1.00  0.00     0.022 A 
BRANCH  80  84
ATOM     84  S   UNL A   1      42.192  22.654  28.228  1.00  0.00     0.124 S 
ATOM     85  O   UNL A   1      43.215  22.075  27.362  1.00  0.00    -0.237 OA
ATOM     86  O   UNL A   1      42.651  23.087  29.545  1.00  0.00    -0.237 OA
ATOM     87  O   UNL A   1      40.905  21.966  28.214  1.00  0.00    -0.744 OA
ENDBRANCH  80  84
ENDBRANCH  53  77
BRANCH  65  88
ATOM     88  C   UNL A   1      42.580  29.908  32.881  1.00  0.00     0.023 A 
ATOM     89  C   UNL A   1      41.275  30.381  33.150  1.00  0.00     0.031 A 
ATOM     90  C   UNL A   1      43.131  28.987  33.787  1.00  0.00     0.131 A 
ATOM     91  C   UNL A   1      40.572  29.935  34.286  1.00  0.00     0.055 A 
ATOM     92  C   UNL A   1      42.431  28.543  34.912  1.00  0.00     0.041 A 
ATOM     93  F   UNL A   1      44.373  28.512  33.598  1.00  0.00    -0.206 F 
ATOM     94  C   UNL A   1      41.149  29.016  35.166  1.00  0.00     0.022 A 
BRANCH  91  95
ATOM     95  S   UNL A   1      38.870  30.473  34.655  1.00  0.00     0.124 S 
ATOM     96  O   UNL A   1      38.688  30.054  36.045  1.00  0.00    -0.237 OA
ATOM     97  O   UNL A   1      38.959  31.912  34.450  1.00  0.00    -0.237 OA
ATOM     98  O   UNL A   1      38.041  29.748  33.698  1.00  0.00    -0.744 OA
ENDBRANCH  91  95
ENDBRANCH  65  88
ENDBRANCH  39  40
ENDBRANCH  31  34
ENDBRANCH  29  30
ENDBRANCH  28  29
ENDBRANCH   1  28
TORSDOF 18
ENDMDL
