MODEL 1
REMARK VINA RESULT:     -10.8      0.000      0.000
REMARK SMILES [NH3+]C[C@H]1CC[C@@H](C(=O)Nc2ccc(O)c(C(=O)NCCCCCCNC(=O)c3ccc(-c4c5nc(c(-c6cc(S(=O)(=O)[O-])ccc6F)c6ccc([nH]6)c(-c6cc(S(=O)(=O)[O-])ccc6F)c6nc(c(-c7cc(S(=O)(=O)[O-])ccc7F)c7ccc4[nH]7)C=C6)C=C5)cc3)c2)O1
REMARK SMILES IDX 21 1 20 2 19 3 18 4 16 5 17 6 15 8 10 9 11 10 91 11 12 12
REMARK SMILES IDX 13 13 9 14 7 15 8 16 6 18 3 19 4 20 92 21 5 22 2 23 1 24
REMARK SMILES IDX 14 28 22 30 23 31 24 32 25 33 26 34 27 36 28 37 29 38 90 39
REMARK SMILES IDX 30 40 89 41 31 42 32 43 33 44 83 45 34 46 88 47 82 48 84 49
REMARK SMILES IDX 35 50 87 51 81 52 80 53 36 55 68 56 48 57 67 58 49 59 52 60
REMARK SMILES IDX 66 61 85 62 50 63 51 64 65 66 86 67 53 68 37 69 38 70 46 71
REMARK SMILES IDX 39 72 45 73 47 74 44 75 40 76 41 77 42 78 43 79 69 80 70 81
REMARK SMILES IDX 78 82 71 83 77 84 79 85 76 86 72 87 73 88 74 89 75 90 54 91
REMARK SMILES IDX 55 92 63 93 56 94 62 95 64 96 61 97 57 98 58 99 59 100
REMARK SMILES IDX 60 101
REMARK H PARENT 18 7 9 17 1 25 1 26 1 27 14 29 25 35 84 54 52 65
REMARK Flexibility Score: inf
ROOT
ATOM      1  C   UNL A   1      35.114  30.684  28.381  1.00  0.00     0.002 C 
ENDROOT
BRANCH   1   2
ATOM      2  C   UNL A   1      35.557  29.689  27.307  1.00  0.00     0.021 C 
BRANCH   2   3
ATOM      3  C   UNL A   1      34.403  29.003  26.566  1.00  0.00     0.116 C 
BRANCH   3   4
ATOM      4  N   UNL A   1      33.317  29.936  26.351  1.00  0.00    -0.352 N 
ATOM      5  C   UNL A   1      32.077  29.795  25.794  1.00  0.00     0.255 C 
ATOM      6  O   UNL A   1      31.384  30.819  25.745  1.00  0.00    -0.269 OA
ATOM      7  H   UNL A   1      33.509  30.848  26.667  1.00  0.00     0.163 HD
BRANCH   5   8
ATOM      8  C   UNL A   1      31.467  28.518  25.305  1.00  0.00     0.083 A 
ATOM      9  C   UNL A   1      31.028  26.194  25.940  1.00  0.00     0.042 A 
ATOM     10  C   UNL A   1      30.243  26.035  24.807  1.00  0.00     0.030 A 
ATOM     11  C   UNL A   1      31.583  27.442  26.216  1.00  0.00     0.043 A 
ATOM     12  C   UNL A   1      30.131  27.063  23.883  1.00  0.00     0.049 A 
ATOM     13  C   UNL A   1      30.746  28.294  24.124  1.00  0.00     0.128 A 
BRANCH   9  14
ATOM     14  N   UNL A   1      31.147  25.163  26.875  1.00  0.00    -0.324 N 
ATOM     15  C   UNL A   1      31.895  24.014  26.785  1.00  0.00     0.253 C 
ATOM     16  O   UNL A   1      31.490  23.002  27.367  1.00  0.00    -0.272 OA
ATOM     17  H   UNL A   1      30.629  25.274  27.705  1.00  0.00     0.170 HD
BRANCH  15  18
ATOM     18  C   UNL A   1      33.327  24.103  26.187  1.00  0.00     0.208 C 
ATOM     19  C   UNL A   1      34.731  22.247  25.845  1.00  0.00     0.174 C 
ATOM     20  C   UNL A   1      34.823  23.116  24.609  1.00  0.00     0.041 C 
ATOM     21  O   UNL A   1      34.165  23.119  26.839  1.00  0.00    -0.359 OA
ATOM     22  C   UNL A   1      33.528  23.892  24.694  1.00  0.00     0.045 C 
BRANCH  19  23
ATOM     23  C   UNL A   1      33.840  20.998  25.628  1.00  0.00     0.291 C 
BRANCH  23  24
ATOM     24  N   UNL A   1      33.278  20.472  26.875  1.00  0.00    -0.355 N 
ATOM     25  H   UNL A   1      33.393  21.162  27.617  1.00  0.00     0.344 HD
ATOM     26  H   UNL A   1      33.765  19.613  27.132  1.00  0.00     0.344 HD
ATOM     27  H   UNL A   1      32.286  20.275  26.744  1.00  0.00     0.344 HD
ENDBRANCH  23  24
ENDBRANCH  19  23
ENDBRANCH  15  18
ENDBRANCH   9  14
BRANCH  13  28
ATOM     28  O   UNL A   1      30.529  29.252  23.184  1.00  0.00    -0.507 OA
ATOM     29  H   UNL A   1      30.540  30.157  23.426  1.00  0.00     0.293 HD
ENDBRANCH  13  28
ENDBRANCH   5   8
ENDBRANCH   3   4
ENDBRANCH   2   3
ENDBRANCH   1   2
BRANCH   1  30
ATOM     30  C   UNL A   1      35.275  32.156  27.994  1.00  0.00     0.002 C 
BRANCH  30  31
ATOM     31  C   UNL A   1      33.980  32.977  28.003  1.00  0.00     0.021 C 
BRANCH  31  32
ATOM     32  C   UNL A   1      34.187  34.489  28.045  1.00  0.00     0.116 C 
BRANCH  32  33
ATOM     33  N   UNL A   1      33.482  35.090  29.165  1.00  0.00    -0.352 N 
ATOM     34  C   UNL A   1      33.609  34.837  30.508  1.00  0.00     0.251 C 
ATOM     35  H   UNL A   1      32.818  35.777  28.926  1.00  0.00     0.163 HD
ATOM     36  O   UNL A   1      32.743  35.227  31.286  1.00  0.00    -0.269 OA
BRANCH  34  37
ATOM     37  C   UNL A   1      34.784  34.091  31.010  1.00  0.00     0.039 A 
ATOM     38  C   UNL A   1      34.585  32.902  31.716  1.00  0.00     0.014 A 
ATOM     39  C   UNL A   1      36.078  34.581  30.812  1.00  0.00     0.014 A 
ATOM     40  C   UNL A   1      35.686  32.180  32.180  1.00  0.00     0.010 A 
ATOM     41  C   UNL A   1      37.176  33.827  31.218  1.00  0.00     0.010 A 
ATOM     42  C   UNL A   1      36.992  32.622  31.912  1.00  0.00    -0.014 A 
BRANCH  42  43
ATOM     43  C   UNL A   1      38.177  31.846  32.363  1.00  0.00     0.031 A 
ATOM     44  C   UNL A   1      38.829  32.169  33.680  1.00  0.00     0.074 A 
ATOM     45  C   UNL A   1      38.700  30.900  31.559  1.00  0.00     0.049 A 
ATOM     46  N   UNL A   1      39.917  31.672  34.210  1.00  0.00    -0.248 NA
ATOM     47  C   UNL A   1      38.186  33.211  34.496  1.00  0.00     0.031 C 
ATOM     48  C   UNL A   1      38.176  30.527  30.243  1.00  0.00     0.029 A 
ATOM     49  N   UNL A   1      39.794  30.089  31.721  1.00  0.00    -0.354 N 
ATOM     50  C   UNL A   1      40.098  32.349  35.412  1.00  0.00     0.074 A 
ATOM     51  C   UNL A   1      39.039  33.331  35.502  1.00  0.00     0.031 C 
ATOM     52  C   UNL A   1      38.938  29.549  29.727  1.00  0.00     0.029 A 
ATOM     53  C   UNL A   1      40.029  29.256  30.651  1.00  0.00     0.049 A 
ATOM     54  H   UNL A   1      40.359  30.101  32.527  1.00  0.00     0.167 HD
ATOM     55  C   UNL A   1      41.049  32.154  36.360  1.00  0.00     0.034 A 
ATOM     56  C   UNL A   1      41.019  28.366  30.433  1.00  0.00     0.034 A 
ATOM     57  C   UNL A   1      42.087  31.157  36.260  1.00  0.00     0.049 A 
ATOM     58  C   UNL A   1      42.072  28.178  31.496  1.00  0.00     0.074 A 
ATOM     59  C   UNL A   1      43.065  30.835  37.185  1.00  0.00     0.029 A 
ATOM     60  N   UNL A   1      42.286  30.323  35.168  1.00  0.00    -0.354 N 
ATOM     61  N   UNL A   1      42.200  28.794  32.650  1.00  0.00    -0.248 NA
ATOM     62  C   UNL A   1      43.104  27.167  31.235  1.00  0.00     0.031 C 
ATOM     63  C   UNL A   1      43.893  29.855  36.626  1.00  0.00     0.029 A 
ATOM     64  C   UNL A   1      43.388  29.509  35.383  1.00  0.00     0.049 A 
ATOM     65  H   UNL A   1      41.727  30.311  34.358  1.00  0.00     0.167 HD
ATOM     66  C   UNL A   1      43.310  28.219  33.264  1.00  0.00     0.074 A 
ATOM     67  C   UNL A   1      43.803  27.200  32.360  1.00  0.00     0.031 C 
ATOM     68  C   UNL A   1      43.871  28.503  34.467  1.00  0.00     0.034 A 
BRANCH  55  69
ATOM     69  C   UNL A   1      41.019  33.054  37.573  1.00  0.00     0.023 A 
ATOM     70  C   UNL A   1      40.300  32.710  38.732  1.00  0.00     0.031 A 
ATOM     71  C   UNL A   1      41.702  34.283  37.564  1.00  0.00     0.131 A 
ATOM     72  C   UNL A   1      40.222  33.615  39.803  1.00  0.00     0.055 A 
ATOM     73  C   UNL A   1      41.688  35.142  38.666  1.00  0.00     0.041 A 
ATOM     74  F   UNL A   1      42.388  34.676  36.479  1.00  0.00    -0.206 F 
ATOM     75  C   UNL A   1      40.933  34.817  39.788  1.00  0.00     0.022 A 
BRANCH  72  76
ATOM     76  S   UNL A   1      39.070  33.256  41.156  1.00  0.00     0.124 S 
ATOM     77  O   UNL A   1      38.883  31.815  41.008  1.00  0.00    -0.237 OA
ATOM     78  O   UNL A   1      39.819  33.685  42.331  1.00  0.00    -0.237 OA
ATOM     79  O   UNL A   1      37.899  34.067  40.832  1.00  0.00    -0.744 OA
ENDBRANCH  72  76
ENDBRANCH  55  69
BRANCH  56  80
ATOM     80  C   UNL A   1      41.077  27.594  29.158  1.00  0.00     0.023 A 
ATOM     81  C   UNL A   1      42.053  27.874  28.188  1.00  0.00     0.031 A 
ATOM     82  C   UNL A   1      40.127  26.599  28.871  1.00  0.00     0.131 A 
ATOM     83  C   UNL A   1      42.025  27.204  26.955  1.00  0.00     0.055 A 
ATOM     84  C   UNL A   1      40.138  25.895  27.664  1.00  0.00     0.041 A 
ATOM     85  F   UNL A   1      39.176  26.287  29.766  1.00  0.00    -0.206 F 
ATOM     86  C   UNL A   1      41.082  26.208  26.691  1.00  0.00     0.022 A 
BRANCH  83  87
ATOM     87  S   UNL A   1      43.184  27.722  25.660  1.00  0.00     0.124 S 
ATOM     88  O   UNL A   1      42.277  28.203  24.625  1.00  0.00    -0.237 OA
ATOM     89  O   UNL A   1      43.970  28.741  26.350  1.00  0.00    -0.237 OA
ATOM     90  O   UNL A   1      43.905  26.493  25.338  1.00  0.00    -0.744 OA
ENDBRANCH  83  87
ENDBRANCH  56  80
BRANCH  68  91
ATOM     91  C   UNL A   1      45.051  27.663  34.887  1.00  0.00     0.023 A 
ATOM     92  C   UNL A   1      44.896  26.508  35.672  1.00  0.00     0.031 A 
ATOM     93  C   UNL A   1      46.353  28.034  34.504  1.00  0.00     0.131 A 
ATOM     94  C   UNL A   1      46.027  25.795  36.098  1.00  0.00     0.055 A 
ATOM     95  C   UNL A   1      47.470  27.287  34.879  1.00  0.00     0.041 A 
ATOM     96  F   UNL A   1      46.558  29.129  33.755  1.00  0.00    -0.206 F 
ATOM     97  C   UNL A   1      47.312  26.167  35.692  1.00  0.00     0.022 A 
BRANCH  94  98
ATOM     98  S   UNL A   1      45.805  24.425  37.265  1.00  0.00     0.124 S 
ATOM     99  O   UNL A   1      46.244  23.280  36.475  1.00  0.00    -0.237 OA
ATOM    100  O   UNL A   1      46.679  24.810  38.368  1.00  0.00    -0.237 OA
ATOM    101  O   UNL A   1      44.376  24.460  37.567  1.00  0.00    -0.744 OA
ENDBRANCH  94  98
ENDBRANCH  68  91
ENDBRANCH  42  43
ENDBRANCH  34  37
ENDBRANCH  32  33
ENDBRANCH  31  32
ENDBRANCH  30  31
ENDBRANCH   1  30
TORSDOF 21
ENDMDL
MODEL 2
REMARK VINA RESULT:     -10.7      1.630      7.895
REMARK SMILES [NH3+]C[C@H]1CC[C@@H](C(=O)Nc2ccc(O)c(C(=O)NCCCCCCNC(=O)c3ccc(-c4c5nc(c(-c6cc(S(=O)(=O)[O-])ccc6F)c6ccc([nH]6)c(-c6cc(S(=O)(=O)[O-])ccc6F)c6nc(c(-c7cc(S(=O)(=O)[O-])ccc7F)c7ccc4[nH]7)C=C6)C=C5)cc3)c2)O1
REMARK SMILES IDX 21 1 20 2 19 3 18 4 16 5 17 6 15 8 10 9 11 10 91 11 12 12
REMARK SMILES IDX 13 13 9 14 7 15 8 16 6 18 3 19 4 20 92 21 5 22 2 23 1 24
REMARK SMILES IDX 14 28 22 30 23 31 24 32 25 33 26 34 27 36 28 37 29 38 90 39
REMARK SMILES IDX 30 40 89 41 31 42 32 43 33 44 83 45 34 46 88 47 82 48 84 49
REMARK SMILES IDX 35 50 87 51 81 52 80 53 36 55 68 56 48 57 67 58 49 59 52 60
REMARK SMILES IDX 66 61 85 62 50 63 51 64 65 66 86 67 53 68 37 69 38 70 46 71
REMARK SMILES IDX 39 72 45 73 47 74 44 75 40 76 41 77 42 78 43 79 69 80 70 81
REMARK SMILES IDX 78 82 71 83 77 84 79 85 76 86 72 87 73 88 74 89 75 90 54 91
REMARK SMILES IDX 55 92 63 93 56 94 62 95 64 96 61 97 57 98 58 99 59 100
REMARK SMILES IDX 60 101
REMARK H PARENT 18 7 9 17 1 25 1 26 1 27 14 29 25 35 84 54 52 65
REMARK Flexibility Score: inf
ROOT
ATOM      1  C   UNL A   1      32.454  30.012  27.264  1.00  0.00     0.002 C 
ENDROOT
BRANCH   1   2
ATOM      2  C   UNL A   1      32.893  28.667  26.682  1.00  0.00     0.021 C 
BRANCH   2   3
ATOM      3  C   UNL A   1      34.198  28.722  25.879  1.00  0.00     0.116 C 
BRANCH   3   4
ATOM      4  N   UNL A   1      33.973  28.283  24.519  1.00  0.00    -0.352 N 
ATOM      5  C   UNL A   1      33.315  27.205  23.994  1.00  0.00     0.255 C 
ATOM      6  O   UNL A   1      33.325  27.110  22.761  1.00  0.00    -0.269 OA
ATOM      7  H   UNL A   1      34.369  28.874  23.840  1.00  0.00     0.163 HD
BRANCH   5   8
ATOM      8  C   UNL A   1      32.541  26.181  24.765  1.00  0.00     0.083 A 
ATOM      9  C   UNL A   1      32.791  24.187  26.165  1.00  0.00     0.042 A 
ATOM     10  C   UNL A   1      31.438  24.233  26.467  1.00  0.00     0.030 A 
ATOM     11  C   UNL A   1      33.346  25.189  25.371  1.00  0.00     0.043 A 
ATOM     12  C   UNL A   1      30.618  25.177  25.869  1.00  0.00     0.049 A 
ATOM     13  C   UNL A   1      31.162  26.140  25.016  1.00  0.00     0.128 A 
BRANCH   9  14
ATOM     14  N   UNL A   1      33.624  23.238  26.762  1.00  0.00    -0.324 N 
ATOM     15  C   UNL A   1      33.708  21.892  26.498  1.00  0.00     0.253 C 
ATOM     16  O   UNL A   1      34.030  21.132  27.416  1.00  0.00    -0.272 OA
ATOM     17  H   UNL A   1      34.229  23.577  27.462  1.00  0.00     0.170 HD
BRANCH  15  18
ATOM     18  C   UNL A   1      33.653  21.419  25.017  1.00  0.00     0.208 C 
ATOM     19  C   UNL A   1      33.378  19.179  24.358  1.00  0.00     0.174 C 
ATOM     20  C   UNL A   1      32.476  20.021  23.482  1.00  0.00     0.041 C 
ATOM     21  O   UNL A   1      34.301  20.129  24.918  1.00  0.00    -0.359 OA
ATOM     22  C   UNL A   1      32.304  21.258  24.334  1.00  0.00     0.045 C 
BRANCH  19  23
ATOM     23  C   UNL A   1      32.600  18.436  25.475  1.00  0.00     0.291 C 
BRANCH  23  24
ATOM     24  N   UNL A   1      33.388  17.385  26.121  1.00  0.00    -0.355 N 
ATOM     25  H   UNL A   1      34.161  17.117  25.511  1.00  0.00     0.344 HD
ATOM     26  H   UNL A   1      32.795  16.573  26.294  1.00  0.00     0.344 HD
ATOM     27  H   UNL A   1      33.758  17.732  27.006  1.00  0.00     0.344 HD
ENDBRANCH  23  24
ENDBRANCH  19  23
ENDBRANCH  15  18
ENDBRANCH   9  14
BRANCH  13  28
ATOM     28  O   UNL A   1      30.282  27.054  24.526  1.00  0.00    -0.507 OA
ATOM     29  H   UNL A   1      29.557  26.773  24.004  1.00  0.00     0.293 HD
ENDBRANCH  13  28
ENDBRANCH   5   8
ENDBRANCH   3   4
ENDBRANCH   2   3
ENDBRANCH   1   2
BRANCH   1  30
ATOM     30  C   UNL A   1      31.452  30.785  26.402  1.00  0.00     0.002 C 
BRANCH  30  31
ATOM     31  C   UNL A   1      31.502  32.310  26.555  1.00  0.00     0.021 C 
BRANCH  31  32
ATOM     32  C   UNL A   1      32.694  32.829  27.356  1.00  0.00     0.116 C 
BRANCH  32  33
ATOM     33  N   UNL A   1      32.513  34.221  27.734  1.00  0.00    -0.352 N 
ATOM     34  C   UNL A   1      33.076  34.919  28.773  1.00  0.00     0.251 C 
ATOM     35  H   UNL A   1      31.900  34.736  27.162  1.00  0.00     0.163 HD
ATOM     36  O   UNL A   1      32.599  35.998  29.111  1.00  0.00    -0.269 OA
BRANCH  34  37
ATOM     37  C   UNL A   1      34.250  34.364  29.484  1.00  0.00     0.039 A 
ATOM     38  C   UNL A   1      34.058  33.696  30.696  1.00  0.00     0.014 A 
ATOM     39  C   UNL A   1      35.539  34.532  28.971  1.00  0.00     0.014 A 
ATOM     40  C   UNL A   1      35.155  33.153  31.368  1.00  0.00     0.010 A 
ATOM     41  C   UNL A   1      36.623  33.934  29.609  1.00  0.00     0.010 A 
ATOM     42  C   UNL A   1      36.444  33.244  30.817  1.00  0.00    -0.014 A 
BRANCH  42  43
ATOM     43  C   UNL A   1      37.618  32.638  31.497  1.00  0.00     0.031 A 
ATOM     44  C   UNL A   1      38.343  31.484  30.858  1.00  0.00     0.074 A 
ATOM     45  C   UNL A   1      37.988  33.084  32.713  1.00  0.00     0.049 A 
ATOM     46  N   UNL A   1      39.329  30.763  31.327  1.00  0.00    -0.248 NA
ATOM     47  C   UNL A   1      37.876  31.069  29.527  1.00  0.00     0.031 C 
ATOM     48  C   UNL A   1      37.336  34.171  33.447  1.00  0.00     0.029 A 
ATOM     49  N   UNL A   1      38.990  32.672  33.554  1.00  0.00    -0.354 N 
ATOM     50  C   UNL A   1      39.591  29.801  30.358  1.00  0.00     0.074 A 
ATOM     51  C   UNL A   1      38.620  29.996  29.302  1.00  0.00     0.031 C 
ATOM     52  C   UNL A   1      37.968  34.351  34.619  1.00  0.00     0.029 A 
ATOM     53  C   UNL A   1      39.038  33.367  34.741  1.00  0.00     0.049 A 
ATOM     54  H   UNL A   1      39.618  31.948  33.330  1.00  0.00     0.167 HD
ATOM     55  C   UNL A   1      40.564  28.855  30.342  1.00  0.00     0.034 A 
ATOM     56  C   UNL A   1      39.843  33.217  35.813  1.00  0.00     0.034 A 
ATOM     57  C   UNL A   1      41.534  28.687  31.397  1.00  0.00     0.049 A 
ATOM     58  C   UNL A   1      40.908  32.150  35.777  1.00  0.00     0.074 A 
ATOM     59  C   UNL A   1      42.596  27.801  31.458  1.00  0.00     0.029 A 
ATOM     60  N   UNL A   1      41.559  29.416  32.578  1.00  0.00    -0.354 N 
ATOM     61  N   UNL A   1      41.173  31.279  34.830  1.00  0.00    -0.248 NA
ATOM     62  C   UNL A   1      41.790  32.054  36.947  1.00  0.00     0.031 C 
ATOM     63  C   UNL A   1      43.220  27.950  32.701  1.00  0.00     0.029 A 
ATOM     64  C   UNL A   1      42.598  28.981  33.386  1.00  0.00     0.049 A 
ATOM     65  H   UNL A   1      40.930  30.138  32.809  1.00  0.00     0.167 HD
ATOM     66  C   UNL A   1      42.273  30.554  35.279  1.00  0.00     0.074 A 
ATOM     67  C   UNL A   1      42.630  31.101  36.573  1.00  0.00     0.031 C 
ATOM     68  C   UNL A   1      42.934  29.532  34.678  1.00  0.00     0.034 A 
BRANCH  55  69
ATOM     69  C   UNL A   1      40.607  27.919  29.158  1.00  0.00     0.023 A 
ATOM     70  C   UNL A   1      41.535  28.088  28.114  1.00  0.00     0.031 A 
ATOM     71  C   UNL A   1      39.695  26.853  29.059  1.00  0.00     0.131 A 
ATOM     72  C   UNL A   1      41.484  27.252  26.988  1.00  0.00     0.055 A 
ATOM     73  C   UNL A   1      39.703  25.974  27.973  1.00  0.00     0.041 A 
ATOM     74  F   UNL A   1      38.772  26.653  30.013  1.00  0.00    -0.206 F 
ATOM     75  C   UNL A   1      40.592  26.180  26.922  1.00  0.00     0.022 A 
BRANCH  72  76
ATOM     76  S   UNL A   1      42.510  27.671  25.552  1.00  0.00     0.124 S 
ATOM     77  O   UNL A   1      43.807  27.913  26.179  1.00  0.00    -0.237 OA
ATOM     78  O   UNL A   1      42.411  26.469  24.733  1.00  0.00    -0.237 OA
ATOM     79  O   UNL A   1      41.859  28.857  25.002  1.00  0.00    -0.744 OA
ENDBRANCH  72  76
ENDBRANCH  55  69
BRANCH  56  80
ATOM     80  C   UNL A   1      39.674  34.084  37.015  1.00  0.00     0.023 A 
ATOM     81  C   UNL A   1      39.076  33.588  38.184  1.00  0.00     0.031 A 
ATOM     82  C   UNL A   1      40.062  35.435  36.994  1.00  0.00     0.131 A 
ATOM     83  C   UNL A   1      38.836  34.450  39.266  1.00  0.00     0.055 A 
ATOM     84  C   UNL A   1      39.871  36.274  38.093  1.00  0.00     0.041 A 
ATOM     85  F   UNL A   1      40.644  35.959  35.903  1.00  0.00    -0.206 F 
ATOM     86  C   UNL A   1      39.240  35.787  39.233  1.00  0.00     0.022 A 
BRANCH  83  87
ATOM     87  S   UNL A   1      37.896  33.820  40.683  1.00  0.00     0.124 S 
ATOM     88  O   UNL A   1      38.919  33.083  41.415  1.00  0.00    -0.237 OA
ATOM     89  O   UNL A   1      37.425  35.054  41.305  1.00  0.00    -0.237 OA
ATOM     90  O   UNL A   1      36.856  33.000  40.065  1.00  0.00    -0.744 OA
ENDBRANCH  83  87
ENDBRANCH  56  80
BRANCH  68  91
ATOM     91  C   UNL A   1      44.137  28.977  35.399  1.00  0.00     0.023 A 
ATOM     92  C   UNL A   1      44.018  27.964  36.366  1.00  0.00     0.031 A 
ATOM     93  C   UNL A   1      45.421  29.478  35.119  1.00  0.00     0.131 A 
ATOM     94  C   UNL A   1      45.154  27.525  37.062  1.00  0.00     0.055 A 
ATOM     95  C   UNL A   1      46.556  28.994  35.771  1.00  0.00     0.041 A 
ATOM     96  F   UNL A   1      45.592  30.446  34.205  1.00  0.00    -0.206 F 
ATOM     97  C   UNL A   1      46.425  28.021  36.758  1.00  0.00     0.022 A 
BRANCH  94  98
ATOM     98  S   UNL A   1      44.939  26.360  38.434  1.00  0.00     0.124 S 
ATOM     99  O   UNL A   1      43.537  26.559  38.785  1.00  0.00    -0.237 OA
ATOM    100  O   UNL A   1      45.263  25.080  37.811  1.00  0.00    -0.237 OA
ATOM    101  O   UNL A   1      45.901  26.822  39.433  1.00  0.00    -0.744 OA
ENDBRANCH  94  98
ENDBRANCH  68  91
ENDBRANCH  42  43
ENDBRANCH  34  37
ENDBRANCH  32  33
ENDBRANCH  31  32
ENDBRANCH  30  31
ENDBRANCH   1  30
TORSDOF 21
ENDMDL
MODEL 3
REMARK VINA RESULT:     -10.6      5.744     11.595
REMARK SMILES [NH3+]C[C@H]1CC[C@@H](C(=O)Nc2ccc(O)c(C(=O)NCCCCCCNC(=O)c3ccc(-c4c5nc(c(-c6cc(S(=O)(=O)[O-])ccc6F)c6ccc([nH]6)c(-c6cc(S(=O)(=O)[O-])ccc6F)c6nc(c(-c7cc(S(=O)(=O)[O-])ccc7F)c7ccc4[nH]7)C=C6)C=C5)cc3)c2)O1
REMARK SMILES IDX 21 1 20 2 19 3 18 4 16 5 17 6 15 8 10 9 11 10 91 11 12 12
REMARK SMILES IDX 13 13 9 14 7 15 8 16 6 18 3 19 4 20 92 21 5 22 2 23 1 24
REMARK SMILES IDX 14 28 22 30 23 31 24 32 25 33 26 34 27 36 28 37 29 38 90 39
REMARK SMILES IDX 30 40 89 41 31 42 32 43 33 44 83 45 34 46 88 47 82 48 84 49
REMARK SMILES IDX 35 50 87 51 81 52 80 53 36 55 68 56 48 57 67 58 49 59 52 60
REMARK SMILES IDX 66 61 85 62 50 63 51 64 65 66 86 67 53 68 37 69 38 70 46 71
REMARK SMILES IDX 39 72 45 73 47 74 44 75 40 76 41 77 42 78 43 79 69 80 70 81
REMARK SMILES IDX 78 82 71 83 77 84 79 85 76 86 72 87 73 88 74 89 75 90 54 91
REMARK SMILES IDX 55 92 63 93 56 94 62 95 64 96 61 97 57 98 58 99 59 100
REMARK SMILES IDX 60 101
REMARK H PARENT 18 7 9 17 1 25 1 26 1 27 14 29 25 35 84 54 52 65
REMARK Flexibility Score: inf
ROOT
ATOM      1  C   UNL A   1      39.865  22.935  26.339  1.00  0.00     0.002 C 
ENDROOT
BRANCH   1   2
ATOM      2  C   UNL A   1      38.755  23.964  26.559  1.00  0.00     0.021 C 
BRANCH   2   3
ATOM      3  C   UNL A   1      37.377  23.525  26.047  1.00  0.00     0.116 C 
BRANCH   3   4
ATOM      4  N   UNL A   1      37.383  23.427  24.603  1.00  0.00    -0.352 N 
ATOM      5  C   UNL A   1      36.459  22.971  23.705  1.00  0.00     0.255 C 
ATOM      6  O   UNL A   1      36.793  23.009  22.515  1.00  0.00    -0.269 OA
ATOM      7  H   UNL A   1      38.214  23.752  24.187  1.00  0.00     0.163 HD
BRANCH   5   8
ATOM      8  C   UNL A   1      35.075  22.499  24.025  1.00  0.00     0.083 A 
ATOM      9  C   UNL A   1      32.707  22.934  23.573  1.00  0.00     0.042 A 
ATOM     10  C   UNL A   1      32.368  21.761  24.233  1.00  0.00     0.030 A 
ATOM     11  C   UNL A   1      34.052  23.265  23.419  1.00  0.00     0.043 A 
ATOM     12  C   UNL A   1      33.344  21.003  24.859  1.00  0.00     0.049 A 
ATOM     13  C   UNL A   1      34.689  21.372  24.765  1.00  0.00     0.128 A 
BRANCH   9  14
ATOM     14  N   UNL A   1      31.729  23.705  22.940  1.00  0.00    -0.324 N 
ATOM     15  C   UNL A   1      31.024  24.769  23.448  1.00  0.00     0.253 C 
ATOM     16  O   UNL A   1      29.879  24.969  23.029  1.00  0.00    -0.272 OA
ATOM     17  H   UNL A   1      31.519  23.454  22.012  1.00  0.00     0.170 HD
BRANCH  15  18
ATOM     18  C   UNL A   1      31.777  25.815  24.317  1.00  0.00     0.208 C 
ATOM     19  C   UNL A   1      32.128  28.052  23.681  1.00  0.00     0.174 C 
ATOM     20  C   UNL A   1      31.702  28.057  25.133  1.00  0.00     0.041 C 
ATOM     21  O   UNL A   1      32.528  26.691  23.443  1.00  0.00    -0.359 OA
ATOM     22  C   UNL A   1      30.985  26.731  25.238  1.00  0.00     0.045 C 
BRANCH  19  23
ATOM     23  C   UNL A   1      30.982  28.469  22.723  1.00  0.00     0.291 C 
BRANCH  23  24
ATOM     24  N   UNL A   1      31.315  29.637  21.905  1.00  0.00    -0.355 N 
ATOM     25  H   UNL A   1      31.300  29.376  20.919  1.00  0.00     0.344 HD
ATOM     26  H   UNL A   1      32.246  29.972  22.153  1.00  0.00     0.344 HD
ATOM     27  H   UNL A   1      30.632  30.376  22.071  1.00  0.00     0.344 HD
ENDBRANCH  23  24
ENDBRANCH  19  23
ENDBRANCH  15  18
ENDBRANCH   9  14
BRANCH  13  28
ATOM     28  O   UNL A   1      35.571  20.531  25.367  1.00  0.00    -0.507 OA
ATOM     29  H   UNL A   1      35.520  20.380  26.291  1.00  0.00     0.293 HD
ENDBRANCH  13  28
ENDBRANCH   5   8
ENDBRANCH   3   4
ENDBRANCH   2   3
ENDBRANCH   1   2
BRANCH   1  30
ATOM     30  C   UNL A   1      40.429  22.320  27.623  1.00  0.00     0.002 C 
BRANCH  30  31
ATOM     31  C   UNL A   1      40.814  20.839  27.520  1.00  0.00     0.021 C 
BRANCH  31  32
ATOM     32  C   UNL A   1      40.664  20.240  26.124  1.00  0.00     0.116 C 
BRANCH  32  33
ATOM     33  N   UNL A   1      41.880  19.560  25.706  1.00  0.00    -0.352 N 
ATOM     34  C   UNL A   1      43.099  20.091  25.367  1.00  0.00     0.251 C 
ATOM     35  H   UNL A   1      41.819  18.579  25.658  1.00  0.00     0.163 HD
ATOM     36  O   UNL A   1      43.920  19.400  24.771  1.00  0.00    -0.269 OA
BRANCH  34  37
ATOM     37  C   UNL A   1      43.415  21.494  25.718  1.00  0.00     0.039 A 
ATOM     38  C   UNL A   1      43.170  22.501  24.780  1.00  0.00     0.014 A 
ATOM     39  C   UNL A   1      43.982  21.810  26.955  1.00  0.00     0.014 A 
ATOM     40  C   UNL A   1      43.448  23.830  25.105  1.00  0.00     0.010 A 
ATOM     41  C   UNL A   1      44.198  23.142  27.301  1.00  0.00     0.010 A 
ATOM     42  C   UNL A   1      43.939  24.165  26.377  1.00  0.00    -0.014 A 
BRANCH  42  43
ATOM     43  C   UNL A   1      44.203  25.579  26.755  1.00  0.00     0.031 A 
ATOM     44  C   UNL A   1      45.590  26.145  26.620  1.00  0.00     0.074 A 
ATOM     45  C   UNL A   1      43.211  26.325  27.277  1.00  0.00     0.049 A 
ATOM     46  N   UNL A   1      46.044  27.319  26.976  1.00  0.00    -0.248 NA
ATOM     47  C   UNL A   1      46.609  25.260  26.034  1.00  0.00     0.031 C 
ATOM     48  C   UNL A   1      41.835  25.871  27.490  1.00  0.00     0.029 A 
ATOM     49  N   UNL A   1      43.207  27.618  27.735  1.00  0.00    -0.354 N 
ATOM     50  C   UNL A   1      47.401  27.311  26.671  1.00  0.00     0.074 A 
ATOM     51  C   UNL A   1      47.706  25.993  26.156  1.00  0.00     0.031 C 
ATOM     52  C   UNL A   1      41.117  26.875  28.020  1.00  0.00     0.029 A 
ATOM     53  C   UNL A   1      41.988  28.028  28.227  1.00  0.00     0.049 A 
ATOM     54  H   UNL A   1      44.001  28.200  27.715  1.00  0.00     0.167 HD
ATOM     55  C   UNL A   1      48.304  28.317  26.792  1.00  0.00     0.034 A 
ATOM     56  C   UNL A   1      41.618  29.195  28.793  1.00  0.00     0.034 A 
ATOM     57  C   UNL A   1      47.977  29.630  27.291  1.00  0.00     0.049 A 
ATOM     58  C   UNL A   1      42.643  30.292  28.929  1.00  0.00     0.074 A 
ATOM     59  C   UNL A   1      48.798  30.739  27.403  1.00  0.00     0.029 A 
ATOM     60  N   UNL A   1      46.730  30.013  27.768  1.00  0.00    -0.354 N 
ATOM     61  N   UNL A   1      43.913  30.283  28.590  1.00  0.00    -0.248 NA
ATOM     62  C   UNL A   1      42.184  31.560  29.509  1.00  0.00     0.031 C 
ATOM     63  C   UNL A   1      48.067  31.768  28.006  1.00  0.00     0.029 A 
ATOM     64  C   UNL A   1      46.767  31.329  28.202  1.00  0.00     0.049 A 
ATOM     65  H   UNL A   1      45.935  29.432  27.795  1.00  0.00     0.167 HD
ATOM     66  C   UNL A   1      44.393  31.556  28.889  1.00  0.00     0.074 A 
ATOM     67  C   UNL A   1      43.274  32.308  29.418  1.00  0.00     0.031 C 
ATOM     68  C   UNL A   1      45.643  32.061  28.735  1.00  0.00     0.034 A 
BRANCH  55  69
ATOM     69  C   UNL A   1      49.732  28.023  26.398  1.00  0.00     0.023 A 
ATOM     70  C   UNL A   1      50.167  28.119  25.064  1.00  0.00     0.031 A 
ATOM     71  C   UNL A   1      50.669  27.621  27.366  1.00  0.00     0.131 A 
ATOM     72  C   UNL A   1      51.478  27.750  24.725  1.00  0.00     0.055 A 
ATOM     73  C   UNL A   1      51.996  27.333  27.034  1.00  0.00     0.041 A 
ATOM     74  F   UNL A   1      50.309  27.489  28.653  1.00  0.00    -0.206 F 
ATOM     75  C   UNL A   1      52.403  27.383  25.705  1.00  0.00     0.022 A 
BRANCH  72  76
ATOM     76  S   UNL A   1      51.916  27.627  22.969  1.00  0.00     0.124 S 
ATOM     77  O   UNL A   1      52.254  29.013  22.653  1.00  0.00    -0.237 OA
ATOM     78  O   UNL A   1      53.029  26.686  22.987  1.00  0.00    -0.237 OA
ATOM     79  O   UNL A   1      50.691  27.133  22.345  1.00  0.00    -0.744 OA
ENDBRANCH  72  76
ENDBRANCH  55  69
BRANCH  56  80
ATOM     80  C   UNL A   1      40.224  29.389  29.286  1.00  0.00     0.023 A 
ATOM     81  C   UNL A   1      39.933  29.360  30.660  1.00  0.00     0.031 A 
ATOM     82  C   UNL A   1      39.155  29.558  28.389  1.00  0.00     0.131 A 
ATOM     83  C   UNL A   1      38.602  29.444  31.094  1.00  0.00     0.055 A 
ATOM     84  C   UNL A   1      37.837  29.697  28.830  1.00  0.00     0.041 A 
ATOM     85  F   UNL A   1      39.378  29.599  27.065  1.00  0.00    -0.206 F 
ATOM     86  C   UNL A   1      37.553  29.624  30.189  1.00  0.00     0.022 A 
BRANCH  83  87
ATOM     87  S   UNL A   1      38.249  29.216  32.858  1.00  0.00     0.124 S 
ATOM     88  O   UNL A   1      37.654  27.885  32.873  1.00  0.00    -0.237 OA
ATOM     89  O   UNL A   1      39.579  29.332  33.449  1.00  0.00    -0.237 OA
ATOM     90  O   UNL A   1      37.335  30.313  33.167  1.00  0.00    -0.744 OA
ENDBRANCH  83  87
ENDBRANCH  56  80
BRANCH  68  91
ATOM     91  C   UNL A   1      45.846  33.509  29.105  1.00  0.00     0.023 A 
ATOM     92  C   UNL A   1      45.719  34.540  28.158  1.00  0.00     0.031 A 
ATOM     93  C   UNL A   1      46.183  33.860  30.425  1.00  0.00     0.131 A 
ATOM     94  C   UNL A   1      45.985  35.867  28.530  1.00  0.00     0.055 A 
ATOM     95  C   UNL A   1      46.386  35.188  30.803  1.00  0.00     0.041 A 
ATOM     96  F   UNL A   1      46.318  32.915  31.369  1.00  0.00    -0.206 F 
ATOM     97  C   UNL A   1      46.300  36.199  29.849  1.00  0.00     0.022 A 
BRANCH  94  98
ATOM     98  S   UNL A   1      46.000  37.144  27.243  1.00  0.00     0.124 S 
ATOM     99  O   UNL A   1      46.992  38.082  27.759  1.00  0.00    -0.237 OA
ATOM    100  O   UNL A   1      46.394  36.390  26.058  1.00  0.00    -0.237 OA
ATOM    101  O   UNL A   1      44.625  37.638  27.232  1.00  0.00    -0.744 OA
ENDBRANCH  94  98
ENDBRANCH  68  91
ENDBRANCH  42  43
ENDBRANCH  34  37
ENDBRANCH  32  33
ENDBRANCH  31  32
ENDBRANCH  30  31
ENDBRANCH   1  30
TORSDOF 21
ENDMDL
