MODEL 1
REMARK VINA RESULT:     -12.3      0.000      0.000
REMARK SMILES C#Cc1cc(Cl)c2c(c1)C=C(C(=O)NCCCCCCNC(=O)c1ccc(-c3c4nc(c(-c5cc(S(=O)(=O)[O-])ccc5F)c5ccc([nH]5)c(-c5cc(S(=O)(=O)[O-])ccc5F)c5nc(c(-c6cc(S(=O)(=O)[O-])ccc6F)c6ccc3[nH]6)C=C5)C=C4)cc1)[C@@H](C(F)(F)F)O2
REMARK SMILES IDX 18 1 17 2 16 3 15 4 14 5 12 6 13 7 11 9 3 10 4 11 9 12 5 13
REMARK SMILES IDX 8 14 6 15 7 16 10 17 92 18 87 19 2 20 1 21 88 22 89 23 90 24
REMARK SMILES IDX 91 25 19 26 20 27 21 28 22 29 23 31 24 32 25 33 86 34 26 35
REMARK SMILES IDX 85 36 27 37 28 38 29 39 79 40 30 41 84 42 78 43 80 44 31 45
REMARK SMILES IDX 83 46 77 47 76 48 32 50 64 51 44 52 63 53 45 54 48 55 62 56
REMARK SMILES IDX 81 57 46 58 47 59 61 61 82 62 49 63 33 64 34 65 42 66 35 67
REMARK SMILES IDX 41 68 43 69 40 70 36 71 37 72 38 73 39 74 65 75 66 76 74 77
REMARK SMILES IDX 67 78 73 79 75 80 72 81 68 82 69 83 70 84 71 85 50 86 51 87
REMARK SMILES IDX 59 88 52 89 58 90 60 91 57 92 53 93 54 94 55 95 56 96
REMARK H PARENT 14 8 21 30 80 49 48 60
REMARK Flexibility Score: inf
ROOT
ATOM      1  C   UNL A   1      34.492  20.518  24.999  1.00  0.00     0.002 C 
ENDROOT
BRANCH   1   2
ATOM      2  C   UNL A   1      33.161  20.789  24.283  1.00  0.00     0.002 C 
BRANCH   2   3
ATOM      3  C   UNL A   1      32.937  22.251  23.896  1.00  0.00     0.021 C 
BRANCH   3   4
ATOM      4  C   UNL A   1      31.468  22.652  23.925  1.00  0.00     0.116 C 
BRANCH   4   5
ATOM      5  N   UNL A   1      30.984  22.817  25.285  1.00  0.00    -0.352 N 
ATOM      6  C   UNL A   1      30.718  23.848  26.120  1.00  0.00     0.251 C 
ATOM      7  O   UNL A   1      30.276  23.536  27.231  1.00  0.00    -0.270 OA
ATOM      8  H   UNL A   1      30.800  21.949  25.711  1.00  0.00     0.163 HD
BRANCH   6   9
ATOM      9  C   UNL A   1      30.925  25.290  25.787  1.00  0.00     0.067 C 
ATOM     10  C   UNL A   1      29.583  29.152  23.196  1.00  0.00     0.027 A 
ATOM     11  C   UNL A   1      30.467  29.954  23.916  1.00  0.00     0.041 A 
ATOM     12  C   UNL A   1      29.460  27.790  23.496  1.00  0.00     0.029 A 
ATOM     13  C   UNL A   1      31.230  29.396  24.935  1.00  0.00     0.084 A 
ATOM     14  C   UNL A   1      30.227  27.226  24.521  1.00  0.00     0.020 A 
ATOM     15  Cl  UNL A   1      32.307  30.420  25.817  1.00  0.00    -0.080 Cl
ATOM     16  C   UNL A   1      31.118  28.034  25.232  1.00  0.00     0.146 A 
ATOM     17  C   UNL A   1      30.075  25.822  24.889  1.00  0.00     0.025 C 
ATOM     18  O   UNL A   1      31.867  27.555  26.264  1.00  0.00    -0.474 OA
ATOM     19  C   UNL A   1      32.029  26.122  26.369  1.00  0.00     0.314 C 
BRANCH  10  20
ATOM     20  C   UNL A   1      28.793  29.738  22.161  1.00  0.00    -0.070 C 
ATOM     21  C   UNL A   1      28.116  30.258  21.314  1.00  0.00     0.010 C 
ENDBRANCH  10  20
BRANCH  19  22
ATOM     22  C   UNL A   1      33.415  25.729  25.824  1.00  0.00     0.429 C 
ATOM     23  F   UNL A   1      34.311  26.723  26.031  1.00  0.00    -0.167 F 
ATOM     24  F   UNL A   1      33.922  24.627  26.425  1.00  0.00    -0.167 F 
ATOM     25  F   UNL A   1      33.386  25.470  24.497  1.00  0.00    -0.167 F 
ENDBRANCH  19  22
ENDBRANCH   6   9
ENDBRANCH   4   5
ENDBRANCH   3   4
ENDBRANCH   2   3
ENDBRANCH   1   2
BRANCH   1  26
ATOM     26  C   UNL A   1      34.889  21.572  26.037  1.00  0.00     0.021 C 
BRANCH  26  27
ATOM     27  C   UNL A   1      36.315  22.083  25.880  1.00  0.00     0.116 C 
BRANCH  27  28
ATOM     28  N   UNL A   1      37.274  20.990  25.906  1.00  0.00    -0.352 N 
ATOM     29  C   UNL A   1      38.641  21.046  25.993  1.00  0.00     0.251 C 
ATOM     30  H   UNL A   1      36.888  20.086  25.856  1.00  0.00     0.163 HD
ATOM     31  O   UNL A   1      39.313  20.053  25.736  1.00  0.00    -0.269 OA
BRANCH  29  32
ATOM     32  C   UNL A   1      39.282  22.314  26.386  1.00  0.00     0.039 A 
ATOM     33  C   UNL A   1      40.378  22.282  27.249  1.00  0.00     0.014 A 
ATOM     34  C   UNL A   1      38.805  23.531  25.887  1.00  0.00     0.014 A 
ATOM     35  C   UNL A   1      41.028  23.473  27.573  1.00  0.00     0.010 A 
ATOM     36  C   UNL A   1      39.505  24.704  26.143  1.00  0.00     0.010 A 
ATOM     37  C   UNL A   1      40.614  24.688  27.000  1.00  0.00    -0.014 A 
BRANCH  37  38
ATOM     38  C   UNL A   1      41.316  25.956  27.315  1.00  0.00     0.031 A 
ATOM     39  C   UNL A   1      40.638  26.991  28.169  1.00  0.00     0.074 A 
ATOM     40  C   UNL A   1      42.549  26.178  26.819  1.00  0.00     0.049 A 
ATOM     41  N   UNL A   1      41.069  28.170  28.531  1.00  0.00    -0.248 NA
ATOM     42  C   UNL A   1      39.292  26.666  28.670  1.00  0.00     0.031 C 
ATOM     43  C   UNL A   1      43.296  25.251  25.967  1.00  0.00     0.029 A 
ATOM     44  N   UNL A   1      43.397  27.246  26.968  1.00  0.00    -0.354 N 
ATOM     45  C   UNL A   1      40.056  28.722  29.305  1.00  0.00     0.074 A 
ATOM     46  C   UNL A   1      38.959  27.781  29.302  1.00  0.00     0.031 C 
ATOM     47  C   UNL A   1      44.508  25.768  25.711  1.00  0.00     0.029 A 
ATOM     48  C   UNL A   1      44.606  27.085  26.332  1.00  0.00     0.049 A 
ATOM     49  H   UNL A   1      43.163  28.052  27.482  1.00  0.00     0.167 HD
ATOM     50  C   UNL A   1      40.057  29.893  29.985  1.00  0.00     0.034 A 
ATOM     51  C   UNL A   1      45.671  27.908  26.255  1.00  0.00     0.034 A 
ATOM     52  C   UNL A   1      41.161  30.815  29.992  1.00  0.00     0.049 A 
ATOM     53  C   UNL A   1      45.617  29.237  26.961  1.00  0.00     0.074 A 
ATOM     54  C   UNL A   1      41.271  32.015  30.669  1.00  0.00     0.029 A 
ATOM     55  N   UNL A   1      42.346  30.642  29.289  1.00  0.00    -0.354 N 
ATOM     56  N   UNL A   1      44.655  29.737  27.702  1.00  0.00    -0.248 NA
ATOM     57  C   UNL A   1      46.787  30.114  26.822  1.00  0.00     0.031 C 
ATOM     58  C   UNL A   1      42.489  32.604  30.318  1.00  0.00     0.029 A 
ATOM     59  C   UNL A   1      43.176  31.733  29.488  1.00  0.00     0.049 A 
ATOM     60  H   UNL A   1      42.565  29.860  28.733  1.00  0.00     0.167 HD
ATOM     61  C   UNL A   1      45.114  30.977  28.135  1.00  0.00     0.074 A 
ATOM     62  C   UNL A   1      46.443  31.144  27.583  1.00  0.00     0.031 C 
ATOM     63  C   UNL A   1      44.494  31.890  28.922  1.00  0.00     0.034 A 
BRANCH  50  64
ATOM     64  C   UNL A   1      38.825  30.246  30.776  1.00  0.00     0.023 A 
ATOM     65  C   UNL A   1      37.795  31.023  30.219  1.00  0.00     0.031 A 
ATOM     66  C   UNL A   1      38.658  29.767  32.087  1.00  0.00     0.131 A 
ATOM     67  C   UNL A   1      36.659  31.327  30.982  1.00  0.00     0.055 A 
ATOM     68  C   UNL A   1      37.498  30.020  32.819  1.00  0.00     0.041 A 
ATOM     69  F   UNL A   1      39.621  29.037  32.674  1.00  0.00    -0.206 F 
ATOM     70  C   UNL A   1      36.492  30.809  32.268  1.00  0.00     0.022 A 
BRANCH  67  71
ATOM     71  S   UNL A   1      35.434  32.474  30.296  1.00  0.00     0.124 S 
ATOM     72  O   UNL A   1      36.240  33.673  30.082  1.00  0.00    -0.237 OA
ATOM     73  O   UNL A   1      34.989  31.780  29.093  1.00  0.00    -0.237 OA
ATOM     74  O   UNL A   1      34.435  32.583  31.358  1.00  0.00    -0.744 OA
ENDBRANCH  67  71
ENDBRANCH  50  64
BRANCH  51  75
ATOM     75  C   UNL A   1      46.879  27.496  25.484  1.00  0.00     0.023 A 
ATOM     76  C   UNL A   1      47.031  27.857  24.137  1.00  0.00     0.031 A 
ATOM     77  C   UNL A   1      47.899  26.739  26.085  1.00  0.00     0.131 A 
ATOM     78  C   UNL A   1      48.168  27.442  23.426  1.00  0.00     0.055 A 
ATOM     79  C   UNL A   1      49.048  26.365  25.386  1.00  0.00     0.041 A 
ATOM     80  F   UNL A   1      47.805  26.373  27.373  1.00  0.00    -0.206 F 
ATOM     81  C   UNL A   1      49.184  26.711  24.046  1.00  0.00     0.022 A 
BRANCH  78  82
ATOM     82  S   UNL A   1      48.283  27.838  21.659  1.00  0.00     0.124 S 
ATOM     83  O   UNL A   1      48.622  26.540  21.087  1.00  0.00    -0.237 OA
ATOM     84  O   UNL A   1      46.943  28.338  21.372  1.00  0.00    -0.237 OA
ATOM     85  O   UNL A   1      49.344  28.841  21.605  1.00  0.00    -0.744 OA
ENDBRANCH  78  82
ENDBRANCH  51  75
BRANCH  63  86
ATOM     86  C   UNL A   1      45.246  33.152  29.256  1.00  0.00     0.023 A 
ATOM     87  C   UNL A   1      45.223  34.265  28.400  1.00  0.00     0.031 A 
ATOM     88  C   UNL A   1      45.939  33.264  30.475  1.00  0.00     0.131 A 
ATOM     89  C   UNL A   1      45.904  35.437  28.763  1.00  0.00     0.055 A 
ATOM     90  C   UNL A   1      46.569  34.449  30.855  1.00  0.00     0.041 A 
ATOM     91  F   UNL A   1      45.988  32.230  31.331  1.00  0.00    -0.206 F 
ATOM     92  C   UNL A   1      46.558  35.543  29.993  1.00  0.00     0.022 A 
BRANCH  89  93
ATOM     93  S   UNL A   1      45.954  36.812  27.584  1.00  0.00     0.124 S 
ATOM     94  O   UNL A   1      44.719  37.525  27.899  1.00  0.00    -0.237 OA
ATOM     95  O   UNL A   1      47.193  37.492  27.945  1.00  0.00    -0.237 OA
ATOM     96  O   UNL A   1      45.970  36.147  26.282  1.00  0.00    -0.744 OA
ENDBRANCH  89  93
ENDBRANCH  63  86
ENDBRANCH  37  38
ENDBRANCH  29  32
ENDBRANCH  27  28
ENDBRANCH  26  27
ENDBRANCH   1  26
TORSDOF 18
ENDMDL
MODEL 2
REMARK VINA RESULT:     -12.3      5.593     10.525
REMARK SMILES C#Cc1cc(Cl)c2c(c1)C=C(C(=O)NCCCCCCNC(=O)c1ccc(-c3c4nc(c(-c5cc(S(=O)(=O)[O-])ccc5F)c5ccc([nH]5)c(-c5cc(S(=O)(=O)[O-])ccc5F)c5nc(c(-c6cc(S(=O)(=O)[O-])ccc6F)c6ccc3[nH]6)C=C5)C=C4)cc1)[C@@H](C(F)(F)F)O2
REMARK SMILES IDX 18 1 17 2 16 3 15 4 14 5 12 6 13 7 11 9 3 10 4 11 9 12 5 13
REMARK SMILES IDX 8 14 6 15 7 16 10 17 92 18 87 19 2 20 1 21 88 22 89 23 90 24
REMARK SMILES IDX 91 25 19 26 20 27 21 28 22 29 23 31 24 32 25 33 86 34 26 35
REMARK SMILES IDX 85 36 27 37 28 38 29 39 79 40 30 41 84 42 78 43 80 44 31 45
REMARK SMILES IDX 83 46 77 47 76 48 32 50 64 51 44 52 63 53 45 54 48 55 62 56
REMARK SMILES IDX 81 57 46 58 47 59 61 61 82 62 49 63 33 64 34 65 42 66 35 67
REMARK SMILES IDX 41 68 43 69 40 70 36 71 37 72 38 73 39 74 65 75 66 76 74 77
REMARK SMILES IDX 67 78 73 79 75 80 72 81 68 82 69 83 70 84 71 85 50 86 51 87
REMARK SMILES IDX 59 88 52 89 58 90 60 91 57 92 53 93 54 94 55 95 56 96
REMARK H PARENT 14 8 21 30 80 49 48 60
REMARK Flexibility Score: inf
ROOT
ATOM      1  C   UNL A   1      31.812  30.278  25.826  1.00  0.00     0.002 C 
ENDROOT
BRANCH   1   2
ATOM      2  C   UNL A   1      33.190  29.661  26.105  1.00  0.00     0.002 C 
BRANCH   2   3
ATOM      3  C   UNL A   1      33.729  28.779  24.978  1.00  0.00     0.021 C 
BRANCH   3   4
ATOM      4  C   UNL A   1      33.954  27.337  25.413  1.00  0.00     0.116 C 
BRANCH   4   5
ATOM      5  N   UNL A   1      33.747  26.408  24.316  1.00  0.00    -0.352 N 
ATOM      6  C   UNL A   1      32.735  26.074  23.481  1.00  0.00     0.251 C 
ATOM      7  O   UNL A   1      33.000  25.213  22.635  1.00  0.00    -0.270 OA
ATOM      8  H   UNL A   1      34.557  25.881  24.130  1.00  0.00     0.163 HD
BRANCH   6   9
ATOM      9  C   UNL A   1      31.363  26.666  23.526  1.00  0.00     0.067 C 
ATOM     10  C   UNL A   1      28.416  30.325  22.363  1.00  0.00     0.027 A 
ATOM     11  C   UNL A   1      27.321  29.609  22.845  1.00  0.00     0.041 A 
ATOM     12  C   UNL A   1      29.698  29.762  22.392  1.00  0.00     0.029 A 
ATOM     13  C   UNL A   1      27.505  28.331  23.359  1.00  0.00     0.084 A 
ATOM     14  C   UNL A   1      29.886  28.476  22.910  1.00  0.00     0.020 A 
ATOM     15  Cl  UNL A   1      26.127  27.465  23.938  1.00  0.00    -0.080 Cl
ATOM     16  C   UNL A   1      28.785  27.768  23.400  1.00  0.00     0.146 A 
ATOM     17  C   UNL A   1      31.202  27.846  22.899  1.00  0.00     0.025 C 
ATOM     18  O   UNL A   1      28.896  26.500  23.884  1.00  0.00    -0.474 OA
ATOM     19  C   UNL A   1      30.213  26.031  24.251  1.00  0.00     0.314 C 
BRANCH  10  20
ATOM     20  C   UNL A   1      28.213  31.632  21.823  1.00  0.00    -0.070 C 
ATOM     21  C   UNL A   1      28.078  32.737  21.371  1.00  0.00     0.010 C 
ENDBRANCH  10  20
BRANCH  19  22
ATOM     22  C   UNL A   1      30.367  26.105  25.781  1.00  0.00     0.429 C 
ATOM     23  F   UNL A   1      31.344  25.269  26.204  1.00  0.00    -0.167 F 
ATOM     24  F   UNL A   1      30.707  27.341  26.216  1.00  0.00    -0.167 F 
ATOM     25  F   UNL A   1      29.228  25.766  26.426  1.00  0.00    -0.167 F 
ENDBRANCH  19  22
ENDBRANCH   6   9
ENDBRANCH   4   5
ENDBRANCH   3   4
ENDBRANCH   2   3
ENDBRANCH   1   2
BRANCH   1  26
ATOM     26  C   UNL A   1      31.547  31.608  26.539  1.00  0.00     0.021 C 
BRANCH  26  27
ATOM     27  C   UNL A   1      32.787  32.219  27.178  1.00  0.00     0.116 C 
BRANCH  27  28
ATOM     28  N   UNL A   1      32.604  33.638  27.435  1.00  0.00    -0.352 N 
ATOM     29  C   UNL A   1      33.142  34.409  28.432  1.00  0.00     0.251 C 
ATOM     30  H   UNL A   1      32.012  34.110  26.806  1.00  0.00     0.163 HD
ATOM     31  O   UNL A   1      32.680  35.521  28.666  1.00  0.00    -0.269 OA
BRANCH  29  32
ATOM     32  C   UNL A   1      34.269  33.877  29.220  1.00  0.00     0.039 A 
ATOM     33  C   UNL A   1      34.007  32.994  30.269  1.00  0.00     0.014 A 
ATOM     34  C   UNL A   1      35.584  34.242  28.909  1.00  0.00     0.014 A 
ATOM     35  C   UNL A   1      35.073  32.438  30.976  1.00  0.00     0.010 A 
ATOM     36  C   UNL A   1      36.644  33.622  29.559  1.00  0.00     0.010 A 
ATOM     37  C   UNL A   1      36.398  32.725  30.608  1.00  0.00    -0.014 A 
BRANCH  37  38
ATOM     38  C   UNL A   1      37.540  32.117  31.334  1.00  0.00     0.031 A 
ATOM     39  C   UNL A   1      38.313  30.994  30.702  1.00  0.00     0.074 A 
ATOM     40  C   UNL A   1      37.865  32.565  32.562  1.00  0.00     0.049 A 
ATOM     41  N   UNL A   1      39.319  30.313  31.184  1.00  0.00    -0.248 NA
ATOM     42  C   UNL A   1      37.891  30.567  29.356  1.00  0.00     0.031 C 
ATOM     43  C   UNL A   1      37.175  33.640  33.279  1.00  0.00     0.029 A 
ATOM     44  N   UNL A   1      38.864  32.184  33.422  1.00  0.00    -0.354 N 
ATOM     45  C   UNL A   1      39.654  29.388  30.204  1.00  0.00     0.074 A 
ATOM     46  C   UNL A   1      38.701  29.544  29.128  1.00  0.00     0.031 C 
ATOM     47  C   UNL A   1      37.801  33.863  34.445  1.00  0.00     0.029 A 
ATOM     48  C   UNL A   1      38.901  32.915  34.586  1.00  0.00     0.049 A 
ATOM     49  H   UNL A   1      39.495  31.455  33.224  1.00  0.00     0.167 HD
ATOM     50  C   UNL A   1      40.686  28.512  30.188  1.00  0.00     0.034 A 
ATOM     51  C   UNL A   1      39.726  32.829  35.649  1.00  0.00     0.034 A 
ATOM     52  C   UNL A   1      41.638  28.376  31.259  1.00  0.00     0.049 A 
ATOM     53  C   UNL A   1      40.822  31.795  35.637  1.00  0.00     0.074 A 
ATOM     54  C   UNL A   1      42.734  27.537  31.329  1.00  0.00     0.029 A 
ATOM     55  N   UNL A   1      41.609  29.096  32.446  1.00  0.00    -0.354 N 
ATOM     56  N   UNL A   1      41.134  30.937  34.693  1.00  0.00    -0.248 NA
ATOM     57  C   UNL A   1      41.675  31.715  36.830  1.00  0.00     0.031 C 
ATOM     58  C   UNL A   1      43.324  27.694  32.586  1.00  0.00     0.029 A 
ATOM     59  C   UNL A   1      42.647  28.691  33.269  1.00  0.00     0.049 A 
ATOM     60  H   UNL A   1      40.949  29.791  32.668  1.00  0.00     0.167 HD
ATOM     61  C   UNL A   1      42.234  30.232  35.171  1.00  0.00     0.074 A 
ATOM     62  C   UNL A   1      42.538  30.772  36.480  1.00  0.00     0.031 C 
ATOM     63  C   UNL A   1      42.931  29.232  34.576  1.00  0.00     0.034 A 
BRANCH  50  64
ATOM     64  C   UNL A   1      40.840  27.629  28.977  1.00  0.00     0.023 A 
ATOM     65  C   UNL A   1      41.829  27.881  28.011  1.00  0.00     0.031 A 
ATOM     66  C   UNL A   1      40.018  26.502  28.807  1.00  0.00     0.131 A 
ATOM     67  C   UNL A   1      41.949  27.034  26.899  1.00  0.00     0.055 A 
ATOM     68  C   UNL A   1      40.183  25.629  27.732  1.00  0.00     0.041 A 
ATOM     69  F   UNL A   1      39.044  26.229  29.691  1.00  0.00    -0.206 F 
ATOM     70  C   UNL A   1      41.151  25.896  26.767  1.00  0.00     0.022 A 
BRANCH  67  71
ATOM     71  S   UNL A   1      43.115  27.486  25.587  1.00  0.00     0.124 S 
ATOM     72  O   UNL A   1      43.544  26.175  25.108  1.00  0.00    -0.237 OA
ATOM     73  O   UNL A   1      42.281  28.259  24.674  1.00  0.00    -0.237 OA
ATOM     74  O   UNL A   1      44.143  28.252  26.291  1.00  0.00    -0.744 OA
ENDBRANCH  67  71
ENDBRANCH  50  64
BRANCH  51  75
ATOM     75  C   UNL A   1      39.550  33.748  36.809  1.00  0.00     0.023 A 
ATOM     76  C   UNL A   1      38.987  33.292  38.010  1.00  0.00     0.031 A 
ATOM     77  C   UNL A   1      39.945  35.096  36.732  1.00  0.00     0.131 A 
ATOM     78  C   UNL A   1      38.813  34.182  39.082  1.00  0.00     0.055 A 
ATOM     79  C   UNL A   1      39.810  35.965  37.815  1.00  0.00     0.041 A 
ATOM     80  F   UNL A   1      40.494  35.579  35.607  1.00  0.00    -0.206 F 
ATOM     81  C   UNL A   1      39.235  35.511  38.998  1.00  0.00     0.022 A 
BRANCH  78  82
ATOM     82  S   UNL A   1      37.989  33.585  40.584  1.00  0.00     0.124 S 
ATOM     83  O   UNL A   1      38.826  32.448  40.949  1.00  0.00    -0.237 OA
ATOM     84  O   UNL A   1      38.070  34.750  41.458  1.00  0.00    -0.237 OA
ATOM     85  O   UNL A   1      36.644  33.249  40.122  1.00  0.00    -0.744 OA
ENDBRANCH  78  82
ENDBRANCH  51  75
BRANCH  63  86
ATOM     86  C   UNL A   1      44.108  28.659  35.322  1.00  0.00     0.023 A 
ATOM     87  C   UNL A   1      43.947  27.632  36.265  1.00  0.00     0.031 A 
ATOM     88  C   UNL A   1      45.412  29.103  35.037  1.00  0.00     0.131 A 
ATOM     89  C   UNL A   1      45.071  27.097  36.911  1.00  0.00     0.055 A 
ATOM     90  C   UNL A   1      46.530  28.531  35.643  1.00  0.00     0.041 A 
ATOM     91  F   UNL A   1      45.621  30.081  34.140  1.00  0.00    -0.206 F 
ATOM     92  C   UNL A   1      46.363  27.526  36.591  1.00  0.00     0.022 A 
BRANCH  89  93
ATOM     93  S   UNL A   1      44.819  25.857  38.208  1.00  0.00     0.124 S 
ATOM     94  O   UNL A   1      43.786  25.009  37.618  1.00  0.00    -0.237 OA
ATOM     95  O   UNL A   1      46.143  25.257  38.332  1.00  0.00    -0.237 OA
ATOM     96  O   UNL A   1      44.388  26.647  39.359  1.00  0.00    -0.744 OA
ENDBRANCH  89  93
ENDBRANCH  63  86
ENDBRANCH  37  38
ENDBRANCH  29  32
ENDBRANCH  27  28
ENDBRANCH  26  27
ENDBRANCH   1  26
TORSDOF 18
ENDMDL
MODEL 3
REMARK VINA RESULT:     -12.2      5.420      8.183
REMARK SMILES C#Cc1cc(Cl)c2c(c1)C=C(C(=O)NCCCCCCNC(=O)c1ccc(-c3c4nc(c(-c5cc(S(=O)(=O)[O-])ccc5F)c5ccc([nH]5)c(-c5cc(S(=O)(=O)[O-])ccc5F)c5nc(c(-c6cc(S(=O)(=O)[O-])ccc6F)c6ccc3[nH]6)C=C5)C=C4)cc1)[C@@H](C(F)(F)F)O2
REMARK SMILES IDX 18 1 17 2 16 3 15 4 14 5 12 6 13 7 11 9 3 10 4 11 9 12 5 13
REMARK SMILES IDX 8 14 6 15 7 16 10 17 92 18 87 19 2 20 1 21 88 22 89 23 90 24
REMARK SMILES IDX 91 25 19 26 20 27 21 28 22 29 23 31 24 32 25 33 86 34 26 35
REMARK SMILES IDX 85 36 27 37 28 38 29 39 79 40 30 41 84 42 78 43 80 44 31 45
REMARK SMILES IDX 83 46 77 47 76 48 32 50 64 51 44 52 63 53 45 54 48 55 62 56
REMARK SMILES IDX 81 57 46 58 47 59 61 61 82 62 49 63 33 64 34 65 42 66 35 67
REMARK SMILES IDX 41 68 43 69 40 70 36 71 37 72 38 73 39 74 65 75 66 76 74 77
REMARK SMILES IDX 67 78 73 79 75 80 72 81 68 82 69 83 70 84 71 85 50 86 51 87
REMARK SMILES IDX 59 88 52 89 58 90 60 91 57 92 53 93 54 94 55 95 56 96
REMARK H PARENT 14 8 21 30 80 49 48 60
REMARK Flexibility Score: inf
ROOT
ATOM      1  C   UNL A   1      31.788  30.212  25.867  1.00  0.00     0.002 C 
ENDROOT
BRANCH   1   2
ATOM      2  C   UNL A   1      33.007  29.465  26.428  1.00  0.00     0.002 C 
BRANCH   2   3
ATOM      3  C   UNL A   1      33.777  28.643  25.394  1.00  0.00     0.021 C 
BRANCH   3   4
ATOM      4  C   UNL A   1      33.856  27.165  25.754  1.00  0.00     0.116 C 
BRANCH   4   5
ATOM      5  N   UNL A   1      33.715  26.319  24.582  1.00  0.00    -0.352 N 
ATOM      6  C   UNL A   1      32.755  26.053  23.665  1.00  0.00     0.251 C 
ATOM      7  O   UNL A   1      33.071  25.255  22.776  1.00  0.00    -0.270 OA
ATOM      8  H   UNL A   1      34.534  25.802  24.408  1.00  0.00     0.163 HD
BRANCH   6   9
ATOM      9  C   UNL A   1      31.385  26.649  23.669  1.00  0.00     0.067 C 
ATOM     10  C   UNL A   1      28.504  30.362  22.511  1.00  0.00     0.027 A 
ATOM     11  C   UNL A   1      27.386  29.633  22.913  1.00  0.00     0.041 A 
ATOM     12  C   UNL A   1      29.781  29.793  22.578  1.00  0.00     0.029 A 
ATOM     13  C   UNL A   1      27.543  28.335  23.386  1.00  0.00     0.084 A 
ATOM     14  C   UNL A   1      29.942  28.487  23.054  1.00  0.00     0.020 A 
ATOM     15  Cl  UNL A   1      26.137  27.454  23.867  1.00  0.00    -0.080 Cl
ATOM     16  C   UNL A   1      28.818  27.765  23.465  1.00  0.00     0.146 A 
ATOM     17  C   UNL A   1      31.256  27.853  23.081  1.00  0.00     0.025 C 
ATOM     18  O   UNL A   1      28.903  26.479  23.905  1.00  0.00    -0.474 OA
ATOM     19  C   UNL A   1      30.200  25.992  24.314  1.00  0.00     0.314 C 
BRANCH  10  20
ATOM     20  C   UNL A   1      28.329  31.689  22.012  1.00  0.00    -0.070 C 
ATOM     21  C   UNL A   1      28.149  32.808  21.612  1.00  0.00     0.010 C 
ENDBRANCH  10  20
BRANCH  19  22
ATOM     22  C   UNL A   1      30.283  26.006  25.852  1.00  0.00     0.429 C 
ATOM     23  F   UNL A   1      30.616  27.239  26.302  1.00  0.00    -0.167 F 
ATOM     24  F   UNL A   1      29.108  25.687  26.444  1.00  0.00    -0.167 F 
ATOM     25  F   UNL A   1      31.204  25.135  26.321  1.00  0.00    -0.167 F 
ENDBRANCH  19  22
ENDBRANCH   6   9
ENDBRANCH   4   5
ENDBRANCH   3   4
ENDBRANCH   2   3
ENDBRANCH   1   2
BRANCH   1  26
ATOM     26  C   UNL A   1      31.583  31.621  26.431  1.00  0.00     0.021 C 
BRANCH  26  27
ATOM     27  C   UNL A   1      32.755  32.127  27.262  1.00  0.00     0.116 C 
BRANCH  27  28
ATOM     28  N   UNL A   1      32.618  33.543  27.562  1.00  0.00    -0.352 N 
ATOM     29  C   UNL A   1      33.237  34.280  28.538  1.00  0.00     0.251 C 
ATOM     30  H   UNL A   1      31.995  34.041  26.984  1.00  0.00     0.163 HD
ATOM     31  O   UNL A   1      32.813  35.394  28.826  1.00  0.00    -0.269 OA
BRANCH  29  32
ATOM     32  C   UNL A   1      34.402  33.708  29.237  1.00  0.00     0.039 A 
ATOM     33  C   UNL A   1      34.193  32.851  30.317  1.00  0.00     0.014 A 
ATOM     34  C   UNL A   1      35.700  34.012  28.811  1.00  0.00     0.014 A 
ATOM     35  C   UNL A   1      35.290  32.258  30.942  1.00  0.00     0.010 A 
ATOM     36  C   UNL A   1      36.784  33.354  29.379  1.00  0.00     0.010 A 
ATOM     37  C   UNL A   1      36.590  32.482  30.459  1.00  0.00    -0.014 A 
BRANCH  37  38
ATOM     38  C   UNL A   1      37.762  31.833  31.097  1.00  0.00     0.031 A 
ATOM     39  C   UNL A   1      38.193  32.259  32.472  1.00  0.00     0.074 A 
ATOM     40  C   UNL A   1      38.440  30.878  30.432  1.00  0.00     0.049 A 
ATOM     41  N   UNL A   1      39.204  31.838  33.185  1.00  0.00    -0.248 NA
ATOM     42  C   UNL A   1      37.394  33.310  33.127  1.00  0.00     0.031 C 
ATOM     43  C   UNL A   1      38.119  30.395  29.087  1.00  0.00     0.029 A 
ATOM     44  N   UNL A   1      39.532  30.132  30.798  1.00  0.00    -0.354 N 
ATOM     45  C   UNL A   1      39.158  32.562  34.370  1.00  0.00     0.074 A 
ATOM     46  C   UNL A   1      38.065  33.500  34.254  1.00  0.00     0.031 C 
ATOM     47  C   UNL A   1      38.963  29.402  28.764  1.00  0.00     0.029 A 
ATOM     48  C   UNL A   1      39.918  29.214  29.851  1.00  0.00     0.049 A 
ATOM     49  H   UNL A   1      39.995  30.244  31.660  1.00  0.00     0.167 HD
ATOM     50  C   UNL A   1      39.937  32.430  35.470  1.00  0.00     0.034 A 
ATOM     51  C   UNL A   1      40.930  28.322  29.856  1.00  0.00     0.034 A 
ATOM     52  C   UNL A   1      41.014  31.482  35.579  1.00  0.00     0.049 A 
ATOM     53  C   UNL A   1      41.827  28.247  31.063  1.00  0.00     0.074 A 
ATOM     54  C   UNL A   1      41.846  31.251  36.659  1.00  0.00     0.029 A 
ATOM     55  N   UNL A   1      41.410  30.608  34.577  1.00  0.00    -0.354 N 
ATOM     56  N   UNL A   1      41.760  28.930  32.183  1.00  0.00    -0.248 NA
ATOM     57  C   UNL A   1      42.935  27.285  31.010  1.00  0.00     0.031 C 
ATOM     58  C   UNL A   1      42.791  30.293  36.286  1.00  0.00     0.029 A 
ATOM     59  C   UNL A   1      42.499  29.864  35.001  1.00  0.00     0.049 A 
ATOM     60  H   UNL A   1      40.980  30.528  33.695  1.00  0.00     0.167 HD
ATOM     61  C   UNL A   1      42.803  28.462  32.976  1.00  0.00     0.074 A 
ATOM     62  C   UNL A   1      43.477  27.432  32.212  1.00  0.00     0.031 C 
ATOM     63  C   UNL A   1      43.166  28.848  34.224  1.00  0.00     0.034 A 
BRANCH  50  64
ATOM     64  C   UNL A   1      39.656  33.333  36.642  1.00  0.00     0.023 A 
ATOM     65  C   UNL A   1      38.976  32.864  37.779  1.00  0.00     0.031 A 
ATOM     66  C   UNL A   1      40.107  34.664  36.641  1.00  0.00     0.131 A 
ATOM     67  C   UNL A   1      38.738  33.730  38.856  1.00  0.00     0.055 A 
ATOM     68  C   UNL A   1      39.921  35.503  37.740  1.00  0.00     0.041 A 
ATOM     69  F   UNL A   1      40.743  35.168  35.571  1.00  0.00    -0.206 F 
ATOM     70  C   UNL A   1      39.228  35.038  38.855  1.00  0.00     0.022 A 
BRANCH  67  71
ATOM     71  S   UNL A   1      37.708  33.145  40.228  1.00  0.00     0.124 S 
ATOM     72  O   UNL A   1      38.463  31.981  40.688  1.00  0.00    -0.237 OA
ATOM     73  O   UNL A   1      37.695  34.293  41.127  1.00  0.00    -0.237 OA
ATOM     74  O   UNL A   1      36.430  32.837  39.590  1.00  0.00    -0.744 OA
ENDBRANCH  67  71
ENDBRANCH  50  64
BRANCH  51  75
ATOM     75  C   UNL A   1      41.145  27.430  28.682  1.00  0.00     0.023 A 
ATOM     76  C   UNL A   1      42.129  27.722  27.725  1.00  0.00     0.031 A 
ATOM     77  C   UNL A   1      40.371  26.269  28.502  1.00  0.00     0.131 A 
ATOM     78  C   UNL A   1      42.300  26.876  26.618  1.00  0.00     0.055 A 
ATOM     79  C   UNL A   1      40.574  25.408  27.422  1.00  0.00     0.041 A 
ATOM     80  F   UNL A   1      39.421  25.942  29.392  1.00  0.00    -0.206 F 
ATOM     81  C   UNL A   1      41.539  25.714  26.468  1.00  0.00     0.022 A 
BRANCH  78  82
ATOM     82  S   UNL A   1      43.510  27.338  25.348  1.00  0.00     0.124 S 
ATOM     83  O   UNL A   1      44.139  26.055  25.057  1.00  0.00    -0.237 OA
ATOM     84  O   UNL A   1      42.655  27.887  24.300  1.00  0.00    -0.237 OA
ATOM     85  O   UNL A   1      44.360  28.312  26.027  1.00  0.00    -0.744 OA
ENDBRANCH  78  82
ENDBRANCH  51  75
BRANCH  63  86
ATOM     86  C   UNL A   1      44.337  28.145  34.861  1.00  0.00     0.023 A 
ATOM     87  C   UNL A   1      44.172  26.942  35.566  1.00  0.00     0.031 A 
ATOM     88  C   UNL A   1      45.639  28.652  34.704  1.00  0.00     0.131 A 
ATOM     89  C   UNL A   1      45.291  26.296  36.112  1.00  0.00     0.055 A 
ATOM     90  C   UNL A   1      46.754  27.977  35.203  1.00  0.00     0.041 A 
ATOM     91  F   UNL A   1      45.852  29.797  34.035  1.00  0.00    -0.206 F 
ATOM     92  C   UNL A   1      46.582  26.795  35.917  1.00  0.00     0.022 A 
BRANCH  89  93
ATOM     93  S   UNL A   1      45.031  24.810  37.116  1.00  0.00     0.124 S 
ATOM     94  O   UNL A   1      44.425  23.896  36.152  1.00  0.00    -0.237 OA
ATOM     95  O   UNL A   1      46.386  24.478  37.545  1.00  0.00    -0.237 OA
ATOM     96  O   UNL A   1      44.141  25.267  38.181  1.00  0.00    -0.744 OA
ENDBRANCH  89  93
ENDBRANCH  63  86
ENDBRANCH  37  38
ENDBRANCH  29  32
ENDBRANCH  27  28
ENDBRANCH  26  27
ENDBRANCH   1  26
TORSDOF 18
ENDMDL
