MODEL 1
REMARK VINA RESULT:     -11.6      0.000      0.000
REMARK SMILES C[C@@H]1CCC[C@H]1NC(=O)c1csc(/C=C/C(=O)NCCCCCCNC(=O)c2ccc(-c3c4nc(c(-c5cc(S(=O)(=O)[O-])ccc5F)c5ccc([nH]5)c(-c5cc(S(=O)(=O)[O-])ccc5F)c5nc(c(-c6cc(S(=O)(=O)[O-])ccc6F)c6ccc3[nH]6)C=C5)C=C4)cc2)c1
REMARK SMILES IDX 21 1 20 2 19 3 18 4 16 5 17 6 15 8 14 9 13 10 10 11 11 12
REMARK SMILES IDX 91 13 12 14 8 15 7 16 9 18 6 19 1 20 2 21 3 22 4 23 5 24
REMARK SMILES IDX 22 25 23 26 24 27 25 28 26 29 27 31 28 32 29 33 90 34 30 35
REMARK SMILES IDX 89 36 31 37 32 38 33 39 83 40 34 41 88 42 82 43 84 44 35 45
REMARK SMILES IDX 87 46 81 47 80 48 36 50 68 51 48 52 67 53 49 54 52 55 66 56
REMARK SMILES IDX 85 57 50 58 51 59 65 61 86 62 53 63 37 64 38 65 46 66 39 67
REMARK SMILES IDX 45 68 47 69 44 70 40 71 41 72 42 73 43 74 69 75 70 76 78 77
REMARK SMILES IDX 71 78 77 79 79 80 76 81 72 82 73 83 74 84 75 85 54 86 55 87
REMARK SMILES IDX 63 88 56 89 62 90 64 91 61 92 57 93 58 94 59 95 60 96
REMARK H PARENT 18 7 7 17 25 30 84 49 52 60
REMARK Flexibility Score: inf
ROOT
ATOM      1  C   UNL A   1      31.361  26.279  23.648  1.00  0.00     0.002 C 
ENDROOT
BRANCH   1   2
ATOM      2  C   UNL A   1      30.202  25.552  24.343  1.00  0.00     0.021 C 
BRANCH   2   3
ATOM      3  C   UNL A   1      30.028  25.956  25.807  1.00  0.00     0.116 C 
BRANCH   3   4
ATOM      4  N   UNL A   1      29.615  24.808  26.597  1.00  0.00    -0.353 N 
ATOM      5  C   UNL A   1      30.131  23.555  26.700  1.00  0.00     0.244 C 
ATOM      6  O   UNL A   1      29.631  22.753  27.485  1.00  0.00    -0.270 OA
ATOM      7  H   UNL A   1      28.821  24.966  27.156  1.00  0.00     0.163 HD
BRANCH   5   8
ATOM      8  C   UNL A   1      31.357  23.179  25.967  1.00  0.00     0.072 C 
ATOM      9  C   UNL A   1      32.539  22.935  26.550  1.00  0.00     0.024 C 
BRANCH   9  10
ATOM     10  C   UNL A   1      33.677  22.478  25.825  1.00  0.00     0.028 A 
ATOM     11  C   UNL A   1      35.392  21.046  25.061  1.00  0.00     0.051 A 
ATOM     12  C   UNL A   1      35.696  22.226  24.412  1.00  0.00     0.079 A 
ATOM     13  C   UNL A   1      34.190  21.192  25.827  1.00  0.00     0.033 A 
ATOM     14  S   UNL A   1      34.634  23.497  24.824  1.00  0.00    -0.144 S 
BRANCH  11  15
ATOM     15  C   UNL A   1      36.138  19.802  24.945  1.00  0.00     0.252 C 
ATOM     16  N   UNL A   1      35.450  18.624  24.809  1.00  0.00    -0.349 N 
ATOM     17  H   UNL A   1      36.008  17.812  24.793  1.00  0.00     0.164 HD
ATOM     18  O   UNL A   1      37.365  19.789  24.914  1.00  0.00    -0.269 OA
BRANCH  16  19
ATOM     19  C   UNL A   1      34.015  18.393  24.684  1.00  0.00     0.085 C 
ATOM     20  C   UNL A   1      32.154  18.352  22.966  1.00  0.00     0.010 C 
ATOM     21  C   UNL A   1      33.626  18.034  23.243  1.00  0.00     0.008 C 
ATOM     22  C   UNL A   1      33.905  16.534  23.169  1.00  0.00     0.005 C 
ATOM     23  C   UNL A   1      33.567  15.988  24.552  1.00  0.00     0.002 C 
ATOM     24  C   UNL A   1      33.606  17.175  25.515  1.00  0.00     0.025 C 
ENDBRANCH  16  19
ENDBRANCH  11  15
ENDBRANCH   9  10
ENDBRANCH   5   8
ENDBRANCH   3   4
ENDBRANCH   2   3
ENDBRANCH   1   2
BRANCH   1  25
ATOM     25  C   UNL A   1      31.521  27.753  24.044  1.00  0.00     0.002 C 
BRANCH  25  26
ATOM     26  C   UNL A   1      32.488  28.007  25.204  1.00  0.00     0.021 C 
BRANCH  26  27
ATOM     27  C   UNL A   1      33.418  29.197  24.991  1.00  0.00     0.116 C 
BRANCH  27  28
ATOM     28  N   UNL A   1      32.851  30.418  25.534  1.00  0.00    -0.352 N 
ATOM     29  C   UNL A   1      33.156  31.074  26.698  1.00  0.00     0.251 C 
ATOM     30  H   UNL A   1      32.145  30.835  24.987  1.00  0.00     0.163 HD
ATOM     31  O   UNL A   1      32.395  31.939  27.122  1.00  0.00    -0.269 OA
BRANCH  29  32
ATOM     32  C   UNL A   1      34.391  30.735  27.439  1.00  0.00     0.039 A 
ATOM     33  C   UNL A   1      35.313  31.747  27.715  1.00  0.00     0.014 A 
ATOM     34  C   UNL A   1      34.663  29.418  27.822  1.00  0.00     0.014 A 
ATOM     35  C   UNL A   1      36.497  31.441  28.389  1.00  0.00     0.010 A 
ATOM     36  C   UNL A   1      35.803  29.129  28.566  1.00  0.00     0.010 A 
ATOM     37  C   UNL A   1      36.747  30.131  28.831  1.00  0.00    -0.014 A 
BRANCH  37  38
ATOM     38  C   UNL A   1      38.023  29.785  29.508  1.00  0.00     0.031 A 
ATOM     39  C   UNL A   1      38.327  30.361  30.868  1.00  0.00     0.074 A 
ATOM     40  C   UNL A   1      38.913  28.981  28.896  1.00  0.00     0.049 A 
ATOM     41  N   UNL A   1      39.393  30.215  31.612  1.00  0.00    -0.248 NA
ATOM     42  C   UNL A   1      37.307  31.246  31.451  1.00  0.00     0.031 C 
ATOM     43  C   UNL A   1      38.746  28.394  27.565  1.00  0.00     0.029 A 
ATOM     44  N   UNL A   1      40.134  28.514  29.311  1.00  0.00    -0.354 N 
ATOM     45  C   UNL A   1      39.176  30.995  32.744  1.00  0.00     0.074 A 
ATOM     46  C   UNL A   1      37.913  31.672  32.548  1.00  0.00     0.031 C 
ATOM     47  C   UNL A   1      39.807  27.619  27.290  1.00  0.00     0.029 A 
ATOM     48  C   UNL A   1      40.750  27.686  28.402  1.00  0.00     0.049 A 
ATOM     49  H   UNL A   1      40.534  28.750  30.180  1.00  0.00     0.167 HD
ATOM     50  C   UNL A   1      39.944  31.113  33.856  1.00  0.00     0.034 A 
ATOM     51  C   UNL A   1      41.938  27.054  28.460  1.00  0.00     0.034 A 
ATOM     52  C   UNL A   1      41.195  30.418  34.038  1.00  0.00     0.049 A 
ATOM     53  C   UNL A   1      42.782  27.212  29.701  1.00  0.00     0.074 A 
ATOM     54  C   UNL A   1      42.039  30.432  35.136  1.00  0.00     0.029 A 
ATOM     55  N   UNL A   1      41.786  29.584  33.096  1.00  0.00    -0.354 N 
ATOM     56  N   UNL A   1      42.542  27.919  30.782  1.00  0.00    -0.248 NA
ATOM     57  C   UNL A   1      44.045  26.466  29.736  1.00  0.00     0.031 C 
ATOM     58  C   UNL A   1      43.169  29.665  34.830  1.00  0.00     0.029 A 
ATOM     59  C   UNL A   1      42.992  29.099  33.578  1.00  0.00     0.049 A 
ATOM     60  H   UNL A   1      41.403  29.369  32.216  1.00  0.00     0.167 HD
ATOM     61  C   UNL A   1      43.611  27.671  31.641  1.00  0.00     0.074 A 
ATOM     62  C   UNL A   1      44.477  26.733  30.959  1.00  0.00     0.031 C 
ATOM     63  C   UNL A   1      43.853  28.170  32.881  1.00  0.00     0.034 A 
BRANCH  50  64
ATOM     64  C   UNL A   1      39.453  32.045  34.942  1.00  0.00     0.023 A 
ATOM     65  C   UNL A   1      38.872  31.559  36.128  1.00  0.00     0.031 A 
ATOM     66  C   UNL A   1      39.532  33.439  34.776  1.00  0.00     0.131 A 
ATOM     67  C   UNL A   1      38.316  32.453  37.056  1.00  0.00     0.055 A 
ATOM     68  C   UNL A   1      39.058  34.325  35.746  1.00  0.00     0.041 A 
ATOM     69  F   UNL A   1      40.054  33.966  33.658  1.00  0.00    -0.206 F 
ATOM     70  C   UNL A   1      38.430  33.834  36.887  1.00  0.00     0.022 A 
BRANCH  67  71
ATOM     71  S   UNL A   1      37.302  31.784  38.402  1.00  0.00     0.124 S 
ATOM     72  O   UNL A   1      36.126  32.648  38.342  1.00  0.00    -0.237 OA
ATOM     73  O   UNL A   1      37.100  30.401  37.988  1.00  0.00    -0.237 OA
ATOM     74  O   UNL A   1      38.140  31.966  39.586  1.00  0.00    -0.744 OA
ENDBRANCH  67  71
ENDBRANCH  50  64
BRANCH  51  75
ATOM     75  C   UNL A   1      42.409  26.212  27.322  1.00  0.00     0.023 A 
ATOM     76  C   UNL A   1      42.061  24.854  27.233  1.00  0.00     0.031 A 
ATOM     77  C   UNL A   1      43.259  26.740  26.333  1.00  0.00     0.131 A 
ATOM     78  C   UNL A   1      42.608  24.056  26.216  1.00  0.00     0.055 A 
ATOM     79  C   UNL A   1      43.752  25.956  25.288  1.00  0.00     0.041 A 
ATOM     80  F   UNL A   1      43.619  28.032  26.366  1.00  0.00    -0.206 F 
ATOM     81  C   UNL A   1      43.439  24.600  25.235  1.00  0.00     0.022 A 
BRANCH  78  82
ATOM     82  S   UNL A   1      42.294  22.270  26.251  1.00  0.00     0.124 S 
ATOM     83  O   UNL A   1      43.099  21.805  25.128  1.00  0.00    -0.237 OA
ATOM     84  O   UNL A   1      42.775  21.905  27.580  1.00  0.00    -0.237 OA
ATOM     85  O   UNL A   1      40.848  22.175  26.067  1.00  0.00    -0.744 OA
ENDBRANCH  78  82
ENDBRANCH  51  75
BRANCH  63  86
ATOM     86  C   UNL A   1      45.086  27.659  33.592  1.00  0.00     0.023 A 
ATOM     87  C   UNL A   1      45.049  26.519  34.414  1.00  0.00     0.031 A 
ATOM     88  C   UNL A   1      46.305  28.352  33.478  1.00  0.00     0.131 A 
ATOM     89  C   UNL A   1      46.182  26.156  35.157  1.00  0.00     0.055 A 
ATOM     90  C   UNL A   1      47.451  27.939  34.160  1.00  0.00     0.041 A 
ATOM     91  F   UNL A   1      46.401  29.448  32.710  1.00  0.00    -0.206 F 
ATOM     92  C   UNL A   1      47.389  26.849  35.021  1.00  0.00     0.022 A 
BRANCH  89  93
ATOM     93  S   UNL A   1      46.019  24.854  36.410  1.00  0.00     0.124 S 
ATOM     94  O   UNL A   1      45.194  23.870  35.717  1.00  0.00    -0.237 OA
ATOM     95  O   UNL A   1      47.407  24.472  36.643  1.00  0.00    -0.237 OA
ATOM     96  O   UNL A   1      45.366  25.534  37.527  1.00  0.00    -0.744 OA
ENDBRANCH  89  93
ENDBRANCH  63  86
ENDBRANCH  37  38
ENDBRANCH  29  32
ENDBRANCH  27  28
ENDBRANCH  26  27
ENDBRANCH  25  26
ENDBRANCH   1  25
TORSDOF 19
ENDMDL
MODEL 2
REMARK VINA RESULT:     -11.4      5.625      9.063
REMARK SMILES C[C@@H]1CCC[C@H]1NC(=O)c1csc(/C=C/C(=O)NCCCCCCNC(=O)c2ccc(-c3c4nc(c(-c5cc(S(=O)(=O)[O-])ccc5F)c5ccc([nH]5)c(-c5cc(S(=O)(=O)[O-])ccc5F)c5nc(c(-c6cc(S(=O)(=O)[O-])ccc6F)c6ccc3[nH]6)C=C5)C=C4)cc2)c1
REMARK SMILES IDX 21 1 20 2 19 3 18 4 16 5 17 6 15 8 14 9 13 10 10 11 11 12
REMARK SMILES IDX 91 13 12 14 8 15 7 16 9 18 6 19 1 20 2 21 3 22 4 23 5 24
REMARK SMILES IDX 22 25 23 26 24 27 25 28 26 29 27 31 28 32 29 33 90 34 30 35
REMARK SMILES IDX 89 36 31 37 32 38 33 39 83 40 34 41 88 42 82 43 84 44 35 45
REMARK SMILES IDX 87 46 81 47 80 48 36 50 68 51 48 52 67 53 49 54 52 55 66 56
REMARK SMILES IDX 85 57 50 58 51 59 65 61 86 62 53 63 37 64 38 65 46 66 39 67
REMARK SMILES IDX 45 68 47 69 44 70 40 71 41 72 42 73 43 74 69 75 70 76 78 77
REMARK SMILES IDX 71 78 77 79 79 80 76 81 72 82 73 83 74 84 75 85 54 86 55 87
REMARK SMILES IDX 63 88 56 89 62 90 64 91 61 92 57 93 58 94 59 95 60 96
REMARK H PARENT 18 7 7 17 25 30 84 49 52 60
REMARK Flexibility Score: inf
ROOT
ATOM      1  C   UNL A   1      35.772  20.290  24.844  1.00  0.00     0.002 C 
ENDROOT
BRANCH   1   2
ATOM      2  C   UNL A   1      34.648  21.330  24.926  1.00  0.00     0.021 C 
BRANCH   2   3
ATOM      3  C   UNL A   1      34.716  22.194  26.186  1.00  0.00     0.116 C 
BRANCH   3   4
ATOM      4  N   UNL A   1      33.452  22.135  26.901  1.00  0.00    -0.353 N 
ATOM      5  C   UNL A   1      32.473  23.062  27.072  1.00  0.00     0.244 C 
ATOM      6  O   UNL A   1      31.453  22.762  27.688  1.00  0.00    -0.270 OA
ATOM      7  H   UNL A   1      33.274  21.272  27.338  1.00  0.00     0.163 HD
BRANCH   5   8
ATOM      8  C   UNL A   1      32.566  24.389  26.431  1.00  0.00     0.072 C 
ATOM      9  C   UNL A   1      31.627  25.340  26.528  1.00  0.00     0.024 C 
BRANCH   9  10
ATOM     10  C   UNL A   1      31.790  26.645  25.981  1.00  0.00     0.028 A 
ATOM     11  C   UNL A   1      32.012  28.369  24.383  1.00  0.00     0.051 A 
ATOM     12  C   UNL A   1      32.176  29.057  25.568  1.00  0.00     0.079 A 
ATOM     13  C   UNL A   1      31.732  26.988  24.641  1.00  0.00     0.033 A 
ATOM     14  S   UNL A   1      32.122  28.037  26.935  1.00  0.00    -0.144 S 
BRANCH  11  15
ATOM     15  C   UNL A   1      32.051  28.957  23.052  1.00  0.00     0.252 C 
ATOM     16  N   UNL A   1      30.958  29.651  22.600  1.00  0.00    -0.349 N 
ATOM     17  H   UNL A   1      31.022  29.975  21.672  1.00  0.00     0.164 HD
ATOM     18  O   UNL A   1      33.055  28.891  22.350  1.00  0.00    -0.269 OA
BRANCH  16  19
ATOM     19  C   UNL A   1      29.715  29.981  23.288  1.00  0.00     0.085 C 
ATOM     20  C   UNL A   1      28.061  31.873  23.599  1.00  0.00     0.010 C 
ATOM     21  C   UNL A   1      28.996  31.161  22.619  1.00  0.00     0.008 C 
ATOM     22  C   UNL A   1      28.226  30.501  21.478  1.00  0.00     0.005 C 
ATOM     23  C   UNL A   1      27.805  29.134  22.008  1.00  0.00     0.002 C 
ATOM     24  C   UNL A   1      28.731  28.813  23.181  1.00  0.00     0.025 C 
ENDBRANCH  16  19
ENDBRANCH  11  15
ENDBRANCH   9  10
ENDBRANCH   5   8
ENDBRANCH   3   4
ENDBRANCH   2   3
ENDBRANCH   1   2
BRANCH   1  25
ATOM     25  C   UNL A   1      37.186  20.859  25.023  1.00  0.00     0.002 C 
BRANCH  25  26
ATOM     26  C   UNL A   1      38.279  19.809  25.244  1.00  0.00     0.021 C 
BRANCH  26  27
ATOM     27  C   UNL A   1      39.405  20.265  26.165  1.00  0.00     0.116 C 
BRANCH  27  28
ATOM     28  N   UNL A   1      40.570  19.407  26.045  1.00  0.00    -0.352 N 
ATOM     29  C   UNL A   1      41.893  19.750  25.938  1.00  0.00     0.251 C 
ATOM     30  H   UNL A   1      40.383  18.440  26.039  1.00  0.00     0.163 HD
ATOM     31  O   UNL A   1      42.709  18.905  25.579  1.00  0.00    -0.269 OA
BRANCH  29  32
ATOM     32  C   UNL A   1      42.330  21.129  26.246  1.00  0.00     0.039 A 
ATOM     33  C   UNL A   1      42.445  22.051  25.204  1.00  0.00     0.014 A 
ATOM     34  C   UNL A   1      42.669  21.501  27.551  1.00  0.00     0.014 A 
ATOM     35  C   UNL A   1      42.881  23.350  25.473  1.00  0.00     0.010 A 
ATOM     36  C   UNL A   1      43.024  22.818  27.830  1.00  0.00     0.010 A 
ATOM     37  C   UNL A   1      43.164  23.748  26.790  1.00  0.00    -0.014 A 
BRANCH  37  38
ATOM     38  C   UNL A   1      43.673  25.113  27.082  1.00  0.00     0.031 A 
ATOM     39  C   UNL A   1      42.743  26.151  27.655  1.00  0.00     0.074 A 
ATOM     40  C   UNL A   1      44.955  25.425  26.810  1.00  0.00     0.049 A 
ATOM     41  N   UNL A   1      42.975  27.405  27.947  1.00  0.00    -0.248 NA
ATOM     42  C   UNL A   1      41.355  25.727  27.901  1.00  0.00     0.031 C 
ATOM     43  C   UNL A   1      45.939  24.516  26.220  1.00  0.00     0.029 A 
ATOM     44  N   UNL A   1      45.652  26.592  26.995  1.00  0.00    -0.354 N 
ATOM     45  C   UNL A   1      41.765  27.920  28.400  1.00  0.00     0.074 A 
ATOM     46  C   UNL A   1      40.785  26.864  28.269  1.00  0.00     0.031 C 
ATOM     47  C   UNL A   1      47.120  25.148  26.125  1.00  0.00     0.029 A 
ATOM     48  C   UNL A   1      46.970  26.517  26.605  1.00  0.00     0.049 A 
ATOM     49  H   UNL A   1      45.248  27.407  27.372  1.00  0.00     0.167 HD
ATOM     50  C   UNL A   1      41.500  29.150  28.908  1.00  0.00     0.034 A 
ATOM     51  C   UNL A   1      47.942  27.449  26.633  1.00  0.00     0.034 A 
ATOM     52  C   UNL A   1      42.495  30.187  29.044  1.00  0.00     0.049 A 
ATOM     53  C   UNL A   1      47.621  28.815  27.188  1.00  0.00     0.074 A 
ATOM     54  C   UNL A   1      42.352  31.456  29.577  1.00  0.00     0.029 A 
ATOM     55  N   UNL A   1      43.821  30.075  28.642  1.00  0.00    -0.354 N 
ATOM     56  N   UNL A   1      46.482  29.273  27.654  1.00  0.00    -0.248 NA
ATOM     57  C   UNL A   1      48.726  29.779  27.241  1.00  0.00     0.031 C 
ATOM     58  C   UNL A   1      43.568  32.133  29.433  1.00  0.00     0.029 A 
ATOM     59  C   UNL A   1      44.498  31.259  28.892  1.00  0.00     0.049 A 
ATOM     60  H   UNL A   1      44.220  29.271  28.238  1.00  0.00     0.167 HD
ATOM     61  C   UNL A   1      46.746  30.570  28.089  1.00  0.00     0.074 A 
ATOM     62  C   UNL A   1      48.155  30.805  27.852  1.00  0.00     0.031 C 
ATOM     63  C   UNL A   1      45.902  31.483  28.639  1.00  0.00     0.034 A 
BRANCH  50  64
ATOM     64  C   UNL A   1      40.076  29.436  29.327  1.00  0.00     0.023 A 
ATOM     65  C   UNL A   1      39.702  29.504  30.683  1.00  0.00     0.031 A 
ATOM     66  C   UNL A   1      39.067  29.606  28.362  1.00  0.00     0.131 A 
ATOM     67  C   UNL A   1      38.350  29.647  31.033  1.00  0.00     0.055 A 
ATOM     68  C   UNL A   1      37.737  29.840  28.718  1.00  0.00     0.041 A 
ATOM     69  F   UNL A   1      39.354  29.530  27.053  1.00  0.00    -0.206 F 
ATOM     70  C   UNL A   1      37.368  29.844  30.060  1.00  0.00     0.022 A 
BRANCH  67  71
ATOM     71  S   UNL A   1      37.876  29.410  32.767  1.00  0.00     0.124 S 
ATOM     72  O   UNL A   1      39.079  29.857  33.465  1.00  0.00    -0.237 OA
ATOM     73  O   UNL A   1      36.707  30.271  32.895  1.00  0.00    -0.237 OA
ATOM     74  O   UNL A   1      37.610  27.976  32.857  1.00  0.00    -0.744 OA
ENDBRANCH  67  71
ENDBRANCH  50  64
BRANCH  51  75
ATOM     75  C   UNL A   1      49.311  27.135  26.128  1.00  0.00     0.023 A 
ATOM     76  C   UNL A   1      49.761  27.634  24.896  1.00  0.00     0.031 A 
ATOM     77  C   UNL A   1      50.171  26.284  26.847  1.00  0.00     0.131 A 
ATOM     78  C   UNL A   1      51.008  27.234  24.390  1.00  0.00     0.055 A 
ATOM     79  C   UNL A   1      51.435  25.937  26.368  1.00  0.00     0.041 A 
ATOM     80  F   UNL A   1      49.794  25.782  28.034  1.00  0.00    -0.206 F 
ATOM     81  C   UNL A   1      51.854  26.400  25.124  1.00  0.00     0.022 A 
BRANCH  78  82
ATOM     82  S   UNL A   1      51.467  27.741  22.710  1.00  0.00     0.124 S 
ATOM     83  O   UNL A   1      52.914  27.877  22.826  1.00  0.00    -0.237 OA
ATOM     84  O   UNL A   1      50.990  26.615  21.913  1.00  0.00    -0.237 OA
ATOM     85  O   UNL A   1      50.735  28.991  22.520  1.00  0.00    -0.744 OA
ENDBRANCH  78  82
ENDBRANCH  51  75
BRANCH  63  86
ATOM     86  C   UNL A   1      46.509  32.800  29.067  1.00  0.00     0.023 A 
ATOM     87  C   UNL A   1      46.573  33.904  28.199  1.00  0.00     0.031 A 
ATOM     88  C   UNL A   1      47.071  32.936  30.349  1.00  0.00     0.131 A 
ATOM     89  C   UNL A   1      47.260  35.063  28.591  1.00  0.00     0.055 A 
ATOM     90  C   UNL A   1      47.686  34.120  30.762  1.00  0.00     0.041 A 
ATOM     91  F   UNL A   1      47.042  31.916  31.222  1.00  0.00    -0.206 F 
ATOM     92  C   UNL A   1      47.801  35.184  29.874  1.00  0.00     0.022 A 
BRANCH  89  93
ATOM     93  S   UNL A   1      47.561  36.355  27.353  1.00  0.00     0.124 S 
ATOM     94  O   UNL A   1      47.231  35.665  26.110  1.00  0.00    -0.237 OA
ATOM     95  O   UNL A   1      46.634  37.402  27.766  1.00  0.00    -0.237 OA
ATOM     96  O   UNL A   1      48.976  36.674  27.528  1.00  0.00    -0.744 OA
ENDBRANCH  89  93
ENDBRANCH  63  86
ENDBRANCH  37  38
ENDBRANCH  29  32
ENDBRANCH  27  28
ENDBRANCH  26  27
ENDBRANCH  25  26
ENDBRANCH   1  25
TORSDOF 19
ENDMDL
MODEL 3
REMARK VINA RESULT:     -11.4      1.663      7.632
REMARK SMILES C[C@@H]1CCC[C@H]1NC(=O)c1csc(/C=C/C(=O)NCCCCCCNC(=O)c2ccc(-c3c4nc(c(-c5cc(S(=O)(=O)[O-])ccc5F)c5ccc([nH]5)c(-c5cc(S(=O)(=O)[O-])ccc5F)c5nc(c(-c6cc(S(=O)(=O)[O-])ccc6F)c6ccc3[nH]6)C=C5)C=C4)cc2)c1
REMARK SMILES IDX 21 1 20 2 19 3 18 4 16 5 17 6 15 8 14 9 13 10 10 11 11 12
REMARK SMILES IDX 91 13 12 14 8 15 7 16 9 18 6 19 1 20 2 21 3 22 4 23 5 24
REMARK SMILES IDX 22 25 23 26 24 27 25 28 26 29 27 31 28 32 29 33 90 34 30 35
REMARK SMILES IDX 89 36 31 37 32 38 33 39 83 40 34 41 88 42 82 43 84 44 35 45
REMARK SMILES IDX 87 46 81 47 80 48 36 50 68 51 48 52 67 53 49 54 52 55 66 56
REMARK SMILES IDX 85 57 50 58 51 59 65 61 86 62 53 63 37 64 38 65 46 66 39 67
REMARK SMILES IDX 45 68 47 69 44 70 40 71 41 72 42 73 43 74 69 75 70 76 78 77
REMARK SMILES IDX 71 78 77 79 79 80 76 81 72 82 73 83 74 84 75 85 54 86 55 87
REMARK SMILES IDX 63 88 56 89 62 90 64 91 61 92 57 93 58 94 59 95 60 96
REMARK H PARENT 18 7 7 17 25 30 84 49 52 60
REMARK Flexibility Score: inf
ROOT
ATOM      1  C   UNL A   1      31.813  26.231  23.045  1.00  0.00     0.002 C 
ENDROOT
BRANCH   1   2
ATOM      2  C   UNL A   1      30.573  25.422  23.448  1.00  0.00     0.021 C 
BRANCH   2   3
ATOM      3  C   UNL A   1      29.627  26.191  24.371  1.00  0.00     0.116 C 
BRANCH   3   4
ATOM      4  N   UNL A   1      29.438  25.461  25.614  1.00  0.00    -0.353 N 
ATOM      5  C   UNL A   1      30.104  24.402  26.144  1.00  0.00     0.244 C 
ATOM      6  O   UNL A   1      29.789  23.978  27.253  1.00  0.00    -0.270 OA
ATOM      7  H   UNL A   1      28.698  25.794  26.170  1.00  0.00     0.163 HD
BRANCH   5   8
ATOM      8  C   UNL A   1      31.276  23.824  25.456  1.00  0.00     0.072 C 
ATOM      9  C   UNL A   1      32.480  23.665  26.023  1.00  0.00     0.024 C 
BRANCH   9  10
ATOM     10  C   UNL A   1      33.563  23.014  25.366  1.00  0.00     0.028 A 
ATOM     11  C   UNL A   1      35.182  21.374  24.851  1.00  0.00     0.051 A 
ATOM     12  C   UNL A   1      35.500  22.378  23.958  1.00  0.00     0.079 A 
ATOM     13  C   UNL A   1      34.026  21.733  25.616  1.00  0.00     0.033 A 
ATOM     14  S   UNL A   1      34.510  23.757  24.137  1.00  0.00    -0.144 S 
BRANCH  11  15
ATOM     15  C   UNL A   1      35.873  20.099  24.967  1.00  0.00     0.252 C 
ATOM     16  N   UNL A   1      35.166  18.940  24.782  1.00  0.00    -0.349 N 
ATOM     17  H   UNL A   1      35.674  18.109  24.931  1.00  0.00     0.164 HD
ATOM     18  O   UNL A   1      37.081  20.039  25.176  1.00  0.00    -0.269 OA
BRANCH  16  19
ATOM     19  C   UNL A   1      33.771  18.752  24.397  1.00  0.00     0.085 C 
ATOM     20  C   UNL A   1      32.335  17.910  22.488  1.00  0.00     0.010 C 
ATOM     21  C   UNL A   1      33.630  17.709  23.279  1.00  0.00     0.008 C 
ATOM     22  C   UNL A   1      33.632  16.382  24.036  1.00  0.00     0.005 C 
ATOM     23  C   UNL A   1      32.916  16.664  25.353  1.00  0.00     0.002 C 
ATOM     24  C   UNL A   1      32.976  18.176  25.572  1.00  0.00     0.025 C 
ENDBRANCH  16  19
ENDBRANCH  11  15
ENDBRANCH   9  10
ENDBRANCH   5   8
ENDBRANCH   3   4
ENDBRANCH   2   3
ENDBRANCH   1   2
BRANCH   1  25
ATOM     25  C   UNL A   1      31.867  27.652  23.622  1.00  0.00     0.002 C 
BRANCH  25  26
ATOM     26  C   UNL A   1      32.737  27.806  24.872  1.00  0.00     0.021 C 
BRANCH  26  27
ATOM     27  C   UNL A   1      33.618  29.050  24.870  1.00  0.00     0.116 C 
BRANCH  27  28
ATOM     28  N   UNL A   1      32.923  30.195  25.432  1.00  0.00    -0.352 N 
ATOM     29  C   UNL A   1      33.135  30.839  26.623  1.00  0.00     0.251 C 
ATOM     30  H   UNL A   1      32.195  30.560  24.878  1.00  0.00     0.163 HD
ATOM     31  O   UNL A   1      32.284  31.614  27.050  1.00  0.00    -0.269 OA
BRANCH  29  32
ATOM     32  C   UNL A   1      34.377  30.595  27.388  1.00  0.00     0.039 A 
ATOM     33  C   UNL A   1      34.597  29.329  27.935  1.00  0.00     0.014 A 
ATOM     34  C   UNL A   1      35.302  31.622  27.606  1.00  0.00     0.014 A 
ATOM     35  C   UNL A   1      35.751  29.088  28.683  1.00  0.00     0.010 A 
ATOM     36  C   UNL A   1      36.490  31.358  28.281  1.00  0.00     0.010 A 
ATOM     37  C   UNL A   1      36.713  30.098  28.853  1.00  0.00    -0.014 A 
BRANCH  37  38
ATOM     38  C   UNL A   1      37.922  29.867  29.686  1.00  0.00     0.031 A 
ATOM     39  C   UNL A   1      39.038  29.002  29.158  1.00  0.00     0.074 A 
ATOM     40  C   UNL A   1      38.006  30.408  30.916  1.00  0.00     0.049 A 
ATOM     41  N   UNL A   1      40.158  28.646  29.735  1.00  0.00    -0.248 NA
ATOM     42  C   UNL A   1      38.853  28.435  27.813  1.00  0.00     0.031 C 
ATOM     43  C   UNL A   1      36.973  31.232  31.549  1.00  0.00     0.029 A 
ATOM     44  N   UNL A   1      39.003  30.351  31.855  1.00  0.00    -0.354 N 
ATOM     45  C   UNL A   1      40.802  27.809  28.830  1.00  0.00     0.074 A 
ATOM     46  C   UNL A   1      39.911  27.649  27.701  1.00  0.00     0.031 C 
ATOM     47  C   UNL A   1      37.407  31.630  32.755  1.00  0.00     0.029 A 
ATOM     48  C   UNL A   1      38.726  31.059  33.002  1.00  0.00     0.049 A 
ATOM     49  H   UNL A   1      39.841  29.850  31.722  1.00  0.00     0.167 HD
ATOM     50  C   UNL A   1      42.036  27.250  28.916  1.00  0.00     0.034 A 
ATOM     51  C   UNL A   1      39.454  31.226  34.123  1.00  0.00     0.034 A 
ATOM     52  C   UNL A   1      42.915  27.433  30.045  1.00  0.00     0.049 A 
ATOM     53  C   UNL A   1      40.817  30.582  34.203  1.00  0.00     0.074 A 
ATOM     54  C   UNL A   1      44.199  26.947  30.228  1.00  0.00     0.029 A 
ATOM     55  N   UNL A   1      42.603  28.160  31.188  1.00  0.00    -0.354 N 
ATOM     56  N   UNL A   1      41.432  29.829  33.320  1.00  0.00    -0.248 NA
ATOM     57  C   UNL A   1      41.591  30.833  35.424  1.00  0.00     0.031 C 
ATOM     58  C   UNL A   1      44.632  27.320  31.505  1.00  0.00     0.029 A 
ATOM     59  C   UNL A   1      43.657  28.114  32.087  1.00  0.00     0.049 A 
ATOM     60  H   UNL A   1      41.755  28.638  31.337  1.00  0.00     0.167 HD
ATOM     61  C   UNL A   1      42.682  29.547  33.867  1.00  0.00     0.074 A 
ATOM     62  C   UNL A   1      42.737  30.233  35.141  1.00  0.00     0.031 C 
ATOM     63  C   UNL A   1      43.694  28.795  33.361  1.00  0.00     0.034 A 
BRANCH  50  64
ATOM     64  C   UNL A   1      42.483  26.375  27.767  1.00  0.00     0.023 A 
ATOM     65  C   UNL A   1      42.231  24.990  27.749  1.00  0.00     0.031 A 
ATOM     66  C   UNL A   1      43.203  26.922  26.690  1.00  0.00     0.131 A 
ATOM     67  C   UNL A   1      42.768  24.191  26.728  1.00  0.00     0.055 A 
ATOM     68  C   UNL A   1      43.657  26.134  25.630  1.00  0.00     0.041 A 
ATOM     69  F   UNL A   1      43.496  28.231  26.659  1.00  0.00    -0.206 F 
ATOM     70  C   UNL A   1      43.456  24.757  25.654  1.00  0.00     0.022 A 
BRANCH  67  71
ATOM     71  S   UNL A   1      42.695  22.388  26.911  1.00  0.00     0.124 S 
ATOM     72  O   UNL A   1      43.935  21.976  26.259  1.00  0.00    -0.237 OA
ATOM     73  O   UNL A   1      42.647  22.219  28.358  1.00  0.00    -0.237 OA
ATOM     74  O   UNL A   1      41.473  22.021  26.198  1.00  0.00    -0.744 OA
ENDBRANCH  67  71
ENDBRANCH  50  64
BRANCH  51  75
ATOM     75  C   UNL A   1      38.926  32.034  35.260  1.00  0.00     0.023 A 
ATOM     76  C   UNL A   1      38.452  31.416  36.429  1.00  0.00     0.031 A 
ATOM     77  C   UNL A   1      38.837  33.435  35.173  1.00  0.00     0.131 A 
ATOM     78  C   UNL A   1      37.856  32.190  37.438  1.00  0.00     0.055 A 
ATOM     79  C   UNL A   1      38.299  34.206  36.206  1.00  0.00     0.041 A 
ATOM     80  F   UNL A   1      39.281  34.078  34.082  1.00  0.00    -0.206 F 
ATOM     81  C   UNL A   1      37.789  33.581  37.340  1.00  0.00     0.022 A 
BRANCH  78  82
ATOM     82  S   UNL A   1      37.078  31.339  38.838  1.00  0.00     0.124 S 
ATOM     83  O   UNL A   1      38.086  31.501  39.880  1.00  0.00    -0.237 OA
ATOM     84  O   UNL A   1      35.847  32.105  39.012  1.00  0.00    -0.237 OA
ATOM     85  O   UNL A   1      36.898  29.975  38.349  1.00  0.00    -0.744 OA
ENDBRANCH  78  82
ENDBRANCH  51  75
BRANCH  63  86
ATOM     86  C   UNL A   1      44.965  28.725  34.178  1.00  0.00     0.023 A 
ATOM     87  C   UNL A   1      46.032  29.614  33.966  1.00  0.00     0.031 A 
ATOM     88  C   UNL A   1      45.123  27.724  35.153  1.00  0.00     0.131 A 
ATOM     89  C   UNL A   1      47.241  29.433  34.655  1.00  0.00     0.055 A 
ATOM     90  C   UNL A   1      46.302  27.597  35.892  1.00  0.00     0.041 A 
ATOM     91  F   UNL A   1      44.139  26.845  35.400  1.00  0.00    -0.206 F 
ATOM     92  C   UNL A   1      47.376  28.440  35.629  1.00  0.00     0.022 A 
BRANCH  89  93
ATOM     93  S   UNL A   1      48.680  30.419  34.158  1.00  0.00     0.124 S 
ATOM     94  O   UNL A   1      49.776  29.475  34.350  1.00  0.00    -0.237 OA
ATOM     95  O   UNL A   1      48.364  30.755  32.774  1.00  0.00    -0.237 OA
ATOM     96  O   UNL A   1      48.662  31.546  35.089  1.00  0.00    -0.744 OA
ENDBRANCH  89  93
ENDBRANCH  63  86
ENDBRANCH  37  38
ENDBRANCH  29  32
ENDBRANCH  27  28
ENDBRANCH  26  27
ENDBRANCH  25  26
ENDBRANCH   1  25
TORSDOF 19
ENDMDL
