MODEL 1
REMARK VINA RESULT:     -10.2      0.000      0.000
REMARK SMILES CC1(C)Cc2c(-c3ccccc3)c(-c3ccc(Cl)cc3)c(CC(=O)NCCCCCCNC(=O)c3ccc(-c4c5nc(c(-c6cc(S(=O)(=O)[O-])ccc6F)c6ccc([nH]6)c(-c6cc(S(=O)(=O)[O-])ccc6F)c6nc(c(-c7cc(S(=O)(=O)[O-])ccc7F)c7ccc4[nH]7)C=C6)C=C5)cc3)n2C1
REMARK SMILES IDX 29 1 28 2 27 3 26 4 25 5 23 6 24 7 22 9 21 10 1 11 2 12 3 13
REMARK SMILES IDX 4 14 99 15 5 16 98 17 6 18 13 19 7 20 8 21 12 22 9 23 11 24
REMARK SMILES IDX 10 25 14 26 15 27 20 28 16 29 19 30 17 31 18 32 30 33 31 34
REMARK SMILES IDX 32 35 33 36 34 38 35 39 36 40 97 41 37 42 96 43 38 44 39 45
REMARK SMILES IDX 40 46 90 47 41 48 95 49 89 50 91 51 42 52 94 53 88 54 87 55
REMARK SMILES IDX 43 57 75 58 55 59 74 60 56 61 59 62 73 63 92 64 57 65 58 66
REMARK SMILES IDX 72 68 93 69 60 70 44 71 45 72 53 73 46 74 52 75 54 76 51 77
REMARK SMILES IDX 47 78 48 79 49 80 50 81 76 82 77 83 85 84 78 85 84 86 86 87
REMARK SMILES IDX 83 88 79 89 80 90 81 91 82 92 61 93 62 94 70 95 63 96 69 97
REMARK SMILES IDX 71 98 68 99 64 100 65 101 66 102 67 103
REMARK H PARENT 25 8 32 37 91 56 59 67
REMARK Flexibility Score: inf
ROOT
ATOM      1  C   UNL A   1      43.470  26.430  25.074  1.00  0.00     0.002 C 
ENDROOT
BRANCH   1   2
ATOM      2  C   UNL A   1      44.007  27.061  26.371  1.00  0.00     0.002 C 
BRANCH   2   3
ATOM      3  C   UNL A   1      44.065  28.589  26.375  1.00  0.00     0.021 C 
BRANCH   3   4
ATOM      4  C   UNL A   1      44.946  29.176  27.474  1.00  0.00     0.116 C 
BRANCH   4   5
ATOM      5  N   UNL A   1      46.078  29.908  26.958  1.00  0.00    -0.356 N 
ATOM      6  C   UNL A   1      47.391  29.812  27.320  1.00  0.00     0.225 C 
ATOM      7  O   UNL A   1      48.216  30.454  26.664  1.00  0.00    -0.275 OA
ATOM      8  H   UNL A   1      45.877  30.564  26.252  1.00  0.00     0.163 HD
BRANCH   6   9
ATOM      9  C   UNL A   1      47.823  28.865  28.432  1.00  0.00     0.154 C 
BRANCH   9  10
ATOM     10  C   UNL A   1      47.348  27.455  28.247  1.00  0.00     0.036 A 
ATOM     11  C   UNL A   1      44.359  25.792  31.886  1.00  0.00     0.013 C 
ATOM     12  C   UNL A   1      45.641  25.743  31.052  1.00  0.00    -0.012 C 
ATOM     13  C   UNL A   1      46.786  25.228  31.942  1.00  0.00     0.013 C 
ATOM     14  C   UNL A   1      45.474  24.822  29.799  1.00  0.00     0.063 C 
ATOM     15  C   UNL A   1      45.983  27.139  30.456  1.00  0.00     0.129 C 
ATOM     16  C   UNL A   1      46.257  25.542  28.764  1.00  0.00     0.027 A 
ATOM     17  N   UNL A   1      46.559  26.811  29.157  1.00  0.00    -0.346 N 
ATOM     18  C   UNL A   1      46.761  25.355  27.502  1.00  0.00     0.011 A 
ATOM     19  C   UNL A   1      47.513  26.552  27.193  1.00  0.00     0.011 A 
BRANCH  18  20
ATOM     20  C   UNL A   1      46.508  24.202  26.654  1.00  0.00    -0.016 A 
ATOM     21  C   UNL A   1      45.736  23.128  27.115  1.00  0.00     0.009 A 
ATOM     22  C   UNL A   1      46.884  24.235  25.307  1.00  0.00     0.009 A 
ATOM     23  C   UNL A   1      45.321  22.127  26.234  1.00  0.00     0.001 A 
ATOM     24  C   UNL A   1      46.396  23.284  24.415  1.00  0.00     0.001 A 
ATOM     25  C   UNL A   1      45.633  22.218  24.880  1.00  0.00     0.000 A 
ENDBRANCH  18  20
BRANCH  19  26
ATOM     26  C   UNL A   1      48.276  26.811  25.974  1.00  0.00    -0.016 A 
ATOM     27  C   UNL A   1      47.624  27.286  24.827  1.00  0.00     0.010 A 
ATOM     28  C   UNL A   1      49.612  26.404  25.873  1.00  0.00     0.010 A 
ATOM     29  C   UNL A   1      48.299  27.352  23.604  1.00  0.00     0.021 A 
ATOM     30  C   UNL A   1      50.298  26.498  24.659  1.00  0.00     0.021 A 
ATOM     31  C   UNL A   1      49.636  26.966  23.528  1.00  0.00     0.041 A 
ATOM     32  Cl  UNL A   1      50.466  27.043  22.023  1.00  0.00    -0.084 Cl
ENDBRANCH  19  26
ENDBRANCH   9  10
ENDBRANCH   6   9
ENDBRANCH   4   5
ENDBRANCH   3   4
ENDBRANCH   2   3
ENDBRANCH   1   2
BRANCH   1  33
ATOM     33  C   UNL A   1      43.139  24.928  25.127  1.00  0.00     0.021 C 
BRANCH  33  34
ATOM     34  C   UNL A   1      42.334  24.538  26.352  1.00  0.00     0.116 C 
BRANCH  34  35
ATOM     35  N   UNL A   1      40.907  24.360  26.053  1.00  0.00    -0.352 N 
ATOM     36  C   UNL A   1      39.801  25.006  26.604  1.00  0.00     0.251 C 
ATOM     37  H   UNL A   1      40.701  23.688  25.363  1.00  0.00     0.163 HD
ATOM     38  O   UNL A   1      38.694  24.517  26.539  1.00  0.00    -0.269 OA
BRANCH  36  39
ATOM     39  C   UNL A   1      40.014  26.322  27.239  1.00  0.00     0.039 A 
ATOM     40  C   UNL A   1      40.417  27.486  26.569  1.00  0.00     0.014 A 
ATOM     41  C   UNL A   1      39.744  26.371  28.584  1.00  0.00     0.014 A 
ATOM     42  C   UNL A   1      40.549  28.667  27.314  1.00  0.00     0.010 A 
ATOM     43  C   UNL A   1      39.347  27.574  29.045  1.00  0.00     0.010 A 
ATOM     44  C   UNL A   1      40.045  28.673  28.609  1.00  0.00    -0.014 A 
BRANCH  44  45
ATOM     45  C   UNL A   1      40.104  29.755  29.581  1.00  0.00     0.031 A 
ATOM     46  C   UNL A   1      38.813  30.455  29.769  1.00  0.00     0.074 A 
ATOM     47  C   UNL A   1      41.123  29.807  30.477  1.00  0.00     0.049 A 
ATOM     48  N   UNL A   1      38.487  31.643  29.382  1.00  0.00    -0.248 NA
ATOM     49  C   UNL A   1      37.663  29.658  30.244  1.00  0.00     0.031 C 
ATOM     50  C   UNL A   1      42.279  28.902  30.603  1.00  0.00     0.029 A 
ATOM     51  N   UNL A   1      41.285  30.619  31.557  1.00  0.00    -0.354 N 
ATOM     52  C   UNL A   1      37.179  31.818  29.823  1.00  0.00     0.074 A 
ATOM     53  C   UNL A   1      36.656  30.499  30.009  1.00  0.00     0.031 C 
ATOM     54  C   UNL A   1      42.892  29.098  31.794  1.00  0.00     0.029 A 
ATOM     55  C   UNL A   1      42.259  30.217  32.473  1.00  0.00     0.049 A 
ATOM     56  H   UNL A   1      40.749  31.435  31.684  1.00  0.00     0.167 HD
ATOM     57  C   UNL A   1      36.751  33.008  30.330  1.00  0.00     0.034 A 
ATOM     58  C   UNL A   1      42.481  30.721  33.724  1.00  0.00     0.034 A 
ATOM     59  C   UNL A   1      37.711  34.053  30.036  1.00  0.00     0.049 A 
ATOM     60  C   UNL A   1      41.814  32.039  33.786  1.00  0.00     0.074 A 
ATOM     61  C   UNL A   1      38.265  34.557  28.872  1.00  0.00     0.029 A 
ATOM     62  N   UNL A   1      38.575  34.430  31.043  1.00  0.00    -0.354 N 
ATOM     63  N   UNL A   1      42.209  33.052  33.068  1.00  0.00    -0.248 NA
ATOM     64  C   UNL A   1      40.412  32.071  34.186  1.00  0.00     0.031 C 
ATOM     65  C   UNL A   1      39.650  34.734  29.173  1.00  0.00     0.029 A 
ATOM     66  C   UNL A   1      39.848  34.438  30.522  1.00  0.00     0.049 A 
ATOM     67  H   UNL A   1      38.324  34.653  31.968  1.00  0.00     0.167 HD
ATOM     68  C   UNL A   1      41.044  33.578  32.535  1.00  0.00     0.074 A 
ATOM     69  C   UNL A   1      39.961  33.005  33.340  1.00  0.00     0.031 C 
ATOM     70  C   UNL A   1      41.040  34.149  31.293  1.00  0.00     0.034 A 
BRANCH  57  71
ATOM     71  C   UNL A   1      35.695  33.168  31.411  1.00  0.00     0.023 A 
ATOM     72  C   UNL A   1      34.644  34.064  31.139  1.00  0.00     0.031 A 
ATOM     73  C   UNL A   1      35.768  32.716  32.752  1.00  0.00     0.131 A 
ATOM     74  C   UNL A   1      33.812  34.546  32.166  1.00  0.00     0.055 A 
ATOM     75  C   UNL A   1      34.899  33.149  33.757  1.00  0.00     0.041 A 
ATOM     76  F   UNL A   1      36.726  31.901  33.204  1.00  0.00    -0.206 F 
ATOM     77  C   UNL A   1      33.935  34.096  33.476  1.00  0.00     0.022 A 
BRANCH  74  78
ATOM     78  S   UNL A   1      32.683  35.907  31.787  1.00  0.00     0.124 S 
ATOM     79  O   UNL A   1      31.489  35.514  32.528  1.00  0.00    -0.237 OA
ATOM     80  O   UNL A   1      33.417  37.056  32.306  1.00  0.00    -0.237 OA
ATOM     81  O   UNL A   1      32.562  35.848  30.332  1.00  0.00    -0.744 OA
ENDBRANCH  74  78
ENDBRANCH  57  71
BRANCH  58  82
ATOM     82  C   UNL A   1      42.891  29.955  34.931  1.00  0.00     0.023 A 
ATOM     83  C   UNL A   1      42.295  28.754  35.392  1.00  0.00     0.031 A 
ATOM     84  C   UNL A   1      44.102  30.329  35.541  1.00  0.00     0.131 A 
ATOM     85  C   UNL A   1      42.889  28.026  36.457  1.00  0.00     0.055 A 
ATOM     86  C   UNL A   1      44.652  29.633  36.604  1.00  0.00     0.041 A 
ATOM     87  F   UNL A   1      44.849  31.337  35.064  1.00  0.00    -0.206 F 
ATOM     88  C   UNL A   1      44.053  28.479  37.072  1.00  0.00     0.022 A 
BRANCH  85  89
ATOM     89  S   UNL A   1      42.265  26.394  36.994  1.00  0.00     0.124 S 
ATOM     90  O   UNL A   1      43.283  25.968  37.947  1.00  0.00    -0.237 OA
ATOM     91  O   UNL A   1      40.952  26.711  37.544  1.00  0.00    -0.237 OA
ATOM     92  O   UNL A   1      42.228  25.619  35.750  1.00  0.00    -0.744 OA
ENDBRANCH  85  89
ENDBRANCH  58  82
BRANCH  70  93
ATOM     93  C   UNL A   1      42.385  34.316  30.603  1.00  0.00     0.023 A 
ATOM     94  C   UNL A   1      42.771  33.672  29.398  1.00  0.00     0.031 A 
ATOM     95  C   UNL A   1      43.280  35.244  31.150  1.00  0.00     0.131 A 
ATOM     96  C   UNL A   1      44.017  33.955  28.802  1.00  0.00     0.055 A 
ATOM     97  C   UNL A   1      44.503  35.537  30.548  1.00  0.00     0.041 A 
ATOM     98  F   UNL A   1      42.962  35.909  32.272  1.00  0.00    -0.206 F 
ATOM     99  C   UNL A   1      44.879  34.891  29.375  1.00  0.00     0.022 A 
BRANCH  96 100
ATOM    100  S   UNL A   1      44.544  33.102  27.275  1.00  0.00     0.124 S 
ATOM    101  O   UNL A   1      45.980  32.929  27.459  1.00  0.00    -0.237 OA
ATOM    102  O   UNL A   1      43.745  31.880  27.297  1.00  0.00    -0.237 OA
ATOM    103  O   UNL A   1      44.176  34.043  26.214  1.00  0.00    -0.744 OA
ENDBRANCH  96 100
ENDBRANCH  70  93
ENDBRANCH  44  45
ENDBRANCH  36  39
ENDBRANCH  34  35
ENDBRANCH  33  34
ENDBRANCH   1  33
TORSDOF 19
ENDMDL
MODEL 2
REMARK VINA RESULT:     -10.0      8.372     12.939
REMARK SMILES CC1(C)Cc2c(-c3ccccc3)c(-c3ccc(Cl)cc3)c(CC(=O)NCCCCCCNC(=O)c3ccc(-c4c5nc(c(-c6cc(S(=O)(=O)[O-])ccc6F)c6ccc([nH]6)c(-c6cc(S(=O)(=O)[O-])ccc6F)c6nc(c(-c7cc(S(=O)(=O)[O-])ccc7F)c7ccc4[nH]7)C=C6)C=C5)cc3)n2C1
REMARK SMILES IDX 29 1 28 2 27 3 26 4 25 5 23 6 24 7 22 9 21 10 1 11 2 12 3 13
REMARK SMILES IDX 4 14 99 15 5 16 98 17 6 18 13 19 7 20 8 21 12 22 9 23 11 24
REMARK SMILES IDX 10 25 14 26 15 27 20 28 16 29 19 30 17 31 18 32 30 33 31 34
REMARK SMILES IDX 32 35 33 36 34 38 35 39 36 40 97 41 37 42 96 43 38 44 39 45
REMARK SMILES IDX 40 46 90 47 41 48 95 49 89 50 91 51 42 52 94 53 88 54 87 55
REMARK SMILES IDX 43 57 75 58 55 59 74 60 56 61 59 62 73 63 92 64 57 65 58 66
REMARK SMILES IDX 72 68 93 69 60 70 44 71 45 72 53 73 46 74 52 75 54 76 51 77
REMARK SMILES IDX 47 78 48 79 49 80 50 81 76 82 77 83 85 84 78 85 84 86 86 87
REMARK SMILES IDX 83 88 79 89 80 90 81 91 82 92 61 93 62 94 70 95 63 96 69 97
REMARK SMILES IDX 71 98 68 99 64 100 65 101 66 102 67 103
REMARK H PARENT 25 8 32 37 91 56 59 67
REMARK Flexibility Score: inf
ROOT
ATOM      1  C   UNL A   1      44.482  41.139  26.108  1.00  0.00     0.002 C 
ENDROOT
BRANCH   1   2
ATOM      2  C   UNL A   1      44.412  42.475  25.349  1.00  0.00     0.002 C 
BRANCH   2   3
ATOM      3  C   UNL A   1      45.764  43.134  25.068  1.00  0.00     0.021 C 
BRANCH   3   4
ATOM      4  C   UNL A   1      46.464  42.610  23.818  1.00  0.00     0.116 C 
BRANCH   4   5
ATOM      5  N   UNL A   1      47.611  43.403  23.440  1.00  0.00    -0.356 N 
ATOM      6  C   UNL A   1      48.124  43.617  22.193  1.00  0.00     0.225 C 
ATOM      7  O   UNL A   1      49.048  44.428  22.084  1.00  0.00    -0.275 OA
ATOM      8  H   UNL A   1      48.086  43.846  24.180  1.00  0.00     0.163 HD
BRANCH   6   9
ATOM      9  C   UNL A   1      47.505  42.949  20.973  1.00  0.00     0.154 C 
BRANCH   9  10
ATOM     10  C   UNL A   1      46.761  43.894  20.076  1.00  0.00     0.036 A 
ATOM     11  C   UNL A   1      49.507  45.821  16.377  1.00  0.00     0.013 C 
ATOM     12  C   UNL A   1      48.655  45.942  17.642  1.00  0.00    -0.012 C 
ATOM     13  C   UNL A   1      49.164  47.141  18.463  1.00  0.00     0.013 C 
ATOM     14  C   UNL A   1      47.140  46.127  17.298  1.00  0.00     0.063 C 
ATOM     15  C   UNL A   1      48.699  44.634  18.483  1.00  0.00     0.129 C 
ATOM     16  C   UNL A   1      46.470  45.348  18.369  1.00  0.00     0.027 A 
ATOM     17  N   UNL A   1      47.352  44.553  19.037  1.00  0.00    -0.346 N 
ATOM     18  C   UNL A   1      45.223  45.141  18.899  1.00  0.00     0.011 A 
ATOM     19  C   UNL A   1      45.412  44.260  20.031  1.00  0.00     0.011 A 
BRANCH  18  20
ATOM     20  C   UNL A   1      43.978  45.663  18.359  1.00  0.00    -0.016 A 
ATOM     21  C   UNL A   1      43.796  47.040  18.180  1.00  0.00     0.009 A 
ATOM     22  C   UNL A   1      43.020  44.782  17.846  1.00  0.00     0.009 A 
ATOM     23  C   UNL A   1      42.693  47.520  17.471  1.00  0.00     0.001 A 
ATOM     24  C   UNL A   1      41.970  45.258  17.066  1.00  0.00     0.001 A 
ATOM     25  C   UNL A   1      41.793  46.628  16.895  1.00  0.00     0.000 A 
ENDBRANCH  18  20
BRANCH  19  26
ATOM     26  C   UNL A   1      44.380  43.783  20.948  1.00  0.00    -0.016 A 
ATOM     27  C   UNL A   1      43.626  42.647  20.624  1.00  0.00     0.010 A 
ATOM     28  C   UNL A   1      43.995  44.559  22.048  1.00  0.00     0.010 A 
ATOM     29  C   UNL A   1      42.509  42.295  21.390  1.00  0.00     0.021 A 
ATOM     30  C   UNL A   1      42.899  44.192  22.834  1.00  0.00     0.021 A 
ATOM     31  C   UNL A   1      42.157  43.064  22.497  1.00  0.00     0.041 A 
ATOM     32  Cl  UNL A   1      40.781  42.635  23.437  1.00  0.00    -0.084 Cl
ENDBRANCH  19  26
ENDBRANCH   9  10
ENDBRANCH   6   9
ENDBRANCH   4   5
ENDBRANCH   3   4
ENDBRANCH   2   3
ENDBRANCH   1   2
BRANCH   1  33
ATOM     33  C   UNL A   1      43.138  40.508  26.511  1.00  0.00     0.021 C 
BRANCH  33  34
ATOM     34  C   UNL A   1      43.292  39.156  27.184  1.00  0.00     0.116 C 
BRANCH  34  35
ATOM     35  N   UNL A   1      44.655  38.930  27.683  1.00  0.00    -0.352 N 
ATOM     36  C   UNL A   1      45.117  37.978  28.591  1.00  0.00     0.251 C 
ATOM     37  H   UNL A   1      45.342  39.537  27.324  1.00  0.00     0.163 HD
ATOM     38  O   UNL A   1      46.164  38.133  29.182  1.00  0.00    -0.269 OA
BRANCH  36  39
ATOM     39  C   UNL A   1      44.309  36.757  28.785  1.00  0.00     0.039 A 
ATOM     40  C   UNL A   1      44.166  35.725  27.847  1.00  0.00     0.014 A 
ATOM     41  C   UNL A   1      43.701  36.650  30.011  1.00  0.00     0.014 A 
ATOM     42  C   UNL A   1      43.383  34.617  28.196  1.00  0.00     0.010 A 
ATOM     43  C   UNL A   1      43.493  35.388  30.438  1.00  0.00     0.010 A 
ATOM     44  C   UNL A   1      42.994  34.493  29.524  1.00  0.00    -0.014 A 
BRANCH  44  45
ATOM     45  C   UNL A   1      42.150  33.463  30.112  1.00  0.00     0.031 A 
ATOM     46  C   UNL A   1      40.793  33.936  30.465  1.00  0.00     0.074 A 
ATOM     47  C   UNL A   1      42.470  32.152  29.952  1.00  0.00     0.049 A 
ATOM     48  N   UNL A   1      40.303  34.144  31.641  1.00  0.00    -0.248 NA
ATOM     49  C   UNL A   1      39.945  34.462  29.376  1.00  0.00     0.031 C 
ATOM     50  C   UNL A   1      43.637  31.572  29.266  1.00  0.00     0.029 A 
ATOM     51  N   UNL A   1      41.751  31.042  30.269  1.00  0.00    -0.354 N 
ATOM     52  C   UNL A   1      38.995  34.562  31.417  1.00  0.00     0.074 A 
ATOM     53  C   UNL A   1      38.973  35.052  30.072  1.00  0.00     0.031 C 
ATOM     54  C   UNL A   1      43.438  30.249  29.053  1.00  0.00     0.029 A 
ATOM     55  C   UNL A   1      42.191  29.851  29.686  1.00  0.00     0.049 A 
ATOM     56  H   UNL A   1      40.971  31.075  30.869  1.00  0.00     0.167 HD
ATOM     57  C   UNL A   1      37.969  34.153  32.216  1.00  0.00     0.034 A 
ATOM     58  C   UNL A   1      41.543  28.648  29.665  1.00  0.00     0.034 A 
ATOM     59  C   UNL A   1      38.486  33.544  33.425  1.00  0.00     0.049 A 
ATOM     60  C   UNL A   1      40.511  28.691  30.723  1.00  0.00     0.074 A 
ATOM     61  C   UNL A   1      39.327  33.971  34.438  1.00  0.00     0.029 A 
ATOM     62  N   UNL A   1      38.510  32.167  33.488  1.00  0.00    -0.354 N 
ATOM     63  N   UNL A   1      40.815  28.756  31.988  1.00  0.00    -0.248 NA
ATOM     64  C   UNL A   1      39.203  29.231  30.371  1.00  0.00     0.031 C 
ATOM     65  C   UNL A   1      40.190  32.861  34.690  1.00  0.00     0.029 A 
ATOM     66  C   UNL A   1      39.765  31.788  33.905  1.00  0.00     0.049 A 
ATOM     67  H   UNL A   1      37.762  31.564  33.274  1.00  0.00     0.167 HD
ATOM     68  C   UNL A   1      39.986  29.741  32.498  1.00  0.00     0.074 A 
ATOM     69  C   UNL A   1      38.941  29.924  31.486  1.00  0.00     0.031 C 
ATOM     70  C   UNL A   1      40.407  30.549  33.516  1.00  0.00     0.034 A 
BRANCH  57  71
ATOM     71  C   UNL A   1      36.537  33.935  31.756  1.00  0.00     0.023 A 
ATOM     72  C   UNL A   1      36.347  33.043  30.684  1.00  0.00     0.031 A 
ATOM     73  C   UNL A   1      35.399  34.703  32.108  1.00  0.00     0.131 A 
ATOM     74  C   UNL A   1      35.140  33.018  29.961  1.00  0.00     0.055 A 
ATOM     75  C   UNL A   1      34.181  34.629  31.427  1.00  0.00     0.041 A 
ATOM     76  F   UNL A   1      35.406  35.634  33.068  1.00  0.00    -0.206 F 
ATOM     77  C   UNL A   1      34.055  33.808  30.324  1.00  0.00     0.022 A 
BRANCH  74  78
ATOM     78  S   UNL A   1      35.080  32.060  28.428  1.00  0.00     0.124 S 
ATOM     79  O   UNL A   1      35.638  30.782  28.856  1.00  0.00    -0.237 OA
ATOM     80  O   UNL A   1      33.653  32.074  28.124  1.00  0.00    -0.237 OA
ATOM     81  O   UNL A   1      35.920  32.832  27.515  1.00  0.00    -0.744 OA
ENDBRANCH  74  78
ENDBRANCH  57  71
BRANCH  58  82
ATOM     82  C   UNL A   1      41.528  27.666  28.547  1.00  0.00     0.023 A 
ATOM     83  C   UNL A   1      41.818  26.283  28.657  1.00  0.00     0.031 A 
ATOM     84  C   UNL A   1      40.972  28.097  27.330  1.00  0.00     0.131 A 
ATOM     85  C   UNL A   1      41.599  25.419  27.551  1.00  0.00     0.055 A 
ATOM     86  C   UNL A   1      40.798  27.254  26.245  1.00  0.00     0.041 A 
ATOM     87  F   UNL A   1      40.487  29.339  27.177  1.00  0.00    -0.206 F 
ATOM     88  C   UNL A   1      41.110  25.911  26.344  1.00  0.00     0.022 A 
BRANCH  85  89
ATOM     89  S   UNL A   1      41.799  23.605  27.671  1.00  0.00     0.124 S 
ATOM     90  O   UNL A   1      42.773  23.468  28.748  1.00  0.00    -0.237 OA
ATOM     91  O   UNL A   1      40.445  23.146  27.957  1.00  0.00    -0.237 OA
ATOM     92  O   UNL A   1      42.296  23.231  26.344  1.00  0.00    -0.744 OA
ENDBRANCH  85  89
ENDBRANCH  58  82
BRANCH  70  93
ATOM     93  C   UNL A   1      41.747  30.216  34.156  1.00  0.00     0.023 A 
ATOM     94  C   UNL A   1      43.015  30.568  33.624  1.00  0.00     0.031 A 
ATOM     95  C   UNL A   1      41.726  29.594  35.410  1.00  0.00     0.131 A 
ATOM     96  C   UNL A   1      44.196  30.276  34.337  1.00  0.00     0.055 A 
ATOM     97  C   UNL A   1      42.894  29.324  36.123  1.00  0.00     0.041 A 
ATOM     98  F   UNL A   1      40.556  29.264  35.981  1.00  0.00    -0.206 F 
ATOM     99  C   UNL A   1      44.133  29.659  35.588  1.00  0.00     0.022 A 
BRANCH  96 100
ATOM    100  S   UNL A   1      45.838  30.684  33.646  1.00  0.00     0.124 S 
ATOM    101  O   UNL A   1      46.610  29.466  33.860  1.00  0.00    -0.237 OA
ATOM    102  O   UNL A   1      45.529  31.009  32.256  1.00  0.00    -0.237 OA
ATOM    103  O   UNL A   1      46.272  31.828  34.451  1.00  0.00    -0.744 OA
ENDBRANCH  96 100
ENDBRANCH  70  93
ENDBRANCH  44  45
ENDBRANCH  36  39
ENDBRANCH  34  35
ENDBRANCH  33  34
ENDBRANCH   1  33
TORSDOF 19
ENDMDL
MODEL 3
REMARK VINA RESULT:      -9.8      2.965      8.288
REMARK SMILES CC1(C)Cc2c(-c3ccccc3)c(-c3ccc(Cl)cc3)c(CC(=O)NCCCCCCNC(=O)c3ccc(-c4c5nc(c(-c6cc(S(=O)(=O)[O-])ccc6F)c6ccc([nH]6)c(-c6cc(S(=O)(=O)[O-])ccc6F)c6nc(c(-c7cc(S(=O)(=O)[O-])ccc7F)c7ccc4[nH]7)C=C6)C=C5)cc3)n2C1
REMARK SMILES IDX 29 1 28 2 27 3 26 4 25 5 23 6 24 7 22 9 21 10 1 11 2 12 3 13
REMARK SMILES IDX 4 14 99 15 5 16 98 17 6 18 13 19 7 20 8 21 12 22 9 23 11 24
REMARK SMILES IDX 10 25 14 26 15 27 20 28 16 29 19 30 17 31 18 32 30 33 31 34
REMARK SMILES IDX 32 35 33 36 34 38 35 39 36 40 97 41 37 42 96 43 38 44 39 45
REMARK SMILES IDX 40 46 90 47 41 48 95 49 89 50 91 51 42 52 94 53 88 54 87 55
REMARK SMILES IDX 43 57 75 58 55 59 74 60 56 61 59 62 73 63 92 64 57 65 58 66
REMARK SMILES IDX 72 68 93 69 60 70 44 71 45 72 53 73 46 74 52 75 54 76 51 77
REMARK SMILES IDX 47 78 48 79 49 80 50 81 76 82 77 83 85 84 78 85 84 86 86 87
REMARK SMILES IDX 83 88 79 89 80 90 81 91 82 92 61 93 62 94 70 95 63 96 69 97
REMARK SMILES IDX 71 98 68 99 64 100 65 101 66 102 67 103
REMARK H PARENT 25 8 32 37 91 56 59 67
REMARK Flexibility Score: inf
ROOT
ATOM      1  C   UNL A   1      37.213  30.004  27.624  1.00  0.00     0.002 C 
ENDROOT
BRANCH   1   2
ATOM      2  C   UNL A   1      37.749  28.890  28.540  1.00  0.00     0.002 C 
BRANCH   2   3
ATOM      3  C   UNL A   1      39.078  28.272  28.104  1.00  0.00     0.021 C 
BRANCH   3   4
ATOM      4  C   UNL A   1      40.154  29.293  27.750  1.00  0.00     0.116 C 
BRANCH   4   5
ATOM      5  N   UNL A   1      41.097  28.804  26.772  1.00  0.00    -0.356 N 
ATOM      6  C   UNL A   1      42.288  28.168  26.982  1.00  0.00     0.225 C 
ATOM      7  O   UNL A   1      42.884  27.729  25.995  1.00  0.00    -0.275 OA
ATOM      8  H   UNL A   1      40.849  28.947  25.831  1.00  0.00     0.163 HD
BRANCH   6   9
ATOM      9  C   UNL A   1      42.802  27.928  28.394  1.00  0.00     0.154 C 
BRANCH   9  10
ATOM     10  C   UNL A   1      44.015  27.047  28.457  1.00  0.00     0.036 A 
ATOM     11  C   UNL A   1      43.032  22.160  28.148  1.00  0.00     0.013 C 
ATOM     12  C   UNL A   1      43.572  23.394  28.873  1.00  0.00    -0.012 C 
ATOM     13  C   UNL A   1      43.368  23.202  30.387  1.00  0.00     0.013 C 
ATOM     14  C   UNL A   1      45.086  23.627  28.558  1.00  0.00     0.063 C 
ATOM     15  C   UNL A   1      42.874  24.693  28.379  1.00  0.00     0.129 C 
ATOM     16  C   UNL A   1      45.177  25.108  28.496  1.00  0.00     0.027 A 
ATOM     17  N   UNL A   1      43.945  25.684  28.432  1.00  0.00    -0.346 N 
ATOM     18  C   UNL A   1      46.117  26.105  28.453  1.00  0.00     0.011 A 
ATOM     19  C   UNL A   1      45.379  27.349  28.491  1.00  0.00     0.011 A 
BRANCH  18  20
ATOM     20  C   UNL A   1      47.552  25.910  28.324  1.00  0.00    -0.016 A 
ATOM     21  C   UNL A   1      48.349  25.682  29.452  1.00  0.00     0.009 A 
ATOM     22  C   UNL A   1      48.122  25.769  27.054  1.00  0.00     0.009 A 
ATOM     23  C   UNL A   1      49.681  25.287  29.308  1.00  0.00     0.001 A 
ATOM     24  C   UNL A   1      49.422  25.292  26.913  1.00  0.00     0.001 A 
ATOM     25  C   UNL A   1      50.210  25.071  28.039  1.00  0.00     0.000 A 
ENDBRANCH  18  20
BRANCH  19  26
ATOM     26  C   UNL A   1      45.942  28.697  28.511  1.00  0.00    -0.016 A 
ATOM     27  C   UNL A   1      45.784  29.538  27.400  1.00  0.00     0.010 A 
ATOM     28  C   UNL A   1      46.807  29.090  29.539  1.00  0.00     0.010 A 
ATOM     29  C   UNL A   1      46.479  30.749  27.324  1.00  0.00     0.021 A 
ATOM     30  C   UNL A   1      47.478  30.314  29.480  1.00  0.00     0.021 A 
ATOM     31  C   UNL A   1      47.316  31.136  28.369  1.00  0.00     0.041 A 
ATOM     32  Cl  UNL A   1      48.175  32.624  28.274  1.00  0.00    -0.084 Cl
ENDBRANCH  19  26
ENDBRANCH   9  10
ENDBRANCH   6   9
ENDBRANCH   4   5
ENDBRANCH   3   4
ENDBRANCH   2   3
ENDBRANCH   1   2
BRANCH   1  33
ATOM     33  C   UNL A   1      35.700  29.995  27.345  1.00  0.00     0.021 C 
BRANCH  33  34
ATOM     34  C   UNL A   1      34.861  30.118  28.604  1.00  0.00     0.116 C 
BRANCH  34  35
ATOM     35  N   UNL A   1      34.426  31.498  28.855  1.00  0.00    -0.352 N 
ATOM     36  C   UNL A   1      34.770  32.358  29.898  1.00  0.00     0.251 C 
ATOM     37  H   UNL A   1      33.801  31.871  28.192  1.00  0.00     0.163 HD
ATOM     38  O   UNL A   1      34.073  33.308  30.182  1.00  0.00    -0.269 OA
BRANCH  36  39
ATOM     39  C   UNL A   1      36.030  32.095  30.623  1.00  0.00     0.039 A 
ATOM     40  C   UNL A   1      36.148  31.308  31.777  1.00  0.00     0.014 A 
ATOM     41  C   UNL A   1      37.152  32.652  30.062  1.00  0.00     0.014 A 
ATOM     42  C   UNL A   1      37.424  31.133  32.331  1.00  0.00     0.010 A 
ATOM     43  C   UNL A   1      38.300  31.986  30.296  1.00  0.00     0.010 A 
ATOM     44  C   UNL A   1      38.517  31.544  31.578  1.00  0.00    -0.014 A 
BRANCH  44  45
ATOM     45  C   UNL A   1      39.922  31.507  31.957  1.00  0.00     0.031 A 
ATOM     46  C   UNL A   1      40.397  30.160  32.346  1.00  0.00     0.074 A 
ATOM     47  C   UNL A   1      40.751  32.518  31.585  1.00  0.00     0.049 A 
ATOM     48  N   UNL A   1      40.702  29.733  33.525  1.00  0.00    -0.248 NA
ATOM     49  C   UNL A   1      40.308  29.084  31.338  1.00  0.00     0.031 C 
ATOM     50  C   UNL A   1      40.421  33.747  30.844  1.00  0.00     0.029 A 
ATOM     51  N   UNL A   1      42.105  32.607  31.686  1.00  0.00    -0.354 N 
ATOM     52  C   UNL A   1      41.103  28.414  33.337  1.00  0.00     0.074 A 
ATOM     53  C   UNL A   1      40.519  28.007  32.095  1.00  0.00     0.031 C 
ATOM     54  C   UNL A   1      41.556  34.340  30.404  1.00  0.00     0.029 A 
ATOM     55  C   UNL A   1      42.702  33.612  30.922  1.00  0.00     0.049 A 
ATOM     56  H   UNL A   1      42.629  32.002  32.261  1.00  0.00     0.167 HD
ATOM     57  C   UNL A   1      42.155  27.884  34.024  1.00  0.00     0.034 A 
ATOM     58  C   UNL A   1      44.035  33.788  30.678  1.00  0.00     0.034 A 
ATOM     59  C   UNL A   1      42.522  28.750  35.126  1.00  0.00     0.049 A 
ATOM     60  C   UNL A   1      44.770  33.008  31.696  1.00  0.00     0.074 A 
ATOM     61  C   UNL A   1      41.847  29.259  36.221  1.00  0.00     0.029 A 
ATOM     62  N   UNL A   1      43.612  29.577  34.954  1.00  0.00    -0.354 N 
ATOM     63  N   UNL A   1      44.737  33.314  32.962  1.00  0.00    -0.248 NA
ATOM     64  C   UNL A   1      45.055  31.609  31.404  1.00  0.00     0.031 C 
ATOM     65  C   UNL A   1      42.261  30.624  36.305  1.00  0.00     0.029 A 
ATOM     66  C   UNL A   1      43.241  30.845  35.337  1.00  0.00     0.049 A 
ATOM     67  H   UNL A   1      44.497  29.306  34.618  1.00  0.00     0.167 HD
ATOM     68  C   UNL A   1      44.519  32.109  33.608  1.00  0.00     0.074 A 
ATOM     69  C   UNL A   1      44.831  31.078  32.612  1.00  0.00     0.031 C 
ATOM     70  C   UNL A   1      43.789  32.057  34.761  1.00  0.00     0.034 A 
BRANCH  57  71
ATOM     71  C   UNL A   1      43.097  26.817  33.492  1.00  0.00     0.023 A 
ATOM     72  C   UNL A   1      43.313  25.697  34.317  1.00  0.00     0.031 A 
ATOM     73  C   UNL A   1      43.971  26.924  32.382  1.00  0.00     0.131 A 
ATOM     74  C   UNL A   1      44.398  24.828  34.098  1.00  0.00     0.055 A 
ATOM     75  C   UNL A   1      45.009  26.021  32.132  1.00  0.00     0.041 A 
ATOM     76  F   UNL A   1      43.946  27.944  31.518  1.00  0.00    -0.206 F 
ATOM     77  C   UNL A   1      45.250  24.984  33.010  1.00  0.00     0.022 A 
BRANCH  74  78
ATOM     78  S   UNL A   1      44.776  23.594  35.364  1.00  0.00     0.124 S 
ATOM     79  O   UNL A   1      44.044  22.432  34.871  1.00  0.00    -0.237 OA
ATOM     80  O   UNL A   1      46.231  23.523  35.286  1.00  0.00    -0.237 OA
ATOM     81  O   UNL A   1      44.245  24.192  36.587  1.00  0.00    -0.744 OA
ENDBRANCH  74  78
ENDBRANCH  57  71
BRANCH  58  82
ATOM     82  C   UNL A   1      44.651  34.262  29.409  1.00  0.00     0.023 A 
ATOM     83  C   UNL A   1      44.371  33.758  28.114  1.00  0.00     0.031 A 
ATOM     84  C   UNL A   1      45.407  35.446  29.472  1.00  0.00     0.131 A 
ATOM     85  C   UNL A   1      44.893  34.412  26.966  1.00  0.00     0.055 A 
ATOM     86  C   UNL A   1      45.944  36.053  28.350  1.00  0.00     0.041 A 
ATOM     87  F   UNL A   1      45.575  36.113  30.625  1.00  0.00    -0.206 F 
ATOM     88  C   UNL A   1      45.695  35.544  27.090  1.00  0.00     0.022 A 
BRANCH  85  89
ATOM     89  S   UNL A   1      44.443  33.913  25.266  1.00  0.00     0.124 S 
ATOM     90  O   UNL A   1      45.496  34.532  24.469  1.00  0.00    -0.237 OA
ATOM     91  O   UNL A   1      44.454  32.457  25.339  1.00  0.00    -0.237 OA
ATOM     92  O   UNL A   1      43.112  34.499  25.083  1.00  0.00    -0.744 OA
ENDBRANCH  85  89
ENDBRANCH  58  82
BRANCH  70  93
ATOM     93  C   UNL A   1      43.366  33.383  35.374  1.00  0.00     0.023 A 
ATOM     94  C   UNL A   1      42.060  33.936  35.303  1.00  0.00     0.031 A 
ATOM     95  C   UNL A   1      44.313  34.070  36.143  1.00  0.00     0.131 A 
ATOM     96  C   UNL A   1      41.755  35.139  35.972  1.00  0.00     0.055 A 
ATOM     97  C   UNL A   1      44.004  35.250  36.819  1.00  0.00     0.041 A 
ATOM     98  F   UNL A   1      45.558  33.583  36.274  1.00  0.00    -0.206 F 
ATOM     99  C   UNL A   1      42.726  35.792  36.733  1.00  0.00     0.022 A 
BRANCH  96 100
ATOM    100  S   UNL A   1      40.091  35.885  35.855  1.00  0.00     0.124 S 
ATOM    101  O   UNL A   1      39.600  35.840  37.226  1.00  0.00    -0.237 OA
ATOM    102  O   UNL A   1      40.372  37.214  35.319  1.00  0.00    -0.237 OA
ATOM    103  O   UNL A   1      39.385  34.998  34.927  1.00  0.00    -0.744 OA
ENDBRANCH  96 100
ENDBRANCH  70  93
ENDBRANCH  44  45
ENDBRANCH  36  39
ENDBRANCH  34  35
ENDBRANCH  33  34
ENDBRANCH   1  33
TORSDOF 19
ENDMDL
