MODEL 1
REMARK VINA RESULT:     -10.5      0.000      0.000
REMARK SMILES C=CCN(CC(=O)NCCCCCCNC(=O)c1ccc(-c2c3nc(c(-c4cc(S(=O)(=O)[O-])ccc4F)c4ccc([nH]4)c(-c4cc(S(=O)(=O)[O-])ccc4F)c4nc(c(-c5cc(S(=O)(=O)[O-])ccc5F)c5ccc2[nH]5)C=C4)C=C3)cc1)c1ccc([N+](=O)[O-])cc1Br
REMARK SMILES IDX 11 1 10 2 9 3 8 4 6 5 7 6 5 8 4 9 3 10 2 11 1 12 81 13 82 14
REMARK SMILES IDX 89 15 83 16 88 17 90 18 84 19 85 20 86 21 87 22 12 23 13 24
REMARK SMILES IDX 14 25 15 26 16 27 17 29 18 30 19 31 80 32 20 33 79 34 21 35
REMARK SMILES IDX 22 36 23 37 73 38 24 39 78 40 72 41 74 42 25 43 77 44 71 45
REMARK SMILES IDX 70 46 26 48 58 49 38 50 57 51 39 52 42 53 56 54 75 55 40 56
REMARK SMILES IDX 41 57 55 59 76 60 43 61 27 62 28 63 36 64 29 65 35 66 37 67
REMARK SMILES IDX 34 68 30 69 31 70 32 71 33 72 59 73 60 74 68 75 61 76 67 77
REMARK SMILES IDX 69 78 66 79 62 80 63 81 64 82 65 83 44 84 45 85 53 86 46 87
REMARK SMILES IDX 52 88 54 89 51 90 47 91 48 92 49 93 50 94
REMARK H PARENT 8 7 15 28 74 47 42 58
REMARK Flexibility Score: inf
ROOT
ATOM      1  C   UNL A   1      31.797  29.930  25.150  1.00  0.00     0.002 C 
ENDROOT
BRANCH   1   2
ATOM      2  C   UNL A   1      30.645  29.563  24.207  1.00  0.00     0.021 C 
BRANCH   2   3
ATOM      3  C   UNL A   1      31.053  28.668  23.032  1.00  0.00     0.116 C 
BRANCH   3   4
ATOM      4  N   UNL A   1      32.410  28.923  22.597  1.00  0.00    -0.355 N 
ATOM      5  C   UNL A   1      33.425  28.060  22.295  1.00  0.00     0.239 C 
ATOM      6  O   UNL A   1      34.500  28.566  21.952  1.00  0.00    -0.273 OA
ATOM      7  H   UNL A   1      32.639  29.876  22.503  1.00  0.00     0.163 HD
BRANCH   5   8
ATOM      8  C   UNL A   1      33.247  26.532  22.332  1.00  0.00     0.216 C 
BRANCH   8   9
ATOM      9  N   UNL A   1      33.369  25.878  23.652  1.00  0.00    -0.358 N 
BRANCH   9  10
ATOM     10  C   UNL A   1      33.828  26.676  24.791  1.00  0.00     0.144 C 
BRANCH  10  11
ATOM     11  C   UNL A   1      33.121  26.328  26.060  1.00  0.00    -0.014 C 
ATOM     12  C   UNL A   1      31.809  26.501  26.264  1.00  0.00     0.006 C 
ENDBRANCH  10  11
ENDBRANCH   9  10
BRANCH   9  13
ATOM     13  C   UNL A   1      33.403  24.488  23.746  1.00  0.00     0.052 A 
ATOM     14  C   UNL A   1      34.642  23.821  23.802  1.00  0.00     0.034 A 
ATOM     15  C   UNL A   1      32.248  23.675  23.826  1.00  0.00     0.048 A 
ATOM     16  C   UNL A   1      34.747  22.437  23.979  1.00  0.00     0.088 A 
ATOM     17  C   UNL A   1      32.335  22.294  24.057  1.00  0.00     0.103 A 
ATOM     18  Br  UNL A   1      30.494  24.336  23.486  1.00  0.00    -0.048 Br
ATOM     19  C   UNL A   1      33.587  21.684  24.135  1.00  0.00     0.270 A 
BRANCH  19  20
ATOM     20  N   UNL A   1      33.684  20.239  24.353  1.00  0.00     0.062 N 
ATOM     21  O   UNL A   1      34.679  19.814  24.958  1.00  0.00    -0.258 OA
ATOM     22  O   UNL A   1      32.769  19.528  23.915  1.00  0.00    -0.258 OA
ENDBRANCH  19  20
ENDBRANCH   9  13
ENDBRANCH   8   9
ENDBRANCH   5   8
ENDBRANCH   3   4
ENDBRANCH   2   3
ENDBRANCH   1   2
BRANCH   1  23
ATOM     23  C   UNL A   1      31.370  30.529  26.494  1.00  0.00     0.002 C 
BRANCH  23  24
ATOM     24  C   UNL A   1      31.437  32.058  26.578  1.00  0.00     0.021 C 
BRANCH  24  25
ATOM     25  C   UNL A   1      32.699  32.610  27.233  1.00  0.00     0.116 C 
BRANCH  25  26
ATOM     26  N   UNL A   1      32.529  33.989  27.659  1.00  0.00    -0.352 N 
ATOM     27  C   UNL A   1      33.140  34.669  28.683  1.00  0.00     0.251 C 
ATOM     28  H   UNL A   1      31.880  34.513  27.135  1.00  0.00     0.163 HD
ATOM     29  O   UNL A   1      32.700  35.763  29.024  1.00  0.00    -0.269 OA
BRANCH  27  30
ATOM     30  C   UNL A   1      34.309  34.085  29.383  1.00  0.00     0.039 A 
ATOM     31  C   UNL A   1      34.087  33.175  30.423  1.00  0.00     0.014 A 
ATOM     32  C   UNL A   1      35.615  34.462  29.058  1.00  0.00     0.014 A 
ATOM     33  C   UNL A   1      35.171  32.621  31.108  1.00  0.00     0.010 A 
ATOM     34  C   UNL A   1      36.697  33.860  29.699  1.00  0.00     0.010 A 
ATOM     35  C   UNL A   1      36.487  32.945  30.742  1.00  0.00    -0.014 A 
BRANCH  35  36
ATOM     36  C   UNL A   1      37.653  32.378  31.471  1.00  0.00     0.031 A 
ATOM     37  C   UNL A   1      38.431  31.239  30.863  1.00  0.00     0.074 A 
ATOM     38  C   UNL A   1      37.980  32.847  32.690  1.00  0.00     0.049 A 
ATOM     39  N   UNL A   1      39.418  30.545  31.370  1.00  0.00    -0.248 NA
ATOM     40  C   UNL A   1      38.021  30.806  29.519  1.00  0.00     0.031 C 
ATOM     41  C   UNL A   1      37.285  33.925  33.396  1.00  0.00     0.029 A 
ATOM     42  N   UNL A   1      38.974  32.471  33.560  1.00  0.00    -0.354 N 
ATOM     43  C   UNL A   1      39.733  29.582  30.417  1.00  0.00     0.074 A 
ATOM     44  C   UNL A   1      38.795  29.748  29.328  1.00  0.00     0.031 C 
ATOM     45  C   UNL A   1      37.884  34.133  34.581  1.00  0.00     0.029 A 
ATOM     46  C   UNL A   1      38.978  33.179  34.739  1.00  0.00     0.049 A 
ATOM     47  H   UNL A   1      39.625  31.759  33.357  1.00  0.00     0.167 HD
ATOM     48  C   UNL A   1      40.726  28.656  30.439  1.00  0.00     0.034 A 
ATOM     49  C   UNL A   1      39.765  33.065  35.828  1.00  0.00     0.034 A 
ATOM     50  C   UNL A   1      41.671  28.521  31.520  1.00  0.00     0.049 A 
ATOM     51  C   UNL A   1      40.865  32.032  35.827  1.00  0.00     0.074 A 
ATOM     52  C   UNL A   1      42.744  27.651  31.624  1.00  0.00     0.029 A 
ATOM     53  N   UNL A   1      41.660  29.277  32.685  1.00  0.00    -0.354 N 
ATOM     54  N   UNL A   1      41.173  31.153  34.901  1.00  0.00    -0.248 NA
ATOM     55  C   UNL A   1      41.734  31.987  37.010  1.00  0.00     0.031 C 
ATOM     56  C   UNL A   1      43.345  27.843  32.873  1.00  0.00     0.029 A 
ATOM     57  C   UNL A   1      42.694  28.881  33.520  1.00  0.00     0.049 A 
ATOM     58  H   UNL A   1      41.013  29.990  32.889  1.00  0.00     0.167 HD
ATOM     59  C   UNL A   1      42.296  30.480  35.375  1.00  0.00     0.074 A 
ATOM     60  C   UNL A   1      42.616  31.062  36.661  1.00  0.00     0.031 C 
ATOM     61  C   UNL A   1      43.004  29.476  34.798  1.00  0.00     0.034 A 
BRANCH  48  62
ATOM     62  C   UNL A   1      40.820  27.707  29.268  1.00  0.00     0.023 A 
ATOM     63  C   UNL A   1      41.793  27.863  28.266  1.00  0.00     0.031 A 
ATOM     64  C   UNL A   1      39.910  26.641  29.142  1.00  0.00     0.131 A 
ATOM     65  C   UNL A   1      41.789  27.015  27.148  1.00  0.00     0.055 A 
ATOM     66  C   UNL A   1      39.964  25.751  28.068  1.00  0.00     0.041 A 
ATOM     67  F   UNL A   1      38.946  26.455  30.057  1.00  0.00    -0.206 F 
ATOM     68  C   UNL A   1      40.898  25.944  27.054  1.00  0.00     0.022 A 
BRANCH  65  69
ATOM     69  S   UNL A   1      42.880  27.414  25.755  1.00  0.00     0.124 S 
ATOM     70  O   UNL A   1      42.712  28.863  25.658  1.00  0.00    -0.237 OA
ATOM     71  O   UNL A   1      44.179  26.951  26.227  1.00  0.00    -0.237 OA
ATOM     72  O   UNL A   1      42.310  26.653  24.644  1.00  0.00    -0.744 OA
ENDBRANCH  65  69
ENDBRANCH  48  62
BRANCH  49  73
ATOM     73  C   UNL A   1      39.551  33.941  37.016  1.00  0.00     0.023 A 
ATOM     74  C   UNL A   1      38.942  33.445  38.181  1.00  0.00     0.031 A 
ATOM     75  C   UNL A   1      39.898  35.303  36.984  1.00  0.00     0.131 A 
ATOM     76  C   UNL A   1      38.645  34.314  39.241  1.00  0.00     0.055 A 
ATOM     77  C   UNL A   1      39.651  36.152  38.065  1.00  0.00     0.041 A 
ATOM     78  F   UNL A   1      40.489  35.828  35.899  1.00  0.00    -0.206 F 
ATOM     79  C   UNL A   1      39.007  35.662  39.195  1.00  0.00     0.022 A 
BRANCH  76  80
ATOM     80  S   UNL A   1      37.686  33.677  40.643  1.00  0.00     0.124 S 
ATOM     81  O   UNL A   1      36.528  33.099  39.972  1.00  0.00    -0.237 OA
ATOM     82  O   UNL A   1      38.621  32.730  41.241  1.00  0.00    -0.237 OA
ATOM     83  O   UNL A   1      37.415  34.872  41.439  1.00  0.00    -0.744 OA
ENDBRANCH  76  80
ENDBRANCH  49  73
BRANCH  61  84
ATOM     84  C   UNL A   1      44.231  28.992  35.529  1.00  0.00     0.023 A 
ATOM     85  C   UNL A   1      44.160  28.020  36.541  1.00  0.00     0.031 A 
ATOM     86  C   UNL A   1      45.493  29.527  35.213  1.00  0.00     0.131 A 
ATOM     87  C   UNL A   1      45.319  27.654  37.241  1.00  0.00     0.055 A 
ATOM     88  C   UNL A   1      46.652  29.115  35.872  1.00  0.00     0.041 A 
ATOM     89  F   UNL A   1      45.619  30.459  34.255  1.00  0.00    -0.206 F 
ATOM     90  C   UNL A   1      46.566  28.185  36.903  1.00  0.00     0.022 A 
BRANCH  87  91
ATOM     91  S   UNL A   1      45.162  26.542  38.666  1.00  0.00     0.124 S 
ATOM     92  O   UNL A   1      45.833  25.338  38.187  1.00  0.00    -0.237 OA
ATOM     93  O   UNL A   1      45.853  27.282  39.716  1.00  0.00    -0.237 OA
ATOM     94  O   UNL A   1      43.717  26.416  38.846  1.00  0.00    -0.744 OA
ENDBRANCH  87  91
ENDBRANCH  61  84
ENDBRANCH  35  36
ENDBRANCH  27  30
ENDBRANCH  25  26
ENDBRANCH  24  25
ENDBRANCH  23  24
ENDBRANCH   1  23
TORSDOF 21
ENDMDL
MODEL 2
REMARK VINA RESULT:     -10.5      1.603      2.014
REMARK SMILES C=CCN(CC(=O)NCCCCCCNC(=O)c1ccc(-c2c3nc(c(-c4cc(S(=O)(=O)[O-])ccc4F)c4ccc([nH]4)c(-c4cc(S(=O)(=O)[O-])ccc4F)c4nc(c(-c5cc(S(=O)(=O)[O-])ccc5F)c5ccc2[nH]5)C=C4)C=C3)cc1)c1ccc([N+](=O)[O-])cc1Br
REMARK SMILES IDX 11 1 10 2 9 3 8 4 6 5 7 6 5 8 4 9 3 10 2 11 1 12 81 13 82 14
REMARK SMILES IDX 89 15 83 16 88 17 90 18 84 19 85 20 86 21 87 22 12 23 13 24
REMARK SMILES IDX 14 25 15 26 16 27 17 29 18 30 19 31 80 32 20 33 79 34 21 35
REMARK SMILES IDX 22 36 23 37 73 38 24 39 78 40 72 41 74 42 25 43 77 44 71 45
REMARK SMILES IDX 70 46 26 48 58 49 38 50 57 51 39 52 42 53 56 54 75 55 40 56
REMARK SMILES IDX 41 57 55 59 76 60 43 61 27 62 28 63 36 64 29 65 35 66 37 67
REMARK SMILES IDX 34 68 30 69 31 70 32 71 33 72 59 73 60 74 68 75 61 76 67 77
REMARK SMILES IDX 69 78 66 79 62 80 63 81 64 82 65 83 44 84 45 85 53 86 46 87
REMARK SMILES IDX 52 88 54 89 51 90 47 91 48 92 49 93 50 94
REMARK H PARENT 8 7 15 28 74 47 42 58
REMARK Flexibility Score: inf
ROOT
ATOM      1  C   UNL A   1      31.301  29.614  25.539  1.00  0.00     0.002 C 
ENDROOT
BRANCH   1   2
ATOM      2  C   UNL A   1      32.226  29.031  26.613  1.00  0.00     0.021 C 
BRANCH   2   3
ATOM      3  C   UNL A   1      33.619  28.648  26.106  1.00  0.00     0.116 C 
BRANCH   3   4
ATOM      4  N   UNL A   1      33.590  28.168  24.740  1.00  0.00    -0.355 N 
ATOM      5  C   UNL A   1      33.749  26.908  24.236  1.00  0.00     0.239 C 
ATOM      6  O   UNL A   1      33.681  26.789  23.007  1.00  0.00    -0.273 OA
ATOM      7  H   UNL A   1      33.429  28.864  24.063  1.00  0.00     0.163 HD
BRANCH   5   8
ATOM      8  C   UNL A   1      33.957  25.679  25.138  1.00  0.00     0.216 C 
BRANCH   8   9
ATOM      9  N   UNL A   1      32.797  24.781  25.321  1.00  0.00    -0.358 N 
BRANCH   9  10
ATOM     10  C   UNL A   1      31.592  25.312  25.964  1.00  0.00     0.144 C 
BRANCH  10  11
ATOM     11  C   UNL A   1      30.411  25.327  25.051  1.00  0.00    -0.014 C 
ATOM     12  C   UNL A   1      30.241  26.202  24.051  1.00  0.00     0.006 C 
ENDBRANCH  10  11
ENDBRANCH   9  10
BRANCH   9  13
ATOM     13  C   UNL A   1      32.957  23.400  25.227  1.00  0.00     0.052 A 
ATOM     14  C   UNL A   1      33.181  22.641  26.392  1.00  0.00     0.034 A 
ATOM     15  C   UNL A   1      32.873  22.678  24.014  1.00  0.00     0.048 A 
ATOM     16  C   UNL A   1      33.267  21.245  26.379  1.00  0.00     0.088 A 
ATOM     17  C   UNL A   1      32.905  21.275  23.989  1.00  0.00     0.103 A 
ATOM     18  Br  UNL A   1      32.860  23.523  22.308  1.00  0.00    -0.048 Br
ATOM     19  C   UNL A   1      33.100  20.567  25.175  1.00  0.00     0.270 A 
BRANCH  19  20
ATOM     20  N   UNL A   1      33.156  19.103  25.152  1.00  0.00     0.062 N 
ATOM     21  O   UNL A   1      33.825  18.568  24.257  1.00  0.00    -0.258 OA
ATOM     22  O   UNL A   1      32.527  18.490  26.026  1.00  0.00    -0.258 OA
ENDBRANCH  19  20
ENDBRANCH   9  13
ENDBRANCH   8   9
ENDBRANCH   5   8
ENDBRANCH   3   4
ENDBRANCH   2   3
ENDBRANCH   1   2
BRANCH   1  23
ATOM     23  C   UNL A   1      31.128  31.136  25.587  1.00  0.00     0.002 C 
BRANCH  23  24
ATOM     24  C   UNL A   1      31.404  31.781  26.950  1.00  0.00     0.021 C 
BRANCH  24  25
ATOM     25  C   UNL A   1      32.741  32.509  27.056  1.00  0.00     0.116 C 
BRANCH  25  26
ATOM     26  N   UNL A   1      32.574  33.886  27.488  1.00  0.00    -0.352 N 
ATOM     27  C   UNL A   1      33.156  34.548  28.541  1.00  0.00     0.251 C 
ATOM     28  H   UNL A   1      31.952  34.424  26.946  1.00  0.00     0.163 HD
ATOM     29  O   UNL A   1      32.719  35.645  28.875  1.00  0.00    -0.269 OA
BRANCH  27  30
ATOM     30  C   UNL A   1      34.290  33.941  29.278  1.00  0.00     0.039 A 
ATOM     31  C   UNL A   1      35.595  34.266  28.893  1.00  0.00     0.014 A 
ATOM     32  C   UNL A   1      34.078  33.021  30.308  1.00  0.00     0.014 A 
ATOM     33  C   UNL A   1      36.682  33.696  29.562  1.00  0.00     0.010 A 
ATOM     34  C   UNL A   1      35.161  32.503  31.016  1.00  0.00     0.010 A 
ATOM     35  C   UNL A   1      36.476  32.822  30.641  1.00  0.00    -0.014 A 
BRANCH  35  36
ATOM     36  C   UNL A   1      37.619  32.193  31.355  1.00  0.00     0.031 A 
ATOM     37  C   UNL A   1      38.387  31.077  30.696  1.00  0.00     0.074 A 
ATOM     38  C   UNL A   1      37.934  32.587  32.604  1.00  0.00     0.049 A 
ATOM     39  N   UNL A   1      39.353  30.336  31.179  1.00  0.00    -0.248 NA
ATOM     40  C   UNL A   1      37.992  30.727  29.324  1.00  0.00     0.031 C 
ATOM     41  C   UNL A   1      37.247  33.637  33.358  1.00  0.00     0.029 A 
ATOM     42  N   UNL A   1      38.907  32.145  33.466  1.00  0.00    -0.354 N 
ATOM     43  C   UNL A   1      39.666  29.422  30.178  1.00  0.00     0.074 A 
ATOM     44  C   UNL A   1      38.749  29.667  29.085  1.00  0.00     0.031 C 
ATOM     45  C   UNL A   1      37.829  33.767  34.562  1.00  0.00     0.029 A 
ATOM     46  C   UNL A   1      38.904  32.786  34.683  1.00  0.00     0.049 A 
ATOM     47  H   UNL A   1      39.548  31.433  33.234  1.00  0.00     0.167 HD
ATOM     48  C   UNL A   1      40.642  28.479  30.164  1.00  0.00     0.034 A 
ATOM     49  C   UNL A   1      39.670  32.596  35.776  1.00  0.00     0.034 A 
ATOM     50  C   UNL A   1      41.567  28.266  31.250  1.00  0.00     0.049 A 
ATOM     51  C   UNL A   1      40.751  31.544  35.734  1.00  0.00     0.074 A 
ATOM     52  C   UNL A   1      42.622  27.372  31.322  1.00  0.00     0.029 A 
ATOM     53  N   UNL A   1      41.549  28.955  32.455  1.00  0.00    -0.354 N 
ATOM     54  N   UNL A   1      41.059  30.713  34.765  1.00  0.00    -0.248 NA
ATOM     55  C   UNL A   1      41.600  31.417  36.926  1.00  0.00     0.031 C 
ATOM     56  C   UNL A   1      43.205  27.481  32.589  1.00  0.00     0.029 A 
ATOM     57  C   UNL A   1      42.563  28.494  33.282  1.00  0.00     0.049 A 
ATOM     58  H   UNL A   1      40.912  29.667  32.688  1.00  0.00     0.167 HD
ATOM     59  C   UNL A   1      42.162  29.994  35.218  1.00  0.00     0.074 A 
ATOM     60  C   UNL A   1      42.471  30.496  36.540  1.00  0.00     0.031 C 
ATOM     61  C   UNL A   1      42.861  29.010  34.596  1.00  0.00     0.034 A 
BRANCH  48  62
ATOM     62  C   UNL A   1      40.738  27.595  28.943  1.00  0.00     0.023 A 
ATOM     63  C   UNL A   1      41.693  27.825  27.937  1.00  0.00     0.031 A 
ATOM     64  C   UNL A   1      39.851  26.517  28.773  1.00  0.00     0.131 A 
ATOM     65  C   UNL A   1      41.690  27.037  26.775  1.00  0.00     0.055 A 
ATOM     66  C   UNL A   1      39.907  25.686  27.652  1.00  0.00     0.041 A 
ATOM     67  F   UNL A   1      38.905  26.260  29.690  1.00  0.00    -0.206 F 
ATOM     68  C   UNL A   1      40.821  25.953  26.637  1.00  0.00     0.022 A 
BRANCH  65  69
ATOM     69  S   UNL A   1      42.749  27.534  25.389  1.00  0.00     0.124 S 
ATOM     70  O   UNL A   1      42.839  26.290  24.628  1.00  0.00    -0.237 OA
ATOM     71  O   UNL A   1      41.979  28.607  24.772  1.00  0.00    -0.237 OA
ATOM     72  O   UNL A   1      43.991  27.950  26.038  1.00  0.00    -0.744 OA
ENDBRANCH  65  69
ENDBRANCH  48  62
BRANCH  49  73
ATOM     73  C   UNL A   1      39.452  33.408  37.008  1.00  0.00     0.023 A 
ATOM     74  C   UNL A   1      40.198  34.573  37.249  1.00  0.00     0.031 A 
ATOM     75  C   UNL A   1      38.535  32.999  37.993  1.00  0.00     0.131 A 
ATOM     76  C   UNL A   1      40.059  35.255  38.467  1.00  0.00     0.055 A 
ATOM     77  C   UNL A   1      38.360  33.712  39.180  1.00  0.00     0.041 A 
ATOM     78  F   UNL A   1      37.791  31.896  37.811  1.00  0.00    -0.206 F 
ATOM     79  C   UNL A   1      39.136  34.839  39.429  1.00  0.00     0.022 A 
BRANCH  76  80
ATOM     80  S   UNL A   1      41.177  36.639  38.819  1.00  0.00     0.124 S 
ATOM     81  O   UNL A   1      40.237  37.707  39.139  1.00  0.00    -0.237 OA
ATOM     82  O   UNL A   1      41.960  36.117  39.934  1.00  0.00    -0.237 OA
ATOM     83  O   UNL A   1      41.912  36.808  37.568  1.00  0.00    -0.744 OA
ENDBRANCH  76  80
ENDBRANCH  49  73
BRANCH  61  84
ATOM     84  C   UNL A   1      44.068  28.464  35.318  1.00  0.00     0.023 A 
ATOM     85  C   UNL A   1      43.962  27.437  36.273  1.00  0.00     0.031 A 
ATOM     86  C   UNL A   1      45.344  28.992  35.053  1.00  0.00     0.131 A 
ATOM     87  C   UNL A   1      45.103  27.011  36.969  1.00  0.00     0.055 A 
ATOM     88  C   UNL A   1      46.484  28.523  35.706  1.00  0.00     0.041 A 
ATOM     89  F   UNL A   1      45.503  29.974  34.151  1.00  0.00    -0.206 F 
ATOM     90  C   UNL A   1      46.365  27.537  36.681  1.00  0.00     0.022 A 
BRANCH  87  91
ATOM     91  S   UNL A   1      44.903  25.824  38.326  1.00  0.00     0.124 S 
ATOM     92  O   UNL A   1      44.593  24.592  37.608  1.00  0.00    -0.237 OA
ATOM     93  O   UNL A   1      46.208  25.871  38.976  1.00  0.00    -0.237 OA
ATOM     94  O   UNL A   1      43.800  26.380  39.109  1.00  0.00    -0.744 OA
ENDBRANCH  87  91
ENDBRANCH  61  84
ENDBRANCH  35  36
ENDBRANCH  27  30
ENDBRANCH  25  26
ENDBRANCH  24  25
ENDBRANCH  23  24
ENDBRANCH   1  23
TORSDOF 21
ENDMDL
MODEL 3
REMARK VINA RESULT:     -10.0      2.067      3.434
REMARK SMILES C=CCN(CC(=O)NCCCCCCNC(=O)c1ccc(-c2c3nc(c(-c4cc(S(=O)(=O)[O-])ccc4F)c4ccc([nH]4)c(-c4cc(S(=O)(=O)[O-])ccc4F)c4nc(c(-c5cc(S(=O)(=O)[O-])ccc5F)c5ccc2[nH]5)C=C4)C=C3)cc1)c1ccc([N+](=O)[O-])cc1Br
REMARK SMILES IDX 11 1 10 2 9 3 8 4 6 5 7 6 5 8 4 9 3 10 2 11 1 12 81 13 82 14
REMARK SMILES IDX 89 15 83 16 88 17 90 18 84 19 85 20 86 21 87 22 12 23 13 24
REMARK SMILES IDX 14 25 15 26 16 27 17 29 18 30 19 31 80 32 20 33 79 34 21 35
REMARK SMILES IDX 22 36 23 37 73 38 24 39 78 40 72 41 74 42 25 43 77 44 71 45
REMARK SMILES IDX 70 46 26 48 58 49 38 50 57 51 39 52 42 53 56 54 75 55 40 56
REMARK SMILES IDX 41 57 55 59 76 60 43 61 27 62 28 63 36 64 29 65 35 66 37 67
REMARK SMILES IDX 34 68 30 69 31 70 32 71 33 72 59 73 60 74 68 75 61 76 67 77
REMARK SMILES IDX 69 78 66 79 62 80 63 81 64 82 65 83 44 84 45 85 53 86 46 87
REMARK SMILES IDX 52 88 54 89 51 90 47 91 48 92 49 93 50 94
REMARK H PARENT 8 7 15 28 74 47 42 58
REMARK Flexibility Score: inf
ROOT
ATOM      1  C   UNL A   1      34.577  29.470  27.460  1.00  0.00     0.002 C 
ENDROOT
BRANCH   1   2
ATOM      2  C   UNL A   1      33.139  28.948  27.353  1.00  0.00     0.021 C 
BRANCH   2   3
ATOM      3  C   UNL A   1      32.831  28.213  26.044  1.00  0.00     0.116 C 
BRANCH   3   4
ATOM      4  N   UNL A   1      33.779  27.153  25.777  1.00  0.00    -0.355 N 
ATOM      5  C   UNL A   1      33.586  25.813  25.589  1.00  0.00     0.239 C 
ATOM      6  O   UNL A   1      34.596  25.131  25.383  1.00  0.00    -0.273 OA
ATOM      7  H   UNL A   1      34.718  27.445  25.722  1.00  0.00     0.163 HD
BRANCH   5   8
ATOM      8  C   UNL A   1      32.187  25.173  25.586  1.00  0.00     0.216 C 
BRANCH   8   9
ATOM      9  N   UNL A   1      31.526  25.020  24.273  1.00  0.00    -0.358 N 
BRANCH   9  10
ATOM     10  C   UNL A   1      31.936  23.912  23.405  1.00  0.00     0.144 C 
BRANCH  10  11
ATOM     11  C   UNL A   1      32.084  22.625  24.147  1.00  0.00    -0.014 C 
ATOM     12  C   UNL A   1      33.152  21.822  24.059  1.00  0.00     0.006 C 
ENDBRANCH  10  11
ENDBRANCH   9  10
BRANCH   9  13
ATOM     13  C   UNL A   1      30.813  26.082  23.718  1.00  0.00     0.052 A 
ATOM     14  C   UNL A   1      29.442  26.229  24.006  1.00  0.00     0.034 A 
ATOM     15  C   UNL A   1      31.390  27.071  22.890  1.00  0.00     0.048 A 
ATOM     16  C   UNL A   1      28.688  27.315  23.551  1.00  0.00     0.088 A 
ATOM     17  C   UNL A   1      30.662  28.194  22.467  1.00  0.00     0.103 A 
ATOM     18  Br  UNL A   1      33.138  26.909  22.151  1.00  0.00    -0.048 Br
ATOM     19  C   UNL A   1      29.314  28.310  22.804  1.00  0.00     0.270 A 
BRANCH  19  20
ATOM     20  N   UNL A   1      28.543  29.468  22.348  1.00  0.00     0.062 N 
ATOM     21  O   UNL A   1      28.750  29.881  21.198  1.00  0.00    -0.258 OA
ATOM     22  O   UNL A   1      27.733  29.969  23.141  1.00  0.00    -0.258 OA
ENDBRANCH  19  20
ENDBRANCH   9  13
ENDBRANCH   8   9
ENDBRANCH   5   8
ENDBRANCH   3   4
ENDBRANCH   2   3
ENDBRANCH   1   2
BRANCH   1  23
ATOM     23  C   UNL A   1      34.703  30.971  27.742  1.00  0.00     0.002 C 
BRANCH  23  24
ATOM     24  C   UNL A   1      33.379  31.740  27.792  1.00  0.00     0.021 C 
BRANCH  24  25
ATOM     25  C   UNL A   1      33.370  33.053  27.014  1.00  0.00     0.116 C 
BRANCH  25  26
ATOM     26  N   UNL A   1      32.905  34.161  27.831  1.00  0.00    -0.352 N 
ATOM     27  C   UNL A   1      33.281  34.531  29.098  1.00  0.00     0.251 C 
ATOM     28  H   UNL A   1      32.221  34.733  27.412  1.00  0.00     0.163 HD
ATOM     29  O   UNL A   1      32.614  35.365  29.703  1.00  0.00    -0.269 OA
BRANCH  27  30
ATOM     30  C   UNL A   1      34.469  33.919  29.740  1.00  0.00     0.039 A 
ATOM     31  C   UNL A   1      34.276  33.015  30.792  1.00  0.00     0.014 A 
ATOM     32  C   UNL A   1      35.765  34.264  29.349  1.00  0.00     0.014 A 
ATOM     33  C   UNL A   1      35.380  32.435  31.423  1.00  0.00     0.010 A 
ATOM     34  C   UNL A   1      36.863  33.636  29.936  1.00  0.00     0.010 A 
ATOM     35  C   UNL A   1      36.684  32.727  30.991  1.00  0.00    -0.014 A 
BRANCH  35  36
ATOM     36  C   UNL A   1      37.870  32.132  31.661  1.00  0.00     0.031 A 
ATOM     37  C   UNL A   1      38.642  31.034  30.977  1.00  0.00     0.074 A 
ATOM     38  C   UNL A   1      38.223  32.539  32.896  1.00  0.00     0.049 A 
ATOM     39  N   UNL A   1      39.646  30.322  31.423  1.00  0.00    -0.248 NA
ATOM     40  C   UNL A   1      38.203  30.668  29.621  1.00  0.00     0.031 C 
ATOM     41  C   UNL A   1      37.537  33.572  33.674  1.00  0.00     0.029 A 
ATOM     42  N   UNL A   1      39.240  32.126  33.721  1.00  0.00    -0.354 N 
ATOM     43  C   UNL A   1      39.945  29.412  30.414  1.00  0.00     0.074 A 
ATOM     44  C   UNL A   1      38.980  29.628  29.357  1.00  0.00     0.031 C 
ATOM     45  C   UNL A   1      38.162  33.723  34.854  1.00  0.00     0.029 A 
ATOM     46  C   UNL A   1      39.266  32.771  34.936  1.00  0.00     0.049 A 
ATOM     47  H   UNL A   1      39.891  31.432  33.466  1.00  0.00     0.167 HD
ATOM     48  C   UNL A   1      40.944  28.496  30.364  1.00  0.00     0.034 A 
ATOM     49  C   UNL A   1      40.079  32.607  35.999  1.00  0.00     0.034 A 
ATOM     50  C   UNL A   1      41.916  28.312  31.414  1.00  0.00     0.049 A 
ATOM     51  C   UNL A   1      41.186  31.584  35.918  1.00  0.00     0.074 A 
ATOM     52  C   UNL A   1      42.997  27.447  31.448  1.00  0.00     0.029 A 
ATOM     53  N   UNL A   1      41.927  29.005  32.617  1.00  0.00    -0.354 N 
ATOM     54  N   UNL A   1      41.479  30.758  34.940  1.00  0.00    -0.248 NA
ATOM     55  C   UNL A   1      42.083  31.484  37.076  1.00  0.00     0.031 C 
ATOM     56  C   UNL A   1      43.626  27.577  32.690  1.00  0.00     0.029 A 
ATOM     57  C   UNL A   1      42.983  28.575  33.406  1.00  0.00     0.049 A 
ATOM     58  H   UNL A   1      41.280  29.701  32.873  1.00  0.00     0.167 HD
ATOM     59  C   UNL A   1      42.617  30.070  35.351  1.00  0.00     0.074 A 
ATOM     60  C   UNL A   1      42.964  30.587  36.659  1.00  0.00     0.031 C 
ATOM     61  C   UNL A   1      43.318  29.104  34.706  1.00  0.00     0.034 A 
BRANCH  48  62
ATOM     62  C   UNL A   1      41.017  27.610  29.143  1.00  0.00     0.023 A 
ATOM     63  C   UNL A   1      41.996  27.797  28.152  1.00  0.00     0.031 A 
ATOM     64  C   UNL A   1      40.083  26.575  28.958  1.00  0.00     0.131 A 
ATOM     65  C   UNL A   1      41.974  27.011  26.989  1.00  0.00     0.055 A 
ATOM     66  C   UNL A   1      40.116  25.745  27.836  1.00  0.00     0.041 A 
ATOM     67  F   UNL A   1      39.112  26.362  29.860  1.00  0.00    -0.206 F 
ATOM     68  C   UNL A   1      41.057  25.970  26.835  1.00  0.00     0.022 A 
BRANCH  65  69
ATOM     69  S   UNL A   1      43.076  27.460  25.620  1.00  0.00     0.124 S 
ATOM     70  O   UNL A   1      44.128  28.195  26.319  1.00  0.00    -0.237 OA
ATOM     71  O   UNL A   1      43.455  26.160  25.080  1.00  0.00    -0.237 OA
ATOM     72  O   UNL A   1      42.229  28.275  24.750  1.00  0.00    -0.744 OA
ENDBRANCH  65  69
ENDBRANCH  48  62
BRANCH  49  73
ATOM     73  C   UNL A   1      39.887  33.417  37.236  1.00  0.00     0.023 A 
ATOM     74  C   UNL A   1      40.661  34.564  37.477  1.00  0.00     0.031 A 
ATOM     75  C   UNL A   1      38.967  33.024  38.224  1.00  0.00     0.131 A 
ATOM     76  C   UNL A   1      40.545  35.243  38.700  1.00  0.00     0.055 A 
ATOM     77  C   UNL A   1      38.816  33.735  39.416  1.00  0.00     0.041 A 
ATOM     78  F   UNL A   1      38.197  31.939  38.042  1.00  0.00    -0.206 F 
ATOM     79  C   UNL A   1      39.618  34.843  39.665  1.00  0.00     0.022 A 
BRANCH  76  80
ATOM     80  S   UNL A   1      41.696  36.600  39.052  1.00  0.00     0.124 S 
ATOM     81  O   UNL A   1      42.255  36.190  40.334  1.00  0.00    -0.237 OA
ATOM     82  O   UNL A   1      42.598  36.533  37.906  1.00  0.00    -0.237 OA
ATOM     83  O   UNL A   1      40.831  37.776  39.094  1.00  0.00    -0.744 OA
ENDBRANCH  76  80
ENDBRANCH  49  73
BRANCH  61  84
ATOM     84  C   UNL A   1      44.567  28.593  35.382  1.00  0.00     0.023 A 
ATOM     85  C   UNL A   1      44.516  27.646  36.419  1.00  0.00     0.031 A 
ATOM     86  C   UNL A   1      45.827  29.075  34.986  1.00  0.00     0.131 A 
ATOM     87  C   UNL A   1      45.699  27.254  37.065  1.00  0.00     0.055 A 
ATOM     88  C   UNL A   1      47.005  28.637  35.593  1.00  0.00     0.041 A 
ATOM     89  F   UNL A   1      45.933  29.982  34.002  1.00  0.00    -0.206 F 
ATOM     90  C   UNL A   1      46.943  27.733  36.648  1.00  0.00     0.022 A 
BRANCH  87  91
ATOM     91  S   UNL A   1      45.580  26.179  38.522  1.00  0.00     0.124 S 
ATOM     92  O   UNL A   1      44.371  26.676  39.169  1.00  0.00    -0.237 OA
ATOM     93  O   UNL A   1      45.483  24.853  37.922  1.00  0.00    -0.237 OA
ATOM     94  O   UNL A   1      46.824  26.443  39.245  1.00  0.00    -0.744 OA
ENDBRANCH  87  91
ENDBRANCH  61  84
ENDBRANCH  35  36
ENDBRANCH  27  30
ENDBRANCH  25  26
ENDBRANCH  24  25
ENDBRANCH  23  24
ENDBRANCH   1  23
TORSDOF 21
ENDMDL
