MODEL 1
REMARK VINA RESULT:     -12.3      0.000      0.000
REMARK SMILES Cc1cccc(NC(=O)C[C@@H]2CCCCO2)c1C(=O)NCCCCCCNC(=O)c1ccc(-c2c3nc(c(-c4cc(S(=O)(=O)[O-])ccc4F)c4ccc([nH]4)c(-c4cc(S(=O)(=O)[O-])ccc4F)c4nc(c(-c5cc(S(=O)(=O)[O-])ccc5F)c5ccc2[nH]5)C=C4)C=C3)cc1
REMARK SMILES IDX 23 1 22 2 21 3 20 4 18 5 19 6 17 8 1 9 2 10 3 11 4 12 6 13
REMARK SMILES IDX 5 14 7 15 8 16 9 18 10 19 11 20 12 21 16 22 13 23 15 24
REMARK SMILES IDX 14 25 24 26 25 27 26 28 27 29 28 30 29 32 30 33 31 34 92 35
REMARK SMILES IDX 32 36 91 37 33 38 34 39 35 40 85 41 36 42 90 43 84 44 86 45
REMARK SMILES IDX 37 46 89 47 83 48 82 49 38 51 70 52 50 53 69 54 51 55 54 56
REMARK SMILES IDX 68 57 87 58 52 59 53 60 67 62 88 63 55 64 39 65 40 66 48 67
REMARK SMILES IDX 41 68 47 69 49 70 46 71 42 72 43 73 44 74 45 75 71 76 72 77
REMARK SMILES IDX 80 78 73 79 79 80 81 81 78 82 74 83 75 84 76 85 77 86 56 87
REMARK SMILES IDX 57 88 65 89 58 90 64 91 66 92 63 93 59 94 60 95 61 96 62 97
REMARK H PARENT 20 7 7 17 27 31 86 50 54 61
REMARK Flexibility Score: inf
ROOT
ATOM      1  C   UNL A   1      32.609  28.376  26.874  1.00  0.00     0.002 C 
ENDROOT
BRANCH   1   2
ATOM      2  C   UNL A   1      31.491  27.369  27.158  1.00  0.00     0.021 C 
BRANCH   2   3
ATOM      3  C   UNL A   1      31.716  25.996  26.516  1.00  0.00     0.116 C 
BRANCH   3   4
ATOM      4  N   UNL A   1      30.629  25.696  25.599  1.00  0.00    -0.352 N 
ATOM      5  C   UNL A   1      30.441  25.962  24.268  1.00  0.00     0.253 C 
ATOM      6  O   UNL A   1      29.423  25.528  23.729  1.00  0.00    -0.269 OA
ATOM      7  H   UNL A   1      29.883  25.206  26.015  1.00  0.00     0.163 HD
BRANCH   5   8
ATOM      8  C   UNL A   1      31.494  26.622  23.437  1.00  0.00     0.066 A 
ATOM      9  C   UNL A   1      30.424  28.953  23.491  1.00  0.00     0.045 C 
ATOM     10  C   UNL A   1      31.576  28.016  23.243  1.00  0.00    -0.036 A 
ATOM     11  C   UNL A   1      32.729  28.563  22.649  1.00  0.00     0.004 A 
ATOM     12  C   UNL A   1      33.748  27.737  22.185  1.00  0.00     0.002 A 
ATOM     13  C   UNL A   1      32.393  25.799  22.718  1.00  0.00     0.054 A 
ATOM     14  C   UNL A   1      33.568  26.357  22.199  1.00  0.00     0.027 A 
BRANCH  13  15
ATOM     15  N   UNL A   1      32.042  24.457  22.432  1.00  0.00    -0.325 N 
ATOM     16  C   UNL A   1      32.793  23.311  22.532  1.00  0.00     0.227 C 
ATOM     17  H   UNL A   1      31.119  24.326  22.114  1.00  0.00     0.169 HD
ATOM     18  O   UNL A   1      32.284  22.231  22.211  1.00  0.00    -0.275 OA
BRANCH  16  19
ATOM     19  C   UNL A   1      34.240  23.341  22.988  1.00  0.00     0.132 C 
BRANCH  19  20
ATOM     20  C   UNL A   1      34.515  22.568  24.290  1.00  0.00     0.127 C 
ATOM     21  C   UNL A   1      34.376  23.485  25.518  1.00  0.00     0.033 C 
ATOM     22  O   UNL A   1      35.783  21.910  24.354  1.00  0.00    -0.378 OA
ATOM     23  C   UNL A   1      35.530  24.482  25.616  1.00  0.00     0.005 C 
ATOM     24  C   UNL A   1      36.924  22.754  24.432  1.00  0.00     0.160 C 
ATOM     25  C   UNL A   1      36.866  23.753  25.576  1.00  0.00     0.029 C 
ENDBRANCH  19  20
ENDBRANCH  16  19
ENDBRANCH  13  15
ENDBRANCH   5   8
ENDBRANCH   3   4
ENDBRANCH   2   3
ENDBRANCH   1   2
BRANCH   1  26
ATOM     26  C   UNL A   1      32.148  29.790  26.483  1.00  0.00     0.002 C 
BRANCH  26  27
ATOM     27  C   UNL A   1      32.938  30.941  27.108  1.00  0.00     0.021 C 
BRANCH  27  28
ATOM     28  C   UNL A   1      34.318  30.536  27.614  1.00  0.00     0.116 C 
BRANCH  28  29
ATOM     29  N   UNL A   1      34.784  31.316  28.755  1.00  0.00    -0.352 N 
ATOM     30  C   UNL A   1      35.867  31.084  29.575  1.00  0.00     0.251 C 
ATOM     31  H   UNL A   1      34.252  32.117  28.970  1.00  0.00     0.163 HD
ATOM     32  O   UNL A   1      36.089  31.802  30.549  1.00  0.00    -0.269 OA
BRANCH  30  33
ATOM     33  C   UNL A   1      36.835  30.024  29.210  1.00  0.00     0.039 A 
ATOM     34  C   UNL A   1      37.106  29.037  30.167  1.00  0.00     0.014 A 
ATOM     35  C   UNL A   1      37.597  30.102  28.046  1.00  0.00     0.014 A 
ATOM     36  C   UNL A   1      38.264  28.270  30.052  1.00  0.00     0.010 A 
ATOM     37  C   UNL A   1      38.785  29.396  27.971  1.00  0.00     0.010 A 
ATOM     38  C   UNL A   1      39.148  28.524  29.002  1.00  0.00    -0.014 A 
BRANCH  38  39
ATOM     39  C   UNL A   1      40.520  28.020  28.981  1.00  0.00     0.031 A 
ATOM     40  C   UNL A   1      40.830  26.664  28.483  1.00  0.00     0.074 A 
ATOM     41  C   UNL A   1      41.528  28.801  29.425  1.00  0.00     0.049 A 
ATOM     42  N   UNL A   1      41.868  25.982  28.834  1.00  0.00    -0.248 NA
ATOM     43  C   UNL A   1      39.953  25.948  27.564  1.00  0.00     0.031 C 
ATOM     44  C   UNL A   1      42.962  28.561  29.301  1.00  0.00     0.029 A 
ATOM     45  N   UNL A   1      41.428  29.847  30.339  1.00  0.00    -0.354 N 
ATOM     46  C   UNL A   1      41.933  24.867  28.034  1.00  0.00     0.074 A 
ATOM     47  C   UNL A   1      40.695  24.871  27.286  1.00  0.00     0.031 C 
ATOM     48  C   UNL A   1      43.594  29.215  30.288  1.00  0.00     0.029 A 
ATOM     49  C   UNL A   1      42.578  29.792  31.149  1.00  0.00     0.049 A 
ATOM     50  H   UNL A   1      40.693  30.500  30.407  1.00  0.00     0.167 HD
ATOM     51  C   UNL A   1      43.069  24.114  28.007  1.00  0.00     0.034 A 
ATOM     52  C   UNL A   1      42.469  29.605  32.497  1.00  0.00     0.034 A 
ATOM     53  C   UNL A   1      44.081  24.595  28.943  1.00  0.00     0.049 A 
ATOM     54  C   UNL A   1      43.134  28.342  33.007  1.00  0.00     0.074 A 
ATOM     55  C   UNL A   1      45.215  25.381  28.825  1.00  0.00     0.029 A 
ATOM     56  N   UNL A   1      43.842  24.471  30.298  1.00  0.00    -0.354 N 
ATOM     57  N   UNL A   1      43.714  27.451  32.248  1.00  0.00    -0.248 NA
ATOM     58  C   UNL A   1      43.108  27.941  34.414  1.00  0.00     0.031 C 
ATOM     59  C   UNL A   1      45.630  25.759  30.136  1.00  0.00     0.029 A 
ATOM     60  C   UNL A   1      44.760  25.183  31.045  1.00  0.00     0.049 A 
ATOM     61  H   UNL A   1      43.109  23.938  30.685  1.00  0.00     0.167 HD
ATOM     62  C   UNL A   1      44.061  26.367  33.011  1.00  0.00     0.074 A 
ATOM     63  C   UNL A   1      43.667  26.722  34.363  1.00  0.00     0.031 C 
ATOM     64  C   UNL A   1      44.603  25.229  32.488  1.00  0.00     0.034 A 
BRANCH  51  65
ATOM     65  C   UNL A   1      43.346  23.067  26.959  1.00  0.00     0.023 A 
ATOM     66  C   UNL A   1      42.788  21.781  27.105  1.00  0.00     0.031 A 
ATOM     67  C   UNL A   1      44.156  23.256  25.824  1.00  0.00     0.131 A 
ATOM     68  C   UNL A   1      43.119  20.736  26.223  1.00  0.00     0.055 A 
ATOM     69  C   UNL A   1      44.540  22.203  24.984  1.00  0.00     0.041 A 
ATOM     70  F   UNL A   1      44.571  24.477  25.457  1.00  0.00    -0.206 F 
ATOM     71  C   UNL A   1      44.032  20.929  25.190  1.00  0.00     0.022 A 
BRANCH  68  72
ATOM     72  S   UNL A   1      42.326  19.119  26.437  1.00  0.00     0.124 S 
ATOM     73  O   UNL A   1      41.040  19.313  25.774  1.00  0.00    -0.237 OA
ATOM     74  O   UNL A   1      43.268  18.225  25.773  1.00  0.00    -0.237 OA
ATOM     75  O   UNL A   1      42.252  18.969  27.890  1.00  0.00    -0.744 OA
ENDBRANCH  68  72
ENDBRANCH  51  65
BRANCH  52  76
ATOM     76  C   UNL A   1      41.238  30.228  33.071  1.00  0.00     0.023 A 
ATOM     77  C   UNL A   1      41.230  31.635  33.197  1.00  0.00     0.031 A 
ATOM     78  C   UNL A   1      40.008  29.560  33.120  1.00  0.00     0.131 A 
ATOM     79  C   UNL A   1      40.018  32.337  33.178  1.00  0.00     0.055 A 
ATOM     80  C   UNL A   1      38.800  30.264  33.194  1.00  0.00     0.041 A 
ATOM     81  F   UNL A   1      39.941  28.229  32.968  1.00  0.00    -0.206 F 
ATOM     82  C   UNL A   1      38.800  31.659  33.174  1.00  0.00     0.022 A 
BRANCH  79  83
ATOM     83  S   UNL A   1      40.060  34.123  32.841  1.00  0.00     0.124 S 
ATOM     84  O   UNL A   1      41.474  34.436  33.014  1.00  0.00    -0.237 OA
ATOM     85  O   UNL A   1      39.552  34.205  31.473  1.00  0.00    -0.237 OA
ATOM     86  O   UNL A   1      39.162  34.682  33.849  1.00  0.00    -0.744 OA
ENDBRANCH  79  83
ENDBRANCH  52  76
BRANCH  64  87
ATOM     87  C   UNL A   1      44.995  24.056  33.340  1.00  0.00     0.023 A 
ATOM     88  C   UNL A   1      46.328  23.845  33.728  1.00  0.00     0.031 A 
ATOM     89  C   UNL A   1      44.058  23.080  33.739  1.00  0.00     0.131 A 
ATOM     90  C   UNL A   1      46.672  22.753  34.541  1.00  0.00     0.055 A 
ATOM     91  C   UNL A   1      44.420  21.948  34.474  1.00  0.00     0.041 A 
ATOM     92  F   UNL A   1      42.750  23.211  33.473  1.00  0.00    -0.206 F 
ATOM     93  C   UNL A   1      45.733  21.786  34.892  1.00  0.00     0.022 A 
BRANCH  90  94
ATOM     94  S   UNL A   1      48.354  22.674  35.210  1.00  0.00     0.124 S 
ATOM     95  O   UNL A   1      48.150  22.963  36.624  1.00  0.00    -0.237 OA
ATOM     96  O   UNL A   1      48.733  21.299  34.890  1.00  0.00    -0.237 OA
ATOM     97  O   UNL A   1      49.072  23.702  34.459  1.00  0.00    -0.744 OA
ENDBRANCH  90  94
ENDBRANCH  64  87
ENDBRANCH  38  39
ENDBRANCH  30  33
ENDBRANCH  28  29
ENDBRANCH  27  28
ENDBRANCH  26  27
ENDBRANCH   1  26
TORSDOF 19
ENDMDL
MODEL 2
REMARK VINA RESULT:     -12.1      2.044      3.116
REMARK SMILES Cc1cccc(NC(=O)C[C@@H]2CCCCO2)c1C(=O)NCCCCCCNC(=O)c1ccc(-c2c3nc(c(-c4cc(S(=O)(=O)[O-])ccc4F)c4ccc([nH]4)c(-c4cc(S(=O)(=O)[O-])ccc4F)c4nc(c(-c5cc(S(=O)(=O)[O-])ccc5F)c5ccc2[nH]5)C=C4)C=C3)cc1
REMARK SMILES IDX 23 1 22 2 21 3 20 4 18 5 19 6 17 8 1 9 2 10 3 11 4 12 6 13
REMARK SMILES IDX 5 14 7 15 8 16 9 18 10 19 11 20 12 21 16 22 13 23 15 24
REMARK SMILES IDX 14 25 24 26 25 27 26 28 27 29 28 30 29 32 30 33 31 34 92 35
REMARK SMILES IDX 32 36 91 37 33 38 34 39 35 40 85 41 36 42 90 43 84 44 86 45
REMARK SMILES IDX 37 46 89 47 83 48 82 49 38 51 70 52 50 53 69 54 51 55 54 56
REMARK SMILES IDX 68 57 87 58 52 59 53 60 67 62 88 63 55 64 39 65 40 66 48 67
REMARK SMILES IDX 41 68 47 69 49 70 46 71 42 72 43 73 44 74 45 75 71 76 72 77
REMARK SMILES IDX 80 78 73 79 79 80 81 81 78 82 74 83 75 84 76 85 77 86 56 87
REMARK SMILES IDX 57 88 65 89 58 90 64 91 66 92 63 93 59 94 60 95 61 96 62 97
REMARK H PARENT 20 7 7 17 27 31 86 50 54 61
REMARK Flexibility Score: inf
ROOT
ATOM      1  C   UNL A   1      33.356  28.701  25.156  1.00  0.00     0.002 C 
ENDROOT
BRANCH   1   2
ATOM      2  C   UNL A   1      33.754  27.742  24.030  1.00  0.00     0.021 C 
BRANCH   2   3
ATOM      3  C   UNL A   1      33.188  26.327  24.191  1.00  0.00     0.116 C 
BRANCH   3   4
ATOM      4  N   UNL A   1      33.958  25.393  23.387  1.00  0.00    -0.352 N 
ATOM      5  C   UNL A   1      34.424  24.127  23.632  1.00  0.00     0.253 C 
ATOM      6  O   UNL A   1      35.013  23.542  22.724  1.00  0.00    -0.269 OA
ATOM      7  H   UNL A   1      34.189  25.734  22.493  1.00  0.00     0.163 HD
BRANCH   5   8
ATOM      8  C   UNL A   1      34.107  23.399  24.898  1.00  0.00     0.066 A 
ATOM      9  C   UNL A   1      36.429  23.704  25.945  1.00  0.00     0.045 C 
ATOM     10  C   UNL A   1      34.963  23.370  26.018  1.00  0.00    -0.036 A 
ATOM     11  C   UNL A   1      34.482  22.865  27.241  1.00  0.00     0.004 A 
ATOM     12  C   UNL A   1      33.203  22.327  27.332  1.00  0.00     0.002 A 
ATOM     13  C   UNL A   1      32.936  22.605  24.939  1.00  0.00     0.054 A 
ATOM     14  C   UNL A   1      32.441  22.176  26.177  1.00  0.00     0.027 A 
BRANCH  13  15
ATOM     15  N   UNL A   1      32.348  22.159  23.730  1.00  0.00    -0.325 N 
ATOM     16  C   UNL A   1      32.340  20.905  23.167  1.00  0.00     0.227 C 
ATOM     17  H   UNL A   1      31.874  22.851  23.215  1.00  0.00     0.169 HD
ATOM     18  O   UNL A   1      31.772  20.740  22.082  1.00  0.00    -0.275 OA
BRANCH  16  19
ATOM     19  C   UNL A   1      33.042  19.730  23.822  1.00  0.00     0.132 C 
BRANCH  19  20
ATOM     20  C   UNL A   1      32.307  18.385  23.677  1.00  0.00     0.127 C 
ATOM     21  C   UNL A   1      32.273  17.627  25.016  1.00  0.00     0.033 C 
ATOM     22  O   UNL A   1      32.823  17.512  22.670  1.00  0.00    -0.378 OA
ATOM     23  C   UNL A   1      33.649  17.076  25.391  1.00  0.00     0.005 C 
ATOM     24  C   UNL A   1      34.108  16.959  22.920  1.00  0.00     0.160 C 
ATOM     25  C   UNL A   1      34.213  16.237  24.252  1.00  0.00     0.029 C 
ENDBRANCH  19  20
ENDBRANCH  16  19
ENDBRANCH  13  15
ENDBRANCH   5   8
ENDBRANCH   3   4
ENDBRANCH   2   3
ENDBRANCH   1   2
BRANCH   1  26
ATOM     26  C   UNL A   1      34.123  28.531  26.477  1.00  0.00     0.002 C 
BRANCH  26  27
ATOM     27  C   UNL A   1      33.849  29.593  27.543  1.00  0.00     0.021 C 
BRANCH  27  28
ATOM     28  C   UNL A   1      34.699  30.850  27.391  1.00  0.00     0.116 C 
BRANCH  28  29
ATOM     29  N   UNL A   1      35.074  31.469  28.658  1.00  0.00    -0.352 N 
ATOM     30  C   UNL A   1      35.977  31.028  29.600  1.00  0.00     0.251 C 
ATOM     31  H   UNL A   1      34.619  32.317  28.869  1.00  0.00     0.163 HD
ATOM     32  O   UNL A   1      36.132  31.631  30.661  1.00  0.00    -0.269 OA
BRANCH  30  33
ATOM     33  C   UNL A   1      36.851  29.874  29.279  1.00  0.00     0.039 A 
ATOM     34  C   UNL A   1      37.149  28.979  30.314  1.00  0.00     0.014 A 
ATOM     35  C   UNL A   1      37.512  29.779  28.055  1.00  0.00     0.014 A 
ATOM     36  C   UNL A   1      38.248  28.132  30.193  1.00  0.00     0.010 A 
ATOM     37  C   UNL A   1      38.649  28.995  27.965  1.00  0.00     0.010 A 
ATOM     38  C   UNL A   1      39.051  28.215  29.054  1.00  0.00    -0.014 A 
BRANCH  38  39
ATOM     39  C   UNL A   1      40.385  27.625  28.980  1.00  0.00     0.031 A 
ATOM     40  C   UNL A   1      40.573  26.196  28.654  1.00  0.00     0.074 A 
ATOM     41  C   UNL A   1      41.472  28.393  29.212  1.00  0.00     0.049 A 
ATOM     42  N   UNL A   1      41.605  25.503  29.003  1.00  0.00    -0.248 NA
ATOM     43  C   UNL A   1      39.573  25.419  27.933  1.00  0.00     0.031 C 
ATOM     44  C   UNL A   1      42.872  28.045  28.992  1.00  0.00     0.029 A 
ATOM     45  N   UNL A   1      41.518  29.559  29.972  1.00  0.00    -0.354 N 
ATOM     46  C   UNL A   1      41.533  24.286  28.368  1.00  0.00     0.074 A 
ATOM     47  C   UNL A   1      40.228  24.268  27.745  1.00  0.00     0.031 C 
ATOM     48  C   UNL A   1      43.632  28.786  29.813  1.00  0.00     0.029 A 
ATOM     49  C   UNL A   1      42.739  29.541  30.672  1.00  0.00     0.049 A 
ATOM     50  H   UNL A   1      40.829  30.261  30.012  1.00  0.00     0.167 HD
ATOM     51  C   UNL A   1      42.619  23.464  28.346  1.00  0.00     0.034 A 
ATOM     52  C   UNL A   1      42.756  29.549  32.038  1.00  0.00     0.034 A 
ATOM     53  C   UNL A   1      43.743  24.003  29.106  1.00  0.00     0.049 A 
ATOM     54  C   UNL A   1      43.403  28.328  32.660  1.00  0.00     0.074 A 
ATOM     55  C   UNL A   1      44.899  24.689  28.772  1.00  0.00     0.029 A 
ATOM     56  N   UNL A   1      43.636  24.082  30.481  1.00  0.00    -0.354 N 
ATOM     57  N   UNL A   1      43.857  27.305  31.987  1.00  0.00    -0.248 NA
ATOM     58  C   UNL A   1      43.498  28.127  34.106  1.00  0.00     0.031 C 
ATOM     59  C   UNL A   1      45.462  25.216  29.972  1.00  0.00     0.029 A 
ATOM     60  C   UNL A   1      44.659  24.830  31.030  1.00  0.00     0.049 A 
ATOM     61  H   UNL A   1      42.918  23.657  31.006  1.00  0.00     0.167 HD
ATOM     62  C   UNL A   1      44.223  26.316  32.862  1.00  0.00     0.074 A 
ATOM     63  C   UNL A   1      43.986  26.879  34.179  1.00  0.00     0.031 C 
ATOM     64  C   UNL A   1      44.650  25.084  32.460  1.00  0.00     0.034 A 
BRANCH  51  65
ATOM     65  C   UNL A   1      42.736  22.267  27.438  1.00  0.00     0.023 A 
ATOM     66  C   UNL A   1      43.786  22.213  26.499  1.00  0.00     0.031 A 
ATOM     67  C   UNL A   1      41.849  21.174  27.425  1.00  0.00     0.131 A 
ATOM     68  C   UNL A   1      43.863  21.181  25.547  1.00  0.00     0.055 A 
ATOM     69  C   UNL A   1      41.885  20.182  26.437  1.00  0.00     0.041 A 
ATOM     70  F   UNL A   1      40.941  20.999  28.396  1.00  0.00    -0.206 F 
ATOM     71  C   UNL A   1      42.889  20.189  25.480  1.00  0.00     0.022 A 
BRANCH  68  72
ATOM     72  S   UNL A   1      45.270  21.144  24.402  1.00  0.00     0.124 S 
ATOM     73  O   UNL A   1      44.975  22.261  23.510  1.00  0.00    -0.237 OA
ATOM     74  O   UNL A   1      46.403  21.318  25.304  1.00  0.00    -0.237 OA
ATOM     75  O   UNL A   1      45.169  19.822  23.786  1.00  0.00    -0.744 OA
ENDBRANCH  68  72
ENDBRANCH  51  65
BRANCH  52  76
ATOM     76  C   UNL A   1      41.623  30.324  32.626  1.00  0.00     0.023 A 
ATOM     77  C   UNL A   1      41.713  31.733  32.575  1.00  0.00     0.031 A 
ATOM     78  C   UNL A   1      40.364  29.757  32.859  1.00  0.00     0.131 A 
ATOM     79  C   UNL A   1      40.551  32.514  32.567  1.00  0.00     0.055 A 
ATOM     80  C   UNL A   1      39.213  30.552  32.942  1.00  0.00     0.041 A 
ATOM     81  F   UNL A   1      40.200  28.427  32.882  1.00  0.00    -0.206 F 
ATOM     82  C   UNL A   1      39.297  31.931  32.747  1.00  0.00     0.022 A 
BRANCH  79  83
ATOM     83  S   UNL A   1      40.673  34.239  32.005  1.00  0.00     0.124 S 
ATOM     84  O   UNL A   1      41.243  34.903  33.172  1.00  0.00    -0.237 OA
ATOM     85  O   UNL A   1      41.548  34.137  30.840  1.00  0.00    -0.237 OA
ATOM     86  O   UNL A   1      39.291  34.594  31.690  1.00  0.00    -0.744 OA
ENDBRANCH  79  83
ENDBRANCH  52  76
BRANCH  64  87
ATOM     87  C   UNL A   1      45.065  24.016  33.432  1.00  0.00     0.023 A 
ATOM     88  C   UNL A   1      46.385  23.926  33.902  1.00  0.00     0.031 A 
ATOM     89  C   UNL A   1      44.168  23.020  33.870  1.00  0.00     0.131 A 
ATOM     90  C   UNL A   1      46.749  22.933  34.825  1.00  0.00     0.055 A 
ATOM     91  C   UNL A   1      44.556  21.982  34.721  1.00  0.00     0.041 A 
ATOM     92  F   UNL A   1      42.870  23.043  33.530  1.00  0.00    -0.206 F 
ATOM     93  C   UNL A   1      45.851  21.941  35.215  1.00  0.00     0.022 A 
BRANCH  90  94
ATOM     94  S   UNL A   1      48.393  23.020  35.580  1.00  0.00     0.124 S 
ATOM     95  O   UNL A   1      49.187  23.670  34.545  1.00  0.00    -0.237 OA
ATOM     96  O   UNL A   1      48.126  23.822  36.773  1.00  0.00    -0.237 OA
ATOM     97  O   UNL A   1      48.729  21.622  35.839  1.00  0.00    -0.744 OA
ENDBRANCH  90  94
ENDBRANCH  64  87
ENDBRANCH  38  39
ENDBRANCH  30  33
ENDBRANCH  28  29
ENDBRANCH  27  28
ENDBRANCH  26  27
ENDBRANCH   1  26
TORSDOF 19
ENDMDL
MODEL 3
REMARK VINA RESULT:     -12.1      2.648      3.687
REMARK SMILES Cc1cccc(NC(=O)C[C@@H]2CCCCO2)c1C(=O)NCCCCCCNC(=O)c1ccc(-c2c3nc(c(-c4cc(S(=O)(=O)[O-])ccc4F)c4ccc([nH]4)c(-c4cc(S(=O)(=O)[O-])ccc4F)c4nc(c(-c5cc(S(=O)(=O)[O-])ccc5F)c5ccc2[nH]5)C=C4)C=C3)cc1
REMARK SMILES IDX 23 1 22 2 21 3 20 4 18 5 19 6 17 8 1 9 2 10 3 11 4 12 6 13
REMARK SMILES IDX 5 14 7 15 8 16 9 18 10 19 11 20 12 21 16 22 13 23 15 24
REMARK SMILES IDX 14 25 24 26 25 27 26 28 27 29 28 30 29 32 30 33 31 34 92 35
REMARK SMILES IDX 32 36 91 37 33 38 34 39 35 40 85 41 36 42 90 43 84 44 86 45
REMARK SMILES IDX 37 46 89 47 83 48 82 49 38 51 70 52 50 53 69 54 51 55 54 56
REMARK SMILES IDX 68 57 87 58 52 59 53 60 67 62 88 63 55 64 39 65 40 66 48 67
REMARK SMILES IDX 41 68 47 69 49 70 46 71 42 72 43 73 44 74 45 75 71 76 72 77
REMARK SMILES IDX 80 78 73 79 79 80 81 81 78 82 74 83 75 84 76 85 77 86 56 87
REMARK SMILES IDX 57 88 65 89 58 90 64 91 66 92 63 93 59 94 60 95 61 96 62 97
REMARK H PARENT 20 7 7 17 27 31 86 50 54 61
REMARK Flexibility Score: inf
ROOT
ATOM      1  C   UNL A   1      33.274  28.890  25.066  1.00  0.00     0.002 C 
ENDROOT
BRANCH   1   2
ATOM      2  C   UNL A   1      33.704  27.832  24.047  1.00  0.00     0.021 C 
BRANCH   2   3
ATOM      3  C   UNL A   1      33.324  26.401  24.441  1.00  0.00     0.116 C 
BRANCH   3   4
ATOM      4  N   UNL A   1      33.996  25.453  23.568  1.00  0.00    -0.352 N 
ATOM      5  C   UNL A   1      34.382  24.149  23.741  1.00  0.00     0.253 C 
ATOM      6  O   UNL A   1      34.894  23.565  22.786  1.00  0.00    -0.269 OA
ATOM      7  H   UNL A   1      34.215  25.817  22.680  1.00  0.00     0.163 HD
BRANCH   5   8
ATOM      8  C   UNL A   1      34.065  23.389  24.988  1.00  0.00     0.066 A 
ATOM      9  C   UNL A   1      36.379  23.690  26.055  1.00  0.00     0.045 C 
ATOM     10  C   UNL A   1      34.915  23.341  26.112  1.00  0.00    -0.036 A 
ATOM     11  C   UNL A   1      34.432  22.805  27.320  1.00  0.00     0.004 A 
ATOM     12  C   UNL A   1      33.157  22.253  27.392  1.00  0.00     0.002 A 
ATOM     13  C   UNL A   1      32.901  22.584  25.004  1.00  0.00     0.054 A 
ATOM     14  C   UNL A   1      32.403  22.122  26.229  1.00  0.00     0.027 A 
BRANCH  13  15
ATOM     15  N   UNL A   1      32.323  22.161  23.783  1.00  0.00    -0.325 N 
ATOM     16  C   UNL A   1      32.344  20.925  23.182  1.00  0.00     0.227 C 
ATOM     17  H   UNL A   1      31.834  22.857  23.288  1.00  0.00     0.169 HD
ATOM     18  O   UNL A   1      31.779  20.779  22.092  1.00  0.00    -0.275 OA
BRANCH  16  19
ATOM     19  C   UNL A   1      33.072  19.747  23.803  1.00  0.00     0.132 C 
BRANCH  19  20
ATOM     20  C   UNL A   1      32.302  18.415  23.740  1.00  0.00     0.127 C 
ATOM     21  C   UNL A   1      32.374  17.670  25.084  1.00  0.00     0.033 C 
ATOM     22  O   UNL A   1      32.711  17.522  22.701  1.00  0.00    -0.378 OA
ATOM     23  C   UNL A   1      33.767  17.097  25.343  1.00  0.00     0.005 C 
ATOM     24  C   UNL A   1      34.003  16.947  22.842  1.00  0.00     0.160 C 
ATOM     25  C   UNL A   1      34.212  16.236  24.169  1.00  0.00     0.029 C 
ENDBRANCH  19  20
ENDBRANCH  16  19
ENDBRANCH  13  15
ENDBRANCH   5   8
ENDBRANCH   3   4
ENDBRANCH   2   3
ENDBRANCH   1   2
BRANCH   1  26
ATOM     26  C   UNL A   1      33.630  28.589  26.530  1.00  0.00     0.002 C 
BRANCH  26  27
ATOM     27  C   UNL A   1      33.280  29.687  27.537  1.00  0.00     0.021 C 
BRANCH  27  28
ATOM     28  C   UNL A   1      34.052  30.985  27.323  1.00  0.00     0.116 C 
BRANCH  28  29
ATOM     29  N   UNL A   1      34.471  31.635  28.560  1.00  0.00    -0.352 N 
ATOM     30  C   UNL A   1      35.466  31.261  29.437  1.00  0.00     0.251 C 
ATOM     31  H   UNL A   1      33.976  32.452  28.801  1.00  0.00     0.163 HD
ATOM     32  O   UNL A   1      35.652  31.880  30.484  1.00  0.00    -0.269 OA
BRANCH  30  33
ATOM     33  C   UNL A   1      36.390  30.167  29.058  1.00  0.00     0.039 A 
ATOM     34  C   UNL A   1      36.848  29.323  30.077  1.00  0.00     0.014 A 
ATOM     35  C   UNL A   1      36.942  30.089  27.780  1.00  0.00     0.014 A 
ATOM     36  C   UNL A   1      37.992  28.555  29.871  1.00  0.00     0.010 A 
ATOM     37  C   UNL A   1      38.121  29.388  27.599  1.00  0.00     0.010 A 
ATOM     38  C   UNL A   1      38.679  28.667  28.660  1.00  0.00    -0.014 A 
BRANCH  38  39
ATOM     39  C   UNL A   1      40.041  28.174  28.473  1.00  0.00     0.031 A 
ATOM     40  C   UNL A   1      40.321  26.730  28.334  1.00  0.00     0.074 A 
ATOM     41  C   UNL A   1      41.070  29.048  28.426  1.00  0.00     0.049 A 
ATOM     42  N   UNL A   1      41.452  26.180  28.620  1.00  0.00    -0.248 NA
ATOM     43  C   UNL A   1      39.311  25.777  27.890  1.00  0.00     0.031 C 
ATOM     44  C   UNL A   1      42.454  28.776  28.052  1.00  0.00     0.029 A 
ATOM     45  N   UNL A   1      41.106  30.319  28.994  1.00  0.00    -0.354 N 
ATOM     46  C   UNL A   1      41.412  24.877  28.187  1.00  0.00     0.074 A 
ATOM     47  C   UNL A   1      40.042  24.663  27.775  1.00  0.00     0.031 C 
ATOM     48  C   UNL A   1      43.244  29.692  28.634  1.00  0.00     0.029 A 
ATOM     49  C   UNL A   1      42.408  30.503  29.498  1.00  0.00     0.049 A 
ATOM     50  H   UNL A   1      40.364  30.966  29.035  1.00  0.00     0.167 HD
ATOM     51  C   UNL A   1      42.560  24.145  28.121  1.00  0.00     0.034 A 
ATOM     52  C   UNL A   1      42.610  30.727  30.830  1.00  0.00     0.034 A 
ATOM     53  C   UNL A   1      43.720  24.879  28.618  1.00  0.00     0.049 A 
ATOM     54  C   UNL A   1      43.452  29.671  31.519  1.00  0.00     0.074 A 
ATOM     55  C   UNL A   1      44.747  25.589  28.019  1.00  0.00     0.029 A 
ATOM     56  N   UNL A   1      43.794  25.165  29.968  1.00  0.00    -0.354 N 
ATOM     57  N   UNL A   1      43.906  28.592  30.941  1.00  0.00    -0.248 NA
ATOM     58  C   UNL A   1      43.762  29.708  32.948  1.00  0.00     0.031 C 
ATOM     59  C   UNL A   1      45.415  26.339  29.032  1.00  0.00     0.029 A 
ATOM     60  C   UNL A   1      44.806  26.064  30.243  1.00  0.00     0.049 A 
ATOM     61  H   UNL A   1      43.199  24.776  30.650  1.00  0.00     0.167 HD
ATOM     62  C   UNL A   1      44.483  27.784  31.885  1.00  0.00     0.074 A 
ATOM     63  C   UNL A   1      44.374  28.527  33.127  1.00  0.00     0.031 C 
ATOM     64  C   UNL A   1      44.968  26.539  31.606  1.00  0.00     0.034 A 
BRANCH  51  65
ATOM     65  C   UNL A   1      42.666  22.832  27.389  1.00  0.00     0.023 A 
ATOM     66  C   UNL A   1      43.729  22.631  26.485  1.00  0.00     0.031 A 
ATOM     67  C   UNL A   1      41.759  21.763  27.512  1.00  0.00     0.131 A 
ATOM     68  C   UNL A   1      43.801  21.476  25.686  1.00  0.00     0.055 A 
ATOM     69  C   UNL A   1      41.790  20.644  26.670  1.00  0.00     0.041 A 
ATOM     70  F   UNL A   1      40.834  21.740  28.482  1.00  0.00    -0.206 F 
ATOM     71  C   UNL A   1      42.808  20.501  25.739  1.00  0.00     0.022 A 
BRANCH  68  72
ATOM     72  S   UNL A   1      45.223  21.257  24.581  1.00  0.00     0.124 S 
ATOM     73  O   UNL A   1      45.396  19.808  24.580  1.00  0.00    -0.237 OA
ATOM     74  O   UNL A   1      44.741  21.852  23.340  1.00  0.00    -0.237 OA
ATOM     75  O   UNL A   1      46.288  22.004  25.250  1.00  0.00    -0.744 OA
ENDBRANCH  68  72
ENDBRANCH  51  65
BRANCH  52  76
ATOM     76  C   UNL A   1      41.498  31.498  31.464  1.00  0.00     0.023 A 
ATOM     77  C   UNL A   1      40.520  30.758  32.164  1.00  0.00     0.031 A 
ATOM     78  C   UNL A   1      41.585  32.873  31.719  1.00  0.00     0.131 A 
ATOM     79  C   UNL A   1      39.802  31.351  33.210  1.00  0.00     0.055 A 
ATOM     80  C   UNL A   1      40.797  33.480  32.704  1.00  0.00     0.041 A 
ATOM     81  F   UNL A   1      42.515  33.627  31.117  1.00  0.00    -0.206 F 
ATOM     82  C   UNL A   1      39.938  32.711  33.488  1.00  0.00     0.022 A 
BRANCH  79  83
ATOM     83  S   UNL A   1      38.942  30.268  34.390  1.00  0.00     0.124 S 
ATOM     84  O   UNL A   1      40.052  29.618  35.078  1.00  0.00    -0.237 OA
ATOM     85  O   UNL A   1      38.165  31.214  35.188  1.00  0.00    -0.237 OA
ATOM     86  O   UNL A   1      38.137  29.401  33.534  1.00  0.00    -0.744 OA
ENDBRANCH  79  83
ENDBRANCH  52  76
BRANCH  64  87
ATOM     87  C   UNL A   1      45.613  25.672  32.649  1.00  0.00     0.023 A 
ATOM     88  C   UNL A   1      44.848  24.862  33.504  1.00  0.00     0.031 A 
ATOM     89  C   UNL A   1      47.008  25.676  32.862  1.00  0.00     0.131 A 
ATOM     90  C   UNL A   1      45.470  24.043  34.460  1.00  0.00     0.055 A 
ATOM     91  C   UNL A   1      47.615  24.927  33.872  1.00  0.00     0.041 A 
ATOM     92  F   UNL A   1      47.837  26.369  32.067  1.00  0.00    -0.206 F 
ATOM     93  C   UNL A   1      46.847  24.093  34.671  1.00  0.00     0.022 A 
BRANCH  90  94
ATOM     94  S   UNL A   1      44.454  22.842  35.357  1.00  0.00     0.124 S 
ATOM     95  O   UNL A   1      44.837  21.577  34.743  1.00  0.00    -0.237 OA
ATOM     96  O   UNL A   1      44.907  23.043  36.732  1.00  0.00    -0.237 OA
ATOM     97  O   UNL A   1      43.086  23.278  35.088  1.00  0.00    -0.744 OA
ENDBRANCH  90  94
ENDBRANCH  64  87
ENDBRANCH  38  39
ENDBRANCH  30  33
ENDBRANCH  28  29
ENDBRANCH  27  28
ENDBRANCH  26  27
ENDBRANCH   1  26
TORSDOF 19
ENDMDL
