MODEL 1
REMARK VINA RESULT:     -10.4      0.000      0.000
REMARK SMILES CC(C)C[NH+]1CC[NH+]([C@H](C)[C@@H](C)C(=O)NCCCCCCNC(=O)c2ccc(-c3c4nc(c(-c5cc(S(=O)(=O)[O-])ccc5F)c5ccc([nH]5)c(-c5cc(S(=O)(=O)[O-])ccc5F)c5nc(c(-c6cc(S(=O)(=O)[O-])ccc6F)c6ccc3[nH]6)C=C5)C=C4)cc2)CC1
REMARK SMILES IDX 18 1 17 2 16 3 15 4 13 5 14 6 11 8 12 9 9 10 10 11 8 12 5 13
REMARK SMILES IDX 6 14 89 15 7 17 88 18 4 20 2 21 1 22 3 23 19 24 20 25 21 26
REMARK SMILES IDX 22 27 23 28 24 30 25 31 26 32 87 33 27 34 86 35 28 36 29 37
REMARK SMILES IDX 30 38 80 39 31 40 85 41 79 42 81 43 32 44 84 45 78 46 77 47
REMARK SMILES IDX 33 49 65 50 45 51 64 52 46 53 49 54 63 55 82 56 47 57 48 58
REMARK SMILES IDX 62 60 83 61 50 62 34 63 35 64 43 65 36 66 42 67 44 68 41 69
REMARK SMILES IDX 37 70 38 71 39 72 40 73 66 74 67 75 75 76 68 77 74 78 76 79
REMARK SMILES IDX 73 80 69 81 70 82 71 83 72 84 51 85 52 86 60 87 53 88 59 89
REMARK SMILES IDX 61 90 58 91 54 92 55 93 56 94 57 95
REMARK H PARENT 15 7 5 16 8 19 22 29 81 48 49 59
REMARK Flexibility Score: inf
ROOT
ATOM      1  C   UNL A   1      32.497  30.217  27.280  1.00  0.00     0.002 C 
ENDROOT
BRANCH   1   2
ATOM      2  C   UNL A   1      33.908  29.899  26.777  1.00  0.00     0.021 C 
BRANCH   2   3
ATOM      3  C   UNL A   1      34.150  28.412  26.524  1.00  0.00     0.116 C 
BRANCH   3   4
ATOM      4  N   UNL A   1      32.902  27.707  26.305  1.00  0.00    -0.356 N 
ATOM      5  C   UNL A   1      32.512  26.873  25.304  1.00  0.00     0.228 C 
ATOM      6  O   UNL A   1      31.362  26.425  25.349  1.00  0.00    -0.275 OA
ATOM      7  H   UNL A   1      32.221  27.858  26.999  1.00  0.00     0.163 HD
BRANCH   5   8
ATOM      8  C   UNL A   1      33.470  26.426  24.206  1.00  0.00     0.133 C 
ATOM      9  C   UNL A   1      33.339  27.369  23.002  1.00  0.00     0.024 C 
BRANCH   8  10
ATOM     10  C   UNL A   1      33.383  24.903  23.897  1.00  0.00     0.193 C 
ATOM     11  C   UNL A   1      33.259  24.655  22.381  1.00  0.00     0.076 C 
BRANCH  10  12
ATOM     12  N   UNL A   1      34.456  24.121  24.566  1.00  0.00    -0.323 N 
ATOM     13  N   UNL A   1      35.471  21.465  25.550  1.00  0.00    -0.325 N 
ATOM     14  C   UNL A   1      36.134  22.245  24.489  1.00  0.00     0.324 C 
ATOM     15  C   UNL A   1      34.852  22.404  26.485  1.00  0.00     0.324 C 
ATOM     16  H   UNL A   1      36.108  20.939  26.146  1.00  0.00     0.348 HD
ATOM     17  C   UNL A   1      35.144  23.145  23.717  1.00  0.00     0.324 C 
ATOM     18  C   UNL A   1      34.071  23.613  25.894  1.00  0.00     0.324 C 
ATOM     19  H   UNL A   1      35.186  24.811  24.745  1.00  0.00     0.348 HD
BRANCH  13  20
ATOM     20  C   UNL A   1      34.701  20.351  24.984  1.00  0.00     0.265 C 
BRANCH  20  21
ATOM     21  C   UNL A   1      33.165  20.202  25.105  1.00  0.00     0.038 C 
ATOM     22  C   UNL A   1      32.382  20.873  23.981  1.00  0.00     0.013 C 
ATOM     23  C   UNL A   1      32.832  18.700  25.060  1.00  0.00     0.013 C 
ENDBRANCH  20  21
ENDBRANCH  13  20
ENDBRANCH  10  12
ENDBRANCH   8  10
ENDBRANCH   5   8
ENDBRANCH   3   4
ENDBRANCH   2   3
ENDBRANCH   1   2
BRANCH   1  24
ATOM     24  C   UNL A   1      31.640  31.034  26.307  1.00  0.00     0.002 C 
BRANCH  24  25
ATOM     25  C   UNL A   1      31.555  32.530  26.626  1.00  0.00     0.021 C 
BRANCH  25  26
ATOM     26  C   UNL A   1      32.843  33.130  27.178  1.00  0.00     0.116 C 
BRANCH  26  27
ATOM     27  N   UNL A   1      32.597  34.387  27.864  1.00  0.00    -0.352 N 
ATOM     28  C   UNL A   1      33.127  34.846  29.041  1.00  0.00     0.251 C 
ATOM     29  H   UNL A   1      31.961  34.994  27.421  1.00  0.00     0.163 HD
ATOM     30  O   UNL A   1      32.623  35.823  29.597  1.00  0.00    -0.269 OA
BRANCH  28  31
ATOM     31  C   UNL A   1      34.286  34.157  29.645  1.00  0.00     0.039 A 
ATOM     32  C   UNL A   1      35.575  34.559  29.289  1.00  0.00     0.014 A 
ATOM     33  C   UNL A   1      34.101  33.114  30.557  1.00  0.00     0.014 A 
ATOM     34  C   UNL A   1      36.678  33.950  29.888  1.00  0.00     0.010 A 
ATOM     35  C   UNL A   1      35.199  32.560  31.208  1.00  0.00     0.010 A 
ATOM     36  C   UNL A   1      36.499  32.967  30.876  1.00  0.00    -0.014 A 
BRANCH  36  37
ATOM     37  C   UNL A   1      37.662  32.349  31.566  1.00  0.00     0.031 A 
ATOM     38  C   UNL A   1      38.411  31.218  30.915  1.00  0.00     0.074 A 
ATOM     39  C   UNL A   1      38.005  32.768  32.800  1.00  0.00     0.049 A 
ATOM     40  N   UNL A   1      39.402  30.502  31.382  1.00  0.00    -0.248 NA
ATOM     41  C   UNL A   1      37.965  30.820  29.571  1.00  0.00     0.031 C 
ATOM     42  C   UNL A   1      37.331  33.832  33.547  1.00  0.00     0.029 A 
ATOM     43  N   UNL A   1      39.000  32.349  33.647  1.00  0.00    -0.354 N 
ATOM     44  C   UNL A   1      39.690  29.564  30.396  1.00  0.00     0.074 A 
ATOM     45  C   UNL A   1      38.726  29.763  29.336  1.00  0.00     0.031 C 
ATOM     46  C   UNL A   1      37.947  33.998  34.728  1.00  0.00     0.029 A 
ATOM     47  C   UNL A   1      39.026  33.023  34.847  1.00  0.00     0.049 A 
ATOM     48  H   UNL A   1      39.635  31.633  33.418  1.00  0.00     0.167 HD
ATOM     49  C   UNL A   1      40.683  28.641  30.369  1.00  0.00     0.034 A 
ATOM     50  C   UNL A   1      39.821  32.865  35.923  1.00  0.00     0.034 A 
ATOM     51  C   UNL A   1      41.641  28.464  31.434  1.00  0.00     0.049 A 
ATOM     52  C   UNL A   1      40.898  31.810  35.884  1.00  0.00     0.074 A 
ATOM     53  C   UNL A   1      42.718  27.596  31.490  1.00  0.00     0.029 A 
ATOM     54  N   UNL A   1      41.634  29.161  32.636  1.00  0.00    -0.354 N 
ATOM     55  N   UNL A   1      41.189  30.963  34.923  1.00  0.00    -0.248 NA
ATOM     56  C   UNL A   1      41.758  31.698  37.068  1.00  0.00     0.031 C 
ATOM     57  C   UNL A   1      43.315  27.715  32.750  1.00  0.00     0.029 A 
ATOM     58  C   UNL A   1      42.665  28.718  33.452  1.00  0.00     0.049 A 
ATOM     59  H   UNL A   1      40.991  29.867  32.875  1.00  0.00     0.167 HD
ATOM     60  C   UNL A   1      42.289  30.240  35.378  1.00  0.00     0.074 A 
ATOM     61  C   UNL A   1      42.615  30.761  36.689  1.00  0.00     0.031 C 
ATOM     62  C   UNL A   1      42.971  29.239  34.764  1.00  0.00     0.034 A 
BRANCH  49  63
ATOM     63  C   UNL A   1      40.760  27.736  29.161  1.00  0.00     0.023 A 
ATOM     64  C   UNL A   1      41.684  27.961  28.126  1.00  0.00     0.031 A 
ATOM     65  C   UNL A   1      39.877  26.649  29.027  1.00  0.00     0.131 A 
ATOM     66  C   UNL A   1      41.652  27.167  26.970  1.00  0.00     0.055 A 
ATOM     67  C   UNL A   1      39.909  25.808  27.912  1.00  0.00     0.041 A 
ATOM     68  F   UNL A   1      38.957  26.395  29.970  1.00  0.00    -0.206 F 
ATOM     69  C   UNL A   1      40.789  26.074  26.867  1.00  0.00     0.022 A 
BRANCH  66  70
ATOM     70  S   UNL A   1      42.646  27.676  25.541  1.00  0.00     0.124 S 
ATOM     71  O   UNL A   1      43.936  27.960  26.166  1.00  0.00    -0.237 OA
ATOM     72  O   UNL A   1      42.596  26.498  24.685  1.00  0.00    -0.237 OA
ATOM     73  O   UNL A   1      41.939  28.849  25.032  1.00  0.00    -0.744 OA
ENDBRANCH  66  70
ENDBRANCH  49  63
BRANCH  50  74
ATOM     74  C   UNL A   1      39.627  33.714  37.135  1.00  0.00     0.023 A 
ATOM     75  C   UNL A   1      38.910  33.238  38.245  1.00  0.00     0.031 A 
ATOM     76  C   UNL A   1      40.124  35.029  37.186  1.00  0.00     0.131 A 
ATOM     77  C   UNL A   1      38.669  34.086  39.337  1.00  0.00     0.055 A 
ATOM     78  C   UNL A   1      39.929  35.849  38.298  1.00  0.00     0.041 A 
ATOM     79  F   UNL A   1      40.821  35.532  36.154  1.00  0.00    -0.206 F 
ATOM     80  C   UNL A   1      39.185  35.382  39.378  1.00  0.00     0.022 A 
BRANCH  77  81
ATOM     81  S   UNL A   1      37.591  33.496  40.671  1.00  0.00     0.124 S 
ATOM     82  O   UNL A   1      36.538  32.818  39.923  1.00  0.00    -0.237 OA
ATOM     83  O   UNL A   1      38.492  32.638  41.432  1.00  0.00    -0.237 OA
ATOM     84  O   UNL A   1      37.183  34.726  41.347  1.00  0.00    -0.744 OA
ENDBRANCH  77  81
ENDBRANCH  50  74
BRANCH  62  85
ATOM     85  C   UNL A   1      44.169  28.677  35.494  1.00  0.00     0.023 A 
ATOM     86  C   UNL A   1      44.043  27.653  36.448  1.00  0.00     0.031 A 
ATOM     87  C   UNL A   1      45.455  29.184  35.233  1.00  0.00     0.131 A 
ATOM     88  C   UNL A   1      45.175  27.210  37.150  1.00  0.00     0.055 A 
ATOM     89  C   UNL A   1      46.585  28.693  35.887  1.00  0.00     0.041 A 
ATOM     90  F   UNL A   1      45.634  30.164  34.333  1.00  0.00    -0.206 F 
ATOM     91  C   UNL A   1      46.447  27.709  36.862  1.00  0.00     0.022 A 
BRANCH  88  92
ATOM     92  S   UNL A   1      44.949  26.037  38.515  1.00  0.00     0.124 S 
ATOM     93  O   UNL A   1      44.236  24.944  37.862  1.00  0.00    -0.237 OA
ATOM     94  O   UNL A   1      46.323  25.753  38.914  1.00  0.00    -0.237 OA
ATOM     95  O   UNL A   1      44.164  26.793  39.490  1.00  0.00    -0.744 OA
ENDBRANCH  88  92
ENDBRANCH  62  85
ENDBRANCH  36  37
ENDBRANCH  28  31
ENDBRANCH  26  27
ENDBRANCH  25  26
ENDBRANCH  24  25
ENDBRANCH   1  24
TORSDOF 20
ENDMDL
MODEL 2
REMARK VINA RESULT:     -10.3      1.710      7.771
REMARK SMILES CC(C)C[NH+]1CC[NH+]([C@H](C)[C@@H](C)C(=O)NCCCCCCNC(=O)c2ccc(-c3c4nc(c(-c5cc(S(=O)(=O)[O-])ccc5F)c5ccc([nH]5)c(-c5cc(S(=O)(=O)[O-])ccc5F)c5nc(c(-c6cc(S(=O)(=O)[O-])ccc6F)c6ccc3[nH]6)C=C5)C=C4)cc2)CC1
REMARK SMILES IDX 18 1 17 2 16 3 15 4 13 5 14 6 11 8 12 9 9 10 10 11 8 12 5 13
REMARK SMILES IDX 6 14 89 15 7 17 88 18 4 20 2 21 1 22 3 23 19 24 20 25 21 26
REMARK SMILES IDX 22 27 23 28 24 30 25 31 26 32 87 33 27 34 86 35 28 36 29 37
REMARK SMILES IDX 30 38 80 39 31 40 85 41 79 42 81 43 32 44 84 45 78 46 77 47
REMARK SMILES IDX 33 49 65 50 45 51 64 52 46 53 49 54 63 55 82 56 47 57 48 58
REMARK SMILES IDX 62 60 83 61 50 62 34 63 35 64 43 65 36 66 42 67 44 68 41 69
REMARK SMILES IDX 37 70 38 71 39 72 40 73 66 74 67 75 75 76 68 77 74 78 76 79
REMARK SMILES IDX 73 80 69 81 70 82 71 83 72 84 51 85 52 86 60 87 53 88 59 89
REMARK SMILES IDX 61 90 58 91 54 92 55 93 56 94 57 95
REMARK H PARENT 15 7 5 16 8 19 22 29 81 48 49 59
REMARK Flexibility Score: inf
ROOT
ATOM      1  C   UNL A   1      32.308  29.905  27.247  1.00  0.00     0.002 C 
ENDROOT
BRANCH   1   2
ATOM      2  C   UNL A   1      33.755  29.591  26.857  1.00  0.00     0.021 C 
BRANCH   2   3
ATOM      3  C   UNL A   1      33.957  28.168  26.339  1.00  0.00     0.116 C 
BRANCH   3   4
ATOM      4  N   UNL A   1      32.902  27.287  26.801  1.00  0.00    -0.356 N 
ATOM      5  C   UNL A   1      32.275  26.247  26.188  1.00  0.00     0.228 C 
ATOM      6  O   UNL A   1      31.374  25.676  26.810  1.00  0.00    -0.275 OA
ATOM      7  H   UNL A   1      32.585  27.473  27.714  1.00  0.00     0.163 HD
BRANCH   5   8
ATOM      8  C   UNL A   1      32.711  25.735  24.820  1.00  0.00     0.133 C 
ATOM      9  C   UNL A   1      32.152  26.659  23.729  1.00  0.00     0.024 C 
BRANCH   8  10
ATOM     10  C   UNL A   1      32.457  24.212  24.625  1.00  0.00     0.193 C 
ATOM     11  C   UNL A   1      32.355  23.857  23.128  1.00  0.00     0.076 C 
BRANCH  10  12
ATOM     12  N   UNL A   1      33.409  23.370  25.396  1.00  0.00    -0.323 N 
ATOM     13  N   UNL A   1      34.742  20.702  25.796  1.00  0.00    -0.325 N 
ATOM     14  C   UNL A   1      35.476  21.932  25.445  1.00  0.00     0.324 C 
ATOM     15  C   UNL A   1      33.594  21.077  26.621  1.00  0.00     0.324 C 
ATOM     16  H   UNL A   1      35.257  20.063  26.401  1.00  0.00     0.348 HD
ATOM     17  C   UNL A   1      34.599  22.934  24.661  1.00  0.00     0.324 C 
ATOM     18  C   UNL A   1      32.752  22.309  26.180  1.00  0.00     0.324 C 
ATOM     19  H   UNL A   1      33.798  24.011  26.087  1.00  0.00     0.348 HD
BRANCH  13  20
ATOM     20  C   UNL A   1      34.574  19.834  24.624  1.00  0.00     0.265 C 
BRANCH  20  21
ATOM     21  C   UNL A   1      33.780  18.506  24.630  1.00  0.00     0.038 C 
ATOM     22  C   UNL A   1      32.615  18.469  23.645  1.00  0.00     0.013 C 
ATOM     23  C   UNL A   1      34.748  17.376  24.233  1.00  0.00     0.013 C 
ENDBRANCH  20  21
ENDBRANCH  13  20
ENDBRANCH  10  12
ENDBRANCH   8  10
ENDBRANCH   5   8
ENDBRANCH   3   4
ENDBRANCH   2   3
ENDBRANCH   1   2
BRANCH   1  24
ATOM     24  C   UNL A   1      31.601  30.911  26.332  1.00  0.00     0.002 C 
BRANCH  24  25
ATOM     25  C   UNL A   1      31.539  32.342  26.876  1.00  0.00     0.021 C 
BRANCH  25  26
ATOM     26  C   UNL A   1      32.896  33.023  27.008  1.00  0.00     0.116 C 
BRANCH  26  27
ATOM     27  N   UNL A   1      32.807  34.248  27.785  1.00  0.00    -0.352 N 
ATOM     28  C   UNL A   1      33.452  34.584  28.946  1.00  0.00     0.251 C 
ATOM     29  H   UNL A   1      32.197  34.933  27.427  1.00  0.00     0.163 HD
ATOM     30  O   UNL A   1      33.072  35.560  29.595  1.00  0.00    -0.269 OA
BRANCH  28  31
ATOM     31  C   UNL A   1      34.586  33.764  29.422  1.00  0.00     0.039 A 
ATOM     32  C   UNL A   1      35.885  34.131  29.064  1.00  0.00     0.014 A 
ATOM     33  C   UNL A   1      34.366  32.634  30.215  1.00  0.00     0.014 A 
ATOM     34  C   UNL A   1      36.967  33.394  29.546  1.00  0.00     0.010 A 
ATOM     35  C   UNL A   1      35.448  31.946  30.755  1.00  0.00     0.010 A 
ATOM     36  C   UNL A   1      36.760  32.314  30.421  1.00  0.00    -0.014 A 
BRANCH  36  37
ATOM     37  C   UNL A   1      37.905  31.555  30.990  1.00  0.00     0.031 A 
ATOM     38  C   UNL A   1      38.403  31.868  32.375  1.00  0.00     0.074 A 
ATOM     39  C   UNL A   1      38.528  30.626  30.238  1.00  0.00     0.049 A 
ATOM     40  N   UNL A   1      39.428  31.371  33.019  1.00  0.00    -0.248 NA
ATOM     41  C   UNL A   1      37.668  32.900  33.122  1.00  0.00     0.031 C 
ATOM     42  C   UNL A   1      38.158  30.262  28.869  1.00  0.00     0.029 A 
ATOM     43  N   UNL A   1      39.606  29.824  30.513  1.00  0.00    -0.354 N 
ATOM     44  C   UNL A   1      39.467  32.036  34.240  1.00  0.00     0.074 A 
ATOM     45  C   UNL A   1      38.402  33.015  34.217  1.00  0.00     0.031 C 
ATOM     46  C   UNL A   1      38.979  29.292  28.435  1.00  0.00     0.029 A 
ATOM     47  C   UNL A   1      39.963  28.999  29.471  1.00  0.00     0.049 A 
ATOM     48  H   UNL A   1      40.082  29.837  31.375  1.00  0.00     0.167 HD
ATOM     49  C   UNL A   1      40.299  31.829  35.292  1.00  0.00     0.034 A 
ATOM     50  C   UNL A   1      40.975  28.117  29.358  1.00  0.00     0.034 A 
ATOM     51  C   UNL A   1      41.350  30.839  35.298  1.00  0.00     0.049 A 
ATOM     52  C   UNL A   1      41.908  27.927  30.529  1.00  0.00     0.074 A 
ATOM     53  C   UNL A   1      42.217  30.511  36.326  1.00  0.00     0.029 A 
ATOM     54  N   UNL A   1      41.685  30.026  34.223  1.00  0.00    -0.354 N 
ATOM     55  N   UNL A   1      41.902  28.529  31.696  1.00  0.00    -0.248 NA
ATOM     56  C   UNL A   1      42.975  26.931  30.369  1.00  0.00     0.031 C 
ATOM     57  C   UNL A   1      43.120  29.554  35.850  1.00  0.00     0.029 A 
ATOM     58  C   UNL A   1      42.766  29.221  34.552  1.00  0.00     0.049 A 
ATOM     59  H   UNL A   1      41.223  30.020  33.354  1.00  0.00     0.167 HD
ATOM     60  C   UNL A   1      42.946  27.959  32.420  1.00  0.00     0.074 A 
ATOM     61  C   UNL A   1      43.547  26.958  31.564  1.00  0.00     0.031 C 
ATOM     62  C   UNL A   1      43.365  28.235  33.682  1.00  0.00     0.034 A 
BRANCH  49  63
ATOM     63  C   UNL A   1      40.119  32.711  36.505  1.00  0.00     0.023 A 
ATOM     64  C   UNL A   1      39.274  32.344  37.567  1.00  0.00     0.031 A 
ATOM     65  C   UNL A   1      40.777  33.951  36.590  1.00  0.00     0.131 A 
ATOM     66  C   UNL A   1      39.047  33.237  38.626  1.00  0.00     0.055 A 
ATOM     67  C   UNL A   1      40.615  34.797  37.689  1.00  0.00     0.041 A 
ATOM     68  F   UNL A   1      41.580  34.369  35.599  1.00  0.00    -0.206 F 
ATOM     69  C   UNL A   1      39.732  34.451  38.708  1.00  0.00     0.022 A 
BRANCH  66  70
ATOM     70  S   UNL A   1      37.728  32.857  39.811  1.00  0.00     0.124 S 
ATOM     71  O   UNL A   1      36.552  32.830  38.944  1.00  0.00    -0.237 OA
ATOM     72  O   UNL A   1      38.151  31.572  40.354  1.00  0.00    -0.237 OA
ATOM     73  O   UNL A   1      37.775  33.978  40.747  1.00  0.00    -0.744 OA
ENDBRANCH  66  70
ENDBRANCH  49  63
BRANCH  50  74
ATOM     74  C   UNL A   1      41.173  27.352  28.092  1.00  0.00     0.023 A 
ATOM     75  C   UNL A   1      40.873  25.982  28.020  1.00  0.00     0.031 A 
ATOM     76  C   UNL A   1      41.704  27.972  26.947  1.00  0.00     0.131 A 
ATOM     77  C   UNL A   1      41.149  25.267  26.845  1.00  0.00     0.055 A 
ATOM     78  C   UNL A   1      41.924  27.268  25.762  1.00  0.00     0.041 A 
ATOM     79  F   UNL A   1      42.005  29.281  26.961  1.00  0.00    -0.206 F 
ATOM     80  C   UNL A   1      41.659  25.903  25.711  1.00  0.00     0.022 A 
BRANCH  77  81
ATOM     81  S   UNL A   1      40.913  23.469  26.848  1.00  0.00     0.124 S 
ATOM     82  O   UNL A   1      41.855  23.044  25.818  1.00  0.00    -0.237 OA
ATOM     83  O   UNL A   1      41.260  23.119  28.220  1.00  0.00    -0.237 OA
ATOM     84  O   UNL A   1      39.501  23.312  26.504  1.00  0.00    -0.744 OA
ENDBRANCH  77  81
ENDBRANCH  50  74
BRANCH  62  85
ATOM     85  C   UNL A   1      44.505  27.404  34.223  1.00  0.00     0.023 A 
ATOM     86  C   UNL A   1      44.298  26.124  34.767  1.00  0.00     0.031 A 
ATOM     87  C   UNL A   1      45.818  27.908  34.201  1.00  0.00     0.131 A 
ATOM     88  C   UNL A   1      45.377  25.417  35.320  1.00  0.00     0.055 A 
ATOM     89  C   UNL A   1      46.897  27.172  34.693  1.00  0.00     0.041 A 
ATOM     90  F   UNL A   1      46.074  29.126  33.696  1.00  0.00    -0.206 F 
ATOM     91  C   UNL A   1      46.677  25.925  35.268  1.00  0.00     0.022 A 
BRANCH  88  92
ATOM     92  S   UNL A   1      45.043  23.864  36.194  1.00  0.00     0.124 S 
ATOM     93  O   UNL A   1      46.279  23.120  35.975  1.00  0.00    -0.237 OA
ATOM     94  O   UNL A   1      44.808  24.318  37.561  1.00  0.00    -0.237 OA
ATOM     95  O   UNL A   1      43.868  23.330  35.508  1.00  0.00    -0.744 OA
ENDBRANCH  88  92
ENDBRANCH  62  85
ENDBRANCH  36  37
ENDBRANCH  28  31
ENDBRANCH  26  27
ENDBRANCH  25  26
ENDBRANCH  24  25
ENDBRANCH   1  24
TORSDOF 20
ENDMDL
MODEL 3
REMARK VINA RESULT:     -10.3      5.968     10.456
REMARK SMILES CC(C)C[NH+]1CC[NH+]([C@H](C)[C@@H](C)C(=O)NCCCCCCNC(=O)c2ccc(-c3c4nc(c(-c5cc(S(=O)(=O)[O-])ccc5F)c5ccc([nH]5)c(-c5cc(S(=O)(=O)[O-])ccc5F)c5nc(c(-c6cc(S(=O)(=O)[O-])ccc6F)c6ccc3[nH]6)C=C5)C=C4)cc2)CC1
REMARK SMILES IDX 18 1 17 2 16 3 15 4 13 5 14 6 11 8 12 9 9 10 10 11 8 12 5 13
REMARK SMILES IDX 6 14 89 15 7 17 88 18 4 20 2 21 1 22 3 23 19 24 20 25 21 26
REMARK SMILES IDX 22 27 23 28 24 30 25 31 26 32 87 33 27 34 86 35 28 36 29 37
REMARK SMILES IDX 30 38 80 39 31 40 85 41 79 42 81 43 32 44 84 45 78 46 77 47
REMARK SMILES IDX 33 49 65 50 45 51 64 52 46 53 49 54 63 55 82 56 47 57 48 58
REMARK SMILES IDX 62 60 83 61 50 62 34 63 35 64 43 65 36 66 42 67 44 68 41 69
REMARK SMILES IDX 37 70 38 71 39 72 40 73 66 74 67 75 75 76 68 77 74 78 76 79
REMARK SMILES IDX 73 80 69 81 70 82 71 83 72 84 51 85 52 86 60 87 53 88 59 89
REMARK SMILES IDX 61 90 58 91 54 92 55 93 56 94 57 95
REMARK H PARENT 15 7 5 16 8 19 22 29 81 48 49 59
REMARK Flexibility Score: inf
ROOT
ATOM      1  C   UNL A   1      40.065  22.613  26.821  1.00  0.00     0.002 C 
ENDROOT
BRANCH   1   2
ATOM      2  C   UNL A   1      38.775  22.247  26.083  1.00  0.00     0.021 C 
BRANCH   2   3
ATOM      3  C   UNL A   1      37.876  23.445  25.783  1.00  0.00     0.116 C 
BRANCH   3   4
ATOM      4  N   UNL A   1      37.447  23.447  24.399  1.00  0.00    -0.356 N 
ATOM      5  C   UNL A   1      36.253  23.123  23.834  1.00  0.00     0.228 C 
ATOM      6  O   UNL A   1      36.167  23.186  22.603  1.00  0.00    -0.275 OA
ATOM      7  H   UNL A   1      38.138  23.731  23.758  1.00  0.00     0.163 HD
BRANCH   5   8
ATOM      8  C   UNL A   1      35.030  22.776  24.675  1.00  0.00     0.133 C 
ATOM      9  C   UNL A   1      34.864  21.251  24.726  1.00  0.00     0.024 C 
BRANCH   8  10
ATOM     10  C   UNL A   1      33.763  23.591  24.282  1.00  0.00     0.193 C 
ATOM     11  C   UNL A   1      32.558  23.190  25.154  1.00  0.00     0.076 C 
BRANCH  10  12
ATOM     12  N   UNL A   1      34.021  25.053  24.218  1.00  0.00    -0.323 N 
ATOM     13  N   UNL A   1      32.931  27.855  24.101  1.00  0.00    -0.325 N 
ATOM     14  C   UNL A   1      33.740  27.346  25.223  1.00  0.00     0.324 C 
ATOM     15  C   UNL A   1      33.382  27.194  22.877  1.00  0.00     0.324 C 
ATOM     16  H   UNL A   1      33.075  28.842  23.892  1.00  0.00     0.348 HD
ATOM     17  C   UNL A   1      33.603  25.817  25.398  1.00  0.00     0.324 C 
ATOM     18  C   UNL A   1      33.643  25.661  22.931  1.00  0.00     0.324 C 
ATOM     19  H   UNL A   1      35.038  25.125  24.258  1.00  0.00     0.348 HD
BRANCH  13  20
ATOM     20  C   UNL A   1      31.506  27.894  24.452  1.00  0.00     0.265 C 
BRANCH  20  21
ATOM     21  C   UNL A   1      30.402  27.107  23.705  1.00  0.00     0.038 C 
ATOM     22  C   UNL A   1      29.646  26.110  24.577  1.00  0.00     0.013 C 
ATOM     23  C   UNL A   1      29.373  28.123  23.177  1.00  0.00     0.013 C 
ENDBRANCH  20  21
ENDBRANCH  13  20
ENDBRANCH  10  12
ENDBRANCH   8  10
ENDBRANCH   5   8
ENDBRANCH   3   4
ENDBRANCH   2   3
ENDBRANCH   1   2
BRANCH   1  24
ATOM     24  C   UNL A   1      40.768  21.437  27.507  1.00  0.00     0.002 C 
BRANCH  24  25
ATOM     25  C   UNL A   1      41.012  20.221  26.608  1.00  0.00     0.021 C 
BRANCH  25  26
ATOM     26  C   UNL A   1      42.226  19.385  26.996  1.00  0.00     0.116 C 
BRANCH  26  27
ATOM     27  N   UNL A   1      43.109  19.164  25.863  1.00  0.00    -0.352 N 
ATOM     28  C   UNL A   1      43.778  20.083  25.098  1.00  0.00     0.251 C 
ATOM     29  H   UNL A   1      43.245  18.223  25.609  1.00  0.00     0.163 HD
ATOM     30  O   UNL A   1      44.284  19.734  24.030  1.00  0.00    -0.269 OA
BRANCH  28  31
ATOM     31  C   UNL A   1      43.875  21.487  25.548  1.00  0.00     0.039 A 
ATOM     32  C   UNL A   1      44.450  21.763  26.790  1.00  0.00     0.014 A 
ATOM     33  C   UNL A   1      43.393  22.527  24.748  1.00  0.00     0.014 A 
ATOM     34  C   UNL A   1      44.591  23.087  27.206  1.00  0.00     0.010 A 
ATOM     35  C   UNL A   1      43.602  23.849  25.131  1.00  0.00     0.010 A 
ATOM     36  C   UNL A   1      44.197  24.143  26.367  1.00  0.00    -0.014 A 
BRANCH  36  37
ATOM     37  C   UNL A   1      44.394  25.561  26.770  1.00  0.00     0.031 A 
ATOM     38  C   UNL A   1      45.759  26.187  26.683  1.00  0.00     0.074 A 
ATOM     39  C   UNL A   1      43.356  26.262  27.267  1.00  0.00     0.049 A 
ATOM     40  N   UNL A   1      46.149  27.379  27.053  1.00  0.00    -0.248 NA
ATOM     41  C   UNL A   1      46.835  25.346  26.135  1.00  0.00     0.031 C 
ATOM     42  C   UNL A   1      41.994  25.750  27.433  1.00  0.00     0.029 A 
ATOM     43  N   UNL A   1      43.283  27.552  27.729  1.00  0.00    -0.354 N 
ATOM     44  C   UNL A   1      47.514  27.430  26.792  1.00  0.00     0.074 A 
ATOM     45  C   UNL A   1      47.894  26.125  26.296  1.00  0.00     0.031 C 
ATOM     46  C   UNL A   1      41.217  26.723  27.935  1.00  0.00     0.029 A 
ATOM     47  C   UNL A   1      42.031  27.910  28.175  1.00  0.00     0.049 A 
ATOM     48  H   UNL A   1      44.054  28.164  27.742  1.00  0.00     0.167 HD
ATOM     49  C   UNL A   1      48.366  28.477  26.932  1.00  0.00     0.034 A 
ATOM     50  C   UNL A   1      41.592  29.059  28.724  1.00  0.00     0.034 A 
ATOM     51  C   UNL A   1      47.966  29.774  27.421  1.00  0.00     0.049 A 
ATOM     52  C   UNL A   1      42.564  30.199  28.900  1.00  0.00     0.074 A 
ATOM     53  C   UNL A   1      48.733  30.919  27.555  1.00  0.00     0.029 A 
ATOM     54  N   UNL A   1      46.691  30.099  27.868  1.00  0.00    -0.354 N 
ATOM     55  N   UNL A   1      43.843  30.247  28.604  1.00  0.00    -0.248 NA
ATOM     56  C   UNL A   1      42.031  31.441  29.474  1.00  0.00     0.031 C 
ATOM     57  C   UNL A   1      47.944  31.910  28.148  1.00  0.00     0.029 A 
ATOM     58  C   UNL A   1      46.659  31.414  28.308  1.00  0.00     0.049 A 
ATOM     59  H   UNL A   1      45.921  29.486  27.870  1.00  0.00     0.167 HD
ATOM     60  C   UNL A   1      44.257  31.537  28.926  1.00  0.00     0.074 A 
ATOM     61  C   UNL A   1      43.091  32.235  29.425  1.00  0.00     0.031 C 
ATOM     62  C   UNL A   1      45.490  32.095  28.815  1.00  0.00     0.034 A 
BRANCH  49  63
ATOM     63  C   UNL A   1      49.817  28.245  26.577  1.00  0.00     0.023 A 
ATOM     64  C   UNL A   1      50.312  28.503  25.286  1.00  0.00     0.031 A 
ATOM     65  C   UNL A   1      50.712  27.733  27.532  1.00  0.00     0.131 A 
ATOM     66  C   UNL A   1      51.637  28.173  24.964  1.00  0.00     0.055 A 
ATOM     67  C   UNL A   1      52.054  27.490  27.229  1.00  0.00     0.041 A 
ATOM     68  F   UNL A   1      50.296  27.446  28.775  1.00  0.00    -0.206 F 
ATOM     69  C   UNL A   1      52.520  27.693  25.933  1.00  0.00     0.022 A 
BRANCH  66  70
ATOM     70  S   UNL A   1      52.145  28.235  23.224  1.00  0.00     0.124 S 
ATOM     71  O   UNL A   1      52.208  26.815  22.885  1.00  0.00    -0.237 OA
ATOM     72  O   UNL A   1      51.064  28.993  22.606  1.00  0.00    -0.237 OA
ATOM     73  O   UNL A   1      53.439  28.913  23.268  1.00  0.00    -0.744 OA
ENDBRANCH  66  70
ENDBRANCH  49  63
BRANCH  50  74
ATOM     74  C   UNL A   1      40.171  29.194  29.161  1.00  0.00     0.023 A 
ATOM     75  C   UNL A   1      39.820  29.109  30.518  1.00  0.00     0.031 A 
ATOM     76  C   UNL A   1      39.139  29.369  28.222  1.00  0.00     0.131 A 
ATOM     77  C   UNL A   1      38.469  29.152  30.893  1.00  0.00     0.055 A 
ATOM     78  C   UNL A   1      37.801  29.468  28.607  1.00  0.00     0.041 A 
ATOM     79  F   UNL A   1      39.420  29.462  26.912  1.00  0.00    -0.206 F 
ATOM     80  C   UNL A   1      37.458  29.345  29.950  1.00  0.00     0.022 A 
BRANCH  77  81
ATOM     81  S   UNL A   1      38.043  28.862  32.633  1.00  0.00     0.124 S 
ATOM     82  O   UNL A   1      39.067  29.640  33.322  1.00  0.00    -0.237 OA
ATOM     83  O   UNL A   1      36.683  29.385  32.704  1.00  0.00    -0.237 OA
ATOM     84  O   UNL A   1      38.160  27.412  32.774  1.00  0.00    -0.744 OA
ENDBRANCH  77  81
ENDBRANCH  50  74
BRANCH  62  85
ATOM     85  C   UNL A   1      45.622  33.550  29.200  1.00  0.00     0.023 A 
ATOM     86  C   UNL A   1      45.397  34.585  28.276  1.00  0.00     0.031 A 
ATOM     87  C   UNL A   1      45.988  33.902  30.512  1.00  0.00     0.131 A 
ATOM     88  C   UNL A   1      45.598  35.920  28.661  1.00  0.00     0.055 A 
ATOM     89  C   UNL A   1      46.122  35.234  30.905  1.00  0.00     0.041 A 
ATOM     90  F   UNL A   1      46.219  32.954  31.435  1.00  0.00    -0.206 F 
ATOM     91  C   UNL A   1      45.940  36.251  29.974  1.00  0.00     0.022 A 
BRANCH  88  92
ATOM     92  S   UNL A   1      45.498  37.215  27.395  1.00  0.00     0.124 S 
ATOM     93  O   UNL A   1      44.105  37.120  26.972  1.00  0.00    -0.237 OA
ATOM     94  O   UNL A   1      45.855  38.414  28.145  1.00  0.00    -0.237 OA
ATOM     95  O   UNL A   1      46.479  36.794  26.396  1.00  0.00    -0.744 OA
ENDBRANCH  88  92
ENDBRANCH  62  85
ENDBRANCH  36  37
ENDBRANCH  28  31
ENDBRANCH  26  27
ENDBRANCH  25  26
ENDBRANCH  24  25
ENDBRANCH   1  24
TORSDOF 20
ENDMDL
