MODEL 1
REMARK VINA RESULT:     -11.2      0.000      0.000
REMARK SMILES C[C@@H]1CC(=O)N(CC(C)(C)C(=O)NCCCCCCNC(=O)c2ccc(-c3c4nc(c(-c5cc(S(=O)(=O)[O-])ccc5F)c5ccc([nH]5)c(-c5cc(S(=O)(=O)[O-])ccc5F)c5nc(c(-c6cc(S(=O)(=O)[O-])ccc6F)c6ccc3[nH]6)C=C5)C=C4)cc2)C1
REMARK SMILES IDX 17 1 16 2 15 3 14 4 13 5 11 6 12 7 8 9 9 10 10 11 7 12 6 13
REMARK SMILES IDX 1 14 2 15 3 16 86 17 4 18 5 19 18 20 19 21 20 22 21 23 22 25
REMARK SMILES IDX 23 26 24 27 85 28 25 29 84 30 26 31 27 32 28 33 78 34 29 35
REMARK SMILES IDX 83 36 77 37 79 38 30 39 82 40 76 41 75 42 31 44 63 45 43 46
REMARK SMILES IDX 62 47 44 48 47 49 61 50 80 51 45 52 46 53 60 55 81 56 48 57
REMARK SMILES IDX 32 58 33 59 41 60 34 61 40 62 42 63 39 64 35 65 36 66 37 67
REMARK SMILES IDX 38 68 64 69 65 70 73 71 66 72 72 73 74 74 71 75 67 76 68 77
REMARK SMILES IDX 69 78 70 79 49 80 50 81 58 82 51 83 57 84 59 85 56 86 52 87
REMARK SMILES IDX 53 88 54 89 55 90
REMARK H PARENT 13 8 20 24 79 43 47 54
REMARK Flexibility Score: inf
ROOT
ATOM      1  C   UNL A   1      31.127  29.642  24.583  1.00  0.00     0.002 C 
ENDROOT
BRANCH   1   2
ATOM      2  C   UNL A   1      30.729  28.237  24.119  1.00  0.00     0.002 C 
BRANCH   2   3
ATOM      3  C   UNL A   1      30.816  27.149  25.196  1.00  0.00     0.021 C 
BRANCH   3   4
ATOM      4  C   UNL A   1      29.884  25.963  24.966  1.00  0.00     0.116 C 
BRANCH   4   5
ATOM      5  N   UNL A   1      29.952  25.038  26.076  1.00  0.00    -0.356 N 
ATOM      6  C   UNL A   1      30.640  23.886  26.279  1.00  0.00     0.227 C 
ATOM      7  O   UNL A   1      30.318  23.277  27.302  1.00  0.00    -0.274 OA
ATOM      8  H   UNL A   1      29.386  25.297  26.837  1.00  0.00     0.163 HD
BRANCH   6   9
ATOM      9  C   UNL A   1      31.726  23.377  25.307  1.00  0.00     0.061 C 
ATOM     10  C   UNL A   1      31.227  23.403  23.850  1.00  0.00     0.023 C 
ATOM     11  C   UNL A   1      32.125  21.939  25.694  1.00  0.00     0.023 C 
BRANCH   9  12
ATOM     12  C   UNL A   1      33.027  24.248  25.435  1.00  0.00     0.135 C 
BRANCH  12  13
ATOM     13  N   UNL A   1      34.256  23.661  24.918  1.00  0.00    -0.341 N 
ATOM     14  C   UNL A   1      36.986  21.208  25.011  1.00  0.00     0.010 C 
ATOM     15  C   UNL A   1      35.694  21.898  24.625  1.00  0.00     0.015 C 
ATOM     16  C   UNL A   1      35.800  22.792  23.386  1.00  0.00     0.105 C 
ATOM     17  C   UNL A   1      35.189  22.870  25.677  1.00  0.00     0.123 C 
ATOM     18  C   UNL A   1      34.675  23.782  23.593  1.00  0.00     0.222 C 
ATOM     19  O   UNL A   1      34.263  24.566  22.750  1.00  0.00    -0.275 OA
ENDBRANCH  12  13
ENDBRANCH   9  12
ENDBRANCH   6   9
ENDBRANCH   4   5
ENDBRANCH   3   4
ENDBRANCH   2   3
ENDBRANCH   1   2
BRANCH   1  20
ATOM     20  C   UNL A   1      32.434  29.713  25.372  1.00  0.00     0.021 C 
BRANCH  20  21
ATOM     21  C   UNL A   1      32.281  30.239  26.794  1.00  0.00     0.116 C 
BRANCH  21  22
ATOM     22  N   UNL A   1      32.138  31.685  26.827  1.00  0.00    -0.352 N 
ATOM     23  C   UNL A   1      32.950  32.611  27.436  1.00  0.00     0.251 C 
ATOM     24  H   UNL A   1      31.359  32.049  26.348  1.00  0.00     0.163 HD
ATOM     25  O   UNL A   1      32.585  33.775  27.553  1.00  0.00    -0.269 OA
BRANCH  23  26
ATOM     26  C   UNL A   1      34.255  32.171  27.973  1.00  0.00     0.039 A 
ATOM     27  C   UNL A   1      35.320  33.072  28.008  1.00  0.00     0.014 A 
ATOM     28  C   UNL A   1      34.401  30.878  28.484  1.00  0.00     0.014 A 
ATOM     29  C   UNL A   1      36.519  32.697  28.620  1.00  0.00     0.010 A 
ATOM     30  C   UNL A   1      35.564  30.536  29.162  1.00  0.00     0.010 A 
ATOM     31  C   UNL A   1      36.637  31.440  29.235  1.00  0.00    -0.014 A 
BRANCH  31  32
ATOM     32  C   UNL A   1      37.874  31.023  29.946  1.00  0.00     0.031 A 
ATOM     33  C   UNL A   1      38.790  30.020  29.306  1.00  0.00     0.074 A 
ATOM     34  C   UNL A   1      38.112  31.458  31.198  1.00  0.00     0.049 A 
ATOM     35  N   UNL A   1      39.817  29.390  29.813  1.00  0.00    -0.248 NA
ATOM     36  C   UNL A   1      38.479  29.647  27.918  1.00  0.00     0.031 C 
ATOM     37  C   UNL A   1      37.279  32.409  31.936  1.00  0.00     0.029 A 
ATOM     38  N   UNL A   1      39.110  31.134  32.085  1.00  0.00    -0.354 N 
ATOM     39  C   UNL A   1      40.255  28.522  28.818  1.00  0.00     0.074 A 
ATOM     40  C   UNL A   1      39.342  28.669  27.705  1.00  0.00     0.031 C 
ATOM     41  C   UNL A   1      37.799  32.592  33.159  1.00  0.00     0.029 A 
ATOM     42  C   UNL A   1      38.965  31.727  33.318  1.00  0.00     0.049 A 
ATOM     43  H   UNL A   1      39.857  30.534  31.861  1.00  0.00     0.167 HD
ATOM     44  C   UNL A   1      41.328  27.692  28.831  1.00  0.00     0.034 A 
ATOM     45  C   UNL A   1      39.667  31.568  34.459  1.00  0.00     0.034 A 
ATOM     46  C   UNL A   1      42.228  27.573  29.953  1.00  0.00     0.049 A 
ATOM     47  C   UNL A   1      40.838  30.618  34.469  1.00  0.00     0.074 A 
ATOM     48  C   UNL A   1      43.385  26.823  30.052  1.00  0.00     0.029 A 
ATOM     49  N   UNL A   1      42.058  28.206  31.179  1.00  0.00    -0.354 N 
ATOM     50  N   UNL A   1      41.276  29.839  33.507  1.00  0.00    -0.248 NA
ATOM     51  C   UNL A   1      41.616  30.529  35.713  1.00  0.00     0.031 C 
ATOM     52  C   UNL A   1      43.863  26.927  31.361  1.00  0.00     0.029 A 
ATOM     53  C   UNL A   1      43.065  27.826  32.054  1.00  0.00     0.049 A 
ATOM     54  H   UNL A   1      41.330  28.832  31.396  1.00  0.00     0.167 HD
ATOM     55  C   UNL A   1      42.399  29.195  34.017  1.00  0.00     0.074 A 
ATOM     56  C   UNL A   1      42.569  29.671  35.374  1.00  0.00     0.031 C 
ATOM     57  C   UNL A   1      43.222  28.303  33.409  1.00  0.00     0.034 A 
BRANCH  44  58
ATOM     58  C   UNL A   1      41.546  26.822  27.614  1.00  0.00     0.023 A 
ATOM     59  C   UNL A   1      41.148  25.474  27.583  1.00  0.00     0.031 A 
ATOM     60  C   UNL A   1      42.219  27.330  26.489  1.00  0.00     0.131 A 
ATOM     61  C   UNL A   1      41.524  24.656  26.507  1.00  0.00     0.055 A 
ATOM     62  C   UNL A   1      42.498  26.536  25.374  1.00  0.00     0.041 A 
ATOM     63  F   UNL A   1      42.645  28.603  26.462  1.00  0.00    -0.206 F 
ATOM     64  C   UNL A   1      42.171  25.184  25.388  1.00  0.00     0.022 A 
BRANCH  61  65
ATOM     65  S   UNL A   1      41.337  22.860  26.686  1.00  0.00     0.124 S 
ATOM     66  O   UNL A   1      42.103  22.603  27.904  1.00  0.00    -0.237 OA
ATOM     67  O   UNL A   1      39.891  22.703  26.795  1.00  0.00    -0.237 OA
ATOM     68  O   UNL A   1      41.933  22.330  25.461  1.00  0.00    -0.744 OA
ENDBRANCH  61  65
ENDBRANCH  44  58
BRANCH  45  69
ATOM     69  C   UNL A   1      39.253  32.301  35.689  1.00  0.00     0.023 A 
ATOM     70  C   UNL A   1      39.697  33.607  35.950  1.00  0.00     0.031 A 
ATOM     71  C   UNL A   1      38.390  31.699  36.624  1.00  0.00     0.131 A 
ATOM     72  C   UNL A   1      39.294  34.260  37.126  1.00  0.00     0.055 A 
ATOM     73  C   UNL A   1      37.952  32.371  37.767  1.00  0.00     0.041 A 
ATOM     74  F   UNL A   1      37.931  30.453  36.421  1.00  0.00    -0.206 F 
ATOM     75  C   UNL A   1      38.411  33.658  38.027  1.00  0.00     0.022 A 
BRANCH  72  76
ATOM     76  S   UNL A   1      39.983  35.896  37.495  1.00  0.00     0.124 S 
ATOM     77  O   UNL A   1      39.713  36.618  36.256  1.00  0.00    -0.237 OA
ATOM     78  O   UNL A   1      39.199  36.300  38.658  1.00  0.00    -0.237 OA
ATOM     79  O   UNL A   1      41.393  35.620  37.763  1.00  0.00    -0.744 OA
ENDBRANCH  72  76
ENDBRANCH  45  69
BRANCH  57  80
ATOM     80  C   UNL A   1      44.431  27.824  34.179  1.00  0.00     0.023 A 
ATOM     81  C   UNL A   1      44.418  26.645  34.941  1.00  0.00     0.031 A 
ATOM     82  C   UNL A   1      45.636  28.546  34.094  1.00  0.00     0.131 A 
ATOM     83  C   UNL A   1      45.584  26.234  35.608  1.00  0.00     0.055 A 
ATOM     84  C   UNL A   1      46.805  28.103  34.712  1.00  0.00     0.041 A 
ATOM     85  F   UNL A   1      45.702  29.684  33.384  1.00  0.00    -0.206 F 
ATOM     86  C   UNL A   1      46.782  26.943  35.479  1.00  0.00     0.022 A 
BRANCH  83  87
ATOM     87  S   UNL A   1      45.508  24.783  36.694  1.00  0.00     0.124 S 
ATOM     88  O   UNL A   1      46.498  23.898  36.087  1.00  0.00    -0.237 OA
ATOM     89  O   UNL A   1      45.864  25.343  37.993  1.00  0.00    -0.237 OA
ATOM     90  O   UNL A   1      44.121  24.335  36.574  1.00  0.00    -0.744 OA
ENDBRANCH  83  87
ENDBRANCH  57  80
ENDBRANCH  31  32
ENDBRANCH  23  26
ENDBRANCH  21  22
ENDBRANCH  20  21
ENDBRANCH   1  20
TORSDOF 18
ENDMDL
MODEL 2
REMARK VINA RESULT:     -11.2      2.309      8.291
REMARK SMILES C[C@@H]1CC(=O)N(CC(C)(C)C(=O)NCCCCCCNC(=O)c2ccc(-c3c4nc(c(-c5cc(S(=O)(=O)[O-])ccc5F)c5ccc([nH]5)c(-c5cc(S(=O)(=O)[O-])ccc5F)c5nc(c(-c6cc(S(=O)(=O)[O-])ccc6F)c6ccc3[nH]6)C=C5)C=C4)cc2)C1
REMARK SMILES IDX 17 1 16 2 15 3 14 4 13 5 11 6 12 7 8 9 9 10 10 11 7 12 6 13
REMARK SMILES IDX 1 14 2 15 3 16 86 17 4 18 5 19 18 20 19 21 20 22 21 23 22 25
REMARK SMILES IDX 23 26 24 27 85 28 25 29 84 30 26 31 27 32 28 33 78 34 29 35
REMARK SMILES IDX 83 36 77 37 79 38 30 39 82 40 76 41 75 42 31 44 63 45 43 46
REMARK SMILES IDX 62 47 44 48 47 49 61 50 80 51 45 52 46 53 60 55 81 56 48 57
REMARK SMILES IDX 32 58 33 59 41 60 34 61 40 62 42 63 39 64 35 65 36 66 37 67
REMARK SMILES IDX 38 68 64 69 65 70 73 71 66 72 72 73 74 74 71 75 67 76 68 77
REMARK SMILES IDX 69 78 70 79 49 80 50 81 58 82 51 83 57 84 59 85 56 86 52 87
REMARK SMILES IDX 53 88 54 89 55 90
REMARK H PARENT 13 8 20 24 79 43 47 54
REMARK Flexibility Score: inf
ROOT
ATOM      1  C   UNL A   1      31.444  28.101  26.469  1.00  0.00     0.002 C 
ENDROOT
BRANCH   1   2
ATOM      2  C   UNL A   1      31.415  27.784  24.970  1.00  0.00     0.002 C 
BRANCH   2   3
ATOM      3  C   UNL A   1      30.276  26.859  24.525  1.00  0.00     0.021 C 
BRANCH   3   4
ATOM      4  C   UNL A   1      30.657  25.383  24.455  1.00  0.00     0.116 C 
BRANCH   4   5
ATOM      5  N   UNL A   1      30.339  24.716  25.699  1.00  0.00    -0.356 N 
ATOM      6  C   UNL A   1      31.025  23.847  26.484  1.00  0.00     0.227 C 
ATOM      7  O   UNL A   1      30.360  23.357  27.399  1.00  0.00    -0.274 OA
ATOM      8  H   UNL A   1      29.445  24.936  26.045  1.00  0.00     0.163 HD
BRANCH   6   9
ATOM      9  C   UNL A   1      32.509  23.495  26.244  1.00  0.00     0.061 C 
ATOM     10  C   UNL A   1      33.063  22.610  27.377  1.00  0.00     0.023 C 
ATOM     11  C   UNL A   1      33.334  24.794  26.150  1.00  0.00     0.023 C 
BRANCH   9  12
ATOM     12  C   UNL A   1      32.681  22.760  24.867  1.00  0.00     0.135 C 
BRANCH  12  13
ATOM     13  N   UNL A   1      33.094  21.363  24.923  1.00  0.00    -0.341 N 
ATOM     14  C   UNL A   1      32.470  17.764  24.557  1.00  0.00     0.010 C 
ATOM     15  C   UNL A   1      32.936  19.174  24.258  1.00  0.00     0.015 C 
ATOM     16  C   UNL A   1      34.401  19.444  24.612  1.00  0.00     0.105 C 
ATOM     17  C   UNL A   1      32.211  20.236  25.066  1.00  0.00     0.123 C 
ATOM     18  C   UNL A   1      34.420  20.942  24.825  1.00  0.00     0.222 C 
ATOM     19  O   UNL A   1      35.429  21.625  24.937  1.00  0.00    -0.275 OA
ENDBRANCH  12  13
ENDBRANCH   9  12
ENDBRANCH   6   9
ENDBRANCH   4   5
ENDBRANCH   3   4
ENDBRANCH   2   3
ENDBRANCH   1   2
BRANCH   1  20
ATOM     20  C   UNL A   1      32.843  28.261  27.065  1.00  0.00     0.021 C 
BRANCH  20  21
ATOM     21  C   UNL A   1      33.793  29.102  26.220  1.00  0.00     0.116 C 
BRANCH  21  22
ATOM     22  N   UNL A   1      33.809  30.493  26.643  1.00  0.00    -0.352 N 
ATOM     23  C   UNL A   1      34.651  31.104  27.539  1.00  0.00     0.251 C 
ATOM     24  H   UNL A   1      33.127  31.073  26.232  1.00  0.00     0.163 HD
ATOM     25  O   UNL A   1      34.408  32.234  27.949  1.00  0.00    -0.269 OA
BRANCH  23  26
ATOM     26  C   UNL A   1      35.838  30.366  28.020  1.00  0.00     0.039 A 
ATOM     27  C   UNL A   1      37.021  30.414  27.281  1.00  0.00     0.014 A 
ATOM     28  C   UNL A   1      35.784  29.667  29.230  1.00  0.00     0.014 A 
ATOM     29  C   UNL A   1      38.176  29.814  27.791  1.00  0.00     0.010 A 
ATOM     30  C   UNL A   1      36.950  29.142  29.771  1.00  0.00     0.010 A 
ATOM     31  C   UNL A   1      38.158  29.207  29.057  1.00  0.00    -0.014 A 
BRANCH  31  32
ATOM     32  C   UNL A   1      39.377  28.608  29.660  1.00  0.00     0.031 A 
ATOM     33  C   UNL A   1      40.008  29.265  30.855  1.00  0.00     0.074 A 
ATOM     34  C   UNL A   1      39.971  27.550  29.075  1.00  0.00     0.049 A 
ATOM     35  N   UNL A   1      41.158  29.020  31.427  1.00  0.00    -0.248 NA
ATOM     36  C   UNL A   1      39.259  30.378  31.456  1.00  0.00     0.031 C 
ATOM     37  C   UNL A   1      39.469  26.846  27.894  1.00  0.00     0.029 A 
ATOM     38  N   UNL A   1      41.143  26.901  29.376  1.00  0.00    -0.354 N 
ATOM     39  C   UNL A   1      41.285  29.969  32.437  1.00  0.00     0.074 A 
ATOM     40  C   UNL A   1      40.121  30.826  32.353  1.00  0.00     0.031 C 
ATOM     41  C   UNL A   1      40.325  25.864  27.572  1.00  0.00     0.029 A 
ATOM     42  C   UNL A   1      41.467  25.906  28.482  1.00  0.00     0.049 A 
ATOM     43  H   UNL A   1      41.700  27.126  30.155  1.00  0.00     0.167 HD
ATOM     44  C   UNL A   1      42.273  30.100  33.356  1.00  0.00     0.034 A 
ATOM     45  C   UNL A   1      42.571  25.138  28.382  1.00  0.00     0.034 A 
ATOM     46  C   UNL A   1      43.418  29.224  33.422  1.00  0.00     0.049 A 
ATOM     47  C   UNL A   1      43.678  25.315  29.390  1.00  0.00     0.074 A 
ATOM     48  C   UNL A   1      44.442  29.215  34.352  1.00  0.00     0.029 A 
ATOM     49  N   UNL A   1      43.701  28.214  32.510  1.00  0.00    -0.354 N 
ATOM     50  N   UNL A   1      43.766  26.182  30.373  1.00  0.00    -0.248 NA
ATOM     51  C   UNL A   1      44.830  24.410  29.284  1.00  0.00     0.031 C 
ATOM     52  C   UNL A   1      45.387  28.267  33.950  1.00  0.00     0.029 A 
ATOM     53  C   UNL A   1      44.907  27.608  32.830  1.00  0.00     0.049 A 
ATOM     54  H   UNL A   1      43.130  27.965  31.747  1.00  0.00     0.167 HD
ATOM     55  C   UNL A   1      44.965  25.903  31.023  1.00  0.00     0.074 A 
ATOM     56  C   UNL A   1      45.569  24.792  30.317  1.00  0.00     0.031 C 
ATOM     57  C   UNL A   1      45.505  26.503  32.114  1.00  0.00     0.034 A 
BRANCH  44  58
ATOM     58  C   UNL A   1      42.174  31.259  34.322  1.00  0.00     0.023 A 
ATOM     59  C   UNL A   1      41.249  31.268  35.380  1.00  0.00     0.031 A 
ATOM     60  C   UNL A   1      42.974  32.401  34.145  1.00  0.00     0.131 A 
ATOM     61  C   UNL A   1      41.068  32.430  36.144  1.00  0.00     0.055 A 
ATOM     62  C   UNL A   1      42.863  33.518  34.976  1.00  0.00     0.041 A 
ATOM     63  F   UNL A   1      43.863  32.466  33.140  1.00  0.00    -0.206 F 
ATOM     64  C   UNL A   1      41.889  33.546  35.969  1.00  0.00     0.022 A 
BRANCH  61  65
ATOM     65  S   UNL A   1      39.614  32.533  37.224  1.00  0.00     0.124 S 
ATOM     66  O   UNL A   1      38.971  33.752  36.739  1.00  0.00    -0.237 OA
ATOM     67  O   UNL A   1      38.918  31.285  36.934  1.00  0.00    -0.237 OA
ATOM     68  O   UNL A   1      40.189  32.632  38.564  1.00  0.00    -0.744 OA
ENDBRANCH  61  65
ENDBRANCH  44  58
BRANCH  45  69
ATOM     69  C   UNL A   1      42.693  24.161  27.263  1.00  0.00     0.023 A 
ATOM     70  C   UNL A   1      42.104  22.888  27.333  1.00  0.00     0.031 A 
ATOM     71  C   UNL A   1      43.398  24.498  26.092  1.00  0.00     0.131 A 
ATOM     72  C   UNL A   1      42.251  21.991  26.263  1.00  0.00     0.055 A 
ATOM     73  C   UNL A   1      43.497  23.621  25.010  1.00  0.00     0.041 A 
ATOM     74  F   UNL A   1      43.975  25.704  25.970  1.00  0.00    -0.206 F 
ATOM     75  C   UNL A   1      42.928  22.355  25.095  1.00  0.00     0.022 A 
BRANCH  72  76
ATOM     76  S   UNL A   1      41.587  20.312  26.434  1.00  0.00     0.124 S 
ATOM     77  O   UNL A   1      42.278  19.610  25.357  1.00  0.00    -0.237 OA
ATOM     78  O   UNL A   1      41.992  19.963  27.791  1.00  0.00    -0.237 OA
ATOM     79  O   UNL A   1      40.150  20.492  26.241  1.00  0.00    -0.744 OA
ENDBRANCH  72  76
ENDBRANCH  45  69
BRANCH  57  80
ATOM     80  C   UNL A   1      46.790  25.933  32.665  1.00  0.00     0.023 A 
ATOM     81  C   UNL A   1      46.809  24.874  33.588  1.00  0.00     0.031 A 
ATOM     82  C   UNL A   1      48.023  26.434  32.207  1.00  0.00     0.131 A 
ATOM     83  C   UNL A   1      48.037  24.364  34.039  1.00  0.00     0.055 A 
ATOM     84  C   UNL A   1      49.239  25.887  32.616  1.00  0.00     0.041 A 
ATOM     85  F   UNL A   1      48.063  27.450  31.330  1.00  0.00    -0.206 F 
ATOM     86  C   UNL A   1      49.250  24.849  33.541  1.00  0.00     0.022 A 
BRANCH  83  87
ATOM     87  S   UNL A   1      48.037  23.089  35.330  1.00  0.00     0.124 S 
ATOM     88  O   UNL A   1      47.805  23.880  36.535  1.00  0.00    -0.237 OA
ATOM     89  O   UNL A   1      46.941  22.221  34.915  1.00  0.00    -0.237 OA
ATOM     90  O   UNL A   1      49.369  22.495  35.226  1.00  0.00    -0.744 OA
ENDBRANCH  83  87
ENDBRANCH  57  80
ENDBRANCH  31  32
ENDBRANCH  23  26
ENDBRANCH  21  22
ENDBRANCH  20  21
ENDBRANCH   1  20
TORSDOF 18
ENDMDL
MODEL 3
REMARK VINA RESULT:     -11.1      1.650      2.054
REMARK SMILES C[C@@H]1CC(=O)N(CC(C)(C)C(=O)NCCCCCCNC(=O)c2ccc(-c3c4nc(c(-c5cc(S(=O)(=O)[O-])ccc5F)c5ccc([nH]5)c(-c5cc(S(=O)(=O)[O-])ccc5F)c5nc(c(-c6cc(S(=O)(=O)[O-])ccc6F)c6ccc3[nH]6)C=C5)C=C4)cc2)C1
REMARK SMILES IDX 17 1 16 2 15 3 14 4 13 5 11 6 12 7 8 9 9 10 10 11 7 12 6 13
REMARK SMILES IDX 1 14 2 15 3 16 86 17 4 18 5 19 18 20 19 21 20 22 21 23 22 25
REMARK SMILES IDX 23 26 24 27 85 28 25 29 84 30 26 31 27 32 28 33 78 34 29 35
REMARK SMILES IDX 83 36 77 37 79 38 30 39 82 40 76 41 75 42 31 44 63 45 43 46
REMARK SMILES IDX 62 47 44 48 47 49 61 50 80 51 45 52 46 53 60 55 81 56 48 57
REMARK SMILES IDX 32 58 33 59 41 60 34 61 40 62 42 63 39 64 35 65 36 66 37 67
REMARK SMILES IDX 38 68 64 69 65 70 73 71 66 72 72 73 74 74 71 75 67 76 68 77
REMARK SMILES IDX 69 78 70 79 49 80 50 81 58 82 51 83 57 84 59 85 56 86 52 87
REMARK SMILES IDX 53 88 54 89 55 90
REMARK H PARENT 13 8 20 24 79 43 47 54
REMARK Flexibility Score: inf
ROOT
ATOM      1  C   UNL A   1      31.069  29.526  24.608  1.00  0.00     0.002 C 
ENDROOT
BRANCH   1   2
ATOM      2  C   UNL A   1      30.706  28.063  24.332  1.00  0.00     0.002 C 
BRANCH   2   3
ATOM      3  C   UNL A   1      30.841  27.123  25.535  1.00  0.00     0.021 C 
BRANCH   3   4
ATOM      4  C   UNL A   1      31.044  25.656  25.164  1.00  0.00     0.116 C 
BRANCH   4   5
ATOM      5  N   UNL A   1      30.621  24.794  26.245  1.00  0.00    -0.356 N 
ATOM      6  C   UNL A   1      31.171  23.694  26.820  1.00  0.00     0.227 C 
ATOM      7  O   UNL A   1      30.433  23.120  27.624  1.00  0.00    -0.274 OA
ATOM      8  H   UNL A   1      29.762  25.058  26.644  1.00  0.00     0.163 HD
BRANCH   6   9
ATOM      9  C   UNL A   1      32.595  23.200  26.488  1.00  0.00     0.061 C 
ATOM     10  C   UNL A   1      33.127  22.255  27.583  1.00  0.00     0.023 C 
ATOM     11  C   UNL A   1      33.537  24.412  26.346  1.00  0.00     0.023 C 
BRANCH   9  12
ATOM     12  C   UNL A   1      32.609  22.463  25.101  1.00  0.00     0.135 C 
BRANCH  12  13
ATOM     13  N   UNL A   1      33.751  21.597  24.837  1.00  0.00    -0.341 N 
ATOM     14  C   UNL A   1      37.355  20.927  24.641  1.00  0.00     0.010 C 
ATOM     15  C   UNL A   1      35.931  20.964  25.158  1.00  0.00     0.015 C 
ATOM     16  C   UNL A   1      35.121  19.697  24.865  1.00  0.00     0.105 C 
ATOM     17  C   UNL A   1      35.081  22.044  24.514  1.00  0.00     0.123 C 
ATOM     18  C   UNL A   1      33.695  20.205  24.884  1.00  0.00     0.222 C 
ATOM     19  O   UNL A   1      32.696  19.499  24.889  1.00  0.00    -0.275 OA
ENDBRANCH  12  13
ENDBRANCH   9  12
ENDBRANCH   6   9
ENDBRANCH   4   5
ENDBRANCH   3   4
ENDBRANCH   2   3
ENDBRANCH   1   2
BRANCH   1  20
ATOM     20  C   UNL A   1      32.369  29.730  25.388  1.00  0.00     0.021 C 
BRANCH  20  21
ATOM     21  C   UNL A   1      32.175  30.262  26.802  1.00  0.00     0.116 C 
BRANCH  21  22
ATOM     22  N   UNL A   1      32.038  31.710  26.824  1.00  0.00    -0.352 N 
ATOM     23  C   UNL A   1      32.846  32.636  27.438  1.00  0.00     0.251 C 
ATOM     24  H   UNL A   1      31.266  32.074  26.334  1.00  0.00     0.163 HD
ATOM     25  O   UNL A   1      32.485  33.803  27.543  1.00  0.00    -0.269 OA
BRANCH  23  26
ATOM     26  C   UNL A   1      34.142  32.194  27.994  1.00  0.00     0.039 A 
ATOM     27  C   UNL A   1      35.198  33.103  28.076  1.00  0.00     0.014 A 
ATOM     28  C   UNL A   1      34.288  30.890  28.476  1.00  0.00     0.014 A 
ATOM     29  C   UNL A   1      36.386  32.723  28.707  1.00  0.00     0.010 A 
ATOM     30  C   UNL A   1      35.439  30.541  29.171  1.00  0.00     0.010 A 
ATOM     31  C   UNL A   1      36.501  31.452  29.292  1.00  0.00    -0.014 A 
BRANCH  31  32
ATOM     32  C   UNL A   1      37.725  31.029  30.021  1.00  0.00     0.031 A 
ATOM     33  C   UNL A   1      38.673  30.061  29.372  1.00  0.00     0.074 A 
ATOM     34  C   UNL A   1      37.924  31.423  31.294  1.00  0.00     0.049 A 
ATOM     35  N   UNL A   1      39.695  29.428  29.885  1.00  0.00    -0.248 NA
ATOM     36  C   UNL A   1      38.403  29.732  27.965  1.00  0.00     0.031 C 
ATOM     37  C   UNL A   1      37.058  32.336  32.041  1.00  0.00     0.029 A 
ATOM     38  N   UNL A   1      38.903  31.083  32.195  1.00  0.00    -0.354 N 
ATOM     39  C   UNL A   1      40.172  28.601  28.873  1.00  0.00     0.074 A 
ATOM     40  C   UNL A   1      39.286  28.773  27.741  1.00  0.00     0.031 C 
ATOM     41  C   UNL A   1      37.544  32.484  33.283  1.00  0.00     0.029 A 
ATOM     42  C   UNL A   1      38.718  31.631  33.443  1.00  0.00     0.049 A 
ATOM     43  H   UNL A   1      39.665  30.501  31.970  1.00  0.00     0.167 HD
ATOM     44  C   UNL A   1      41.256  27.787  28.885  1.00  0.00     0.034 A 
ATOM     45  C   UNL A   1      39.392  31.443  34.596  1.00  0.00     0.034 A 
ATOM     46  C   UNL A   1      42.128  27.641  30.026  1.00  0.00     0.049 A 
ATOM     47  C   UNL A   1      40.576  30.509  34.605  1.00  0.00     0.074 A 
ATOM     48  C   UNL A   1      43.294  26.904  30.130  1.00  0.00     0.029 A 
ATOM     49  N   UNL A   1      41.917  28.229  31.268  1.00  0.00    -0.354 N 
ATOM     50  N   UNL A   1      41.050  29.770  33.629  1.00  0.00    -0.248 NA
ATOM     51  C   UNL A   1      41.323  30.388  35.865  1.00  0.00     0.031 C 
ATOM     52  C   UNL A   1      43.735  26.970  31.454  1.00  0.00     0.029 A 
ATOM     53  C   UNL A   1      42.907  27.833  32.156  1.00  0.00     0.049 A 
ATOM     54  H   UNL A   1      41.174  28.837  31.487  1.00  0.00     0.167 HD
ATOM     55  C   UNL A   1      42.169  29.124  34.147  1.00  0.00     0.074 A 
ATOM     56  C   UNL A   1      42.297  29.556  35.523  1.00  0.00     0.031 C 
ATOM     57  C   UNL A   1      43.021  28.265  33.530  1.00  0.00     0.034 A 
BRANCH  44  58
ATOM     58  C   UNL A   1      41.519  26.962  27.645  1.00  0.00     0.023 A 
ATOM     59  C   UNL A   1      41.208  25.592  27.584  1.00  0.00     0.031 A 
ATOM     60  C   UNL A   1      42.148  27.539  26.528  1.00  0.00     0.131 A 
ATOM     61  C   UNL A   1      41.626  24.827  26.486  1.00  0.00     0.055 A 
ATOM     62  C   UNL A   1      42.467  26.792  25.392  1.00  0.00     0.041 A 
ATOM     63  F   UNL A   1      42.491  28.837  26.530  1.00  0.00    -0.206 F 
ATOM     64  C   UNL A   1      42.227  25.422  25.375  1.00  0.00     0.022 A 
BRANCH  61  65
ATOM     65  S   UNL A   1      41.556  23.018  26.621  1.00  0.00     0.124 S 
ATOM     66  O   UNL A   1      40.126  22.793  26.825  1.00  0.00    -0.237 OA
ATOM     67  O   UNL A   1      42.094  22.586  25.337  1.00  0.00    -0.237 OA
ATOM     68  O   UNL A   1      42.396  22.729  27.782  1.00  0.00    -0.744 OA
ENDBRANCH  61  65
ENDBRANCH  44  58
BRANCH  45  69
ATOM     69  C   UNL A   1      38.935  32.126  35.840  1.00  0.00     0.023 A 
ATOM     70  C   UNL A   1      38.193  31.447  36.819  1.00  0.00     0.031 A 
ATOM     71  C   UNL A   1      39.251  33.478  36.070  1.00  0.00     0.131 A 
ATOM     72  C   UNL A   1      37.771  32.128  37.972  1.00  0.00     0.055 A 
ATOM     73  C   UNL A   1      38.871  34.137  37.242  1.00  0.00     0.041 A 
ATOM     74  F   UNL A   1      39.963  34.173  35.169  1.00  0.00    -0.206 F 
ATOM     75  C   UNL A   1      38.120  33.462  38.198  1.00  0.00     0.022 A 
BRANCH  72  76
ATOM     76  S   UNL A   1      36.708  31.260  39.158  1.00  0.00     0.124 S 
ATOM     77  O   UNL A   1      37.571  31.193  40.333  1.00  0.00    -0.237 OA
ATOM     78  O   UNL A   1      35.563  32.159  39.253  1.00  0.00    -0.237 OA
ATOM     79  O   UNL A   1      36.441  29.981  38.504  1.00  0.00    -0.744 OA
ENDBRANCH  72  76
ENDBRANCH  45  69
BRANCH  57  80
ATOM     80  C   UNL A   1      44.216  27.777  34.315  1.00  0.00     0.023 A 
ATOM     81  C   UNL A   1      44.222  26.544  34.987  1.00  0.00     0.031 A 
ATOM     82  C   UNL A   1      45.393  28.550  34.337  1.00  0.00     0.131 A 
ATOM     83  C   UNL A   1      45.376  26.129  35.672  1.00  0.00     0.055 A 
ATOM     84  C   UNL A   1      46.553  28.107  34.972  1.00  0.00     0.041 A 
ATOM     85  F   UNL A   1      45.440  29.740  33.717  1.00  0.00    -0.206 F 
ATOM     86  C   UNL A   1      46.547  26.892  35.648  1.00  0.00     0.022 A 
BRANCH  83  87
ATOM     87  S   UNL A   1      45.316  24.598  36.644  1.00  0.00     0.124 S 
ATOM     88  O   UNL A   1      45.286  25.110  38.011  1.00  0.00    -0.237 OA
ATOM     89  O   UNL A   1      44.088  23.972  36.169  1.00  0.00    -0.237 OA
ATOM     90  O   UNL A   1      46.548  23.905  36.269  1.00  0.00    -0.744 OA
ENDBRANCH  83  87
ENDBRANCH  57  80
ENDBRANCH  31  32
ENDBRANCH  23  26
ENDBRANCH  21  22
ENDBRANCH  20  21
ENDBRANCH   1  20
TORSDOF 18
ENDMDL
