MODEL 1
REMARK VINA RESULT:     -12.4      0.000      0.000
REMARK SMILES O=C(NCCCCCCNC(=O)c1ccc(-c2c3nc(c(-c4cc(S(=O)(=O)[O-])ccc4F)c4ccc([nH]4)c(-c4cc(S(=O)(=O)[O-])ccc4F)c4nc(c(-c5cc(S(=O)(=O)[O-])ccc5F)c5ccc2[nH]5)C=C4)C=C3)cc1)C1=Cc2cc(Cl)cc(-c3ccccc3)c2O[C@@H]1C(F)(F)F
REMARK SMILES IDX 7 1 6 2 5 3 4 4 3 5 1 6 2 7 76 9 77 10 92 11 78 12 91 13
REMARK SMILES IDX 79 14 90 15 80 16 83 17 81 18 82 19 93 20 94 21 95 22 96 23
REMARK SMILES IDX 84 24 85 25 89 26 86 27 88 28 87 29 8 30 9 31 10 32 11 33
REMARK SMILES IDX 12 35 13 36 14 37 75 38 15 39 74 40 16 41 17 42 18 43 68 44
REMARK SMILES IDX 19 45 73 46 67 47 69 48 20 49 72 50 66 51 65 52 21 54 53 55
REMARK SMILES IDX 33 56 52 57 34 58 37 59 51 60 70 61 35 62 36 63 50 65 71 66
REMARK SMILES IDX 38 67 22 68 23 69 31 70 24 71 30 72 32 73 29 74 25 75 26 76
REMARK SMILES IDX 27 77 28 78 54 79 55 80 63 81 56 82 62 83 64 84 61 85 57 86
REMARK SMILES IDX 58 87 59 88 60 89 39 90 40 91 48 92 41 93 47 94 49 95 46 96
REMARK SMILES IDX 42 97 43 98 44 99 45 100
REMARK H PARENT 3 8 10 34 69 53 37 64
REMARK Flexibility Score: inf
ROOT
ATOM      1  C   UNL A   1      31.577  28.990  25.160  1.00  0.00     0.002 C 
ENDROOT
BRANCH   1   2
ATOM      2  C   UNL A   1      30.575  28.648  24.054  1.00  0.00     0.002 C 
BRANCH   2   3
ATOM      3  C   UNL A   1      31.131  28.446  22.642  1.00  0.00     0.021 C 
BRANCH   3   4
ATOM      4  C   UNL A   1      30.890  27.094  21.976  1.00  0.00     0.116 C 
BRANCH   4   5
ATOM      5  N   UNL A   1      32.066  26.296  21.673  1.00  0.00    -0.352 N 
ATOM      6  O   UNL A   1      33.504  24.581  21.804  1.00  0.00    -0.270 OA
ATOM      7  C   UNL A   1      32.557  25.188  22.309  1.00  0.00     0.251 C 
ATOM      8  H   UNL A   1      32.589  26.599  20.895  1.00  0.00     0.163 HD
BRANCH   7   9
ATOM      9  C   UNL A   1      31.959  24.622  23.563  1.00  0.00     0.067 C 
ATOM     10  C   UNL A   1      31.407  23.398  23.635  1.00  0.00     0.025 C 
ATOM     11  C   UNL A   1      32.681  25.112  24.804  1.00  0.00     0.314 C 
ATOM     12  C   UNL A   1      32.351  22.424  24.257  1.00  0.00     0.019 A 
ATOM     13  O   UNL A   1      33.777  24.209  25.122  1.00  0.00    -0.475 OA
ATOM     14  C   UNL A   1      32.146  21.068  23.987  1.00  0.00     0.032 A 
ATOM     15  C   UNL A   1      33.567  22.878  24.823  1.00  0.00     0.135 A 
ATOM     16  C   UNL A   1      33.191  20.177  24.180  1.00  0.00     0.042 A 
ATOM     17  C   UNL A   1      34.642  21.986  24.965  1.00  0.00     0.026 A 
ATOM     18  Cl  UNL A   1      33.016  18.543  23.671  1.00  0.00    -0.084 Cl
ATOM     19  C   UNL A   1      34.425  20.628  24.643  1.00  0.00     0.033 A 
BRANCH  11  20
ATOM     20  C   UNL A   1      31.728  25.344  25.994  1.00  0.00     0.429 C 
ATOM     21  F   UNL A   1      31.605  24.235  26.761  1.00  0.00    -0.167 F 
ATOM     22  F   UNL A   1      32.190  26.329  26.806  1.00  0.00    -0.167 F 
ATOM     23  F   UNL A   1      30.480  25.708  25.614  1.00  0.00    -0.167 F 
ENDBRANCH  11  20
BRANCH  17  24
ATOM     24  C   UNL A   1      36.039  22.401  25.185  1.00  0.00    -0.015 A 
ATOM     25  C   UNL A   1      37.070  21.457  25.043  1.00  0.00     0.009 A 
ATOM     26  C   UNL A   1      36.358  23.638  25.754  1.00  0.00     0.009 A 
ATOM     27  C   UNL A   1      38.342  21.679  25.573  1.00  0.00     0.001 A 
ATOM     28  C   UNL A   1      37.645  23.883  26.245  1.00  0.00     0.001 A 
ATOM     29  C   UNL A   1      38.623  22.892  26.191  1.00  0.00     0.000 A 
ENDBRANCH  17  24
ENDBRANCH   7   9
ENDBRANCH   4   5
ENDBRANCH   3   4
ENDBRANCH   2   3
ENDBRANCH   1   2
BRANCH   1  30
ATOM     30  C   UNL A   1      33.063  28.871  24.818  1.00  0.00     0.021 C 
BRANCH  30  31
ATOM     31  C   UNL A   1      34.014  29.032  25.997  1.00  0.00     0.116 C 
BRANCH  31  32
ATOM     32  N   UNL A   1      33.867  30.319  26.665  1.00  0.00    -0.352 N 
ATOM     33  C   UNL A   1      34.593  30.885  27.682  1.00  0.00     0.251 C 
ATOM     34  H   UNL A   1      33.124  30.872  26.333  1.00  0.00     0.163 HD
ATOM     35  O   UNL A   1      34.173  31.914  28.215  1.00  0.00    -0.269 OA
BRANCH  33  36
ATOM     36  C   UNL A   1      35.851  30.265  28.156  1.00  0.00     0.039 A 
ATOM     37  C   UNL A   1      36.975  30.279  27.323  1.00  0.00     0.014 A 
ATOM     38  C   UNL A   1      35.929  29.653  29.408  1.00  0.00     0.014 A 
ATOM     39  C   UNL A   1      38.181  29.738  27.772  1.00  0.00     0.010 A 
ATOM     40  C   UNL A   1      37.156  29.215  29.896  1.00  0.00     0.010 A 
ATOM     41  C   UNL A   1      38.293  29.234  29.078  1.00  0.00    -0.014 A 
BRANCH  41  42
ATOM     42  C   UNL A   1      39.576  28.686  29.592  1.00  0.00     0.031 A 
ATOM     43  C   UNL A   1      40.290  29.386  30.720  1.00  0.00     0.074 A 
ATOM     44  C   UNL A   1      40.123  27.597  29.014  1.00  0.00     0.049 A 
ATOM     45  N   UNL A   1      41.457  29.126  31.252  1.00  0.00    -0.248 NA
ATOM     46  C   UNL A   1      39.618  30.559  31.302  1.00  0.00     0.031 C 
ATOM     47  C   UNL A   1      39.549  26.864  27.883  1.00  0.00     0.029 A 
ATOM     48  N   UNL A   1      41.286  26.921  29.288  1.00  0.00    -0.354 N 
ATOM     49  C   UNL A   1      41.659  30.105  32.219  1.00  0.00     0.074 A 
ATOM     50  C   UNL A   1      40.536  31.013  32.138  1.00  0.00     0.031 C 
ATOM     51  C   UNL A   1      40.344  25.824  27.583  1.00  0.00     0.029 A 
ATOM     52  C   UNL A   1      41.510  25.846  28.458  1.00  0.00     0.049 A 
ATOM     53  H   UNL A   1      41.902  27.181  30.011  1.00  0.00     0.167 HD
ATOM     54  C   UNL A   1      42.669  30.217  33.117  1.00  0.00     0.034 A 
ATOM     55  C   UNL A   1      42.547  24.985  28.401  1.00  0.00     0.034 A 
ATOM     56  C   UNL A   1      43.774  29.295  33.192  1.00  0.00     0.049 A 
ATOM     57  C   UNL A   1      43.674  25.146  29.390  1.00  0.00     0.074 A 
ATOM     58  C   UNL A   1      44.834  29.288  34.080  1.00  0.00     0.029 A 
ATOM     59  N   UNL A   1      43.962  28.211  32.341  1.00  0.00    -0.354 N 
ATOM     60  N   UNL A   1      43.828  26.054  30.327  1.00  0.00    -0.248 NA
ATOM     61  C   UNL A   1      44.759  24.158  29.326  1.00  0.00     0.031 C 
ATOM     62  C   UNL A   1      45.697  28.246  33.724  1.00  0.00     0.029 A 
ATOM     63  C   UNL A   1      45.134  27.548  32.668  1.00  0.00     0.049 A 
ATOM     64  H   UNL A   1      43.353  27.953  31.612  1.00  0.00     0.167 HD
ATOM     65  C   UNL A   1      45.012  25.726  30.984  1.00  0.00     0.074 A 
ATOM     66  C   UNL A   1      45.517  24.527  30.347  1.00  0.00     0.031 C 
ATOM     67  C   UNL A   1      45.626  26.355  32.017  1.00  0.00     0.034 A 
BRANCH  54  68
ATOM     68  C   UNL A   1      42.621  31.385  34.076  1.00  0.00     0.023 A 
ATOM     69  C   UNL A   1      41.763  31.385  35.191  1.00  0.00     0.031 A 
ATOM     70  C   UNL A   1      43.415  32.524  33.862  1.00  0.00     0.131 A 
ATOM     71  C   UNL A   1      41.660  32.528  35.999  1.00  0.00     0.055 A 
ATOM     72  C   UNL A   1      43.374  33.623  34.722  1.00  0.00     0.041 A 
ATOM     73  F   UNL A   1      44.237  32.595  32.802  1.00  0.00    -0.206 F 
ATOM     74  C   UNL A   1      42.481  33.637  35.789  1.00  0.00     0.022 A 
BRANCH  71  75
ATOM     75  S   UNL A   1      40.328  32.600  37.229  1.00  0.00     0.124 S 
ATOM     76  O   UNL A   1      41.062  32.363  38.469  1.00  0.00    -0.237 OA
ATOM     77  O   UNL A   1      39.801  33.947  37.045  1.00  0.00    -0.237 OA
ATOM     78  O   UNL A   1      39.433  31.517  36.827  1.00  0.00    -0.744 OA
ENDBRANCH  71  75
ENDBRANCH  54  68
BRANCH  55  79
ATOM     79  C   UNL A   1      42.584  23.911  27.364  1.00  0.00     0.023 A 
ATOM     80  C   UNL A   1      41.999  22.655  27.594  1.00  0.00     0.031 A 
ATOM     81  C   UNL A   1      43.250  24.109  26.142  1.00  0.00     0.131 A 
ATOM     82  C   UNL A   1      42.140  21.631  26.645  1.00  0.00     0.055 A 
ATOM     83  C   UNL A   1      43.333  23.107  25.172  1.00  0.00     0.041 A 
ATOM     84  F   UNL A   1      43.826  25.290  25.865  1.00  0.00    -0.206 F 
ATOM     85  C   UNL A   1      42.789  21.853  25.428  1.00  0.00     0.022 A 
BRANCH  82  86
ATOM     86  S   UNL A   1      41.555  19.966  27.068  1.00  0.00     0.124 S 
ATOM     87  O   UNL A   1      40.969  19.529  25.806  1.00  0.00    -0.237 OA
ATOM     88  O   UNL A   1      42.792  19.303  27.466  1.00  0.00    -0.237 OA
ATOM     89  O   UNL A   1      40.602  20.206  28.149  1.00  0.00    -0.744 OA
ENDBRANCH  82  86
ENDBRANCH  55  79
BRANCH  67  90
ATOM     90  C   UNL A   1      46.887  25.725  32.555  1.00  0.00     0.023 A 
ATOM     91  C   UNL A   1      46.865  24.827  33.637  1.00  0.00     0.031 A 
ATOM     92  C   UNL A   1      48.133  26.034  31.979  1.00  0.00     0.131 A 
ATOM     93  C   UNL A   1      48.068  24.317  34.145  1.00  0.00     0.055 A 
ATOM     94  C   UNL A   1      49.320  25.468  32.444  1.00  0.00     0.041 A 
ATOM     95  F   UNL A   1      48.214  26.887  30.945  1.00  0.00    -0.206 F 
ATOM     96  C   UNL A   1      49.293  24.615  33.543  1.00  0.00     0.022 A 
BRANCH  93  97
ATOM     97  S   UNL A   1      48.022  23.336  35.670  1.00  0.00     0.124 S 
ATOM     98  O   UNL A   1      47.859  24.368  36.689  1.00  0.00    -0.237 OA
ATOM     99  O   UNL A   1      46.867  22.470  35.450  1.00  0.00    -0.237 OA
ATOM    100  O   UNL A   1      49.314  22.654  35.679  1.00  0.00    -0.744 OA
ENDBRANCH  93  97
ENDBRANCH  67  90
ENDBRANCH  41  42
ENDBRANCH  33  36
ENDBRANCH  31  32
ENDBRANCH  30  31
ENDBRANCH   1  30
TORSDOF 18
ENDMDL
MODEL 2
REMARK VINA RESULT:     -12.4      1.457      2.472
REMARK SMILES O=C(NCCCCCCNC(=O)c1ccc(-c2c3nc(c(-c4cc(S(=O)(=O)[O-])ccc4F)c4ccc([nH]4)c(-c4cc(S(=O)(=O)[O-])ccc4F)c4nc(c(-c5cc(S(=O)(=O)[O-])ccc5F)c5ccc2[nH]5)C=C4)C=C3)cc1)C1=Cc2cc(Cl)cc(-c3ccccc3)c2O[C@@H]1C(F)(F)F
REMARK SMILES IDX 7 1 6 2 5 3 4 4 3 5 1 6 2 7 76 9 77 10 92 11 78 12 91 13
REMARK SMILES IDX 79 14 90 15 80 16 83 17 81 18 82 19 93 20 94 21 95 22 96 23
REMARK SMILES IDX 84 24 85 25 89 26 86 27 88 28 87 29 8 30 9 31 10 32 11 33
REMARK SMILES IDX 12 35 13 36 14 37 75 38 15 39 74 40 16 41 17 42 18 43 68 44
REMARK SMILES IDX 19 45 73 46 67 47 69 48 20 49 72 50 66 51 65 52 21 54 53 55
REMARK SMILES IDX 33 56 52 57 34 58 37 59 51 60 70 61 35 62 36 63 50 65 71 66
REMARK SMILES IDX 38 67 22 68 23 69 31 70 24 71 30 72 32 73 29 74 25 75 26 76
REMARK SMILES IDX 27 77 28 78 54 79 55 80 63 81 56 82 62 83 64 84 61 85 57 86
REMARK SMILES IDX 58 87 59 88 60 89 39 90 40 91 48 92 41 93 47 94 49 95 46 96
REMARK SMILES IDX 42 97 43 98 44 99 45 100
REMARK H PARENT 3 8 10 34 69 53 37 64
REMARK Flexibility Score: inf
ROOT
ATOM      1  C   UNL A   1      32.185  28.830  24.386  1.00  0.00     0.002 C 
ENDROOT
BRANCH   1   2
ATOM      2  C   UNL A   1      31.244  27.628  24.508  1.00  0.00     0.002 C 
BRANCH   2   3
ATOM      3  C   UNL A   1      30.885  27.159  25.920  1.00  0.00     0.021 C 
BRANCH   3   4
ATOM      4  C   UNL A   1      30.150  25.828  26.055  1.00  0.00     0.116 C 
BRANCH   4   5
ATOM      5  N   UNL A   1      30.828  24.780  26.800  1.00  0.00    -0.352 N 
ATOM      6  O   UNL A   1      32.483  23.389  27.393  1.00  0.00    -0.270 OA
ATOM      7  C   UNL A   1      32.027  24.167  26.553  1.00  0.00     0.251 C 
ATOM      8  H   UNL A   1      30.352  24.462  27.603  1.00  0.00     0.163 HD
BRANCH   7   9
ATOM      9  C   UNL A   1      32.860  24.445  25.337  1.00  0.00     0.067 C 
ATOM     10  C   UNL A   1      34.171  24.740  25.389  1.00  0.00     0.025 C 
ATOM     11  C   UNL A   1      32.395  23.642  24.138  1.00  0.00     0.314 C 
ATOM     12  C   UNL A   1      34.999  23.545  25.054  1.00  0.00     0.019 A 
ATOM     13  O   UNL A   1      33.084  22.360  24.110  1.00  0.00    -0.475 OA
ATOM     14  C   UNL A   1      36.322  23.533  25.505  1.00  0.00     0.032 A 
ATOM     15  C   UNL A   1      34.379  22.362  24.585  1.00  0.00     0.135 A 
ATOM     16  C   UNL A   1      36.995  22.323  25.591  1.00  0.00     0.042 A 
ATOM     17  C   UNL A   1      35.040  21.130  24.724  1.00  0.00     0.026 A 
ATOM     18  Cl  UNL A   1      38.550  22.267  26.323  1.00  0.00    -0.084 Cl
ATOM     19  C   UNL A   1      36.360  21.138  25.224  1.00  0.00     0.033 A 
BRANCH  11  20
ATOM     20  C   UNL A   1      32.521  24.422  22.814  1.00  0.00     0.429 C 
ATOM     21  F   UNL A   1      33.006  23.644  21.818  1.00  0.00    -0.167 F 
ATOM     22  F   UNL A   1      31.311  24.877  22.398  1.00  0.00    -0.167 F 
ATOM     23  F   UNL A   1      33.330  25.504  22.908  1.00  0.00    -0.167 F 
ENDBRANCH  11  20
BRANCH  17  24
ATOM     24  C   UNL A   1      34.375  19.819  24.622  1.00  0.00    -0.015 A 
ATOM     25  C   UNL A   1      35.153  18.648  24.630  1.00  0.00     0.009 A 
ATOM     26  C   UNL A   1      33.022  19.703  24.287  1.00  0.00     0.009 A 
ATOM     27  C   UNL A   1      34.641  17.428  24.186  1.00  0.00     0.001 A 
ATOM     28  C   UNL A   1      32.493  18.472  23.886  1.00  0.00     0.001 A 
ATOM     29  C   UNL A   1      33.310  17.346  23.797  1.00  0.00     0.000 A 
ENDBRANCH  17  24
ENDBRANCH   7   9
ENDBRANCH   4   5
ENDBRANCH   3   4
ENDBRANCH   2   3
ENDBRANCH   1   2
BRANCH   1  30
ATOM     30  C   UNL A   1      33.673  28.579  24.634  1.00  0.00     0.021 C 
BRANCH  30  31
ATOM     31  C   UNL A   1      34.124  28.733  26.081  1.00  0.00     0.116 C 
BRANCH  31  32
ATOM     32  N   UNL A   1      33.881  30.070  26.606  1.00  0.00    -0.352 N 
ATOM     33  C   UNL A   1      34.559  30.794  27.554  1.00  0.00     0.251 C 
ATOM     34  H   UNL A   1      33.101  30.529  26.218  1.00  0.00     0.163 HD
ATOM     35  O   UNL A   1      34.063  31.842  27.973  1.00  0.00    -0.269 OA
BRANCH  33  36
ATOM     36  C   UNL A   1      35.856  30.322  28.089  1.00  0.00     0.039 A 
ATOM     37  C   UNL A   1      35.874  29.586  29.278  1.00  0.00     0.014 A 
ATOM     38  C   UNL A   1      37.056  30.613  27.439  1.00  0.00     0.014 A 
ATOM     39  C   UNL A   1      37.085  29.096  29.774  1.00  0.00     0.010 A 
ATOM     40  C   UNL A   1      38.244  30.032  27.872  1.00  0.00     0.010 A 
ATOM     41  C   UNL A   1      38.277  29.282  29.055  1.00  0.00    -0.014 A 
BRANCH  41  42
ATOM     42  C   UNL A   1      39.572  28.738  29.543  1.00  0.00     0.031 A 
ATOM     43  C   UNL A   1      40.316  29.453  30.642  1.00  0.00     0.074 A 
ATOM     44  C   UNL A   1      40.102  27.641  28.966  1.00  0.00     0.049 A 
ATOM     45  N   UNL A   1      41.496  29.198  31.147  1.00  0.00    -0.248 NA
ATOM     46  C   UNL A   1      39.662  30.635  31.225  1.00  0.00     0.031 C 
ATOM     47  C   UNL A   1      39.497  26.893  27.861  1.00  0.00     0.029 A 
ATOM     48  N   UNL A   1      41.270  26.966  29.219  1.00  0.00    -0.354 N 
ATOM     49  C   UNL A   1      41.725  30.190  32.095  1.00  0.00     0.074 A 
ATOM     50  C   UNL A   1      40.602  31.099  32.031  1.00  0.00     0.031 C 
ATOM     51  C   UNL A   1      40.282  25.848  27.555  1.00  0.00     0.029 A 
ATOM     52  C   UNL A   1      41.471  25.879  28.399  1.00  0.00     0.049 A 
ATOM     53  H   UNL A   1      41.905  27.235  29.922  1.00  0.00     0.167 HD
ATOM     54  C   UNL A   1      42.759  30.312  32.965  1.00  0.00     0.034 A 
ATOM     55  C   UNL A   1      42.504  25.015  28.326  1.00  0.00     0.034 A 
ATOM     56  C   UNL A   1      43.863  29.389  33.023  1.00  0.00     0.049 A 
ATOM     57  C   UNL A   1      43.657  25.187  29.284  1.00  0.00     0.074 A 
ATOM     58  C   UNL A   1      44.946  29.391  33.884  1.00  0.00     0.029 A 
ATOM     59  N   UNL A   1      44.027  28.293  32.183  1.00  0.00    -0.354 N 
ATOM     60  N   UNL A   1      43.837  26.108  30.204  1.00  0.00    -0.248 NA
ATOM     61  C   UNL A   1      44.738  24.197  29.205  1.00  0.00     0.031 C 
ATOM     62  C   UNL A   1      45.798  28.344  33.520  1.00  0.00     0.029 A 
ATOM     63  C   UNL A   1      45.205  27.632  32.489  1.00  0.00     0.049 A 
ATOM     64  H   UNL A   1      43.398  28.026  31.474  1.00  0.00     0.167 HD
ATOM     65  C   UNL A   1      45.037  25.787  30.834  1.00  0.00     0.074 A 
ATOM     66  C   UNL A   1      45.523  24.578  30.202  1.00  0.00     0.031 C 
ATOM     67  C   UNL A   1      45.678  26.429  31.842  1.00  0.00     0.034 A 
BRANCH  54  68
ATOM     68  C   UNL A   1      42.737  31.493  33.908  1.00  0.00     0.023 A 
ATOM     69  C   UNL A   1      42.173  31.397  35.194  1.00  0.00     0.031 A 
ATOM     70  C   UNL A   1      43.257  32.738  33.514  1.00  0.00     0.131 A 
ATOM     71  C   UNL A   1      42.068  32.538  36.003  1.00  0.00     0.055 A 
ATOM     72  C   UNL A   1      43.232  33.849  34.360  1.00  0.00     0.041 A 
ATOM     73  F   UNL A   1      43.787  32.900  32.291  1.00  0.00    -0.206 F 
ATOM     74  C   UNL A   1      42.620  33.758  35.606  1.00  0.00     0.022 A 
BRANCH  71  75
ATOM     75  S   UNL A   1      41.064  32.440  37.511  1.00  0.00     0.124 S 
ATOM     76  O   UNL A   1      41.907  31.613  38.370  1.00  0.00    -0.237 OA
ATOM     77  O   UNL A   1      40.937  33.840  37.897  1.00  0.00    -0.237 OA
ATOM     78  O   UNL A   1      39.831  31.801  37.059  1.00  0.00    -0.744 OA
ENDBRANCH  71  75
ENDBRANCH  54  68
BRANCH  55  79
ATOM     79  C   UNL A   1      42.512  23.927  27.304  1.00  0.00     0.023 A 
ATOM     80  C   UNL A   1      41.938  22.673  27.570  1.00  0.00     0.031 A 
ATOM     81  C   UNL A   1      43.140  24.109  26.060  1.00  0.00     0.131 A 
ATOM     82  C   UNL A   1      42.053  21.636  26.631  1.00  0.00     0.055 A 
ATOM     83  C   UNL A   1      43.195  23.094  25.102  1.00  0.00     0.041 A 
ATOM     84  F   UNL A   1      43.704  25.287  25.749  1.00  0.00    -0.206 F 
ATOM     85  C   UNL A   1      42.663  21.843  25.392  1.00  0.00     0.022 A 
BRANCH  82  86
ATOM     86  S   UNL A   1      41.485  19.976  27.095  1.00  0.00     0.124 S 
ATOM     87  O   UNL A   1      40.722  19.584  25.916  1.00  0.00    -0.237 OA
ATOM     88  O   UNL A   1      42.746  19.274  27.308  1.00  0.00    -0.237 OA
ATOM     89  O   UNL A   1      40.694  20.212  28.301  1.00  0.00    -0.744 OA
ENDBRANCH  82  86
ENDBRANCH  55  79
BRANCH  67  90
ATOM     90  C   UNL A   1      46.952  25.804  32.356  1.00  0.00     0.023 A 
ATOM     91  C   UNL A   1      46.961  24.945  33.469  1.00  0.00     0.031 A 
ATOM     92  C   UNL A   1      48.179  26.077  31.723  1.00  0.00     0.131 A 
ATOM     93  C   UNL A   1      48.177  24.439  33.951  1.00  0.00     0.055 A 
ATOM     94  C   UNL A   1      49.376  25.514  32.165  1.00  0.00     0.041 A 
ATOM     95  F   UNL A   1      48.230  26.892  30.657  1.00  0.00    -0.206 F 
ATOM     96  C   UNL A   1      49.382  24.701  33.294  1.00  0.00     0.022 A 
BRANCH  93  97
ATOM     97  S   UNL A   1      48.177  23.514  35.511  1.00  0.00     0.124 S 
ATOM     98  O   UNL A   1      46.817  22.983  35.547  1.00  0.00    -0.237 OA
ATOM     99  O   UNL A   1      49.238  22.535  35.293  1.00  0.00    -0.237 OA
ATOM    100  O   UNL A   1      48.471  24.534  36.515  1.00  0.00    -0.744 OA
ENDBRANCH  93  97
ENDBRANCH  67  90
ENDBRANCH  41  42
ENDBRANCH  33  36
ENDBRANCH  31  32
ENDBRANCH  30  31
ENDBRANCH   1  30
TORSDOF 18
ENDMDL
MODEL 3
REMARK VINA RESULT:     -12.2      4.636      9.615
REMARK SMILES O=C(NCCCCCCNC(=O)c1ccc(-c2c3nc(c(-c4cc(S(=O)(=O)[O-])ccc4F)c4ccc([nH]4)c(-c4cc(S(=O)(=O)[O-])ccc4F)c4nc(c(-c5cc(S(=O)(=O)[O-])ccc5F)c5ccc2[nH]5)C=C4)C=C3)cc1)C1=Cc2cc(Cl)cc(-c3ccccc3)c2O[C@@H]1C(F)(F)F
REMARK SMILES IDX 7 1 6 2 5 3 4 4 3 5 1 6 2 7 76 9 77 10 92 11 78 12 91 13
REMARK SMILES IDX 79 14 90 15 80 16 83 17 81 18 82 19 93 20 94 21 95 22 96 23
REMARK SMILES IDX 84 24 85 25 89 26 86 27 88 28 87 29 8 30 9 31 10 32 11 33
REMARK SMILES IDX 12 35 13 36 14 37 75 38 15 39 74 40 16 41 17 42 18 43 68 44
REMARK SMILES IDX 19 45 73 46 67 47 69 48 20 49 72 50 66 51 65 52 21 54 53 55
REMARK SMILES IDX 33 56 52 57 34 58 37 59 51 60 70 61 35 62 36 63 50 65 71 66
REMARK SMILES IDX 38 67 22 68 23 69 31 70 24 71 30 72 32 73 29 74 25 75 26 76
REMARK SMILES IDX 27 77 28 78 54 79 55 80 63 81 56 82 62 83 64 84 61 85 57 86
REMARK SMILES IDX 58 87 59 88 60 89 39 90 40 91 48 92 41 93 47 94 49 95 46 96
REMARK SMILES IDX 42 97 43 98 44 99 45 100
REMARK H PARENT 3 8 10 34 69 53 37 64
REMARK Flexibility Score: inf
ROOT
ATOM      1  C   UNL A   1      34.947  22.313  26.133  1.00  0.00     0.002 C 
ENDROOT
BRANCH   1   2
ATOM      2  C   UNL A   1      34.386  22.001  27.523  1.00  0.00     0.002 C 
BRANCH   2   3
ATOM      3  C   UNL A   1      32.906  22.307  27.767  1.00  0.00     0.021 C 
BRANCH   3   4
ATOM      4  C   UNL A   1      32.108  22.897  26.607  1.00  0.00     0.116 C 
BRANCH   4   5
ATOM      5  N   UNL A   1      31.038  23.818  26.952  1.00  0.00    -0.352 N 
ATOM      6  O   UNL A   1      29.399  25.313  26.632  1.00  0.00    -0.270 OA
ATOM      7  C   UNL A   1      30.372  24.719  26.165  1.00  0.00     0.251 C 
ATOM      8  H   UNL A   1      30.749  23.790  27.894  1.00  0.00     0.163 HD
BRANCH   7   9
ATOM      9  C   UNL A   1      30.720  24.976  24.729  1.00  0.00     0.067 C 
ATOM     10  C   UNL A   1      29.890  25.582  23.861  1.00  0.00     0.025 C 
ATOM     11  C   UNL A   1      32.201  25.243  24.546  1.00  0.00     0.314 C 
ATOM     12  C   UNL A   1      30.267  27.013  23.676  1.00  0.00     0.019 A 
ATOM     13  O   UNL A   1      32.463  26.668  24.688  1.00  0.00    -0.475 OA
ATOM     14  C   UNL A   1      29.278  27.883  23.208  1.00  0.00     0.032 A 
ATOM     15  C   UNL A   1      31.464  27.511  24.246  1.00  0.00     0.135 A 
ATOM     16  C   UNL A   1      29.432  29.248  23.405  1.00  0.00     0.042 A 
ATOM     17  C   UNL A   1      31.594  28.887  24.496  1.00  0.00     0.026 A 
ATOM     18  Cl  UNL A   1      28.139  30.312  23.010  1.00  0.00    -0.084 Cl
ATOM     19  C   UNL A   1      30.561  29.742  24.054  1.00  0.00     0.033 A 
BRANCH  11  20
ATOM     20  C   UNL A   1      32.754  24.658  23.230  1.00  0.00     0.429 C 
ATOM     21  F   UNL A   1      34.088  24.436  23.302  1.00  0.00    -0.167 F 
ATOM     22  F   UNL A   1      32.177  23.462  22.947  1.00  0.00    -0.167 F 
ATOM     23  F   UNL A   1      32.538  25.457  22.159  1.00  0.00    -0.167 F 
ENDBRANCH  11  20
BRANCH  17  24
ATOM     24  C   UNL A   1      32.601  29.472  25.398  1.00  0.00    -0.015 A 
ATOM     25  C   UNL A   1      33.826  28.810  25.587  1.00  0.00     0.009 A 
ATOM     26  C   UNL A   1      32.295  30.540  26.249  1.00  0.00     0.009 A 
ATOM     27  C   UNL A   1      34.656  29.105  26.671  1.00  0.00     0.001 A 
ATOM     28  C   UNL A   1      33.148  30.869  27.309  1.00  0.00     0.001 A 
ATOM     29  C   UNL A   1      34.305  30.128  27.543  1.00  0.00     0.000 A 
ENDBRANCH  17  24
ENDBRANCH   7   9
ENDBRANCH   4   5
ENDBRANCH   3   4
ENDBRANCH   2   3
ENDBRANCH   1   2
BRANCH   1  30
ATOM     30  C   UNL A   1      35.616  23.674  25.938  1.00  0.00     0.021 C 
BRANCH  30  31
ATOM     31  C   UNL A   1      36.906  23.652  25.129  1.00  0.00     0.116 C 
BRANCH  31  32
ATOM     32  N   UNL A   1      37.826  22.610  25.566  1.00  0.00    -0.352 N 
ATOM     33  C   UNL A   1      39.034  22.698  26.210  1.00  0.00     0.251 C 
ATOM     34  H   UNL A   1      37.532  21.691  25.367  1.00  0.00     0.163 HD
ATOM     35  O   UNL A   1      39.728  21.685  26.320  1.00  0.00    -0.269 OA
BRANCH  33  36
ATOM     36  C   UNL A   1      39.519  23.990  26.745  1.00  0.00     0.039 A 
ATOM     37  C   UNL A   1      40.166  24.884  25.886  1.00  0.00     0.014 A 
ATOM     38  C   UNL A   1      39.358  24.321  28.092  1.00  0.00     0.014 A 
ATOM     39  C   UNL A   1      40.591  26.126  26.365  1.00  0.00     0.010 A 
ATOM     40  C   UNL A   1      39.681  25.598  28.540  1.00  0.00     0.010 A 
ATOM     41  C   UNL A   1      40.318  26.510  27.688  1.00  0.00    -0.014 A 
BRANCH  41  42
ATOM     42  C   UNL A   1      40.728  27.840  28.211  1.00  0.00     0.031 A 
ATOM     43  C   UNL A   1      42.191  28.162  28.374  1.00  0.00     0.074 A 
ATOM     44  C   UNL A   1      39.790  28.734  28.587  1.00  0.00     0.049 A 
ATOM     45  N   UNL A   1      42.755  29.222  28.894  1.00  0.00    -0.248 NA
ATOM     46  C   UNL A   1      43.148  27.136  27.929  1.00  0.00     0.031 C 
ATOM     47  C   UNL A   1      38.343  28.516  28.521  1.00  0.00     0.029 A 
ATOM     48  N   UNL A   1      39.909  29.999  29.106  1.00  0.00    -0.354 N 
ATOM     49  C   UNL A   1      44.125  28.985  28.845  1.00  0.00     0.074 A 
ATOM     50  C   UNL A   1      44.301  27.646  28.328  1.00  0.00     0.031 C 
ATOM     51  C   UNL A   1      37.711  29.620  28.951  1.00  0.00     0.029 A 
ATOM     52  C   UNL A   1      38.702  30.603  29.376  1.00  0.00     0.049 A 
ATOM     53  H   UNL A   1      40.777  30.433  29.270  1.00  0.00     0.167 HD
ATOM     54  C   UNL A   1      45.144  29.820  29.167  1.00  0.00     0.034 A 
ATOM     55  C   UNL A   1      38.426  31.806  29.918  1.00  0.00     0.034 A 
ATOM     56  C   UNL A   1      44.949  31.156  29.669  1.00  0.00     0.049 A 
ATOM     57  C   UNL A   1      39.576  32.708  30.297  1.00  0.00     0.074 A 
ATOM     58  C   UNL A   1      45.903  32.103  29.996  1.00  0.00     0.029 A 
ATOM     59  N   UNL A   1      43.712  31.737  29.920  1.00  0.00    -0.354 N 
ATOM     60  N   UNL A   1      40.867  32.483  30.203  1.00  0.00    -0.248 NA
ATOM     61  C   UNL A   1      39.232  34.029  30.838  1.00  0.00     0.031 C 
ATOM     62  C   UNL A   1      45.248  33.227  30.508  1.00  0.00     0.029 A 
ATOM     63  C   UNL A   1      43.881  33.018  30.421  1.00  0.00     0.049 A 
ATOM     64  H   UNL A   1      42.842  31.303  29.765  1.00  0.00     0.167 HD
ATOM     65  C   UNL A   1      41.488  33.649  30.645  1.00  0.00     0.074 A 
ATOM     66  C   UNL A   1      40.429  34.577  30.984  1.00  0.00     0.031 C 
ATOM     67  C   UNL A   1      42.811  33.929  30.760  1.00  0.00     0.034 A 
BRANCH  54  68
ATOM     68  C   UNL A   1      46.552  29.298  28.992  1.00  0.00     0.023 A 
ATOM     69  C   UNL A   1      47.128  29.149  27.717  1.00  0.00     0.031 A 
ATOM     70  C   UNL A   1      47.320  28.916  30.106  1.00  0.00     0.131 A 
ATOM     71  C   UNL A   1      48.393  28.558  27.582  1.00  0.00     0.055 A 
ATOM     72  C   UNL A   1      48.616  28.413  29.969  1.00  0.00     0.041 A 
ATOM     73  F   UNL A   1      46.819  29.012  31.347  1.00  0.00    -0.206 F 
ATOM     74  C   UNL A   1      49.154  28.215  28.702  1.00  0.00     0.022 A 
BRANCH  71  75
ATOM     75  S   UNL A   1      48.962  28.103  25.920  1.00  0.00     0.124 S 
ATOM     76  O   UNL A   1      50.121  28.977  25.758  1.00  0.00    -0.237 OA
ATOM     77  O   UNL A   1      49.249  26.681  26.063  1.00  0.00    -0.237 OA
ATOM     78  O   UNL A   1      47.821  28.429  25.068  1.00  0.00    -0.744 OA
ENDBRANCH  71  75
ENDBRANCH  54  68
BRANCH  55  79
ATOM     79  C   UNL A   1      37.013  32.225  30.157  1.00  0.00     0.023 A 
ATOM     80  C   UNL A   1      36.298  32.960  29.198  1.00  0.00     0.031 A 
ATOM     81  C   UNL A   1      36.371  31.937  31.375  1.00  0.00     0.131 A 
ATOM     82  C   UNL A   1      35.009  33.430  29.493  1.00  0.00     0.055 A 
ATOM     83  C   UNL A   1      35.063  32.350  31.638  1.00  0.00     0.041 A 
ATOM     84  F   UNL A   1      37.004  31.235  32.329  1.00  0.00    -0.206 F 
ATOM     85  C   UNL A   1      34.380  33.116  30.700  1.00  0.00     0.022 A 
BRANCH  82  86
ATOM     86  S   UNL A   1      34.201  34.550  28.315  1.00  0.00     0.124 S 
ATOM     87  O   UNL A   1      32.850  34.004  28.266  1.00  0.00    -0.237 OA
ATOM     88  O   UNL A   1      34.349  35.842  28.977  1.00  0.00    -0.237 OA
ATOM     89  O   UNL A   1      34.987  34.384  27.095  1.00  0.00    -0.744 OA
ENDBRANCH  82  86
ENDBRANCH  55  79
BRANCH  67  90
ATOM     90  C   UNL A   1      43.183  35.315  31.226  1.00  0.00     0.023 A 
ATOM     91  C   UNL A   1      43.436  36.360  30.319  1.00  0.00     0.031 A 
ATOM     92  C   UNL A   1      43.291  35.593  32.601  1.00  0.00     0.131 A 
ATOM     93  C   UNL A   1      43.843  37.614  30.796  1.00  0.00     0.055 A 
ATOM     94  C   UNL A   1      43.627  36.863  33.071  1.00  0.00     0.041 A 
ATOM     95  F   UNL A   1      43.062  34.633  33.512  1.00  0.00    -0.206 F 
ATOM     96  C   UNL A   1      43.920  37.878  32.166  1.00  0.00     0.022 A 
BRANCH  93  97
ATOM     97  S   UNL A   1      44.369  38.871  29.599  1.00  0.00     0.124 S 
ATOM     98  O   UNL A   1      44.059  38.225  28.327  1.00  0.00    -0.237 OA
ATOM     99  O   UNL A   1      43.531  40.012  29.955  1.00  0.00    -0.237 OA
ATOM    100  O   UNL A   1      45.793  39.036  29.879  1.00  0.00    -0.744 OA
ENDBRANCH  93  97
ENDBRANCH  67  90
ENDBRANCH  41  42
ENDBRANCH  33  36
ENDBRANCH  31  32
ENDBRANCH  30  31
ENDBRANCH   1  30
TORSDOF 18
ENDMDL
