MODEL 1
REMARK VINA RESULT:     -12.4      0.000      0.000
REMARK SMILES Cc1ccc(Nc2c(Cl)cccc2Cl)c(CC(=O)NCCCCCCNC(=O)c2ccc(-c3c4nc(c(-c5cc(S(=O)(=O)[O-])ccc5F)c5ccc([nH]5)c(-c5cc(S(=O)(=O)[O-])ccc5F)c5nc(c(-c6cc(S(=O)(=O)[O-])ccc6F)c6ccc3[nH]6)C=C5)C=C4)cc2)c1
REMARK SMILES IDX 22 1 21 2 20 3 19 4 17 5 18 6 16 8 15 9 1 10 2 11 3 12 92 13
REMARK SMILES IDX 4 14 5 15 6 16 7 18 8 19 13 20 9 21 10 22 12 23 14 24 11 25
REMARK SMILES IDX 23 26 24 27 25 28 26 29 27 30 28 32 29 33 30 34 91 35 31 36
REMARK SMILES IDX 90 37 32 38 33 39 34 40 84 41 35 42 89 43 83 44 85 45 36 46
REMARK SMILES IDX 88 47 82 48 81 49 37 51 69 52 49 53 68 54 50 55 53 56 67 57
REMARK SMILES IDX 86 58 51 59 52 60 66 62 87 63 54 64 38 65 39 66 47 67 40 68
REMARK SMILES IDX 46 69 48 70 45 71 41 72 42 73 43 74 44 75 70 76 71 77 79 78
REMARK SMILES IDX 72 79 78 80 80 81 77 82 73 83 74 84 75 85 76 86 55 87 56 88
REMARK SMILES IDX 64 89 57 90 63 91 65 92 62 93 58 94 59 95 60 96 61 97
REMARK H PARENT 19 7 6 17 26 31 85 50 53 61
REMARK Flexibility Score: inf
ROOT
ATOM      1  C   UNL A   1      33.337  28.586  25.972  1.00  0.00     0.002 C 
ENDROOT
BRANCH   1   2
ATOM      2  C   UNL A   1      33.102  27.118  26.355  1.00  0.00     0.021 C 
BRANCH   2   3
ATOM      3  C   UNL A   1      31.678  26.603  26.133  1.00  0.00     0.116 C 
BRANCH   3   4
ATOM      4  N   UNL A   1      31.413  25.379  26.864  1.00  0.00    -0.356 N 
ATOM      5  C   UNL A   1      31.669  24.090  26.506  1.00  0.00     0.224 C 
ATOM      6  O   UNL A   1      31.278  23.179  27.241  1.00  0.00    -0.275 OA
ATOM      7  H   UNL A   1      30.989  25.497  27.744  1.00  0.00     0.163 HD
BRANCH   5   8
ATOM      8  C   UNL A   1      32.420  23.769  25.226  1.00  0.00     0.137 C 
BRANCH   8   9
ATOM      9  C   UNL A   1      33.716  23.018  25.440  1.00  0.00    -0.015 A 
ATOM     10  C   UNL A   1      37.342  23.990  26.192  1.00  0.00     0.044 C 
ATOM     11  C   UNL A   1      36.118  23.176  25.901  1.00  0.00    -0.051 A 
ATOM     12  C   UNL A   1      36.218  21.796  25.753  1.00  0.00     0.005 A 
ATOM     13  C   UNL A   1      34.865  23.775  25.762  1.00  0.00     0.009 A 
ATOM     14  C   UNL A   1      35.081  21.031  25.479  1.00  0.00     0.026 A 
ATOM     15  C   UNL A   1      33.814  21.615  25.317  1.00  0.00     0.042 A 
BRANCH  15  16
ATOM     16  N   UNL A   1      32.664  20.818  25.102  1.00  0.00    -0.353 N 
ATOM     17  H   UNL A   1      31.893  21.015  25.681  1.00  0.00     0.167 HD
BRANCH  16  18
ATOM     18  C   UNL A   1      32.479  19.775  24.159  1.00  0.00     0.076 A 
ATOM     19  C   UNL A   1      32.596  18.411  24.493  1.00  0.00     0.066 A 
ATOM     20  C   UNL A   1      32.259  20.095  22.802  1.00  0.00     0.066 A 
ATOM     21  Cl  UNL A   1      32.744  17.878  26.136  1.00  0.00    -0.082 Cl
ATOM     22  C   UNL A   1      32.532  17.418  23.506  1.00  0.00     0.023 A 
ATOM     23  C   UNL A   1      32.193  19.102  21.819  1.00  0.00     0.023 A 
ATOM     24  Cl  UNL A   1      32.080  21.743  22.298  1.00  0.00    -0.082 Cl
ATOM     25  C   UNL A   1      32.341  17.764  22.171  1.00  0.00     0.003 A 
ENDBRANCH  16  18
ENDBRANCH  15  16
ENDBRANCH   8   9
ENDBRANCH   5   8
ENDBRANCH   3   4
ENDBRANCH   2   3
ENDBRANCH   1   2
BRANCH   1  26
ATOM     26  C   UNL A   1      32.382  29.623  26.584  1.00  0.00     0.002 C 
BRANCH  26  27
ATOM     27  C   UNL A   1      33.036  30.773  27.352  1.00  0.00     0.021 C 
BRANCH  27  28
ATOM     28  C   UNL A   1      34.562  30.729  27.363  1.00  0.00     0.116 C 
BRANCH  28  29
ATOM     29  N   UNL A   1      35.163  31.576  28.390  1.00  0.00    -0.352 N 
ATOM     30  C   UNL A   1      36.231  31.311  29.230  1.00  0.00     0.251 C 
ATOM     31  H   UNL A   1      34.748  32.462  28.499  1.00  0.00     0.163 HD
ATOM     32  O   UNL A   1      36.566  32.102  30.096  1.00  0.00    -0.269 OA
BRANCH  30  33
ATOM     33  C   UNL A   1      37.038  30.091  28.992  1.00  0.00     0.039 A 
ATOM     34  C   UNL A   1      37.157  29.179  30.048  1.00  0.00     0.014 A 
ATOM     35  C   UNL A   1      37.827  29.961  27.853  1.00  0.00     0.014 A 
ATOM     36  C   UNL A   1      38.228  28.287  30.061  1.00  0.00     0.010 A 
ATOM     37  C   UNL A   1      38.938  29.143  27.906  1.00  0.00     0.010 A 
ATOM     38  C   UNL A   1      39.178  28.363  29.044  1.00  0.00    -0.014 A 
BRANCH  38  39
ATOM     39  C   UNL A   1      40.528  27.823  29.168  1.00  0.00     0.031 A 
ATOM     40  C   UNL A   1      40.841  26.435  28.778  1.00  0.00     0.074 A 
ATOM     41  C   UNL A   1      41.529  28.652  29.542  1.00  0.00     0.049 A 
ATOM     42  N   UNL A   1      41.949  25.839  29.062  1.00  0.00    -0.248 NA
ATOM     43  C   UNL A   1      39.883  25.564  28.103  1.00  0.00     0.031 C 
ATOM     44  C   UNL A   1      42.967  28.437  29.407  1.00  0.00     0.029 A 
ATOM     45  N   UNL A   1      41.422  29.755  30.390  1.00  0.00    -0.354 N 
ATOM     46  C   UNL A   1      41.985  24.661  28.359  1.00  0.00     0.074 A 
ATOM     47  C   UNL A   1      40.629  24.471  27.909  1.00  0.00     0.031 C 
ATOM     48  C   UNL A   1      43.603  29.175  30.328  1.00  0.00     0.029 A 
ATOM     49  C   UNL A   1      42.590  29.767  31.181  1.00  0.00     0.049 A 
ATOM     50  H   UNL A   1      40.679  30.398  30.428  1.00  0.00     0.167 HD
ATOM     51  C   UNL A   1      43.194  24.071  28.137  1.00  0.00     0.034 A 
ATOM     52  C   UNL A   1      42.506  29.612  32.536  1.00  0.00     0.034 A 
ATOM     53  C   UNL A   1      44.223  24.613  29.038  1.00  0.00     0.049 A 
ATOM     54  C   UNL A   1      43.205  28.373  33.069  1.00  0.00     0.074 A 
ATOM     55  C   UNL A   1      45.346  25.410  28.899  1.00  0.00     0.029 A 
ATOM     56  N   UNL A   1      44.013  24.498  30.405  1.00  0.00    -0.354 N 
ATOM     57  N   UNL A   1      43.824  27.493  32.329  1.00  0.00    -0.248 NA
ATOM     58  C   UNL A   1      43.178  27.984  34.480  1.00  0.00     0.031 C 
ATOM     59  C   UNL A   1      45.761  25.820  30.206  1.00  0.00     0.029 A 
ATOM     60  C   UNL A   1      44.916  25.242  31.136  1.00  0.00     0.049 A 
ATOM     61  H   UNL A   1      43.302  23.949  30.807  1.00  0.00     0.167 HD
ATOM     62  C   UNL A   1      44.192  26.422  33.102  1.00  0.00     0.074 A 
ATOM     63  C   UNL A   1      43.776  26.781  34.446  1.00  0.00     0.031 C 
ATOM     64  C   UNL A   1      44.762  25.293  32.584  1.00  0.00     0.034 A 
BRANCH  51  65
ATOM     65  C   UNL A   1      43.510  23.114  26.999  1.00  0.00     0.023 A 
ATOM     66  C   UNL A   1      42.898  21.839  26.999  1.00  0.00     0.031 A 
ATOM     67  C   UNL A   1      44.467  23.308  25.977  1.00  0.00     0.131 A 
ATOM     68  C   UNL A   1      43.256  20.846  26.064  1.00  0.00     0.055 A 
ATOM     69  C   UNL A   1      44.786  22.336  25.019  1.00  0.00     0.041 A 
ATOM     70  F   UNL A   1      45.197  24.419  25.862  1.00  0.00    -0.206 F 
ATOM     71  C   UNL A   1      44.189  21.093  25.063  1.00  0.00     0.022 A 
BRANCH  68  72
ATOM     72  S   UNL A   1      42.546  19.183  26.216  1.00  0.00     0.124 S 
ATOM     73  O   UNL A   1      42.360  19.062  27.658  1.00  0.00    -0.237 OA
ATOM     74  O   UNL A   1      41.335  19.290  25.410  1.00  0.00    -0.237 OA
ATOM     75  O   UNL A   1      43.586  18.320  25.657  1.00  0.00    -0.744 OA
ENDBRANCH  68  72
ENDBRANCH  51  65
BRANCH  52  76
ATOM     76  C   UNL A   1      41.277  30.242  33.105  1.00  0.00     0.023 A 
ATOM     77  C   UNL A   1      41.272  31.651  33.211  1.00  0.00     0.031 A 
ATOM     78  C   UNL A   1      40.044  29.579  33.152  1.00  0.00     0.131 A 
ATOM     79  C   UNL A   1      40.064  32.358  33.177  1.00  0.00     0.055 A 
ATOM     80  C   UNL A   1      38.838  30.291  33.206  1.00  0.00     0.041 A 
ATOM     81  F   UNL A   1      39.974  28.248  33.016  1.00  0.00    -0.206 F 
ATOM     82  C   UNL A   1      38.842  31.686  33.171  1.00  0.00     0.022 A 
BRANCH  79  83
ATOM     83  S   UNL A   1      40.130  34.146  32.848  1.00  0.00     0.124 S 
ATOM     84  O   UNL A   1      38.973  34.339  31.982  1.00  0.00    -0.237 OA
ATOM     85  O   UNL A   1      40.027  34.716  34.191  1.00  0.00    -0.237 OA
ATOM     86  O   UNL A   1      41.431  34.331  32.211  1.00  0.00    -0.744 OA
ENDBRANCH  79  83
ENDBRANCH  52  76
BRANCH  64  87
ATOM     87  C   UNL A   1      45.170  24.119  33.439  1.00  0.00     0.023 A 
ATOM     88  C   UNL A   1      46.435  24.048  34.045  1.00  0.00     0.031 A 
ATOM     89  C   UNL A   1      44.327  22.999  33.620  1.00  0.00     0.131 A 
ATOM     90  C   UNL A   1      46.789  22.947  34.846  1.00  0.00     0.055 A 
ATOM     91  C   UNL A   1      44.717  21.869  34.342  1.00  0.00     0.041 A 
ATOM     92  F   UNL A   1      43.074  22.976  33.143  1.00  0.00    -0.206 F 
ATOM     93  C   UNL A   1      45.951  21.841  34.973  1.00  0.00     0.022 A 
BRANCH  90  94
ATOM     94  S   UNL A   1      48.333  23.021  35.790  1.00  0.00     0.124 S 
ATOM     95  O   UNL A   1      47.870  23.322  37.141  1.00  0.00    -0.237 OA
ATOM     96  O   UNL A   1      48.867  21.676  35.588  1.00  0.00    -0.237 OA
ATOM     97  O   UNL A   1      49.087  24.090  35.138  1.00  0.00    -0.744 OA
ENDBRANCH  90  94
ENDBRANCH  64  87
ENDBRANCH  38  39
ENDBRANCH  30  33
ENDBRANCH  28  29
ENDBRANCH  27  28
ENDBRANCH  26  27
ENDBRANCH   1  26
TORSDOF 19
ENDMDL
MODEL 2
REMARK VINA RESULT:     -11.8      1.831      2.664
REMARK SMILES Cc1ccc(Nc2c(Cl)cccc2Cl)c(CC(=O)NCCCCCCNC(=O)c2ccc(-c3c4nc(c(-c5cc(S(=O)(=O)[O-])ccc5F)c5ccc([nH]5)c(-c5cc(S(=O)(=O)[O-])ccc5F)c5nc(c(-c6cc(S(=O)(=O)[O-])ccc6F)c6ccc3[nH]6)C=C5)C=C4)cc2)c1
REMARK SMILES IDX 22 1 21 2 20 3 19 4 17 5 18 6 16 8 15 9 1 10 2 11 3 12 92 13
REMARK SMILES IDX 4 14 5 15 6 16 7 18 8 19 13 20 9 21 10 22 12 23 14 24 11 25
REMARK SMILES IDX 23 26 24 27 25 28 26 29 27 30 28 32 29 33 30 34 91 35 31 36
REMARK SMILES IDX 90 37 32 38 33 39 34 40 84 41 35 42 89 43 83 44 85 45 36 46
REMARK SMILES IDX 88 47 82 48 81 49 37 51 69 52 49 53 68 54 50 55 53 56 67 57
REMARK SMILES IDX 86 58 51 59 52 60 66 62 87 63 54 64 38 65 39 66 47 67 40 68
REMARK SMILES IDX 46 69 48 70 45 71 41 72 42 73 43 74 44 75 70 76 71 77 79 78
REMARK SMILES IDX 72 79 78 80 80 81 77 82 73 83 74 84 75 85 76 86 55 87 56 88
REMARK SMILES IDX 64 89 57 90 63 91 65 92 62 93 58 94 59 95 60 96 61 97
REMARK H PARENT 19 7 6 17 26 31 85 50 53 61
REMARK Flexibility Score: inf
ROOT
ATOM      1  C   UNL A   1      33.152  29.002  26.079  1.00  0.00     0.002 C 
ENDROOT
BRANCH   1   2
ATOM      2  C   UNL A   1      32.689  27.729  26.803  1.00  0.00     0.021 C 
BRANCH   2   3
ATOM      3  C   UNL A   1      31.239  27.316  26.540  1.00  0.00     0.116 C 
BRANCH   3   4
ATOM      4  N   UNL A   1      31.003  25.915  26.829  1.00  0.00    -0.356 N 
ATOM      5  C   UNL A   1      31.796  24.838  26.574  1.00  0.00     0.224 C 
ATOM      6  O   UNL A   1      31.364  23.708  26.821  1.00  0.00    -0.275 OA
ATOM      7  H   UNL A   1      30.147  25.714  27.271  1.00  0.00     0.163 HD
BRANCH   5   8
ATOM      8  C   UNL A   1      33.190  25.013  25.997  1.00  0.00     0.137 C 
BRANCH   8   9
ATOM      9  C   UNL A   1      33.347  24.486  24.587  1.00  0.00    -0.015 A 
ATOM     10  C   UNL A   1      32.425  25.734  21.087  1.00  0.00     0.044 C 
ATOM     11  C   UNL A   1      32.940  24.876  22.202  1.00  0.00    -0.051 A 
ATOM     12  C   UNL A   1      33.457  23.612  21.927  1.00  0.00     0.005 A 
ATOM     13  C   UNL A   1      32.907  25.310  23.528  1.00  0.00     0.009 A 
ATOM     14  C   UNL A   1      33.938  22.805  22.963  1.00  0.00     0.026 A 
ATOM     15  C   UNL A   1      33.895  23.216  24.305  1.00  0.00     0.042 A 
BRANCH  15  16
ATOM     16  N   UNL A   1      34.443  22.411  25.333  1.00  0.00    -0.353 N 
ATOM     17  H   UNL A   1      33.930  22.381  26.172  1.00  0.00     0.167 HD
BRANCH  16  18
ATOM     18  C   UNL A   1      35.636  21.644  25.309  1.00  0.00     0.076 A 
ATOM     19  C   UNL A   1      36.914  22.207  25.493  1.00  0.00     0.066 A 
ATOM     20  C   UNL A   1      35.571  20.269  24.997  1.00  0.00     0.066 A 
ATOM     21  Cl  UNL A   1      37.128  23.852  25.999  1.00  0.00    -0.082 Cl
ATOM     22  C   UNL A   1      38.073  21.436  25.335  1.00  0.00     0.023 A 
ATOM     23  C   UNL A   1      36.728  19.500  24.843  1.00  0.00     0.023 A 
ATOM     24  Cl  UNL A   1      34.043  19.481  24.775  1.00  0.00    -0.082 Cl
ATOM     25  C   UNL A   1      37.980  20.087  25.001  1.00  0.00     0.003 A 
ENDBRANCH  16  18
ENDBRANCH  15  16
ENDBRANCH   8   9
ENDBRANCH   5   8
ENDBRANCH   3   4
ENDBRANCH   2   3
ENDBRANCH   1   2
BRANCH   1  26
ATOM     26  C   UNL A   1      32.527  30.328  26.542  1.00  0.00     0.002 C 
BRANCH  26  27
ATOM     27  C   UNL A   1      33.427  31.245  27.373  1.00  0.00     0.021 C 
BRANCH  27  28
ATOM     28  C   UNL A   1      34.911  30.897  27.298  1.00  0.00     0.116 C 
BRANCH  28  29
ATOM     29  N   UNL A   1      35.756  31.774  28.105  1.00  0.00    -0.352 N 
ATOM     30  C   UNL A   1      36.921  31.478  28.793  1.00  0.00     0.251 C 
ATOM     31  H   UNL A   1      35.454  32.709  28.167  1.00  0.00     0.163 HD
ATOM     32  O   UNL A   1      37.473  32.313  29.490  1.00  0.00    -0.269 OA
BRANCH  30  33
ATOM     33  C   UNL A   1      37.555  30.155  28.584  1.00  0.00     0.039 A 
ATOM     34  C   UNL A   1      37.555  29.261  29.662  1.00  0.00     0.014 A 
ATOM     35  C   UNL A   1      38.314  29.893  27.447  1.00  0.00     0.014 A 
ATOM     36  C   UNL A   1      38.495  28.234  29.696  1.00  0.00     0.010 A 
ATOM     37  C   UNL A   1      39.304  28.933  27.519  1.00  0.00     0.010 A 
ATOM     38  C   UNL A   1      39.442  28.156  28.676  1.00  0.00    -0.014 A 
BRANCH  38  39
ATOM     39  C   UNL A   1      40.708  27.441  28.811  1.00  0.00     0.031 A 
ATOM     40  C   UNL A   1      40.779  25.973  28.689  1.00  0.00     0.074 A 
ATOM     41  C   UNL A   1      41.848  28.156  28.939  1.00  0.00     0.049 A 
ATOM     42  N   UNL A   1      41.814  25.273  29.009  1.00  0.00    -0.248 NA
ATOM     43  C   UNL A   1      39.645  25.153  28.272  1.00  0.00     0.031 C 
ATOM     44  C   UNL A   1      43.220  27.693  28.749  1.00  0.00     0.029 A 
ATOM     45  N   UNL A   1      41.985  29.402  29.552  1.00  0.00    -0.354 N 
ATOM     46  C   UNL A   1      41.612  23.993  28.558  1.00  0.00     0.074 A 
ATOM     47  C   UNL A   1      40.205  23.939  28.251  1.00  0.00     0.031 C 
ATOM     48  C   UNL A   1      44.043  28.482  29.455  1.00  0.00     0.029 A 
ATOM     49  C   UNL A   1      43.215  29.377  30.240  1.00  0.00     0.049 A 
ATOM     50  H   UNL A   1      41.348  30.151  29.511  1.00  0.00     0.167 HD
ATOM     51  C   UNL A   1      42.697  23.187  28.375  1.00  0.00     0.034 A 
ATOM     52  C   UNL A   1      43.246  29.497  31.601  1.00  0.00     0.034 A 
ATOM     53  C   UNL A   1      43.877  23.719  29.074  1.00  0.00     0.049 A 
ATOM     54  C   UNL A   1      43.811  28.286  32.323  1.00  0.00     0.074 A 
ATOM     55  C   UNL A   1      45.082  24.286  28.698  1.00  0.00     0.029 A 
ATOM     56  N   UNL A   1      43.791  23.899  30.447  1.00  0.00    -0.354 N 
ATOM     57  N   UNL A   1      44.223  27.195  31.734  1.00  0.00    -0.248 NA
ATOM     58  C   UNL A   1      43.871  28.180  33.782  1.00  0.00     0.031 C 
ATOM     59  C   UNL A   1      45.680  24.865  29.863  1.00  0.00     0.029 A 
ATOM     60  C   UNL A   1      44.859  24.614  30.947  1.00  0.00     0.049 A 
ATOM     61  H   UNL A   1      43.052  23.556  31.000  1.00  0.00     0.167 HD
ATOM     62  C   UNL A   1      44.510  26.244  32.680  1.00  0.00     0.074 A 
ATOM     63  C   UNL A   1      44.286  26.913  33.950  1.00  0.00     0.031 C 
ATOM     64  C   UNL A   1      44.859  24.962  32.363  1.00  0.00     0.034 A 
BRANCH  51  65
ATOM     65  C   UNL A   1      42.758  21.994  27.435  1.00  0.00     0.023 A 
ATOM     66  C   UNL A   1      43.758  21.971  26.435  1.00  0.00     0.031 A 
ATOM     67  C   UNL A   1      41.830  20.930  27.362  1.00  0.00     0.131 A 
ATOM     68  C   UNL A   1      43.785  20.976  25.437  1.00  0.00     0.055 A 
ATOM     69  C   UNL A   1      41.887  19.915  26.399  1.00  0.00     0.041 A 
ATOM     70  F   UNL A   1      40.777  20.824  28.176  1.00  0.00    -0.206 F 
ATOM     71  C   UNL A   1      42.861  19.938  25.421  1.00  0.00     0.022 A 
BRANCH  68  72
ATOM     72  S   UNL A   1      45.001  21.094  24.095  1.00  0.00     0.124 S 
ATOM     73  O   UNL A   1      44.515  22.246  23.343  1.00  0.00    -0.237 OA
ATOM     74  O   UNL A   1      46.250  21.273  24.826  1.00  0.00    -0.237 OA
ATOM     75  O   UNL A   1      44.868  19.811  23.405  1.00  0.00    -0.744 OA
ENDBRANCH  68  72
ENDBRANCH  51  65
BRANCH  52  76
ATOM     76  C   UNL A   1      42.182  30.410  32.116  1.00  0.00     0.023 A 
ATOM     77  C   UNL A   1      42.363  31.793  31.890  1.00  0.00     0.031 A 
ATOM     78  C   UNL A   1      40.892  29.963  32.428  1.00  0.00     0.131 A 
ATOM     79  C   UNL A   1      41.256  32.646  31.800  1.00  0.00     0.055 A 
ATOM     80  C   UNL A   1      39.798  30.839  32.423  1.00  0.00     0.041 A 
ATOM     81  F   UNL A   1      40.643  28.659  32.613  1.00  0.00    -0.206 F 
ATOM     82  C   UNL A   1      39.969  32.176  32.062  1.00  0.00     0.022 A 
BRANCH  79  83
ATOM     83  S   UNL A   1      41.501  34.288  31.058  1.00  0.00     0.124 S 
ATOM     84  O   UNL A   1      40.144  34.651  30.668  1.00  0.00    -0.237 OA
ATOM     85  O   UNL A   1      42.073  35.052  32.168  1.00  0.00    -0.237 OA
ATOM     86  O   UNL A   1      42.426  34.034  29.958  1.00  0.00    -0.744 OA
ENDBRANCH  79  83
ENDBRANCH  52  76
BRANCH  64  87
ATOM     87  C   UNL A   1      45.180  23.921  33.406  1.00  0.00     0.023 A 
ATOM     88  C   UNL A   1      46.470  23.786  33.946  1.00  0.00     0.031 A 
ATOM     89  C   UNL A   1      44.218  22.984  33.845  1.00  0.00     0.131 A 
ATOM     90  C   UNL A   1      46.742  22.814  34.926  1.00  0.00     0.055 A 
ATOM     91  C   UNL A   1      44.515  21.964  34.752  1.00  0.00     0.041 A 
ATOM     92  F   UNL A   1      42.938  23.050  33.450  1.00  0.00    -0.206 F 
ATOM     93  C   UNL A   1      45.781  21.880  35.310  1.00  0.00     0.022 A 
BRANCH  90  94
ATOM     94  S   UNL A   1      48.352  22.844  35.754  1.00  0.00     0.124 S 
ATOM     95  O   UNL A   1      49.288  22.887  34.635  1.00  0.00    -0.237 OA
ATOM     96  O   UNL A   1      48.254  24.067  36.546  1.00  0.00    -0.237 OA
ATOM     97  O   UNL A   1      48.366  21.605  36.530  1.00  0.00    -0.744 OA
ENDBRANCH  90  94
ENDBRANCH  64  87
ENDBRANCH  38  39
ENDBRANCH  30  33
ENDBRANCH  28  29
ENDBRANCH  27  28
ENDBRANCH  26  27
ENDBRANCH   1  26
TORSDOF 19
ENDMDL
MODEL 3
REMARK VINA RESULT:     -11.5      4.320      9.920
REMARK SMILES Cc1ccc(Nc2c(Cl)cccc2Cl)c(CC(=O)NCCCCCCNC(=O)c2ccc(-c3c4nc(c(-c5cc(S(=O)(=O)[O-])ccc5F)c5ccc([nH]5)c(-c5cc(S(=O)(=O)[O-])ccc5F)c5nc(c(-c6cc(S(=O)(=O)[O-])ccc6F)c6ccc3[nH]6)C=C5)C=C4)cc2)c1
REMARK SMILES IDX 22 1 21 2 20 3 19 4 17 5 18 6 16 8 15 9 1 10 2 11 3 12 92 13
REMARK SMILES IDX 4 14 5 15 6 16 7 18 8 19 13 20 9 21 10 22 12 23 14 24 11 25
REMARK SMILES IDX 23 26 24 27 25 28 26 29 27 30 28 32 29 33 30 34 91 35 31 36
REMARK SMILES IDX 90 37 32 38 33 39 34 40 84 41 35 42 89 43 83 44 85 45 36 46
REMARK SMILES IDX 88 47 82 48 81 49 37 51 69 52 49 53 68 54 50 55 53 56 67 57
REMARK SMILES IDX 86 58 51 59 52 60 66 62 87 63 54 64 38 65 39 66 47 67 40 68
REMARK SMILES IDX 46 69 48 70 45 71 41 72 42 73 43 74 44 75 70 76 71 77 79 78
REMARK SMILES IDX 72 79 78 80 80 81 77 82 73 83 74 84 75 85 76 86 55 87 56 88
REMARK SMILES IDX 64 89 57 90 63 91 65 92 62 93 58 94 59 95 60 96 61 97
REMARK H PARENT 19 7 6 17 26 31 85 50 53 61
REMARK Flexibility Score: inf
ROOT
ATOM      1  C   UNL A   1      36.566  23.310  23.958  1.00  0.00     0.002 C 
ENDROOT
BRANCH   1   2
ATOM      2  C   UNL A   1      35.036  23.375  23.835  1.00  0.00     0.021 C 
BRANCH   2   3
ATOM      3  C   UNL A   1      34.428  24.775  23.954  1.00  0.00     0.116 C 
BRANCH   3   4
ATOM      4  N   UNL A   1      33.344  24.987  23.016  1.00  0.00    -0.356 N 
ATOM      5  C   UNL A   1      32.910  26.147  22.449  1.00  0.00     0.224 C 
ATOM      6  O   UNL A   1      31.901  26.122  21.738  1.00  0.00    -0.275 OA
ATOM      7  H   UNL A   1      32.851  24.177  22.751  1.00  0.00     0.163 HD
BRANCH   5   8
ATOM      8  C   UNL A   1      33.648  27.454  22.682  1.00  0.00     0.137 C 
BRANCH   8   9
ATOM      9  C   UNL A   1      33.237  28.180  23.945  1.00  0.00    -0.015 A 
ATOM     10  C   UNL A   1      34.966  29.153  27.219  1.00  0.00     0.044 C 
ATOM     11  C   UNL A   1      33.923  28.980  26.158  1.00  0.00    -0.051 A 
ATOM     12  C   UNL A   1      32.617  29.402  26.389  1.00  0.00     0.005 A 
ATOM     13  C   UNL A   1      34.227  28.389  24.930  1.00  0.00     0.009 A 
ATOM     14  C   UNL A   1      31.638  29.242  25.404  1.00  0.00     0.026 A 
ATOM     15  C   UNL A   1      31.919  28.633  24.170  1.00  0.00     0.042 A 
BRANCH  15  16
ATOM     16  N   UNL A   1      30.930  28.535  23.161  1.00  0.00    -0.353 N 
ATOM     17  H   UNL A   1      31.262  28.544  22.234  1.00  0.00     0.167 HD
BRANCH  16  18
ATOM     18  C   UNL A   1      29.524  28.426  23.313  1.00  0.00     0.076 A 
ATOM     19  C   UNL A   1      28.890  27.247  23.749  1.00  0.00     0.066 A 
ATOM     20  C   UNL A   1      28.699  29.503  22.926  1.00  0.00     0.066 A 
ATOM     21  Cl  UNL A   1      29.787  25.897  24.367  1.00  0.00    -0.082 Cl
ATOM     22  C   UNL A   1      27.493  27.141  23.762  1.00  0.00     0.023 A 
ATOM     23  C   UNL A   1      27.304  29.397  22.943  1.00  0.00     0.023 A 
ATOM     24  Cl  UNL A   1      29.387  31.003  22.396  1.00  0.00    -0.082 Cl
ATOM     25  C   UNL A   1      26.702  28.211  23.351  1.00  0.00     0.003 A 
ENDBRANCH  16  18
ENDBRANCH  15  16
ENDBRANCH   8   9
ENDBRANCH   5   8
ENDBRANCH   3   4
ENDBRANCH   2   3
ENDBRANCH   1   2
BRANCH   1  26
ATOM     26  C   UNL A   1      37.163  23.618  25.340  1.00  0.00     0.002 C 
BRANCH  26  27
ATOM     27  C   UNL A   1      37.886  22.463  26.037  1.00  0.00     0.021 C 
BRANCH  27  28
ATOM     28  C   UNL A   1      39.382  22.692  26.234  1.00  0.00     0.116 C 
BRANCH  28  29
ATOM     29  N   UNL A   1      40.198  21.527  25.905  1.00  0.00    -0.352 N 
ATOM     30  C   UNL A   1      41.562  21.341  26.056  1.00  0.00     0.251 C 
ATOM     31  H   UNL A   1      39.708  20.764  25.520  1.00  0.00     0.163 HD
ATOM     32  O   UNL A   1      42.110  20.327  25.657  1.00  0.00    -0.269 OA
BRANCH  30  33
ATOM     33  C   UNL A   1      42.339  22.350  26.813  1.00  0.00     0.039 A 
ATOM     34  C   UNL A   1      42.285  22.291  28.212  1.00  0.00     0.014 A 
ATOM     35  C   UNL A   1      42.914  23.444  26.173  1.00  0.00     0.014 A 
ATOM     36  C   UNL A   1      42.588  23.430  28.955  1.00  0.00     0.010 A 
ATOM     37  C   UNL A   1      43.128  24.599  26.900  1.00  0.00     0.010 A 
ATOM     38  C   UNL A   1      42.891  24.611  28.279  1.00  0.00    -0.014 A 
BRANCH  38  39
ATOM     39  C   UNL A   1      42.790  25.932  28.893  1.00  0.00     0.031 A 
ATOM     40  C   UNL A   1      41.653  26.828  28.607  1.00  0.00     0.074 A 
ATOM     41  C   UNL A   1      43.702  26.288  29.825  1.00  0.00     0.049 A 
ATOM     42  N   UNL A   1      41.616  28.073  28.941  1.00  0.00    -0.248 NA
ATOM     43  C   UNL A   1      40.486  26.410  27.835  1.00  0.00     0.031 C 
ATOM     44  C   UNL A   1      43.612  27.377  30.794  1.00  0.00     0.029 A 
ATOM     45  N   UNL A   1      45.036  25.885  29.881  1.00  0.00    -0.354 N 
ATOM     46  C   UNL A   1      40.339  28.528  28.725  1.00  0.00     0.074 A 
ATOM     47  C   UNL A   1      39.731  27.512  27.904  1.00  0.00     0.031 C 
ATOM     48  C   UNL A   1      44.853  27.742  31.150  1.00  0.00     0.029 A 
ATOM     49  C   UNL A   1      45.777  27.006  30.309  1.00  0.00     0.049 A 
ATOM     50  H   UNL A   1      45.390  24.992  29.665  1.00  0.00     0.167 HD
ATOM     51  C   UNL A   1      39.924  29.645  29.388  1.00  0.00     0.034 A 
ATOM     52  C   UNL A   1      46.719  27.562  29.491  1.00  0.00     0.034 A 
ATOM     53  C   UNL A   1      41.067  30.396  29.930  1.00  0.00     0.049 A 
ATOM     54  C   UNL A   1      46.430  28.998  29.087  1.00  0.00     0.074 A 
ATOM     55  C   UNL A   1      41.575  30.659  31.190  1.00  0.00     0.029 A 
ATOM     56  N   UNL A   1      42.030  30.844  29.038  1.00  0.00    -0.354 N 
ATOM     57  N   UNL A   1      45.371  29.672  29.450  1.00  0.00    -0.248 NA
ATOM     58  C   UNL A   1      47.275  29.755  28.163  1.00  0.00     0.031 C 
ATOM     59  C   UNL A   1      42.886  31.213  31.032  1.00  0.00     0.029 A 
ATOM     60  C   UNL A   1      43.155  31.321  29.679  1.00  0.00     0.049 A 
ATOM     61  H   UNL A   1      41.924  30.825  28.059  1.00  0.00     0.167 HD
ATOM     62  C   UNL A   1      45.338  30.867  28.779  1.00  0.00     0.074 A 
ATOM     63  C   UNL A   1      46.559  30.879  27.992  1.00  0.00     0.031 C 
ATOM     64  C   UNL A   1      44.291  31.741  28.869  1.00  0.00     0.034 A 
BRANCH  51  65
ATOM     65  C   UNL A   1      38.479  29.999  29.698  1.00  0.00     0.023 A 
ATOM     66  C   UNL A   1      37.955  31.210  29.190  1.00  0.00     0.031 A 
ATOM     67  C   UNL A   1      37.607  29.297  30.562  1.00  0.00     0.131 A 
ATOM     68  C   UNL A   1      36.676  31.676  29.558  1.00  0.00     0.055 A 
ATOM     69  C   UNL A   1      36.318  29.738  30.888  1.00  0.00     0.041 A 
ATOM     70  F   UNL A   1      37.954  28.173  31.192  1.00  0.00    -0.206 F 
ATOM     71  C   UNL A   1      35.847  30.938  30.396  1.00  0.00     0.022 A 
BRANCH  68  72
ATOM     72  S   UNL A   1      36.128  33.311  28.994  1.00  0.00     0.124 S 
ATOM     73  O   UNL A   1      34.913  33.513  29.776  1.00  0.00    -0.237 OA
ATOM     74  O   UNL A   1      37.269  34.154  29.334  1.00  0.00    -0.237 OA
ATOM     75  O   UNL A   1      35.910  33.118  27.561  1.00  0.00    -0.744 OA
ENDBRANCH  68  72
ENDBRANCH  51  65
BRANCH  52  76
ATOM     76  C   UNL A   1      47.425  26.541  28.660  1.00  0.00     0.023 A 
ATOM     77  C   UNL A   1      46.951  26.352  27.342  1.00  0.00     0.031 A 
ATOM     78  C   UNL A   1      48.714  26.084  28.962  1.00  0.00     0.131 A 
ATOM     79  C   UNL A   1      47.814  25.894  26.339  1.00  0.00     0.055 A 
ATOM     80  C   UNL A   1      49.545  25.544  27.970  1.00  0.00     0.041 A 
ATOM     81  F   UNL A   1      49.241  26.268  30.181  1.00  0.00    -0.206 F 
ATOM     82  C   UNL A   1      49.114  25.491  26.644  1.00  0.00     0.022 A 
BRANCH  79  83
ATOM     83  S   UNL A   1      47.302  26.111  24.607  1.00  0.00     0.124 S 
ATOM     84  O   UNL A   1      48.071  27.283  24.207  1.00  0.00    -0.237 OA
ATOM     85  O   UNL A   1      47.706  24.843  23.999  1.00  0.00    -0.237 OA
ATOM     86  O   UNL A   1      45.858  26.306  24.697  1.00  0.00    -0.744 OA
ENDBRANCH  79  83
ENDBRANCH  52  76
BRANCH  64  87
ATOM     87  C   UNL A   1      44.261  33.057  28.133  1.00  0.00     0.023 A 
ATOM     88  C   UNL A   1      44.346  34.286  28.808  1.00  0.00     0.031 A 
ATOM     89  C   UNL A   1      44.077  33.125  26.734  1.00  0.00     0.131 A 
ATOM     90  C   UNL A   1      44.325  35.500  28.099  1.00  0.00     0.055 A 
ATOM     91  C   UNL A   1      43.968  34.335  26.044  1.00  0.00     0.041 A 
ATOM     92  F   UNL A   1      44.045  32.022  25.973  1.00  0.00    -0.206 F 
ATOM     93  C   UNL A   1      44.105  35.535  26.724  1.00  0.00     0.022 A 
BRANCH  90  94
ATOM     94  S   UNL A   1      44.677  37.035  28.995  1.00  0.00     0.124 S 
ATOM     95  O   UNL A   1      45.999  36.783  29.559  1.00  0.00    -0.237 OA
ATOM     96  O   UNL A   1      44.624  38.022  27.920  1.00  0.00    -0.237 OA
ATOM     97  O   UNL A   1      43.591  37.123  29.970  1.00  0.00    -0.744 OA
ENDBRANCH  90  94
ENDBRANCH  64  87
ENDBRANCH  38  39
ENDBRANCH  30  33
ENDBRANCH  28  29
ENDBRANCH  27  28
ENDBRANCH  26  27
ENDBRANCH   1  26
TORSDOF 19
ENDMDL
