MODEL 1
REMARK VINA RESULT:     -12.1      0.000      0.000
REMARK SMILES CC1(C)CSC[C@H]([NH2+][C@H](C(=O)NCCCCCCNC(=O)c2ccc(-c3c4nc(c(-c5cc(S(=O)(=O)[O-])ccc5F)c5ccc([nH]5)c(-c5cc(S(=O)(=O)[O-])ccc5F)c5nc(c(-c6cc(S(=O)(=O)[O-])ccc6F)c6ccc3[nH]6)C=C5)C=C4)cc2)c2ccccc2)C1
REMARK SMILES IDX 16 1 15 2 14 3 13 4 12 5 10 6 11 7 9 9 8 10 7 13 1 14 2 15
REMARK SMILES IDX 3 16 4 17 91 18 5 19 6 20 85 21 86 22 90 23 87 24 89 25
REMARK SMILES IDX 88 26 17 27 18 28 19 29 20 30 21 32 22 33 23 34 84 35 24 36
REMARK SMILES IDX 83 37 25 38 26 39 27 40 77 41 28 42 82 43 76 44 78 45 29 46
REMARK SMILES IDX 81 47 75 48 74 49 30 51 62 52 42 53 61 54 43 55 46 56 60 57
REMARK SMILES IDX 79 58 44 59 45 60 59 62 80 63 47 64 31 65 32 66 40 67 33 68
REMARK SMILES IDX 39 69 41 70 38 71 34 72 35 73 36 74 37 75 63 76 64 77 72 78
REMARK SMILES IDX 65 79 71 80 73 81 70 82 66 83 67 84 68 85 69 86 48 87 49 88
REMARK SMILES IDX 57 89 50 90 56 91 58 92 55 93 51 94 52 95 53 96 54 97
REMARK H PARENT 12 8 8 11 8 12 19 31 78 50 46 61
REMARK Flexibility Score: inf
ROOT
ATOM      1  C   UNL A   1      31.624  30.459  25.971  1.00  0.00     0.002 C 
ENDROOT
BRANCH   1   2
ATOM      2  C   UNL A   1      32.942  29.751  26.297  1.00  0.00     0.002 C 
BRANCH   2   3
ATOM      3  C   UNL A   1      32.794  28.513  27.178  1.00  0.00     0.021 C 
BRANCH   3   4
ATOM      4  C   UNL A   1      32.524  27.219  26.395  1.00  0.00     0.116 C 
BRANCH   4   5
ATOM      5  N   UNL A   1      31.292  26.558  26.810  1.00  0.00    -0.351 N 
ATOM      6  C   UNL A   1      30.346  25.969  25.989  1.00  0.00     0.283 C 
ATOM      7  O   UNL A   1      29.415  25.345  26.501  1.00  0.00    -0.268 OA
ATOM      8  H   UNL A   1      31.114  26.527  27.778  1.00  0.00     0.163 HD
BRANCH   6   9
ATOM      9  C   UNL A   1      30.547  26.116  24.463  1.00  0.00     0.304 C 
BRANCH   9  10
ATOM     10  N   UNL A   1      30.106  24.881  23.756  1.00  0.00    -0.329 N 
ATOM     11  H   UNL A   1      29.475  24.360  24.365  1.00  0.00     0.347 HD
ATOM     12  H   UNL A   1      29.636  25.161  22.895  1.00  0.00     0.347 HD
BRANCH  10  13
ATOM     13  C   UNL A   1      31.253  24.011  23.393  1.00  0.00     0.193 C 
ATOM     14  C   UNL A   1      32.094  21.076  22.542  1.00  0.00     0.012 C 
ATOM     15  C   UNL A   1      32.362  21.713  23.923  1.00  0.00    -0.021 C 
ATOM     16  C   UNL A   1      32.338  20.581  24.971  1.00  0.00     0.012 C 
ATOM     17  C   UNL A   1      33.772  22.343  23.976  1.00  0.00     0.076 C 
ATOM     18  C   UNL A   1      31.247  22.743  24.276  1.00  0.00     0.073 C 
ATOM     19  S   UNL A   1      33.984  23.775  22.897  1.00  0.00    -0.155 SA
ATOM     20  C   UNL A   1      32.603  24.750  23.532  1.00  0.00     0.134 C 
ENDBRANCH  10  13
ENDBRANCH   9  10
BRANCH   9  21
ATOM     21  C   UNL A   1      30.038  27.398  23.828  1.00  0.00     0.019 A 
ATOM     22  C   UNL A   1      28.679  27.691  23.673  1.00  0.00     0.010 A 
ATOM     23  C   UNL A   1      30.987  28.250  23.221  1.00  0.00     0.010 A 
ATOM     24  C   UNL A   1      28.285  28.773  22.878  1.00  0.00     0.001 A 
ATOM     25  C   UNL A   1      30.592  29.315  22.421  1.00  0.00     0.001 A 
ATOM     26  C   UNL A   1      29.239  29.568  22.237  1.00  0.00     0.000 A 
ENDBRANCH   9  21
ENDBRANCH   6   9
ENDBRANCH   4   5
ENDBRANCH   3   4
ENDBRANCH   2   3
ENDBRANCH   1   2
BRANCH   1  27
ATOM     27  C   UNL A   1      31.468  31.864  26.564  1.00  0.00     0.021 C 
BRANCH  27  28
ATOM     28  C   UNL A   1      32.727  32.437  27.215  1.00  0.00     0.116 C 
BRANCH  28  29
ATOM     29  N   UNL A   1      32.567  33.843  27.557  1.00  0.00    -0.352 N 
ATOM     30  C   UNL A   1      33.152  34.572  28.556  1.00  0.00     0.251 C 
ATOM     31  H   UNL A   1      31.943  34.344  26.984  1.00  0.00     0.163 HD
ATOM     32  O   UNL A   1      32.685  35.680  28.851  1.00  0.00    -0.269 OA
BRANCH  30  33
ATOM     33  C   UNL A   1      34.325  34.050  29.284  1.00  0.00     0.039 A 
ATOM     34  C   UNL A   1      34.127  33.246  30.411  1.00  0.00     0.014 A 
ATOM     35  C   UNL A   1      35.622  34.381  28.881  1.00  0.00     0.014 A 
ATOM     36  C   UNL A   1      35.229  32.728  31.097  1.00  0.00     0.010 A 
ATOM     37  C   UNL A   1      36.718  33.812  29.528  1.00  0.00     0.010 A 
ATOM     38  C   UNL A   1      36.533  32.981  30.643  1.00  0.00    -0.014 A 
BRANCH  38  39
ATOM     39  C   UNL A   1      37.716  32.381  31.315  1.00  0.00     0.031 A 
ATOM     40  C   UNL A   1      38.460  31.247  30.662  1.00  0.00     0.074 A 
ATOM     41  C   UNL A   1      38.069  32.809  32.544  1.00  0.00     0.049 A 
ATOM     42  N   UNL A   1      39.449  30.529  31.131  1.00  0.00    -0.248 NA
ATOM     43  C   UNL A   1      38.016  30.851  29.317  1.00  0.00     0.031 C 
ATOM     44  C   UNL A   1      37.396  33.874  33.293  1.00  0.00     0.029 A 
ATOM     45  N   UNL A   1      39.065  32.390  33.392  1.00  0.00    -0.354 N 
ATOM     46  C   UNL A   1      39.729  29.582  30.151  1.00  0.00     0.074 A 
ATOM     47  C   UNL A   1      38.781  29.795  29.078  1.00  0.00     0.031 C 
ATOM     48  C   UNL A   1      38.001  34.027  34.481  1.00  0.00     0.029 A 
ATOM     49  C   UNL A   1      39.073  33.044  34.603  1.00  0.00     0.049 A 
ATOM     50  H   UNL A   1      39.714  31.689  33.155  1.00  0.00     0.167 HD
ATOM     51  C   UNL A   1      40.698  28.634  30.144  1.00  0.00     0.034 A 
ATOM     52  C   UNL A   1      39.839  32.857  35.697  1.00  0.00     0.034 A 
ATOM     53  C   UNL A   1      41.653  28.455  31.210  1.00  0.00     0.049 A 
ATOM     54  C   UNL A   1      40.908  31.793  35.661  1.00  0.00     0.074 A 
ATOM     55  C   UNL A   1      42.726  27.581  31.266  1.00  0.00     0.029 A 
ATOM     56  N   UNL A   1      41.646  29.151  32.412  1.00  0.00    -0.354 N 
ATOM     57  N   UNL A   1      41.207  30.954  34.694  1.00  0.00    -0.248 NA
ATOM     58  C   UNL A   1      41.753  31.658  36.854  1.00  0.00     0.031 C 
ATOM     59  C   UNL A   1      43.321  27.698  32.526  1.00  0.00     0.029 A 
ATOM     60  C   UNL A   1      42.672  28.699  33.229  1.00  0.00     0.049 A 
ATOM     61  H   UNL A   1      41.005  29.860  32.650  1.00  0.00     0.167 HD
ATOM     62  C   UNL A   1      42.293  30.216  35.156  1.00  0.00     0.074 A 
ATOM     63  C   UNL A   1      42.609  30.721  36.474  1.00  0.00     0.031 C 
ATOM     64  C   UNL A   1      42.970  29.211  34.545  1.00  0.00     0.034 A 
BRANCH  51  65
ATOM     65  C   UNL A   1      40.760  27.696  28.963  1.00  0.00     0.023 A 
ATOM     66  C   UNL A   1      41.718  27.841  27.946  1.00  0.00     0.031 A 
ATOM     67  C   UNL A   1      39.851  26.627  28.864  1.00  0.00     0.131 A 
ATOM     68  C   UNL A   1      41.714  26.964  26.850  1.00  0.00     0.055 A 
ATOM     69  C   UNL A   1      39.898  25.714  27.808  1.00  0.00     0.041 A 
ATOM     70  F   UNL A   1      38.900  26.450  29.796  1.00  0.00    -0.206 F 
ATOM     71  C   UNL A   1      40.827  25.886  26.787  1.00  0.00     0.022 A 
BRANCH  68  72
ATOM     72  S   UNL A   1      42.819  27.310  25.454  1.00  0.00     0.124 S 
ATOM     73  O   UNL A   1      42.119  28.407  24.790  1.00  0.00    -0.237 OA
ATOM     74  O   UNL A   1      44.069  27.659  26.119  1.00  0.00    -0.237 OA
ATOM     75  O   UNL A   1      42.838  26.051  24.710  1.00  0.00    -0.744 OA
ENDBRANCH  68  72
ENDBRANCH  51  65
BRANCH  52  76
ATOM     76  C   UNL A   1      39.614  33.664  36.933  1.00  0.00     0.023 A 
ATOM     77  C   UNL A   1      38.954  33.118  38.046  1.00  0.00     0.031 A 
ATOM     78  C   UNL A   1      39.994  35.016  36.992  1.00  0.00     0.131 A 
ATOM     79  C   UNL A   1      38.638  33.936  39.143  1.00  0.00     0.055 A 
ATOM     80  C   UNL A   1      39.732  35.810  38.112  1.00  0.00     0.041 A 
ATOM     81  F   UNL A   1      40.631  35.590  35.959  1.00  0.00    -0.206 F 
ATOM     82  C   UNL A   1      39.034  35.274  39.188  1.00  0.00     0.022 A 
BRANCH  79  83
ATOM     83  S   UNL A   1      37.594  33.253  40.459  1.00  0.00     0.124 S 
ATOM     84  O   UNL A   1      38.424  32.166  40.964  1.00  0.00    -0.237 OA
ATOM     85  O   UNL A   1      37.434  34.402  41.343  1.00  0.00    -0.237 OA
ATOM     86  O   UNL A   1      36.383  32.839  39.753  1.00  0.00    -0.744 OA
ENDBRANCH  79  83
ENDBRANCH  52  76
BRANCH  64  87
ATOM     87  C   UNL A   1      44.151  28.630  35.285  1.00  0.00     0.023 A 
ATOM     88  C   UNL A   1      44.007  27.558  36.183  1.00  0.00     0.031 A 
ATOM     89  C   UNL A   1      45.436  29.168  35.098  1.00  0.00     0.131 A 
ATOM     90  C   UNL A   1      45.119  27.095  36.902  1.00  0.00     0.055 A 
ATOM     91  C   UNL A   1      46.549  28.662  35.769  1.00  0.00     0.041 A 
ATOM     92  F   UNL A   1      45.631  30.195  34.254  1.00  0.00    -0.206 F 
ATOM     93  C   UNL A   1      46.392  27.629  36.688  1.00  0.00     0.022 A 
BRANCH  90  94
ATOM     94  S   UNL A   1      44.862  25.847  38.193  1.00  0.00     0.124 S 
ATOM     95  O   UNL A   1      44.323  24.727  37.430  1.00  0.00    -0.237 OA
ATOM     96  O   UNL A   1      46.209  25.667  38.725  1.00  0.00    -0.237 OA
ATOM     97  O   UNL A   1      43.917  26.488  39.106  1.00  0.00    -0.744 OA
ENDBRANCH  90  94
ENDBRANCH  64  87
ENDBRANCH  38  39
ENDBRANCH  30  33
ENDBRANCH  28  29
ENDBRANCH  27  28
ENDBRANCH   1  27
TORSDOF 19
ENDMDL
MODEL 2
REMARK VINA RESULT:     -11.6      1.903      2.707
REMARK SMILES CC1(C)CSC[C@H]([NH2+][C@H](C(=O)NCCCCCCNC(=O)c2ccc(-c3c4nc(c(-c5cc(S(=O)(=O)[O-])ccc5F)c5ccc([nH]5)c(-c5cc(S(=O)(=O)[O-])ccc5F)c5nc(c(-c6cc(S(=O)(=O)[O-])ccc6F)c6ccc3[nH]6)C=C5)C=C4)cc2)c2ccccc2)C1
REMARK SMILES IDX 16 1 15 2 14 3 13 4 12 5 10 6 11 7 9 9 8 10 7 13 1 14 2 15
REMARK SMILES IDX 3 16 4 17 91 18 5 19 6 20 85 21 86 22 90 23 87 24 89 25
REMARK SMILES IDX 88 26 17 27 18 28 19 29 20 30 21 32 22 33 23 34 84 35 24 36
REMARK SMILES IDX 83 37 25 38 26 39 27 40 77 41 28 42 82 43 76 44 78 45 29 46
REMARK SMILES IDX 81 47 75 48 74 49 30 51 62 52 42 53 61 54 43 55 46 56 60 57
REMARK SMILES IDX 79 58 44 59 45 60 59 62 80 63 47 64 31 65 32 66 40 67 33 68
REMARK SMILES IDX 39 69 41 70 38 71 34 72 35 73 36 74 37 75 63 76 64 77 72 78
REMARK SMILES IDX 65 79 71 80 73 81 70 82 66 83 67 84 68 85 69 86 48 87 49 88
REMARK SMILES IDX 57 89 50 90 56 91 58 92 55 93 51 94 52 95 53 96 54 97
REMARK H PARENT 12 8 8 11 8 12 19 31 78 50 46 61
REMARK Flexibility Score: inf
ROOT
ATOM      1  C   UNL A   1      32.045  29.777  25.105  1.00  0.00     0.002 C 
ENDROOT
BRANCH   1   2
ATOM      2  C   UNL A   1      30.938  28.917  24.488  1.00  0.00     0.002 C 
BRANCH   2   3
ATOM      3  C   UNL A   1      30.921  28.910  22.961  1.00  0.00     0.021 C 
BRANCH   3   4
ATOM      4  C   UNL A   1      30.657  27.528  22.346  1.00  0.00     0.116 C 
BRANCH   4   5
ATOM      5  N   UNL A   1      31.766  27.058  21.524  1.00  0.00    -0.351 N 
ATOM      6  C   UNL A   1      32.389  25.823  21.592  1.00  0.00     0.283 C 
ATOM      7  O   UNL A   1      33.236  25.533  20.746  1.00  0.00    -0.268 OA
ATOM      8  H   UNL A   1      32.108  27.686  20.847  1.00  0.00     0.163 HD
BRANCH   6   9
ATOM      9  C   UNL A   1      31.947  24.874  22.729  1.00  0.00     0.304 C 
BRANCH   9  10
ATOM     10  N   UNL A   1      32.335  23.469  22.417  1.00  0.00    -0.329 N 
ATOM     11  H   UNL A   1      31.493  22.932  22.209  1.00  0.00     0.347 HD
ATOM     12  H   UNL A   1      32.967  23.485  21.616  1.00  0.00     0.347 HD
BRANCH  10  13
ATOM     13  C   UNL A   1      33.046  22.825  23.551  1.00  0.00     0.193 C 
ATOM     14  C   UNL A   1      35.353  23.197  25.692  1.00  0.00     0.012 C 
ATOM     15  C   UNL A   1      35.424  22.268  24.461  1.00  0.00    -0.021 C 
ATOM     16  C   UNL A   1      36.897  22.204  24.010  1.00  0.00     0.012 C 
ATOM     17  C   UNL A   1      35.005  20.828  24.832  1.00  0.00     0.076 C 
ATOM     18  C   UNL A   1      34.569  22.844  23.292  1.00  0.00     0.073 C 
ATOM     19  S   UNL A   1      33.265  20.656  25.286  1.00  0.00    -0.155 SA
ATOM     20  C   UNL A   1      32.564  21.376  23.786  1.00  0.00     0.134 C 
ENDBRANCH  10  13
ENDBRANCH   9  10
BRANCH   9  21
ATOM     21  C   UNL A   1      32.288  25.300  24.147  1.00  0.00     0.019 A 
ATOM     22  C   UNL A   1      31.405  25.162  25.223  1.00  0.00     0.010 A 
ATOM     23  C   UNL A   1      33.489  26.016  24.344  1.00  0.00     0.010 A 
ATOM     24  C   UNL A   1      31.693  25.781  26.444  1.00  0.00     0.001 A 
ATOM     25  C   UNL A   1      33.765  26.641  25.554  1.00  0.00     0.001 A 
ATOM     26  C   UNL A   1      32.858  26.535  26.601  1.00  0.00     0.000 A 
ENDBRANCH   9  21
ENDBRANCH   6   9
ENDBRANCH   4   5
ENDBRANCH   3   4
ENDBRANCH   2   3
ENDBRANCH   1   2
BRANCH   1  27
ATOM     27  C   UNL A   1      31.564  30.908  26.022  1.00  0.00     0.021 C 
BRANCH  27  28
ATOM     28  C   UNL A   1      32.609  31.431  27.009  1.00  0.00     0.116 C 
BRANCH  28  29
ATOM     29  N   UNL A   1      32.515  32.873  27.181  1.00  0.00    -0.352 N 
ATOM     30  C   UNL A   1      33.198  33.698  28.033  1.00  0.00     0.251 C 
ATOM     31  H   UNL A   1      31.862  33.322  26.598  1.00  0.00     0.163 HD
ATOM     32  O   UNL A   1      32.786  34.851  28.220  1.00  0.00    -0.269 OA
BRANCH  30  33
ATOM     33  C   UNL A   1      34.410  33.227  28.731  1.00  0.00     0.039 A 
ATOM     34  C   UNL A   1      34.282  32.310  29.780  1.00  0.00     0.014 A 
ATOM     35  C   UNL A   1      35.672  33.714  28.380  1.00  0.00     0.014 A 
ATOM     36  C   UNL A   1      35.422  31.840  30.435  1.00  0.00     0.010 A 
ATOM     37  C   UNL A   1      36.813  33.197  28.992  1.00  0.00     0.010 A 
ATOM     38  C   UNL A   1      36.700  32.256  30.026  1.00  0.00    -0.014 A 
BRANCH  38  39
ATOM     39  C   UNL A   1      37.930  31.713  30.662  1.00  0.00     0.031 A 
ATOM     40  C   UNL A   1      38.758  30.680  29.944  1.00  0.00     0.074 A 
ATOM     41  C   UNL A   1      38.255  32.096  31.914  1.00  0.00     0.049 A 
ATOM     42  N   UNL A   1      39.802  30.017  30.369  1.00  0.00    -0.248 NA
ATOM     43  C   UNL A   1      38.339  30.329  28.578  1.00  0.00     0.031 C 
ATOM     44  C   UNL A   1      37.503  33.059  32.723  1.00  0.00     0.029 A 
ATOM     45  N   UNL A   1      39.284  31.708  32.735  1.00  0.00    -0.354 N 
ATOM     46  C   UNL A   1      40.152  29.154  29.336  1.00  0.00     0.074 A 
ATOM     47  C   UNL A   1      39.183  29.352  28.278  1.00  0.00     0.031 C 
ATOM     48  C   UNL A   1      38.101  33.190  33.918  1.00  0.00     0.029 A 
ATOM     49  C   UNL A   1      39.248  32.290  33.982  1.00  0.00     0.049 A 
ATOM     50  H   UNL A   1      39.985  31.075  32.457  1.00  0.00     0.167 HD
ATOM     51  C   UNL A   1      41.192  28.287  29.274  1.00  0.00     0.034 A 
ATOM     52  C   UNL A   1      40.031  32.101  35.063  1.00  0.00     0.034 A 
ATOM     53  C   UNL A   1      42.164  28.122  30.327  1.00  0.00     0.049 A 
ATOM     54  C   UNL A   1      41.181  31.128  34.964  1.00  0.00     0.074 A 
ATOM     55  C   UNL A   1      43.302  27.334  30.332  1.00  0.00     0.029 A 
ATOM     56  N   UNL A   1      42.107  28.745  31.567  1.00  0.00    -0.354 N 
ATOM     57  N   UNL A   1      41.539  30.373  33.950  1.00  0.00    -0.248 NA
ATOM     58  C   UNL A   1      42.040  30.992  36.148  1.00  0.00     0.031 C 
ATOM     59  C   UNL A   1      43.893  27.424  31.596  1.00  0.00     0.029 A 
ATOM     60  C   UNL A   1      43.170  28.330  32.356  1.00  0.00     0.049 A 
ATOM     61  H   UNL A   1      41.415  29.386  31.846  1.00  0.00     0.167 HD
ATOM     62  C   UNL A   1      42.683  29.698  34.368  1.00  0.00     0.074 A 
ATOM     63  C   UNL A   1      42.965  30.149  35.713  1.00  0.00     0.031 C 
ATOM     64  C   UNL A   1      43.434  28.786  33.699  1.00  0.00     0.034 A 
BRANCH  51  65
ATOM     65  C   UNL A   1      41.321  27.426  28.040  1.00  0.00     0.023 A 
ATOM     66  C   UNL A   1      40.948  26.072  28.034  1.00  0.00     0.031 A 
ATOM     67  C   UNL A   1      41.813  27.980  26.844  1.00  0.00     0.131 A 
ATOM     68  C   UNL A   1      41.118  25.305  26.871  1.00  0.00     0.055 A 
ATOM     69  C   UNL A   1      41.912  27.230  25.671  1.00  0.00     0.041 A 
ATOM     70  F   UNL A   1      42.204  29.264  26.795  1.00  0.00    -0.206 F 
ATOM     71  C   UNL A   1      41.574  25.880  25.682  1.00  0.00     0.022 A 
BRANCH  68  72
ATOM     72  S   UNL A   1      40.833  23.516  26.959  1.00  0.00     0.124 S 
ATOM     73  O   UNL A   1      41.703  23.026  25.893  1.00  0.00    -0.237 OA
ATOM     74  O   UNL A   1      41.249  23.196  28.320  1.00  0.00    -0.237 OA
ATOM     75  O   UNL A   1      39.401  23.382  26.696  1.00  0.00    -0.744 OA
ENDBRANCH  68  72
ENDBRANCH  51  65
BRANCH  52  76
ATOM     76  C   UNL A   1      39.749  32.814  36.344  1.00  0.00     0.023 A 
ATOM     77  C   UNL A   1      38.816  32.312  37.264  1.00  0.00     0.031 A 
ATOM     78  C   UNL A   1      40.360  34.047  36.633  1.00  0.00     0.131 A 
ATOM     79  C   UNL A   1      38.472  33.069  38.396  1.00  0.00     0.055 A 
ATOM     80  C   UNL A   1      40.061  34.766  37.793  1.00  0.00     0.041 A 
ATOM     81  F   UNL A   1      41.264  34.574  35.791  1.00  0.00    -0.206 F 
ATOM     82  C   UNL A   1      39.098  34.285  38.673  1.00  0.00     0.022 A 
BRANCH  79  83
ATOM     83  S   UNL A   1      37.106  32.493  39.441  1.00  0.00     0.124 S 
ATOM     84  O   UNL A   1      37.479  31.103  39.680  1.00  0.00    -0.237 OA
ATOM     85  O   UNL A   1      37.203  33.391  40.586  1.00  0.00    -0.237 OA
ATOM     86  O   UNL A   1      35.928  32.687  38.597  1.00  0.00    -0.744 OA
ENDBRANCH  79  83
ENDBRANCH  52  76
BRANCH  64  87
ATOM     87  C   UNL A   1      44.661  28.258  34.404  1.00  0.00     0.023 A 
ATOM     88  C   UNL A   1      44.616  27.101  35.200  1.00  0.00     0.031 A 
ATOM     89  C   UNL A   1      45.888  28.934  34.286  1.00  0.00     0.131 A 
ATOM     90  C   UNL A   1      45.763  26.685  35.893  1.00  0.00     0.055 A 
ATOM     91  C   UNL A   1      47.041  28.480  34.927  1.00  0.00     0.041 A 
ATOM     92  F   UNL A   1      45.987  30.046  33.541  1.00  0.00    -0.206 F 
ATOM     93  C   UNL A   1      46.979  27.357  35.748  1.00  0.00     0.022 A 
BRANCH  90  94
ATOM     94  S   UNL A   1      45.621  25.307  37.064  1.00  0.00     0.124 S 
ATOM     95  O   UNL A   1      44.577  25.781  37.966  1.00  0.00    -0.237 OA
ATOM     96  O   UNL A   1      45.254  24.195  36.194  1.00  0.00    -0.237 OA
ATOM     97  O   UNL A   1      46.956  25.219  37.652  1.00  0.00    -0.744 OA
ENDBRANCH  90  94
ENDBRANCH  64  87
ENDBRANCH  38  39
ENDBRANCH  30  33
ENDBRANCH  28  29
ENDBRANCH  27  28
ENDBRANCH   1  27
TORSDOF 19
ENDMDL
MODEL 3
REMARK VINA RESULT:     -11.4      5.693     11.628
REMARK SMILES CC1(C)CSC[C@H]([NH2+][C@H](C(=O)NCCCCCCNC(=O)c2ccc(-c3c4nc(c(-c5cc(S(=O)(=O)[O-])ccc5F)c5ccc([nH]5)c(-c5cc(S(=O)(=O)[O-])ccc5F)c5nc(c(-c6cc(S(=O)(=O)[O-])ccc6F)c6ccc3[nH]6)C=C5)C=C4)cc2)c2ccccc2)C1
REMARK SMILES IDX 16 1 15 2 14 3 13 4 12 5 10 6 11 7 9 9 8 10 7 13 1 14 2 15
REMARK SMILES IDX 3 16 4 17 91 18 5 19 6 20 85 21 86 22 90 23 87 24 89 25
REMARK SMILES IDX 88 26 17 27 18 28 19 29 20 30 21 32 22 33 23 34 84 35 24 36
REMARK SMILES IDX 83 37 25 38 26 39 27 40 77 41 28 42 82 43 76 44 78 45 29 46
REMARK SMILES IDX 81 47 75 48 74 49 30 51 62 52 42 53 61 54 43 55 46 56 60 57
REMARK SMILES IDX 79 58 44 59 45 60 59 62 80 63 47 64 31 65 32 66 40 67 33 68
REMARK SMILES IDX 39 69 41 70 38 71 34 72 35 73 36 74 37 75 63 76 64 77 72 78
REMARK SMILES IDX 65 79 71 80 73 81 70 82 66 83 67 84 68 85 69 86 48 87 49 88
REMARK SMILES IDX 57 89 50 90 56 91 58 92 55 93 51 94 52 95 53 96 54 97
REMARK H PARENT 12 8 8 11 8 12 19 31 78 50 46 61
REMARK Flexibility Score: inf
ROOT
ATOM      1  C   UNL A   1      37.842  21.557  24.917  1.00  0.00     0.002 C 
ENDROOT
BRANCH   1   2
ATOM      2  C   UNL A   1      36.313  21.497  24.871  1.00  0.00     0.002 C 
BRANCH   2   3
ATOM      3  C   UNL A   1      35.615  22.387  25.897  1.00  0.00     0.021 C 
BRANCH   3   4
ATOM      4  C   UNL A   1      34.737  23.485  25.277  1.00  0.00     0.116 C 
BRANCH   4   5
ATOM      5  N   UNL A   1      34.776  23.478  23.819  1.00  0.00    -0.351 N 
ATOM      6  C   UNL A   1      33.740  23.151  22.960  1.00  0.00     0.283 C 
ATOM      7  O   UNL A   1      33.896  23.310  21.748  1.00  0.00    -0.268 OA
ATOM      8  H   UNL A   1      35.630  23.734  23.401  1.00  0.00     0.163 HD
BRANCH   6   9
ATOM      9  C   UNL A   1      32.433  22.628  23.599  1.00  0.00     0.304 C 
BRANCH   9  10
ATOM     10  N   UNL A   1      31.246  23.221  22.920  1.00  0.00    -0.329 N 
ATOM     11  H   UNL A   1      31.524  23.548  21.995  1.00  0.00     0.347 HD
ATOM     12  H   UNL A   1      30.528  22.500  22.854  1.00  0.00     0.347 HD
BRANCH  10  13
ATOM     13  C   UNL A   1      30.684  24.363  23.685  1.00  0.00     0.193 C 
ATOM     14  C   UNL A   1      28.983  27.028  23.461  1.00  0.00     0.012 C 
ATOM     15  C   UNL A   1      30.507  26.963  23.700  1.00  0.00    -0.021 C 
ATOM     16  C   UNL A   1      31.134  28.213  23.050  1.00  0.00     0.012 C 
ATOM     17  C   UNL A   1      30.832  27.032  25.209  1.00  0.00     0.076 C 
ATOM     18  C   UNL A   1      31.112  25.694  23.028  1.00  0.00     0.073 C 
ATOM     19  S   UNL A   1      30.280  25.594  26.152  1.00  0.00    -0.155 SA
ATOM     20  C   UNL A   1      31.122  24.335  25.166  1.00  0.00     0.134 C 
ENDBRANCH  10  13
ENDBRANCH   9  10
BRANCH   9  21
ATOM     21  C   UNL A   1      32.328  21.128  23.811  1.00  0.00     0.019 A 
ATOM     22  C   UNL A   1      32.535  20.512  25.050  1.00  0.00     0.010 A 
ATOM     23  C   UNL A   1      32.177  20.314  22.667  1.00  0.00     0.010 A 
ATOM     24  C   UNL A   1      32.650  19.120  25.125  1.00  0.00     0.001 A 
ATOM     25  C   UNL A   1      32.305  18.933  22.744  1.00  0.00     0.001 A 
ATOM     26  C   UNL A   1      32.556  18.336  23.973  1.00  0.00     0.000 A 
ENDBRANCH   9  21
ENDBRANCH   6   9
ENDBRANCH   4   5
ENDBRANCH   3   4
ENDBRANCH   2   3
ENDBRANCH   1   2
BRANCH   1  27
ATOM     27  C   UNL A   1      38.550  20.202  25.037  1.00  0.00     0.021 C 
BRANCH  27  28
ATOM     28  C   UNL A   1      39.360  20.005  26.319  1.00  0.00     0.116 C 
BRANCH  28  29
ATOM     29  N   UNL A   1      40.562  19.218  26.083  1.00  0.00    -0.352 N 
ATOM     30  C   UNL A   1      41.857  19.628  25.924  1.00  0.00     0.251 C 
ATOM     31  H   UNL A   1      40.421  18.246  26.030  1.00  0.00     0.163 HD
ATOM     32  O   UNL A   1      42.691  18.835  25.465  1.00  0.00    -0.269 OA
BRANCH  30  33
ATOM     33  C   UNL A   1      42.266  20.999  26.286  1.00  0.00     0.039 A 
ATOM     34  C   UNL A   1      42.579  21.289  27.618  1.00  0.00     0.014 A 
ATOM     35  C   UNL A   1      42.307  22.011  25.323  1.00  0.00     0.014 A 
ATOM     36  C   UNL A   1      42.987  22.577  27.971  1.00  0.00     0.010 A 
ATOM     37  C   UNL A   1      42.776  23.278  25.664  1.00  0.00     0.010 A 
ATOM     38  C   UNL A   1      43.120  23.575  26.992  1.00  0.00    -0.014 A 
BRANCH  38  39
ATOM     39  C   UNL A   1      43.622  24.932  27.334  1.00  0.00     0.031 A 
ATOM     40  C   UNL A   1      42.680  25.971  27.881  1.00  0.00     0.074 A 
ATOM     41  C   UNL A   1      44.909  25.247  27.079  1.00  0.00     0.049 A 
ATOM     42  N   UNL A   1      42.903  27.232  28.145  1.00  0.00    -0.248 NA
ATOM     43  C   UNL A   1      41.297  25.539  28.140  1.00  0.00     0.031 C 
ATOM     44  C   UNL A   1      45.905  24.334  26.511  1.00  0.00     0.029 A 
ATOM     45  N   UNL A   1      45.597  26.424  27.243  1.00  0.00    -0.354 N 
ATOM     46  C   UNL A   1      41.687  27.752  28.577  1.00  0.00     0.074 A 
ATOM     47  C   UNL A   1      40.721  26.676  28.503  1.00  0.00     0.031 C 
ATOM     48  C   UNL A   1      47.073  24.983  26.380  1.00  0.00     0.029 A 
ATOM     49  C   UNL A   1      46.902  26.368  26.809  1.00  0.00     0.049 A 
ATOM     50  H   UNL A   1      45.195  27.232  27.636  1.00  0.00     0.167 HD
ATOM     51  C   UNL A   1      41.409  29.007  29.008  1.00  0.00     0.034 A 
ATOM     52  C   UNL A   1      47.846  27.328  26.739  1.00  0.00     0.034 A 
ATOM     53  C   UNL A   1      42.391  30.059  29.101  1.00  0.00     0.049 A 
ATOM     54  C   UNL A   1      47.507  28.716  27.224  1.00  0.00     0.074 A 
ATOM     55  C   UNL A   1      42.234  31.340  29.603  1.00  0.00     0.029 A 
ATOM     56  N   UNL A   1      43.709  29.959  28.675  1.00  0.00    -0.354 N 
ATOM     57  N   UNL A   1      46.369  29.170  27.698  1.00  0.00    -0.248 NA
ATOM     58  C   UNL A   1      48.581  29.717  27.178  1.00  0.00     0.031 C 
ATOM     59  C   UNL A   1      43.432  32.035  29.413  1.00  0.00     0.029 A 
ATOM     60  C   UNL A   1      44.364  31.167  28.867  1.00  0.00     0.049 A 
ATOM     61  H   UNL A   1      44.118  29.151  28.290  1.00  0.00     0.167 HD
ATOM     62  C   UNL A   1      46.604  30.500  28.035  1.00  0.00     0.074 A 
ATOM     63  C   UNL A   1      47.993  30.768  27.729  1.00  0.00     0.031 C 
ATOM     64  C   UNL A   1      45.749  31.420  28.551  1.00  0.00     0.034 A 
BRANCH  51  65
ATOM     65  C   UNL A   1      39.982  29.324  29.384  1.00  0.00     0.023 A 
ATOM     66  C   UNL A   1      39.561  29.385  30.723  1.00  0.00     0.031 A 
ATOM     67  C   UNL A   1      39.031  29.587  28.381  1.00  0.00     0.131 A 
ATOM     68  C   UNL A   1      38.215  29.652  31.022  1.00  0.00     0.055 A 
ATOM     69  C   UNL A   1      37.710  29.922  28.688  1.00  0.00     0.041 A 
ATOM     70  F   UNL A   1      39.371  29.524  27.084  1.00  0.00    -0.206 F 
ATOM     71  C   UNL A   1      37.293  29.945  30.015  1.00  0.00     0.022 A 
BRANCH  68  72
ATOM     72  S   UNL A   1      37.661  29.508  32.743  1.00  0.00     0.124 S 
ATOM     73  O   UNL A   1      38.743  30.182  33.458  1.00  0.00    -0.237 OA
ATOM     74  O   UNL A   1      36.379  30.204  32.722  1.00  0.00    -0.237 OA
ATOM     75  O   UNL A   1      37.584  28.065  32.960  1.00  0.00    -0.744 OA
ENDBRANCH  68  72
ENDBRANCH  51  65
BRANCH  52  76
ATOM     76  C   UNL A   1      49.192  27.033  26.163  1.00  0.00     0.023 A 
ATOM     77  C   UNL A   1      49.525  27.428  24.857  1.00  0.00     0.031 A 
ATOM     78  C   UNL A   1      50.141  26.290  26.887  1.00  0.00     0.131 A 
ATOM     79  C   UNL A   1      50.746  27.024  24.293  1.00  0.00     0.055 A 
ATOM     80  C   UNL A   1      51.380  25.944  26.344  1.00  0.00     0.041 A 
ATOM     81  F   UNL A   1      49.879  25.890  28.141  1.00  0.00    -0.206 F 
ATOM     82  C   UNL A   1      51.681  26.296  25.033  1.00  0.00     0.022 A 
BRANCH  79  83
ATOM     83  S   UNL A   1      51.043  27.362  22.536  1.00  0.00     0.124 S 
ATOM     84  O   UNL A   1      51.053  28.821  22.512  1.00  0.00    -0.237 OA
ATOM     85  O   UNL A   1      52.328  26.707  22.316  1.00  0.00    -0.237 OA
ATOM     86  O   UNL A   1      49.903  26.734  21.872  1.00  0.00    -0.744 OA
ENDBRANCH  79  83
ENDBRANCH  52  76
BRANCH  64  87
ATOM     87  C   UNL A   1      46.314  32.785  28.861  1.00  0.00     0.023 A 
ATOM     88  C   UNL A   1      46.338  33.811  27.901  1.00  0.00     0.031 A 
ATOM     89  C   UNL A   1      46.849  33.056  30.133  1.00  0.00     0.131 A 
ATOM     90  C   UNL A   1      46.936  35.042  28.209  1.00  0.00     0.055 A 
ATOM     91  C   UNL A   1      47.385  34.303  30.454  1.00  0.00     0.041 A 
ATOM     92  F   UNL A   1      46.854  32.111  31.087  1.00  0.00    -0.206 F 
ATOM     93  C   UNL A   1      47.444  35.300  29.485  1.00  0.00     0.022 A 
BRANCH  90  94
ATOM     94  S   UNL A   1      47.127  36.271  26.889  1.00  0.00     0.124 S 
ATOM     95  O   UNL A   1      46.733  37.504  27.563  1.00  0.00    -0.237 OA
ATOM     96  O   UNL A   1      48.542  36.152  26.553  1.00  0.00    -0.237 OA
ATOM     97  O   UNL A   1      46.203  35.810  25.854  1.00  0.00    -0.744 OA
ENDBRANCH  90  94
ENDBRANCH  64  87
ENDBRANCH  38  39
ENDBRANCH  30  33
ENDBRANCH  28  29
ENDBRANCH  27  28
ENDBRANCH   1  27
TORSDOF 19
ENDMDL
