MODEL 1
REMARK VINA RESULT:     -11.9      0.000      0.000
REMARK SMILES COc1ccccc1C(=O)N/C(=C/c1ccc2c(c1)OCO2)C(=O)Nc1ccc(C(=O)NCCCCCCNC(=O)c2ccc(-c3c4nc(c(-c5cc(S(=O)(=O)[O-])ccc5F)c5ccc([nH]5)c(-c5cc(S(=O)(=O)[O-])ccc5F)c5nc(c(-c6cc(S(=O)(=O)[O-])ccc6F)c6ccc3[nH]6)C=C5)C=C4)cc2)cc1
REMARK SMILES IDX 34 1 33 2 32 3 30 4 31 5 29 7 26 8 27 9 106 10 28 11 105 12
REMARK SMILES IDX 25 13 23 14 24 15 12 17 13 18 11 19 9 20 10 21 8 23 3 24
REMARK SMILES IDX 4 25 5 26 7 27 6 28 2 29 1 30 14 31 15 32 19 33 16 34 18 35
REMARK SMILES IDX 17 36 20 37 22 38 21 39 35 40 36 41 37 42 38 43 39 44 40 45
REMARK SMILES IDX 41 47 42 48 43 49 104 50 44 51 103 52 45 53 46 54 47 55
REMARK SMILES IDX 97 56 48 57 102 58 96 59 98 60 49 61 101 62 95 63 94 64
REMARK SMILES IDX 50 66 82 67 62 68 81 69 63 70 66 71 80 72 99 73 64 74 65 75
REMARK SMILES IDX 79 77 100 78 67 79 51 80 52 81 60 82 53 83 59 84 61 85 58 86
REMARK SMILES IDX 54 87 55 88 56 89 57 90 83 91 84 92 92 93 85 94 91 95 93 96
REMARK SMILES IDX 90 97 86 98 87 99 88 100 89 101 68 102 69 103 77 104 70 105
REMARK SMILES IDX 76 106 78 107 75 108 71 109 72 110 73 111 74 112
REMARK H PARENT 32 6 25 16 11 22 39 46 98 65 66 76
REMARK Flexibility Score: inf
ROOT
ATOM      1  C   UNL A   1      33.371  30.198  27.258  1.00  0.00     0.021 C 
ENDROOT
BRANCH   1   2
ATOM      2  C   UNL A   1      33.205  29.128  26.181  1.00  0.00     0.116 C 
BRANCH   2   3
ATOM      3  N   UNL A   1      32.455  29.699  25.079  1.00  0.00    -0.352 N 
ATOM      4  C   UNL A   1      31.512  29.141  24.250  1.00  0.00     0.251 C 
ATOM      5  O   UNL A   1      31.191  29.761  23.237  1.00  0.00    -0.269 OA
ATOM      6  H   UNL A   1      32.656  30.645  24.894  1.00  0.00     0.163 HD
BRANCH   4   7
ATOM      7  C   UNL A   1      30.746  27.924  24.658  1.00  0.00     0.039 A 
ATOM      8  C   UNL A   1      30.191  25.243  25.320  1.00  0.00     0.041 A 
ATOM      9  C   UNL A   1      30.670  26.146  26.288  1.00  0.00     0.027 A 
ATOM     10  C   UNL A   1      29.770  25.756  24.102  1.00  0.00     0.027 A 
ATOM     11  C   UNL A   1      30.981  27.468  25.952  1.00  0.00     0.016 A 
ATOM     12  C   UNL A   1      29.988  27.117  23.801  1.00  0.00     0.016 A 
BRANCH   8  13
ATOM     13  N   UNL A   1      30.183  23.888  25.692  1.00  0.00    -0.321 N 
ATOM     14  C   UNL A   1      31.070  22.846  25.799  1.00  0.00     0.272 C 
ATOM     15  O   UNL A   1      30.563  21.764  26.126  1.00  0.00    -0.267 OA
ATOM     16  H   UNL A   1      29.278  23.603  25.953  1.00  0.00     0.170 HD
BRANCH  14  17
ATOM     17  C   UNL A   1      32.586  22.941  25.782  1.00  0.00     0.108 C 
ATOM     18  C   UNL A   1      33.355  21.931  25.304  1.00  0.00     0.040 C 
BRANCH  17  19
ATOM     19  N   UNL A   1      33.268  24.149  25.898  1.00  0.00    -0.317 N 
ATOM     20  C   UNL A   1      33.755  25.125  25.064  1.00  0.00     0.259 C 
ATOM     21  O   UNL A   1      34.507  25.964  25.572  1.00  0.00    -0.269 OA
ATOM     22  H   UNL A   1      33.452  24.363  26.840  1.00  0.00     0.170 HD
BRANCH  20  23
ATOM     23  C   UNL A   1      33.494  25.239  23.625  1.00  0.00     0.082 A 
ATOM     24  C   UNL A   1      33.546  26.422  22.885  1.00  0.00     0.131 A 
ATOM     25  C   UNL A   1      33.130  26.384  21.544  1.00  0.00     0.047 A 
ATOM     26  C   UNL A   1      32.769  25.181  20.925  1.00  0.00     0.004 A 
ATOM     27  C   UNL A   1      33.209  24.018  22.975  1.00  0.00     0.018 A 
ATOM     28  C   UNL A   1      32.846  23.988  21.631  1.00  0.00     0.001 A 
BRANCH  24  29
ATOM     29  O   UNL A   1      33.913  27.670  23.311  1.00  0.00    -0.496 OA
ATOM     30  C   UNL A   1      34.524  28.545  22.366  1.00  0.00     0.278 C 
ENDBRANCH  24  29
ENDBRANCH  20  23
ENDBRANCH  17  19
BRANCH  18  31
ATOM     31  C   UNL A   1      32.855  20.691  24.720  1.00  0.00    -0.019 A 
ATOM     32  C   UNL A   1      32.395  20.684  23.390  1.00  0.00     0.012 A 
ATOM     33  C   UNL A   1      32.989  19.502  25.446  1.00  0.00     0.058 A 
ATOM     34  C   UNL A   1      32.244  19.472  22.713  1.00  0.00     0.051 A 
ATOM     35  C   UNL A   1      32.913  18.337  24.731  1.00  0.00     0.166 A 
ATOM     36  C   UNL A   1      32.587  18.324  23.393  1.00  0.00     0.165 A 
ATOM     37  O   UNL A   1      33.305  17.114  25.183  1.00  0.00    -0.454 OA
ATOM     38  O   UNL A   1      32.779  17.092  22.844  1.00  0.00    -0.454 OA
ATOM     39  C   UNL A   1      33.496  16.452  23.920  1.00  0.00     0.468 C 
ENDBRANCH  18  31
ENDBRANCH  14  17
ENDBRANCH   8  13
ENDBRANCH   4   7
ENDBRANCH   2   3
ENDBRANCH   1   2
BRANCH   1  40
ATOM     40  C   UNL A   1      34.849  30.485  27.539  1.00  0.00     0.002 C 
BRANCH  40  41
ATOM     41  C   UNL A   1      35.112  31.909  28.041  1.00  0.00     0.002 C 
BRANCH  41  42
ATOM     42  C   UNL A   1      33.880  32.815  28.051  1.00  0.00     0.021 C 
BRANCH  42  43
ATOM     43  C   UNL A   1      34.202  34.303  28.139  1.00  0.00     0.116 C 
BRANCH  43  44
ATOM     44  N   UNL A   1      33.389  34.967  29.145  1.00  0.00    -0.352 N 
ATOM     45  C   UNL A   1      33.465  34.880  30.515  1.00  0.00     0.251 C 
ATOM     46  H   UNL A   1      32.686  35.562  28.796  1.00  0.00     0.163 HD
ATOM     47  O   UNL A   1      32.558  35.310  31.209  1.00  0.00    -0.269 OA
BRANCH  45  48
ATOM     48  C   UNL A   1      34.649  34.237  31.126  1.00  0.00     0.039 A 
ATOM     49  C   UNL A   1      34.461  33.171  32.008  1.00  0.00     0.014 A 
ATOM     50  C   UNL A   1      35.938  34.676  30.808  1.00  0.00     0.014 A 
ATOM     51  C   UNL A   1      35.573  32.499  32.517  1.00  0.00     0.010 A 
ATOM     52  C   UNL A   1      37.041  33.958  31.258  1.00  0.00     0.010 A 
ATOM     53  C   UNL A   1      36.870  32.858  32.114  1.00  0.00    -0.014 A 
BRANCH  53  54
ATOM     54  C   UNL A   1      38.059  32.088  32.562  1.00  0.00     0.031 A 
ATOM     55  C   UNL A   1      38.710  32.403  33.879  1.00  0.00     0.074 A 
ATOM     56  C   UNL A   1      38.585  31.149  31.750  1.00  0.00     0.049 A 
ATOM     57  N   UNL A   1      39.800  31.905  34.402  1.00  0.00    -0.248 NA
ATOM     58  C   UNL A   1      38.064  33.435  34.705  1.00  0.00     0.031 C 
ATOM     59  C   UNL A   1      38.057  30.776  30.435  1.00  0.00     0.029 A 
ATOM     60  N   UNL A   1      39.685  30.341  31.903  1.00  0.00    -0.354 N 
ATOM     61  C   UNL A   1      39.975  32.565  35.614  1.00  0.00     0.074 A 
ATOM     62  C   UNL A   1      38.913  33.543  35.715  1.00  0.00     0.031 C 
ATOM     63  C   UNL A   1      38.815  29.798  29.916  1.00  0.00     0.029 A 
ATOM     64  C   UNL A   1      39.918  29.513  30.829  1.00  0.00     0.049 A 
ATOM     65  H   UNL A   1      40.253  30.354  32.706  1.00  0.00     0.167 HD
ATOM     66  C   UNL A   1      40.921  32.356  36.563  1.00  0.00     0.034 A 
ATOM     67  C   UNL A   1      40.916  28.638  30.596  1.00  0.00     0.034 A 
ATOM     68  C   UNL A   1      41.970  31.372  36.445  1.00  0.00     0.049 A 
ATOM     69  C   UNL A   1      41.990  28.466  31.643  1.00  0.00     0.074 A 
ATOM     70  C   UNL A   1      42.949  31.045  37.368  1.00  0.00     0.029 A 
ATOM     71  N   UNL A   1      42.187  30.567  35.335  1.00  0.00    -0.354 N 
ATOM     72  N   UNL A   1      42.112  29.064  32.806  1.00  0.00    -0.248 NA
ATOM     73  C   UNL A   1      43.056  27.501  31.347  1.00  0.00     0.031 C 
ATOM     74  C   UNL A   1      43.802  30.103  36.785  1.00  0.00     0.029 A 
ATOM     75  C   UNL A   1      43.308  29.775  35.533  1.00  0.00     0.049 A 
ATOM     76  H   UNL A   1      41.627  30.559  34.525  1.00  0.00     0.167 HD
ATOM     77  C   UNL A   1      43.252  28.520  33.392  1.00  0.00     0.074 A 
ATOM     78  C   UNL A   1      43.769  27.537  32.463  1.00  0.00     0.031 C 
ATOM     79  C   UNL A   1      43.820  28.805  34.592  1.00  0.00     0.034 A 
BRANCH  66  80
ATOM     80  C   UNL A   1      40.879  33.228  37.795  1.00  0.00     0.023 A 
ATOM     81  C   UNL A   1      40.198  32.830  38.959  1.00  0.00     0.031 A 
ATOM     82  C   UNL A   1      41.521  34.479  37.807  1.00  0.00     0.131 A 
ATOM     83  C   UNL A   1      40.116  33.700  40.056  1.00  0.00     0.055 A 
ATOM     84  C   UNL A   1      41.507  35.305  38.932  1.00  0.00     0.041 A 
ATOM     85  F   UNL A   1      42.168  34.925  36.718  1.00  0.00    -0.206 F 
ATOM     86  C   UNL A   1      40.788  34.923  40.062  1.00  0.00     0.022 A 
BRANCH  83  87
ATOM     87  S   UNL A   1      38.998  33.271  41.419  1.00  0.00     0.124 S 
ATOM     88  O   UNL A   1      37.703  33.252  40.742  1.00  0.00    -0.237 OA
ATOM     89  O   UNL A   1      39.511  31.977  41.853  1.00  0.00    -0.237 OA
ATOM     90  O   UNL A   1      39.180  34.366  42.369  1.00  0.00    -0.744 OA
ENDBRANCH  83  87
ENDBRANCH  66  80
BRANCH  67  91
ATOM     91  C   UNL A   1      40.973  27.873  29.316  1.00  0.00     0.023 A 
ATOM     92  C   UNL A   1      41.952  28.151  28.350  1.00  0.00     0.031 A 
ATOM     93  C   UNL A   1      40.014  26.888  29.014  1.00  0.00     0.131 A 
ATOM     94  C   UNL A   1      41.919  27.497  27.109  1.00  0.00     0.055 A 
ATOM     95  C   UNL A   1      40.023  26.194  27.803  1.00  0.00     0.041 A 
ATOM     96  F   UNL A   1      39.054  26.579  29.902  1.00  0.00    -0.206 F 
ATOM     97  C   UNL A   1      40.970  26.509  26.835  1.00  0.00     0.022 A 
BRANCH  94  98
ATOM     98  S   UNL A   1      43.070  28.034  25.814  1.00  0.00     0.124 S 
ATOM     99  O   UNL A   1      42.219  28.003  24.631  1.00  0.00    -0.237 OA
ATOM    100  O   UNL A   1      43.462  29.357  26.289  1.00  0.00    -0.237 OA
ATOM    101  O   UNL A   1      44.123  27.022  25.855  1.00  0.00    -0.744 OA
ENDBRANCH  94  98
ENDBRANCH  67  91
BRANCH  79 102
ATOM    102  C   UNL A   1      45.044  28.013  34.983  1.00  0.00     0.023 A 
ATOM    103  C   UNL A   1      46.343  28.460  34.684  1.00  0.00     0.031 A 
ATOM    104  C   UNL A   1      44.907  26.791  35.666  1.00  0.00     0.131 A 
ATOM    105  C   UNL A   1      47.450  27.668  35.021  1.00  0.00     0.055 A 
ATOM    106  C   UNL A   1      46.014  26.039  36.058  1.00  0.00     0.041 A 
ATOM    107  F   UNL A   1      43.690  26.313  35.973  1.00  0.00    -0.206 F 
ATOM    108  C   UNL A   1      47.295  26.470  35.724  1.00  0.00     0.022 A 
BRANCH 105 109
ATOM    109  S   UNL A   1      49.093  28.178  34.451  1.00  0.00     0.124 S 
ATOM    110  O   UNL A   1      49.184  27.513  33.155  1.00  0.00    -0.237 OA
ATOM    111  O   UNL A   1      48.973  29.632  34.414  1.00  0.00    -0.237 OA
ATOM    112  O   UNL A   1      49.992  27.658  35.480  1.00  0.00    -0.744 OA
ENDBRANCH 105 109
ENDBRANCH  79 102
ENDBRANCH  53  54
ENDBRANCH  45  48
ENDBRANCH  43  44
ENDBRANCH  42  43
ENDBRANCH  41  42
ENDBRANCH  40  41
ENDBRANCH   1  40
TORSDOF 22
ENDMDL
MODEL 2
REMARK VINA RESULT:     -11.9      1.392      7.256
REMARK SMILES COc1ccccc1C(=O)N/C(=C/c1ccc2c(c1)OCO2)C(=O)Nc1ccc(C(=O)NCCCCCCNC(=O)c2ccc(-c3c4nc(c(-c5cc(S(=O)(=O)[O-])ccc5F)c5ccc([nH]5)c(-c5cc(S(=O)(=O)[O-])ccc5F)c5nc(c(-c6cc(S(=O)(=O)[O-])ccc6F)c6ccc3[nH]6)C=C5)C=C4)cc2)cc1
REMARK SMILES IDX 34 1 33 2 32 3 30 4 31 5 29 7 26 8 27 9 106 10 28 11 105 12
REMARK SMILES IDX 25 13 23 14 24 15 12 17 13 18 11 19 9 20 10 21 8 23 3 24
REMARK SMILES IDX 4 25 5 26 7 27 6 28 2 29 1 30 14 31 15 32 19 33 16 34 18 35
REMARK SMILES IDX 17 36 20 37 22 38 21 39 35 40 36 41 37 42 38 43 39 44 40 45
REMARK SMILES IDX 41 47 42 48 43 49 104 50 44 51 103 52 45 53 46 54 47 55
REMARK SMILES IDX 97 56 48 57 102 58 96 59 98 60 49 61 101 62 95 63 94 64
REMARK SMILES IDX 50 66 82 67 62 68 81 69 63 70 66 71 80 72 99 73 64 74 65 75
REMARK SMILES IDX 79 77 100 78 67 79 51 80 52 81 60 82 53 83 59 84 61 85 58 86
REMARK SMILES IDX 54 87 55 88 56 89 57 90 83 91 84 92 92 93 85 94 91 95 93 96
REMARK SMILES IDX 90 97 86 98 87 99 88 100 89 101 68 102 69 103 77 104 70 105
REMARK SMILES IDX 76 106 78 107 75 108 71 109 72 110 73 111 74 112
REMARK H PARENT 32 6 25 16 11 22 39 46 98 65 66 76
REMARK Flexibility Score: inf
ROOT
ATOM      1  C   UNL A   1      33.066  30.178  26.875  1.00  0.00     0.021 C 
ENDROOT
BRANCH   1   2
ATOM      2  C   UNL A   1      33.107  29.163  25.735  1.00  0.00     0.116 C 
BRANCH   2   3
ATOM      3  N   UNL A   1      32.307  29.674  24.639  1.00  0.00    -0.352 N 
ATOM      4  C   UNL A   1      31.360  29.058  23.856  1.00  0.00     0.251 C 
ATOM      5  O   UNL A   1      30.988  29.634  22.834  1.00  0.00    -0.269 OA
ATOM      6  H   UNL A   1      32.468  30.619  24.419  1.00  0.00     0.163 HD
BRANCH   4   7
ATOM      7  C   UNL A   1      30.649  27.828  24.323  1.00  0.00     0.039 A 
ATOM      8  C   UNL A   1      30.228  25.184  25.195  1.00  0.00     0.041 A 
ATOM      9  C   UNL A   1      30.572  26.202  26.104  1.00  0.00     0.027 A 
ATOM     10  C   UNL A   1      29.866  25.553  23.908  1.00  0.00     0.027 A 
ATOM     11  C   UNL A   1      30.818  27.508  25.668  1.00  0.00     0.016 A 
ATOM     12  C   UNL A   1      30.014  26.895  23.497  1.00  0.00     0.016 A 
BRANCH   8  13
ATOM     13  N   UNL A   1      30.285  23.870  25.692  1.00  0.00    -0.321 N 
ATOM     14  C   UNL A   1      31.208  22.867  25.844  1.00  0.00     0.272 C 
ATOM     15  O   UNL A   1      30.755  21.808  26.299  1.00  0.00    -0.267 OA
ATOM     16  H   UNL A   1      29.404  23.588  26.030  1.00  0.00     0.170 HD
BRANCH  14  17
ATOM     17  C   UNL A   1      32.718  22.999  25.731  1.00  0.00     0.108 C 
ATOM     18  C   UNL A   1      33.478  22.013  25.195  1.00  0.00     0.040 C 
BRANCH  17  19
ATOM     19  N   UNL A   1      33.375  24.223  25.812  1.00  0.00    -0.317 N 
ATOM     20  C   UNL A   1      33.822  25.197  24.953  1.00  0.00     0.259 C 
ATOM     21  O   UNL A   1      34.567  26.059  25.430  1.00  0.00    -0.269 OA
ATOM     22  H   UNL A   1      33.577  24.456  26.746  1.00  0.00     0.170 HD
BRANCH  20  23
ATOM     23  C   UNL A   1      33.526  25.283  23.518  1.00  0.00     0.082 A 
ATOM     24  C   UNL A   1      33.611  26.441  22.743  1.00  0.00     0.131 A 
ATOM     25  C   UNL A   1      33.155  26.385  21.416  1.00  0.00     0.047 A 
ATOM     26  C   UNL A   1      32.722  25.183  20.841  1.00  0.00     0.004 A 
ATOM     27  C   UNL A   1      33.167  24.058  22.912  1.00  0.00     0.018 A 
ATOM     28  C   UNL A   1      32.765  24.008  21.580  1.00  0.00     0.001 A 
BRANCH  24  29
ATOM     29  O   UNL A   1      34.046  27.682  23.123  1.00  0.00    -0.496 OA
ATOM     30  C   UNL A   1      34.341  28.628  22.099  1.00  0.00     0.278 C 
ENDBRANCH  24  29
ENDBRANCH  20  23
ENDBRANCH  17  19
BRANCH  18  31
ATOM     31  C   UNL A   1      32.972  20.764  24.635  1.00  0.00    -0.019 A 
ATOM     32  C   UNL A   1      32.344  20.771  23.375  1.00  0.00     0.012 A 
ATOM     33  C   UNL A   1      33.262  19.563  25.293  1.00  0.00     0.058 A 
ATOM     34  C   UNL A   1      32.170  19.574  22.679  1.00  0.00     0.051 A 
ATOM     35  C   UNL A   1      33.154  18.418  24.551  1.00  0.00     0.166 A 
ATOM     36  C   UNL A   1      32.658  18.427  23.266  1.00  0.00     0.165 A 
ATOM     37  O   UNL A   1      33.665  17.206  24.904  1.00  0.00    -0.454 OA
ATOM     38  O   UNL A   1      32.842  17.225  22.651  1.00  0.00    -0.454 OA
ATOM     39  C   UNL A   1      33.725  16.594  23.603  1.00  0.00     0.468 C 
ENDBRANCH  18  31
ENDBRANCH  14  17
ENDBRANCH   8  13
ENDBRANCH   4   7
ENDBRANCH   2   3
ENDBRANCH   1   2
BRANCH   1  40
ATOM     40  C   UNL A   1      34.419  30.274  27.589  1.00  0.00     0.002 C 
BRANCH  40  41
ATOM     41  C   UNL A   1      34.697  31.656  28.192  1.00  0.00     0.002 C 
BRANCH  41  42
ATOM     42  C   UNL A   1      33.571  32.672  27.995  1.00  0.00     0.021 C 
BRANCH  42  43
ATOM     43  C   UNL A   1      34.023  34.126  28.080  1.00  0.00     0.116 C 
BRANCH  43  44
ATOM     44  N   UNL A   1      33.188  34.891  28.992  1.00  0.00    -0.352 N 
ATOM     45  C   UNL A   1      33.242  34.960  30.364  1.00  0.00     0.251 C 
ATOM     46  H   UNL A   1      32.487  35.436  28.567  1.00  0.00     0.163 HD
ATOM     47  O   UNL A   1      32.320  35.457  30.990  1.00  0.00    -0.269 OA
BRANCH  45  48
ATOM     48  C   UNL A   1      34.420  34.402  31.062  1.00  0.00     0.039 A 
ATOM     49  C   UNL A   1      34.324  33.138  31.648  1.00  0.00     0.014 A 
ATOM     50  C   UNL A   1      35.620  35.118  31.115  1.00  0.00     0.014 A 
ATOM     51  C   UNL A   1      35.455  32.563  32.228  1.00  0.00     0.010 A 
ATOM     52  C   UNL A   1      36.763  34.513  31.627  1.00  0.00     0.010 A 
ATOM     53  C   UNL A   1      36.693  33.226  32.185  1.00  0.00    -0.014 A 
BRANCH  53  54
ATOM     54  C   UNL A   1      37.930  32.586  32.702  1.00  0.00     0.031 A 
ATOM     55  C   UNL A   1      38.624  31.523  31.896  1.00  0.00     0.074 A 
ATOM     56  C   UNL A   1      38.389  32.921  33.925  1.00  0.00     0.049 A 
ATOM     57  N   UNL A   1      39.660  30.791  32.213  1.00  0.00    -0.248 NA
ATOM     58  C   UNL A   1      38.062  31.228  30.570  1.00  0.00     0.031 C 
ATOM     59  C   UNL A   1      37.782  33.917  34.812  1.00  0.00     0.029 A 
ATOM     60  N   UNL A   1      39.464  32.456  34.641  1.00  0.00    -0.354 N 
ATOM     61  C   UNL A   1      39.871  29.944  31.130  1.00  0.00     0.074 A 
ATOM     62  C   UNL A   1      38.815  30.213  30.177  1.00  0.00     0.031 C 
ATOM     63  C   UNL A   1      38.508  34.006  35.937  1.00  0.00     0.029 A 
ATOM     64  C   UNL A   1      39.596  33.034  35.883  1.00  0.00     0.049 A 
ATOM     65  H   UNL A   1      40.083  31.772  34.298  1.00  0.00     0.167 HD
ATOM     66  C   UNL A   1      40.866  29.043  30.940  1.00  0.00     0.034 A 
ATOM     67  C   UNL A   1      40.479  32.797  36.872  1.00  0.00     0.034 A 
ATOM     68  C   UNL A   1      41.913  28.793  31.901  1.00  0.00     0.049 A 
ATOM     69  C   UNL A   1      41.543  31.747  36.660  1.00  0.00     0.074 A 
ATOM     70  C   UNL A   1      42.997  27.939  31.789  1.00  0.00     0.029 A 
ATOM     71  N   UNL A   1      42.002  29.382  33.156  1.00  0.00    -0.354 N 
ATOM     72  N   UNL A   1      41.757  30.990  35.608  1.00  0.00    -0.248 NA
ATOM     73  C   UNL A   1      42.485  31.524  37.764  1.00  0.00     0.031 C 
ATOM     74  C   UNL A   1      43.693  27.952  33.002  1.00  0.00     0.029 A 
ATOM     75  C   UNL A   1      43.097  28.879  33.842  1.00  0.00     0.049 A 
ATOM     76  H   UNL A   1      41.379  30.058  33.507  1.00  0.00     0.167 HD
ATOM     77  C   UNL A   1      42.879  30.225  35.916  1.00  0.00     0.074 A 
ATOM     78  C   UNL A   1      43.304  30.624  37.241  1.00  0.00     0.031 C 
ATOM     79  C   UNL A   1      43.504  29.278  35.169  1.00  0.00     0.034 A 
BRANCH  66  80
ATOM     80  C   UNL A   1      40.852  28.245  29.659  1.00  0.00     0.023 A 
ATOM     81  C   UNL A   1      41.770  28.493  28.623  1.00  0.00     0.031 A 
ATOM     82  C   UNL A   1      39.903  27.226  29.463  1.00  0.00     0.131 A 
ATOM     83  C   UNL A   1      41.675  27.784  27.417  1.00  0.00     0.055 A 
ATOM     84  C   UNL A   1      39.867  26.465  28.293  1.00  0.00     0.041 A 
ATOM     85  F   UNL A   1      38.985  26.957  30.406  1.00  0.00    -0.206 F 
ATOM     86  C   UNL A   1      40.748  26.752  27.254  1.00  0.00     0.022 A 
BRANCH  83  87
ATOM     87  S   UNL A   1      42.687  28.326  26.012  1.00  0.00     0.124 S 
ATOM     88  O   UNL A   1      42.833  29.754  26.288  1.00  0.00    -0.237 OA
ATOM     89  O   UNL A   1      43.893  27.519  26.162  1.00  0.00    -0.237 OA
ATOM     90  O   UNL A   1      41.861  28.005  24.851  1.00  0.00    -0.744 OA
ENDBRANCH  83  87
ENDBRANCH  66  80
BRANCH  67  91
ATOM     91  C   UNL A   1      40.391  33.539  38.164  1.00  0.00     0.023 A 
ATOM     92  C   UNL A   1      39.447  33.182  39.140  1.00  0.00     0.031 A 
ATOM     93  C   UNL A   1      41.212  34.653  38.421  1.00  0.00     0.131 A 
ATOM     94  C   UNL A   1      39.306  33.963  40.298  1.00  0.00     0.055 A 
ATOM     95  C   UNL A   1      41.113  35.388  39.603  1.00  0.00     0.041 A 
ATOM     96  F   UNL A   1      42.134  35.038  37.524  1.00  0.00    -0.206 F 
ATOM     97  C   UNL A   1      40.144  35.053  40.544  1.00  0.00     0.022 A 
BRANCH  94  98
ATOM     98  S   UNL A   1      37.939  33.595  41.432  1.00  0.00     0.124 S 
ATOM     99  O   UNL A   1      37.022  32.868  40.562  1.00  0.00    -0.237 OA
ATOM    100  O   UNL A   1      38.607  32.808  42.463  1.00  0.00    -0.237 OA
ATOM    101  O   UNL A   1      37.485  34.917  41.856  1.00  0.00    -0.744 OA
ENDBRANCH  94  98
ENDBRANCH  67  91
BRANCH  79 102
ATOM    102  C   UNL A   1      44.739  28.639  35.757  1.00  0.00     0.023 A 
ATOM    103  C   UNL A   1      44.660  27.541  36.631  1.00  0.00     0.031 A 
ATOM    104  C   UNL A   1      46.014  29.137  35.435  1.00  0.00     0.131 A 
ATOM    105  C   UNL A   1      45.831  27.010  37.193  1.00  0.00     0.055 A 
ATOM    106  C   UNL A   1      47.178  28.563  35.945  1.00  0.00     0.041 A 
ATOM    107  F   UNL A   1      46.148  30.188  34.609  1.00  0.00    -0.206 F 
ATOM    108  C   UNL A   1      47.090  27.501  36.840  1.00  0.00     0.022 A 
BRANCH 105 109
ATOM    109  S   UNL A   1      45.682  25.725  38.463  1.00  0.00     0.124 S 
ATOM    110  O   UNL A   1      46.963  25.834  39.155  1.00  0.00    -0.237 OA
ATOM    111  O   UNL A   1      44.512  26.164  39.217  1.00  0.00    -0.237 OA
ATOM    112  O   UNL A   1      45.496  24.498  37.691  1.00  0.00    -0.744 OA
ENDBRANCH 105 109
ENDBRANCH  79 102
ENDBRANCH  53  54
ENDBRANCH  45  48
ENDBRANCH  43  44
ENDBRANCH  42  43
ENDBRANCH  41  42
ENDBRANCH  40  41
ENDBRANCH   1  40
TORSDOF 22
ENDMDL
MODEL 3
REMARK VINA RESULT:     -11.6      6.364     11.620
REMARK SMILES COc1ccccc1C(=O)N/C(=C/c1ccc2c(c1)OCO2)C(=O)Nc1ccc(C(=O)NCCCCCCNC(=O)c2ccc(-c3c4nc(c(-c5cc(S(=O)(=O)[O-])ccc5F)c5ccc([nH]5)c(-c5cc(S(=O)(=O)[O-])ccc5F)c5nc(c(-c6cc(S(=O)(=O)[O-])ccc6F)c6ccc3[nH]6)C=C5)C=C4)cc2)cc1
REMARK SMILES IDX 34 1 33 2 32 3 30 4 31 5 29 7 26 8 27 9 106 10 28 11 105 12
REMARK SMILES IDX 25 13 23 14 24 15 12 17 13 18 11 19 9 20 10 21 8 23 3 24
REMARK SMILES IDX 4 25 5 26 7 27 6 28 2 29 1 30 14 31 15 32 19 33 16 34 18 35
REMARK SMILES IDX 17 36 20 37 22 38 21 39 35 40 36 41 37 42 38 43 39 44 40 45
REMARK SMILES IDX 41 47 42 48 43 49 104 50 44 51 103 52 45 53 46 54 47 55
REMARK SMILES IDX 97 56 48 57 102 58 96 59 98 60 49 61 101 62 95 63 94 64
REMARK SMILES IDX 50 66 82 67 62 68 81 69 63 70 66 71 80 72 99 73 64 74 65 75
REMARK SMILES IDX 79 77 100 78 67 79 51 80 52 81 60 82 53 83 59 84 61 85 58 86
REMARK SMILES IDX 54 87 55 88 56 89 57 90 83 91 84 92 92 93 85 94 91 95 93 96
REMARK SMILES IDX 90 97 86 98 87 99 88 100 89 101 68 102 69 103 77 104 70 105
REMARK SMILES IDX 76 106 78 107 75 108 71 109 72 110 73 111 74 112
REMARK H PARENT 32 6 25 16 11 22 39 46 98 65 66 76
REMARK Flexibility Score: inf
ROOT
ATOM      1  C   UNL A   1      41.550  32.666  38.125  1.00  0.00     0.021 C 
ENDROOT
BRANCH   1   2
ATOM      2  C   UNL A   1      40.316  33.554  38.272  1.00  0.00     0.116 C 
BRANCH   2   3
ATOM      3  N   UNL A   1      39.202  32.724  38.687  1.00  0.00    -0.352 N 
ATOM      4  C   UNL A   1      38.168  32.180  37.961  1.00  0.00     0.251 C 
ATOM      5  O   UNL A   1      37.213  31.708  38.577  1.00  0.00    -0.269 OA
ATOM      6  H   UNL A   1      39.181  32.515  39.648  1.00  0.00     0.163 HD
BRANCH   4   7
ATOM      7  C   UNL A   1      38.282  31.978  36.484  1.00  0.00     0.039 A 
ATOM      8  C   UNL A   1      37.656  31.137  33.871  1.00  0.00     0.041 A 
ATOM      9  C   UNL A   1      37.134  32.336  34.392  1.00  0.00     0.027 A 
ATOM     10  C   UNL A   1      38.670  30.506  34.576  1.00  0.00     0.027 A 
ATOM     11  C   UNL A   1      37.414  32.736  35.703  1.00  0.00     0.016 A 
ATOM     12  C   UNL A   1      39.029  30.974  35.857  1.00  0.00     0.016 A 
BRANCH   8  13
ATOM     13  N   UNL A   1      37.089  30.692  32.664  1.00  0.00    -0.321 N 
ATOM     14  C   UNL A   1      36.996  31.103  31.358  1.00  0.00     0.272 C 
ATOM     15  O   UNL A   1      36.306  30.375  30.632  1.00  0.00    -0.267 OA
ATOM     16  H   UNL A   1      36.622  29.835  32.793  1.00  0.00     0.170 HD
BRANCH  14  17
ATOM     17  C   UNL A   1      37.817  32.194  30.691  1.00  0.00     0.108 C 
ATOM     18  C   UNL A   1      37.388  33.480  30.650  1.00  0.00     0.040 C 
BRANCH  17  19
ATOM     19  N   UNL A   1      39.174  32.054  30.413  1.00  0.00    -0.317 N 
ATOM     20  C   UNL A   1      40.033  31.059  30.014  1.00  0.00     0.259 C 
ATOM     21  O   UNL A   1      41.241  31.307  30.086  1.00  0.00    -0.269 OA
ATOM     22  H   UNL A   1      39.651  32.905  30.538  1.00  0.00     0.170 HD
BRANCH  20  23
ATOM     23  C   UNL A   1      39.646  29.723  29.547  1.00  0.00     0.082 A 
ATOM     24  C   UNL A   1      39.453  28.606  30.363  1.00  0.00     0.131 A 
ATOM     25  C   UNL A   1      39.225  27.366  29.745  1.00  0.00     0.047 A 
ATOM     26  C   UNL A   1      39.089  27.255  28.355  1.00  0.00     0.004 A 
ATOM     27  C   UNL A   1      39.426  29.621  28.155  1.00  0.00     0.018 A 
ATOM     28  C   UNL A   1      39.150  28.393  27.561  1.00  0.00     0.001 A 
BRANCH  24  29
ATOM     29  O   UNL A   1      39.506  28.538  31.729  1.00  0.00    -0.496 OA
ATOM     30  C   UNL A   1      38.673  27.584  32.382  1.00  0.00     0.278 C 
ENDBRANCH  24  29
ENDBRANCH  20  23
ENDBRANCH  17  19
BRANCH  18  31
ATOM     31  C   UNL A   1      36.159  33.981  31.255  1.00  0.00    -0.019 A 
ATOM     32  C   UNL A   1      36.215  34.650  32.493  1.00  0.00     0.012 A 
ATOM     33  C   UNL A   1      34.971  33.924  30.517  1.00  0.00     0.058 A 
ATOM     34  C   UNL A   1      35.134  35.426  32.914  1.00  0.00     0.051 A 
ATOM     35  C   UNL A   1      33.962  34.759  30.916  1.00  0.00     0.166 A 
ATOM     36  C   UNL A   1      34.056  35.518  32.061  1.00  0.00     0.165 A 
ATOM     37  O   UNL A   1      32.864  35.068  30.174  1.00  0.00    -0.454 OA
ATOM     38  O   UNL A   1      33.040  36.423  32.144  1.00  0.00    -0.454 OA
ATOM     39  C   UNL A   1      32.492  36.302  30.814  1.00  0.00     0.468 C 
ENDBRANCH  18  31
ENDBRANCH  14  17
ENDBRANCH   8  13
ENDBRANCH   4   7
ENDBRANCH   2   3
ENDBRANCH   1   2
BRANCH   1  40
ATOM     40  C   UNL A   1      42.776  33.295  38.793  1.00  0.00     0.002 C 
BRANCH  40  41
ATOM     41  C   UNL A   1      42.508  33.800  40.215  1.00  0.00     0.002 C 
BRANCH  41  42
ATOM     42  C   UNL A   1      42.799  35.287  40.425  1.00  0.00     0.021 C 
BRANCH  42  43
ATOM     43  C   UNL A   1      41.772  36.219  39.790  1.00  0.00     0.116 C 
BRANCH  43  44
ATOM     44  N   UNL A   1      42.379  37.467  39.358  1.00  0.00    -0.352 N 
ATOM     45  C   UNL A   1      43.205  37.703  38.285  1.00  0.00     0.251 C 
ATOM     46  H   UNL A   1      42.169  38.253  39.912  1.00  0.00     0.163 HD
ATOM     47  O   UNL A   1      43.820  38.753  38.202  1.00  0.00    -0.269 OA
BRANCH  45  48
ATOM     48  C   UNL A   1      43.351  36.654  37.251  1.00  0.00     0.039 A 
ATOM     49  C   UNL A   1      42.228  36.262  36.521  1.00  0.00     0.014 A 
ATOM     50  C   UNL A   1      44.600  36.080  36.994  1.00  0.00     0.014 A 
ATOM     51  C   UNL A   1      42.372  35.343  35.482  1.00  0.00     0.010 A 
ATOM     52  C   UNL A   1      44.753  35.220  35.911  1.00  0.00     0.010 A 
ATOM     53  C   UNL A   1      43.640  34.845  35.141  1.00  0.00    -0.014 A 
BRANCH  53  54
ATOM     54  C   UNL A   1      43.829  33.947  33.972  1.00  0.00     0.031 A 
ATOM     55  C   UNL A   1      43.776  34.503  32.577  1.00  0.00     0.074 A 
ATOM     56  C   UNL A   1      43.985  32.623  34.172  1.00  0.00     0.049 A 
ATOM     57  N   UNL A   1      43.832  33.871  31.433  1.00  0.00    -0.248 NA
ATOM     58  C   UNL A   1      43.612  35.959  32.452  1.00  0.00     0.031 C 
ATOM     59  C   UNL A   1      44.024  31.964  35.480  1.00  0.00     0.029 A 
ATOM     60  N   UNL A   1      44.132  31.590  33.280  1.00  0.00    -0.354 N 
ATOM     61  C   UNL A   1      43.704  34.850  30.453  1.00  0.00     0.074 A 
ATOM     62  C   UNL A   1      43.504  36.107  31.141  1.00  0.00     0.031 C 
ATOM     63  C   UNL A   1      44.209  30.646  35.305  1.00  0.00     0.029 A 
ATOM     64  C   UNL A   1      44.244  30.354  33.876  1.00  0.00     0.049 A 
ATOM     65  H   UNL A   1      44.156  31.721  32.305  1.00  0.00     0.167 HD
ATOM     66  C   UNL A   1      43.770  34.712  29.105  1.00  0.00     0.034 A 
ATOM     67  C   UNL A   1      44.344  29.124  33.334  1.00  0.00     0.034 A 
ATOM     68  C   UNL A   1      43.974  33.449  28.439  1.00  0.00     0.049 A 
ATOM     69  C   UNL A   1      44.356  28.993  31.830  1.00  0.00     0.074 A 
ATOM     70  C   UNL A   1      44.107  33.205  27.082  1.00  0.00     0.029 A 
ATOM     71  N   UNL A   1      44.062  32.217  29.074  1.00  0.00    -0.354 N 
ATOM     72  N   UNL A   1      44.284  29.935  30.918  1.00  0.00    -0.248 NA
ATOM     73  C   UNL A   1      44.468  27.634  31.284  1.00  0.00     0.031 C 
ATOM     74  C   UNL A   1      44.193  31.822  26.893  1.00  0.00     0.029 A 
ATOM     75  C   UNL A   1      44.204  31.206  28.134  1.00  0.00     0.049 A 
ATOM     76  H   UNL A   1      44.028  32.080  30.048  1.00  0.00     0.167 HD
ATOM     77  C   UNL A   1      44.374  29.281  29.692  1.00  0.00     0.074 A 
ATOM     78  C   UNL A   1      44.523  27.870  29.983  1.00  0.00     0.031 C 
ATOM     79  C   UNL A   1      44.340  29.801  28.438  1.00  0.00     0.034 A 
BRANCH  66  80
ATOM     80  C   UNL A   1      43.592  35.955  28.267  1.00  0.00     0.023 A 
ATOM     81  C   UNL A   1      44.690  36.721  27.839  1.00  0.00     0.031 A 
ATOM     82  C   UNL A   1      42.307  36.387  27.895  1.00  0.00     0.131 A 
ATOM     83  C   UNL A   1      44.481  37.912  27.127  1.00  0.00     0.055 A 
ATOM     84  C   UNL A   1      42.109  37.527  27.114  1.00  0.00     0.041 A 
ATOM     85  F   UNL A   1      41.217  35.711  28.292  1.00  0.00    -0.206 F 
ATOM     86  C   UNL A   1      43.199  38.306  26.738  1.00  0.00     0.022 A 
BRANCH  83  87
ATOM     87  S   UNL A   1      45.896  39.011  26.843  1.00  0.00     0.124 S 
ATOM     88  O   UNL A   1      46.521  39.033  28.163  1.00  0.00    -0.237 OA
ATOM     89  O   UNL A   1      46.634  38.310  25.798  1.00  0.00    -0.237 OA
ATOM     90  O   UNL A   1      45.276  40.269  26.434  1.00  0.00    -0.744 OA
ENDBRANCH  83  87
ENDBRANCH  66  80
BRANCH  67  91
ATOM     91  C   UNL A   1      44.413  27.914  34.204  1.00  0.00     0.023 A 
ATOM     92  C   UNL A   1      43.271  27.135  34.451  1.00  0.00     0.031 A 
ATOM     93  C   UNL A   1      45.610  27.548  34.848  1.00  0.00     0.131 A 
ATOM     94  C   UNL A   1      43.335  26.067  35.360  1.00  0.00     0.055 A 
ATOM     95  C   UNL A   1      45.683  26.447  35.701  1.00  0.00     0.041 A 
ATOM     96  F   UNL A   1      46.733  28.257  34.647  1.00  0.00    -0.206 F 
ATOM     97  C   UNL A   1      44.537  25.708  35.974  1.00  0.00     0.022 A 
BRANCH  94  98
ATOM     98  S   UNL A   1      41.796  25.218  35.810  1.00  0.00     0.124 S 
ATOM     99  O   UNL A   1      41.982  23.917  35.180  1.00  0.00    -0.237 OA
ATOM    100  O   UNL A   1      41.854  25.242  37.267  1.00  0.00    -0.237 OA
ATOM    101  O   UNL A   1      40.759  26.059  35.216  1.00  0.00    -0.744 OA
ENDBRANCH  94  98
ENDBRANCH  67  91
BRANCH  79 102
ATOM    102  C   UNL A   1      44.507  28.838  27.287  1.00  0.00     0.023 A 
ATOM    103  C   UNL A   1      45.766  28.562  26.727  1.00  0.00     0.031 A 
ATOM    104  C   UNL A   1      43.385  28.184  26.744  1.00  0.00     0.131 A 
ATOM    105  C   UNL A   1      45.868  27.698  25.627  1.00  0.00     0.055 A 
ATOM    106  C   UNL A   1      43.501  27.276  25.693  1.00  0.00     0.041 A 
ATOM    107  F   UNL A   1      42.157  28.413  27.237  1.00  0.00    -0.206 F 
ATOM    108  C   UNL A   1      44.747  27.038  25.119  1.00  0.00     0.022 A 
BRANCH 105 109
ATOM    109  S   UNL A   1      47.475  27.516  24.808  1.00  0.00     0.124 S 
ATOM    110  O   UNL A   1      47.852  26.155  25.178  1.00  0.00    -0.237 OA
ATOM    111  O   UNL A   1      47.135  27.722  23.403  1.00  0.00    -0.237 OA
ATOM    112  O   UNL A   1      48.289  28.571  25.409  1.00  0.00    -0.744 OA
ENDBRANCH 105 109
ENDBRANCH  79 102
ENDBRANCH  53  54
ENDBRANCH  45  48
ENDBRANCH  43  44
ENDBRANCH  42  43
ENDBRANCH  41  42
ENDBRANCH  40  41
ENDBRANCH   1  40
TORSDOF 22
ENDMDL
