MODEL 1
REMARK VINA RESULT:     -11.5      0.000      0.000
REMARK SMILES O=C(NCCCCCCNC(=O)[C@@H]1C=C[C@H](NC(=O)[C@@H]2Cc3ccccc3O2)C1)c1ccc(-c2c3nc(c(-c4cc(S(=O)(=O)[O-])ccc4F)c4ccc([nH]4)c(-c4cc(S(=O)(=O)[O-])ccc4F)c4nc(c(-c5cc(S(=O)(=O)[O-])ccc5F)c5ccc2[nH]5)C=C4)C=C3)cc1
REMARK SMILES IDX 6 1 5 2 4 3 3 4 1 5 2 6 30 8 31 9 92 10 32 11 91 12 33 13
REMARK SMILES IDX 34 14 35 15 85 16 36 17 90 18 84 19 86 20 37 21 89 22 83 23
REMARK SMILES IDX 82 24 38 26 70 27 50 28 69 29 51 30 54 31 68 32 87 33 52 34
REMARK SMILES IDX 53 35 67 37 88 38 55 39 39 40 40 41 48 42 41 43 47 44 49 45
REMARK SMILES IDX 46 46 42 47 43 48 44 49 45 50 71 51 72 52 80 53 73 54 79 55
REMARK SMILES IDX 81 56 78 57 74 58 75 59 76 60 77 61 56 62 57 63 65 64 58 65
REMARK SMILES IDX 64 66 66 67 63 68 59 69 60 70 61 71 62 72 7 73 8 74 9 75
REMARK SMILES IDX 10 76 11 77 12 79 13 80 14 81 29 82 15 83 16 84 17 85 18 86
REMARK SMILES IDX 19 88 20 89 21 90 28 91 22 92 27 93 23 94 26 95 24 96 25 97
REMARK H PARENT 3 7 86 25 54 36 10 78 17 87
REMARK Flexibility Score: inf
ROOT
ATOM      1  C   UNL A   1      35.770  32.706  27.977  1.00  0.00     0.002 C 
ENDROOT
BRANCH   1   2
ATOM      2  C   UNL A   1      34.812  33.896  27.893  1.00  0.00     0.021 C 
BRANCH   2   3
ATOM      3  C   UNL A   1      33.411  33.612  28.417  1.00  0.00     0.116 C 
BRANCH   3   4
ATOM      4  N   UNL A   1      32.951  34.654  29.320  1.00  0.00    -0.352 N 
ATOM      5  O   UNL A   1      32.741  35.700  31.306  1.00  0.00    -0.269 OA
ATOM      6  C   UNL A   1      33.372  34.920  30.599  1.00  0.00     0.251 C 
ATOM      7  H   UNL A   1      32.246  35.244  28.969  1.00  0.00     0.163 HD
BRANCH   6   8
ATOM      8  C   UNL A   1      34.588  34.254  31.116  1.00  0.00     0.039 A 
ATOM      9  C   UNL A   1      34.494  33.017  31.758  1.00  0.00     0.014 A 
ATOM     10  C   UNL A   1      35.833  34.863  30.933  1.00  0.00     0.014 A 
ATOM     11  C   UNL A   1      35.631  32.431  32.302  1.00  0.00     0.010 A 
ATOM     12  C   UNL A   1      36.985  34.236  31.415  1.00  0.00     0.010 A 
ATOM     13  C   UNL A   1      36.892  33.018  32.107  1.00  0.00    -0.014 A 
BRANCH  13  14
ATOM     14  C   UNL A   1      38.107  32.276  32.526  1.00  0.00     0.031 A 
ATOM     15  C   UNL A   1      38.716  31.216  31.656  1.00  0.00     0.074 A 
ATOM     16  C   UNL A   1      38.654  32.587  33.719  1.00  0.00     0.049 A 
ATOM     17  N   UNL A   1      39.770  30.474  31.883  1.00  0.00    -0.248 NA
ATOM     18  C   UNL A   1      38.059  30.947  30.368  1.00  0.00     0.031 C 
ATOM     19  C   UNL A   1      38.129  33.594  34.647  1.00  0.00     0.029 A 
ATOM     20  N   UNL A   1      39.767  32.103  34.356  1.00  0.00    -0.354 N 
ATOM     21  C   UNL A   1      39.896  29.638  30.779  1.00  0.00     0.074 A 
ATOM     22  C   UNL A   1      38.799  29.955  29.889  1.00  0.00     0.031 C 
ATOM     23  C   UNL A   1      38.935  33.674  35.715  1.00  0.00     0.029 A 
ATOM     24  C   UNL A   1      39.991  32.678  35.586  1.00  0.00     0.049 A 
ATOM     25  H   UNL A   1      40.350  31.409  33.971  1.00  0.00     0.167 HD
ATOM     26  C   UNL A   1      40.844  28.699  30.539  1.00  0.00     0.034 A 
ATOM     27  C   UNL A   1      40.920  32.412  36.522  1.00  0.00     0.034 A 
ATOM     28  C   UNL A   1      41.935  28.408  31.441  1.00  0.00     0.049 A 
ATOM     29  C   UNL A   1      41.934  31.337  36.239  1.00  0.00     0.074 A 
ATOM     30  C   UNL A   1      42.983  27.521  31.265  1.00  0.00     0.029 A 
ATOM     31  N   UNL A   1      42.109  28.981  32.694  1.00  0.00    -0.354 N 
ATOM     32  N   UNL A   1      42.066  30.591  35.167  1.00  0.00    -0.248 NA
ATOM     33  C   UNL A   1      42.923  31.068  37.289  1.00  0.00     0.031 C 
ATOM     34  C   UNL A   1      43.748  27.507  32.436  1.00  0.00     0.029 A 
ATOM     35  C   UNL A   1      43.221  28.436  33.318  1.00  0.00     0.049 A 
ATOM     36  H   UNL A   1      41.527  29.673  33.083  1.00  0.00     0.167 HD
ATOM     37  C   UNL A   1      43.163  29.772  35.411  1.00  0.00     0.074 A 
ATOM     38  C   UNL A   1      43.673  30.139  36.716  1.00  0.00     0.031 C 
ATOM     39  C   UNL A   1      43.699  28.800  34.630  1.00  0.00     0.034 A 
BRANCH  26  40
ATOM     40  C   UNL A   1      40.728  27.882  29.277  1.00  0.00     0.023 A 
ATOM     41  C   UNL A   1      41.597  28.064  28.187  1.00  0.00     0.031 A 
ATOM     42  C   UNL A   1      39.746  26.879  29.177  1.00  0.00     0.131 A 
ATOM     43  C   UNL A   1      41.445  27.280  27.033  1.00  0.00     0.055 A 
ATOM     44  C   UNL A   1      39.638  26.062  28.051  1.00  0.00     0.041 A 
ATOM     45  F   UNL A   1      38.877  26.674  30.180  1.00  0.00    -0.206 F 
ATOM     46  C   UNL A   1      40.486  26.265  26.966  1.00  0.00     0.022 A 
BRANCH  43  47
ATOM     47  S   UNL A   1      42.464  27.658  25.580  1.00  0.00     0.124 S 
ATOM     48  O   UNL A   1      41.850  28.894  25.101  1.00  0.00    -0.237 OA
ATOM     49  O   UNL A   1      43.798  27.791  26.155  1.00  0.00    -0.237 OA
ATOM     50  O   UNL A   1      42.272  26.498  24.714  1.00  0.00    -0.744 OA
ENDBRANCH  43  47
ENDBRANCH  26  40
BRANCH  27  51
ATOM     51  C   UNL A   1      40.906  33.130  37.828  1.00  0.00     0.023 A 
ATOM     52  C   UNL A   1      40.139  32.663  38.906  1.00  0.00     0.031 A 
ATOM     53  C   UNL A   1      41.625  34.328  38.001  1.00  0.00     0.131 A 
ATOM     54  C   UNL A   1      40.066  33.414  40.089  1.00  0.00     0.055 A 
ATOM     55  C   UNL A   1      41.599  35.040  39.201  1.00  0.00     0.041 A 
ATOM     56  F   UNL A   1      42.376  34.821  37.002  1.00  0.00    -0.206 F 
ATOM     57  C   UNL A   1      40.802  34.592  40.249  1.00  0.00     0.022 A 
BRANCH  54  58
ATOM     58  S   UNL A   1      38.905  32.888  41.378  1.00  0.00     0.124 S 
ATOM     59  O   UNL A   1      37.645  33.429  40.884  1.00  0.00    -0.237 OA
ATOM     60  O   UNL A   1      39.042  31.436  41.331  1.00  0.00    -0.237 OA
ATOM     61  O   UNL A   1      39.428  33.523  42.586  1.00  0.00    -0.744 OA
ENDBRANCH  54  58
ENDBRANCH  27  51
BRANCH  39  62
ATOM     62  C   UNL A   1      44.912  28.092  35.178  1.00  0.00     0.023 A 
ATOM     63  C   UNL A   1      44.791  26.940  35.974  1.00  0.00     0.031 A 
ATOM     64  C   UNL A   1      46.200  28.596  34.931  1.00  0.00     0.131 A 
ATOM     65  C   UNL A   1      45.933  26.365  36.548  1.00  0.00     0.055 A 
ATOM     66  C   UNL A   1      47.339  27.984  35.455  1.00  0.00     0.041 A 
ATOM     67  F   UNL A   1      46.372  29.695  34.180  1.00  0.00    -0.206 F 
ATOM     68  C   UNL A   1      47.209  26.870  36.280  1.00  0.00     0.022 A 
BRANCH  65  69
ATOM     69  S   UNL A   1      45.723  25.004  37.727  1.00  0.00     0.124 S 
ATOM     70  O   UNL A   1      46.517  23.945  37.112  1.00  0.00    -0.237 OA
ATOM     71  O   UNL A   1      46.263  25.571  38.959  1.00  0.00    -0.237 OA
ATOM     72  O   UNL A   1      44.280  24.774  37.732  1.00  0.00    -0.744 OA
ENDBRANCH  65  69
ENDBRANCH  39  62
ENDBRANCH  13  14
ENDBRANCH   6   8
ENDBRANCH   3   4
ENDBRANCH   2   3
ENDBRANCH   1   2
BRANCH   1  73
ATOM     73  C   UNL A   1      35.169  31.435  28.584  1.00  0.00     0.002 C 
BRANCH  73  74
ATOM     74  C   UNL A   1      35.032  30.256  27.613  1.00  0.00     0.021 C 
BRANCH  74  75
ATOM     75  C   UNL A   1      33.691  30.211  26.877  1.00  0.00     0.116 C 
BRANCH  75  76
ATOM     76  N   UNL A   1      32.714  29.454  27.636  1.00  0.00    -0.356 N 
ATOM     77  C   UNL A   1      31.962  28.384  27.237  1.00  0.00     0.227 C 
ATOM     78  H   UNL A   1      32.573  29.750  28.565  1.00  0.00     0.163 HD
ATOM     79  O   UNL A   1      31.071  27.980  27.985  1.00  0.00    -0.274 OA
BRANCH  77  80
ATOM     80  C   UNL A   1      32.291  27.723  25.897  1.00  0.00     0.103 C 
ATOM     81  C   UNL A   1      31.082  27.666  25.013  1.00  0.00    -0.016 C 
ATOM     82  C   UNL A   1      32.693  26.242  26.042  1.00  0.00     0.047 C 
ATOM     83  C   UNL A   1      30.699  26.417  24.755  1.00  0.00    -0.006 C 
ATOM     84  C   UNL A   1      31.584  25.404  25.387  1.00  0.00     0.106 C 
BRANCH  84  85
ATOM     85  N   UNL A   1      30.812  24.645  26.342  1.00  0.00    -0.347 N 
ATOM     86  C   UNL A   1      31.023  23.376  26.801  1.00  0.00     0.261 C 
ATOM     87  H   UNL A   1      30.025  25.105  26.714  1.00  0.00     0.164 HD
ATOM     88  O   UNL A   1      30.236  22.923  27.638  1.00  0.00    -0.271 OA
BRANCH  86  89
ATOM     89  C   UNL A   1      32.233  22.541  26.342  1.00  0.00     0.266 C 
ATOM     90  C   UNL A   1      33.524  22.905  27.092  1.00  0.00     0.095 C 
ATOM     91  O   UNL A   1      32.445  22.594  24.916  1.00  0.00    -0.480 OA
ATOM     92  C   UNL A   1      34.466  23.008  25.954  1.00  0.00    -0.002 A 
ATOM     93  C   UNL A   1      33.785  22.822  24.763  1.00  0.00     0.123 A 
ATOM     94  C   UNL A   1      35.819  23.302  25.955  1.00  0.00     0.008 A 
ATOM     95  C   UNL A   1      34.409  22.928  23.537  1.00  0.00     0.047 A 
ATOM     96  C   UNL A   1      36.473  23.410  24.724  1.00  0.00     0.001 A 
ATOM     97  C   UNL A   1      35.772  23.225  23.521  1.00  0.00     0.004 A 
ENDBRANCH  86  89
ENDBRANCH  84  85
ENDBRANCH  77  80
ENDBRANCH  75  76
ENDBRANCH  74  75
ENDBRANCH  73  74
ENDBRANCH   1  73
TORSDOF 18
ENDMDL
MODEL 2
REMARK VINA RESULT:     -11.3      0.619      7.679
REMARK SMILES O=C(NCCCCCCNC(=O)[C@@H]1C=C[C@H](NC(=O)[C@@H]2Cc3ccccc3O2)C1)c1ccc(-c2c3nc(c(-c4cc(S(=O)(=O)[O-])ccc4F)c4ccc([nH]4)c(-c4cc(S(=O)(=O)[O-])ccc4F)c4nc(c(-c5cc(S(=O)(=O)[O-])ccc5F)c5ccc2[nH]5)C=C4)C=C3)cc1
REMARK SMILES IDX 6 1 5 2 4 3 3 4 1 5 2 6 30 8 31 9 92 10 32 11 91 12 33 13
REMARK SMILES IDX 34 14 35 15 85 16 36 17 90 18 84 19 86 20 37 21 89 22 83 23
REMARK SMILES IDX 82 24 38 26 70 27 50 28 69 29 51 30 54 31 68 32 87 33 52 34
REMARK SMILES IDX 53 35 67 37 88 38 55 39 39 40 40 41 48 42 41 43 47 44 49 45
REMARK SMILES IDX 46 46 42 47 43 48 44 49 45 50 71 51 72 52 80 53 73 54 79 55
REMARK SMILES IDX 81 56 78 57 74 58 75 59 76 60 77 61 56 62 57 63 65 64 58 65
REMARK SMILES IDX 64 66 66 67 63 68 59 69 60 70 61 71 62 72 7 73 8 74 9 75
REMARK SMILES IDX 10 76 11 77 12 79 13 80 14 81 29 82 15 83 16 84 17 85 18 86
REMARK SMILES IDX 19 88 20 89 21 90 28 91 22 92 27 93 23 94 26 95 24 96 25 97
REMARK H PARENT 3 7 86 25 54 36 10 78 17 87
REMARK Flexibility Score: inf
ROOT
ATOM      1  C   UNL A   1      35.558  33.002  27.964  1.00  0.00     0.002 C 
ENDROOT
BRANCH   1   2
ATOM      2  C   UNL A   1      34.654  34.233  28.051  1.00  0.00     0.021 C 
BRANCH   2   3
ATOM      3  C   UNL A   1      33.295  33.970  28.685  1.00  0.00     0.116 C 
BRANCH   3   4
ATOM      4  N   UNL A   1      32.994  34.930  29.735  1.00  0.00    -0.352 N 
ATOM      5  O   UNL A   1      33.027  35.748  31.835  1.00  0.00    -0.269 OA
ATOM      6  C   UNL A   1      33.534  35.012  30.994  1.00  0.00     0.251 C 
ATOM      7  H   UNL A   1      32.316  35.607  29.514  1.00  0.00     0.163 HD
BRANCH   6   8
ATOM      8  C   UNL A   1      34.727  34.202  31.326  1.00  0.00     0.039 A 
ATOM      9  C   UNL A   1      36.009  34.721  31.127  1.00  0.00     0.014 A 
ATOM     10  C   UNL A   1      34.558  32.923  31.865  1.00  0.00     0.014 A 
ATOM     11  C   UNL A   1      37.123  33.927  31.376  1.00  0.00     0.010 A 
ATOM     12  C   UNL A   1      35.681  32.155  32.186  1.00  0.00     0.010 A 
ATOM     13  C   UNL A   1      36.971  32.650  31.939  1.00  0.00    -0.014 A 
BRANCH  13  14
ATOM     14  C   UNL A   1      38.178  31.905  32.376  1.00  0.00     0.031 A 
ATOM     15  C   UNL A   1      38.871  32.226  33.668  1.00  0.00     0.074 A 
ATOM     16  C   UNL A   1      38.635  30.921  31.575  1.00  0.00     0.049 A 
ATOM     17  N   UNL A   1      39.938  31.673  34.185  1.00  0.00    -0.248 NA
ATOM     18  C   UNL A   1      38.300  33.308  34.484  1.00  0.00     0.031 C 
ATOM     19  C   UNL A   1      38.039  30.540  30.289  1.00  0.00     0.029 A 
ATOM     20  N   UNL A   1      39.691  30.059  31.715  1.00  0.00    -0.354 N 
ATOM     21  C   UNL A   1      40.180  32.347  35.377  1.00  0.00     0.074 A 
ATOM     22  C   UNL A   1      39.155  33.363  35.497  1.00  0.00     0.031 C 
ATOM     23  C   UNL A   1      38.717  29.504  29.778  1.00  0.00     0.029 A 
ATOM     24  C   UNL A   1      39.837  29.192  30.656  1.00  0.00     0.049 A 
ATOM     25  H   UNL A   1      40.288  30.060  32.497  1.00  0.00     0.167 HD
ATOM     26  C   UNL A   1      41.167  32.130  36.280  1.00  0.00     0.034 A 
ATOM     27  C   UNL A   1      40.785  28.271  30.402  1.00  0.00     0.034 A 
ATOM     28  C   UNL A   1      42.174  31.103  36.140  1.00  0.00     0.049 A 
ATOM     29  C   UNL A   1      41.888  28.083  31.409  1.00  0.00     0.074 A 
ATOM     30  C   UNL A   1      43.180  30.758  37.027  1.00  0.00     0.029 A 
ATOM     31  N   UNL A   1      42.316  30.269  35.039  1.00  0.00    -0.354 N 
ATOM     32  N   UNL A   1      42.072  28.697  32.554  1.00  0.00    -0.248 NA
ATOM     33  C   UNL A   1      42.909  27.078  31.089  1.00  0.00     0.031 C 
ATOM     34  C   UNL A   1      43.970  29.768  36.433  1.00  0.00     0.029 A 
ATOM     35  C   UNL A   1      43.418  29.442  35.206  1.00  0.00     0.049 A 
ATOM     36  H   UNL A   1      41.723  30.266  34.254  1.00  0.00     0.167 HD
ATOM     37  C   UNL A   1      43.224  28.142  33.098  1.00  0.00     0.074 A 
ATOM     38  C   UNL A   1      43.673  27.124  32.170  1.00  0.00     0.031 C 
ATOM     39  C   UNL A   1      43.861  28.448  34.257  1.00  0.00     0.034 A 
BRANCH  26  40
ATOM     40  C   UNL A   1      41.243  33.041  37.479  1.00  0.00     0.023 A 
ATOM     41  C   UNL A   1      40.623  32.721  38.700  1.00  0.00     0.031 A 
ATOM     42  C   UNL A   1      41.977  34.239  37.406  1.00  0.00     0.131 A 
ATOM     43  C   UNL A   1      40.721  33.605  39.787  1.00  0.00     0.055 A 
ATOM     44  C   UNL A   1      42.120  35.085  38.507  1.00  0.00     0.041 A 
ATOM     45  F   UNL A   1      42.574  34.604  36.260  1.00  0.00    -0.206 F 
ATOM     46  C   UNL A   1      41.483  34.774  39.705  1.00  0.00     0.022 A 
BRANCH  43  47
ATOM     47  S   UNL A   1      39.765  33.252  41.287  1.00  0.00     0.124 S 
ATOM     48  O   UNL A   1      38.756  34.308  41.253  1.00  0.00    -0.237 OA
ATOM     49  O   UNL A   1      39.279  31.898  41.042  1.00  0.00    -0.237 OA
ATOM     50  O   UNL A   1      40.751  33.375  42.359  1.00  0.00    -0.744 OA
ENDBRANCH  43  47
ENDBRANCH  26  40
BRANCH  27  51
ATOM     51  C   UNL A   1      40.768  27.499  29.127  1.00  0.00     0.023 A 
ATOM     52  C   UNL A   1      41.681  27.775  28.098  1.00  0.00     0.031 A 
ATOM     53  C   UNL A   1      39.800  26.503  28.899  1.00  0.00     0.131 A 
ATOM     54  C   UNL A   1      41.577  27.102  26.872  1.00  0.00     0.055 A 
ATOM     55  C   UNL A   1      39.739  25.792  27.700  1.00  0.00     0.041 A 
ATOM     56  F   UNL A   1      38.901  26.198  29.850  1.00  0.00    -0.206 F 
ATOM     57  C   UNL A   1      40.621  26.102  26.671  1.00  0.00     0.022 A 
BRANCH  54  58
ATOM     58  S   UNL A   1      42.639  27.631  25.501  1.00  0.00     0.124 S 
ATOM     59  O   UNL A   1      42.541  26.495  24.593  1.00  0.00    -0.237 OA
ATOM     60  O   UNL A   1      41.981  28.859  25.067  1.00  0.00    -0.237 OA
ATOM     61  O   UNL A   1      43.943  27.814  26.134  1.00  0.00    -0.744 OA
ENDBRANCH  54  58
ENDBRANCH  27  51
BRANCH  39  62
ATOM     62  C   UNL A   1      45.096  27.646  34.577  1.00  0.00     0.023 A 
ATOM     63  C   UNL A   1      45.014  26.410  35.243  1.00  0.00     0.031 A 
ATOM     64  C   UNL A   1      46.369  28.140  34.247  1.00  0.00     0.131 A 
ATOM     65  C   UNL A   1      46.187  25.738  35.613  1.00  0.00     0.055 A 
ATOM     66  C   UNL A   1      47.532  27.436  34.564  1.00  0.00     0.041 A 
ATOM     67  F   UNL A   1      46.504  29.316  33.615  1.00  0.00    -0.206 F 
ATOM     68  C   UNL A   1      47.446  26.236  35.263  1.00  0.00     0.022 A 
BRANCH  65  69
ATOM     69  S   UNL A   1      46.051  24.251  36.642  1.00  0.00     0.124 S 
ATOM     70  O   UNL A   1      45.678  24.813  37.937  1.00  0.00    -0.237 OA
ATOM     71  O   UNL A   1      45.012  23.491  35.954  1.00  0.00    -0.237 OA
ATOM     72  O   UNL A   1      47.389  23.667  36.580  1.00  0.00    -0.744 OA
ENDBRANCH  65  69
ENDBRANCH  39  62
ENDBRANCH  13  14
ENDBRANCH   6   8
ENDBRANCH   3   4
ENDBRANCH   2   3
ENDBRANCH   1   2
BRANCH   1  73
ATOM     73  C   UNL A   1      34.875  31.674  28.300  1.00  0.00     0.002 C 
BRANCH  73  74
ATOM     74  C   UNL A   1      34.477  30.824  27.087  1.00  0.00     0.021 C 
BRANCH  74  75
ATOM     75  C   UNL A   1      34.469  29.318  27.359  1.00  0.00     0.116 C 
BRANCH  75  76
ATOM     76  N   UNL A   1      33.205  28.908  27.940  1.00  0.00    -0.356 N 
ATOM     77  C   UNL A   1      32.172  28.231  27.354  1.00  0.00     0.227 C 
ATOM     78  H   UNL A   1      33.072  29.151  28.886  1.00  0.00     0.163 HD
ATOM     79  O   UNL A   1      31.115  28.117  27.975  1.00  0.00    -0.274 OA
BRANCH  77  80
ATOM     80  C   UNL A   1      32.397  27.619  25.969  1.00  0.00     0.103 C 
ATOM     81  C   UNL A   1      31.158  27.709  25.133  1.00  0.00    -0.016 C 
ATOM     82  C   UNL A   1      32.679  26.105  26.022  1.00  0.00     0.047 C 
ATOM     83  C   UNL A   1      30.662  26.511  24.826  1.00  0.00    -0.006 C 
ATOM     84  C   UNL A   1      31.482  25.397  25.370  1.00  0.00     0.106 C 
BRANCH  84  85
ATOM     85  N   UNL A   1      30.683  24.653  26.315  1.00  0.00    -0.347 N 
ATOM     86  C   UNL A   1      30.859  23.376  26.768  1.00  0.00     0.261 C 
ATOM     87  H   UNL A   1      29.906  25.130  26.684  1.00  0.00     0.164 HD
ATOM     88  O   UNL A   1      30.054  22.939  27.597  1.00  0.00    -0.271 OA
BRANCH  86  89
ATOM     89  C   UNL A   1      32.051  22.513  26.314  1.00  0.00     0.266 C 
ATOM     90  C   UNL A   1      33.340  22.826  27.089  1.00  0.00     0.095 C 
ATOM     91  O   UNL A   1      32.287  22.583  24.892  1.00  0.00    -0.480 OA
ATOM     92  C   UNL A   1      34.303  22.920  25.967  1.00  0.00    -0.002 A 
ATOM     93  C   UNL A   1      33.635  22.774  24.764  1.00  0.00     0.123 A 
ATOM     94  C   UNL A   1      35.663  23.173  25.994  1.00  0.00     0.008 A 
ATOM     95  C   UNL A   1      34.281  22.881  23.549  1.00  0.00     0.047 A 
ATOM     96  C   UNL A   1      36.340  23.282  24.776  1.00  0.00     0.001 A 
ATOM     97  C   UNL A   1      35.653  23.138  23.559  1.00  0.00     0.004 A 
ENDBRANCH  86  89
ENDBRANCH  84  85
ENDBRANCH  77  80
ENDBRANCH  75  76
ENDBRANCH  74  75
ENDBRANCH  73  74
ENDBRANCH   1  73
TORSDOF 18
ENDMDL
MODEL 3
REMARK VINA RESULT:     -11.0      5.974     11.742
REMARK SMILES O=C(NCCCCCCNC(=O)[C@@H]1C=C[C@H](NC(=O)[C@@H]2Cc3ccccc3O2)C1)c1ccc(-c2c3nc(c(-c4cc(S(=O)(=O)[O-])ccc4F)c4ccc([nH]4)c(-c4cc(S(=O)(=O)[O-])ccc4F)c4nc(c(-c5cc(S(=O)(=O)[O-])ccc5F)c5ccc2[nH]5)C=C4)C=C3)cc1
REMARK SMILES IDX 6 1 5 2 4 3 3 4 1 5 2 6 30 8 31 9 92 10 32 11 91 12 33 13
REMARK SMILES IDX 34 14 35 15 85 16 36 17 90 18 84 19 86 20 37 21 89 22 83 23
REMARK SMILES IDX 82 24 38 26 70 27 50 28 69 29 51 30 54 31 68 32 87 33 52 34
REMARK SMILES IDX 53 35 67 37 88 38 55 39 39 40 40 41 48 42 41 43 47 44 49 45
REMARK SMILES IDX 46 46 42 47 43 48 44 49 45 50 71 51 72 52 80 53 73 54 79 55
REMARK SMILES IDX 81 56 78 57 74 58 75 59 76 60 77 61 56 62 57 63 65 64 58 65
REMARK SMILES IDX 64 66 66 67 63 68 59 69 60 70 61 71 62 72 7 73 8 74 9 75
REMARK SMILES IDX 10 76 11 77 12 79 13 80 14 81 29 82 15 83 16 84 17 85 18 86
REMARK SMILES IDX 19 88 20 89 21 90 28 91 22 92 27 93 23 94 26 95 24 96 25 97
REMARK H PARENT 3 7 86 25 54 36 10 78 17 87
REMARK Flexibility Score: inf
ROOT
ATOM      1  C   UNL A   1      39.287  22.559  26.147  1.00  0.00     0.002 C 
ENDROOT
BRANCH   1   2
ATOM      2  C   UNL A   1      39.587  21.164  26.699  1.00  0.00     0.021 C 
BRANCH   2   3
ATOM      3  C   UNL A   1      39.674  20.075  25.639  1.00  0.00     0.116 C 
BRANCH   3   4
ATOM      4  N   UNL A   1      40.650  19.057  25.990  1.00  0.00    -0.352 N 
ATOM      5  O   UNL A   1      42.717  18.249  26.388  1.00  0.00    -0.269 OA
ATOM      6  C   UNL A   1      41.972  19.222  26.321  1.00  0.00     0.251 C 
ATOM      7  H   UNL A   1      40.321  18.129  25.990  1.00  0.00     0.163 HD
BRANCH   6   8
ATOM      8  C   UNL A   1      42.488  20.582  26.588  1.00  0.00     0.039 A 
ATOM      9  C   UNL A   1      42.872  21.411  25.531  1.00  0.00     0.014 A 
ATOM     10  C   UNL A   1      42.565  21.038  27.908  1.00  0.00     0.014 A 
ATOM     11  C   UNL A   1      43.421  22.661  25.795  1.00  0.00     0.010 A 
ATOM     12  C   UNL A   1      43.047  22.324  28.167  1.00  0.00     0.010 A 
ATOM     13  C   UNL A   1      43.483  23.142  27.113  1.00  0.00    -0.014 A 
BRANCH  13  14
ATOM     14  C   UNL A   1      43.890  24.550  27.348  1.00  0.00     0.031 A 
ATOM     15  C   UNL A   1      42.913  25.574  27.846  1.00  0.00     0.074 A 
ATOM     16  C   UNL A   1      45.174  24.884  27.105  1.00  0.00     0.049 A 
ATOM     17  N   UNL A   1      43.110  26.844  28.095  1.00  0.00    -0.248 NA
ATOM     18  C   UNL A   1      41.535  25.122  28.094  1.00  0.00     0.031 C 
ATOM     19  C   UNL A   1      46.201  23.963  26.605  1.00  0.00     0.029 A 
ATOM     20  N   UNL A   1      45.841  26.073  27.247  1.00  0.00    -0.354 N 
ATOM     21  C   UNL A   1      41.884  27.350  28.510  1.00  0.00     0.074 A 
ATOM     22  C   UNL A   1      40.942  26.250  28.465  1.00  0.00     0.031 C 
ATOM     23  C   UNL A   1      47.369  24.612  26.514  1.00  0.00     0.029 A 
ATOM     24  C   UNL A   1      47.164  26.008  26.876  1.00  0.00     0.049 A 
ATOM     25  H   UNL A   1      45.414  26.894  27.581  1.00  0.00     0.167 HD
ATOM     26  C   UNL A   1      41.582  28.614  28.893  1.00  0.00     0.034 A 
ATOM     27  C   UNL A   1      48.102  26.971  26.803  1.00  0.00     0.034 A 
ATOM     28  C   UNL A   1      42.542  29.693  28.938  1.00  0.00     0.049 A 
ATOM     29  C   UNL A   1      47.722  28.372  27.200  1.00  0.00     0.074 A 
ATOM     30  C   UNL A   1      42.355  30.994  29.370  1.00  0.00     0.029 A 
ATOM     31  N   UNL A   1      43.863  29.602  28.519  1.00  0.00    -0.354 N 
ATOM     32  N   UNL A   1      46.568  28.819  27.637  1.00  0.00    -0.248 NA
ATOM     33  C   UNL A   1      48.769  29.395  27.095  1.00  0.00     0.031 C 
ATOM     34  C   UNL A   1      43.538  31.706  29.148  1.00  0.00     0.029 A 
ATOM     35  C   UNL A   1      44.488  30.835  28.643  1.00  0.00     0.049 A 
ATOM     36  H   UNL A   1      44.294  28.783  28.183  1.00  0.00     0.167 HD
ATOM     37  C   UNL A   1      46.756  30.177  27.871  1.00  0.00     0.074 A 
ATOM     38  C   UNL A   1      48.140  30.466  27.557  1.00  0.00     0.031 C 
ATOM     39  C   UNL A   1      45.865  31.106  28.302  1.00  0.00     0.034 A 
BRANCH  26  40
ATOM     40  C   UNL A   1      40.150  28.922  29.253  1.00  0.00     0.023 A 
ATOM     41  C   UNL A   1      39.718  29.006  30.589  1.00  0.00     0.031 A 
ATOM     42  C   UNL A   1      39.207  29.168  28.238  1.00  0.00     0.131 A 
ATOM     43  C   UNL A   1      38.373  29.292  30.872  1.00  0.00     0.055 A 
ATOM     44  C   UNL A   1      37.885  29.510  28.527  1.00  0.00     0.041 A 
ATOM     45  F   UNL A   1      39.560  29.083  26.946  1.00  0.00    -0.206 F 
ATOM     46  C   UNL A   1      37.459  29.567  29.850  1.00  0.00     0.022 A 
BRANCH  43  47
ATOM     47  S   UNL A   1      37.808  29.217  32.594  1.00  0.00     0.124 S 
ATOM     48  O   UNL A   1      36.505  29.871  32.509  1.00  0.00    -0.237 OA
ATOM     49  O   UNL A   1      37.786  27.783  32.858  1.00  0.00    -0.237 OA
ATOM     50  O   UNL A   1      38.828  29.969  33.323  1.00  0.00    -0.744 OA
ENDBRANCH  43  47
ENDBRANCH  26  40
BRANCH  27  51
ATOM     51  C   UNL A   1      49.466  26.661  26.287  1.00  0.00     0.023 A 
ATOM     52  C   UNL A   1      49.892  27.125  25.034  1.00  0.00     0.031 A 
ATOM     53  C   UNL A   1      50.350  25.851  27.025  1.00  0.00     0.131 A 
ATOM     54  C   UNL A   1      51.142  26.734  24.532  1.00  0.00     0.055 A 
ATOM     55  C   UNL A   1      51.617  25.515  26.548  1.00  0.00     0.041 A 
ATOM     56  F   UNL A   1      49.994  25.380  28.231  1.00  0.00    -0.206 F 
ATOM     57  C   UNL A   1      52.013  25.944  25.286  1.00  0.00     0.022 A 
BRANCH  54  58
ATOM     58  S   UNL A   1      51.568  27.182  22.827  1.00  0.00     0.124 S 
ATOM     59  O   UNL A   1      52.862  26.530  22.662  1.00  0.00    -0.237 OA
ATOM     60  O   UNL A   1      50.458  26.603  22.078  1.00  0.00    -0.237 OA
ATOM     61  O   UNL A   1      51.604  28.642  22.859  1.00  0.00    -0.744 OA
ENDBRANCH  54  58
ENDBRANCH  27  51
BRANCH  39  62
ATOM     62  C   UNL A   1      46.386  32.509  28.472  1.00  0.00     0.023 A 
ATOM     63  C   UNL A   1      46.460  33.400  27.386  1.00  0.00     0.031 A 
ATOM     64  C   UNL A   1      46.848  32.949  29.724  1.00  0.00     0.131 A 
ATOM     65  C   UNL A   1      47.042  34.664  27.559  1.00  0.00     0.055 A 
ATOM     66  C   UNL A   1      47.370  34.230  29.903  1.00  0.00     0.041 A 
ATOM     67  F   UNL A   1      46.804  32.138  30.792  1.00  0.00    -0.206 F 
ATOM     68  C   UNL A   1      47.483  35.091  28.815  1.00  0.00     0.022 A 
BRANCH  65  69
ATOM     69  S   UNL A   1      47.302  35.708  26.100  1.00  0.00     0.124 S 
ATOM     70  O   UNL A   1      46.688  36.965  26.514  1.00  0.00    -0.237 OA
ATOM     71  O   UNL A   1      48.757  35.718  25.978  1.00  0.00    -0.237 OA
ATOM     72  O   UNL A   1      46.598  34.993  25.037  1.00  0.00    -0.744 OA
ENDBRANCH  65  69
ENDBRANCH  39  62
ENDBRANCH  13  14
ENDBRANCH   6   8
ENDBRANCH   3   4
ENDBRANCH   2   3
ENDBRANCH   1   2
BRANCH   1  73
ATOM     73  C   UNL A   1      37.799  22.899  26.023  1.00  0.00     0.002 C 
BRANCH  73  74
ATOM     74  C   UNL A   1      37.072  22.214  24.859  1.00  0.00     0.021 C 
BRANCH  74  75
ATOM     75  C   UNL A   1      36.209  21.023  25.281  1.00  0.00     0.116 C 
BRANCH  75  76
ATOM     76  N   UNL A   1      35.393  21.362  26.431  1.00  0.00    -0.356 N 
ATOM     77  C   UNL A   1      34.092  21.783  26.464  1.00  0.00     0.227 C 
ATOM     78  H   UNL A   1      35.834  21.277  27.308  1.00  0.00     0.163 HD
ATOM     79  O   UNL A   1      33.627  22.173  27.535  1.00  0.00    -0.274 OA
BRANCH  77  80
ATOM     80  C   UNL A   1      33.273  21.713  25.173  1.00  0.00     0.103 C 
ATOM     81  C   UNL A   1      33.613  22.850  24.258  1.00  0.00    -0.016 C 
ATOM     82  C   UNL A   1      31.761  21.891  25.413  1.00  0.00     0.047 C 
ATOM     83  C   UNL A   1      32.580  23.669  24.059  1.00  0.00    -0.006 C 
ATOM     84  C   UNL A   1      31.354  23.228  24.774  1.00  0.00     0.106 C 
BRANCH  84  85
ATOM     85  N   UNL A   1      30.997  24.233  25.746  1.00  0.00    -0.347 N 
ATOM     86  C   UNL A   1      30.391  25.441  25.547  1.00  0.00     0.261 C 
ATOM     87  H   UNL A   1      31.222  24.019  26.680  1.00  0.00     0.164 HD
ATOM     88  O   UNL A   1      30.165  26.146  26.537  1.00  0.00    -0.271 OA
BRANCH  86  89
ATOM     89  C   UNL A   1      29.946  25.903  24.147  1.00  0.00     0.266 C 
ATOM     90  C   UNL A   1      30.912  26.920  23.523  1.00  0.00     0.095 C 
ATOM     91  O   UNL A   1      28.596  26.411  24.126  1.00  0.00    -0.480 OA
ATOM     92  C   UNL A   1      29.948  27.934  23.039  1.00  0.00    -0.002 A 
ATOM     93  C   UNL A   1      28.665  27.579  23.417  1.00  0.00     0.123 A 
ATOM     94  C   UNL A   1      30.182  29.119  22.362  1.00  0.00     0.008 A 
ATOM     95  C   UNL A   1      27.573  28.379  23.150  1.00  0.00     0.047 A 
ATOM     96  C   UNL A   1      29.090  29.944  22.077  1.00  0.00     0.001 A 
ATOM     97  C   UNL A   1      27.792  29.578  22.470  1.00  0.00     0.004 A 
ENDBRANCH  86  89
ENDBRANCH  84  85
ENDBRANCH  77  80
ENDBRANCH  75  76
ENDBRANCH  74  75
ENDBRANCH  73  74
ENDBRANCH   1  73
TORSDOF 18
ENDMDL
