MODEL 1
REMARK VINA RESULT:     -11.6      0.000      0.000
REMARK SMILES CC1(C)C(C(=O)N2CCOC[C@H]2C(=O)NCCCCCCNC(=O)c2ccc(-c3c4nc(c(-c5cc(S(=O)(=O)[O-])ccc5F)c5ccc([nH]5)c(-c5cc(S(=O)(=O)[O-])ccc5F)c5nc(c(-c6cc(S(=O)(=O)[O-])ccc6F)c6ccc3[nH]6)C=C5)C=C4)cc2)C1(C)C
REMARK SMILES IDX 19 1 18 2 17 3 16 4 15 5 13 6 14 7 12 9 7 10 8 11 9 12 11 13
REMARK SMILES IDX 10 14 5 15 6 16 4 17 1 18 2 19 3 20 88 21 89 22 90 23 20 24
REMARK SMILES IDX 21 25 22 26 23 27 24 29 25 30 26 31 87 32 27 33 86 34 28 35
REMARK SMILES IDX 29 36 30 37 80 38 31 39 85 40 79 41 81 42 32 43 84 44 78 45
REMARK SMILES IDX 77 46 33 48 65 49 45 50 64 51 46 52 49 53 63 54 82 55 47 56
REMARK SMILES IDX 48 57 62 59 83 60 50 61 34 62 35 63 43 64 36 65 42 66 44 67
REMARK SMILES IDX 41 68 37 69 38 70 39 71 40 72 66 73 67 74 75 75 68 76 74 77
REMARK SMILES IDX 76 78 73 79 69 80 70 81 71 82 72 83 51 84 52 85 60 86 53 87
REMARK SMILES IDX 59 88 61 89 58 90 54 91 55 92 56 93 57 94
REMARK H PARENT 15 8 22 28 81 47 49 58
REMARK Flexibility Score: inf
ROOT
ATOM      1  C   UNL A   1      31.774  30.214  25.494  1.00  0.00     0.002 C 
ENDROOT
BRANCH   1   2
ATOM      2  C   UNL A   1      30.680  29.876  24.474  1.00  0.00     0.002 C 
BRANCH   2   3
ATOM      3  C   UNL A   1      31.154  29.061  23.271  1.00  0.00     0.021 C 
BRANCH   3   4
ATOM      4  C   UNL A   1      32.576  28.513  23.426  1.00  0.00     0.116 C 
BRANCH   4   5
ATOM      5  N   UNL A   1      32.972  27.690  22.297  1.00  0.00    -0.354 N 
ATOM      6  C   UNL A   1      32.860  26.375  21.976  1.00  0.00     0.245 C 
ATOM      7  O   UNL A   1      33.289  26.091  20.847  1.00  0.00    -0.273 OA
ATOM      8  H   UNL A   1      33.431  28.208  21.598  1.00  0.00     0.163 HD
BRANCH   6   9
ATOM      9  C   UNL A   1      32.321  25.247  22.895  1.00  0.00     0.200 C 
ATOM     10  N   UNL A   1      33.175  24.873  24.042  1.00  0.00    -0.326 N 
ATOM     11  C   UNL A   1      32.996  25.723  25.194  1.00  0.00     0.149 C 
ATOM     12  C   UNL A   1      31.516  25.778  25.604  1.00  0.00     0.181 C 
ATOM     13  C   UNL A   1      30.856  25.356  23.337  1.00  0.00     0.195 C 
ATOM     14  O   UNL A   1      30.656  26.148  24.516  1.00  0.00    -0.377 OA
BRANCH  10  15
ATOM     15  C   UNL A   1      33.950  23.729  23.938  1.00  0.00     0.227 C 
ATOM     16  O   UNL A   1      35.155  23.816  23.726  1.00  0.00    -0.275 OA
BRANCH  15  17
ATOM     17  C   UNL A   1      33.433  22.323  24.021  1.00  0.00     0.091 C 
ATOM     18  C   UNL A   1      32.916  19.801  23.971  1.00  0.00     0.012 C 
ATOM     19  C   UNL A   1      33.734  20.939  24.588  1.00  0.00    -0.017 C 
ATOM     20  C   UNL A   1      35.094  20.407  24.961  1.00  0.00     0.012 C 
ATOM     21  C   UNL A   1      33.000  21.944  25.471  1.00  0.00    -0.017 C 
ATOM     22  C   UNL A   1      31.523  21.794  25.754  1.00  0.00     0.012 C 
ATOM     23  C   UNL A   1      33.701  22.604  26.644  1.00  0.00     0.012 C 
ENDBRANCH  15  17
ENDBRANCH  10  15
ENDBRANCH   6   9
ENDBRANCH   4   5
ENDBRANCH   3   4
ENDBRANCH   2   3
ENDBRANCH   1   2
BRANCH   1  24
ATOM     24  C   UNL A   1      31.490  31.414  26.403  1.00  0.00     0.021 C 
BRANCH  24  25
ATOM     25  C   UNL A   1      32.699  31.956  27.164  1.00  0.00     0.116 C 
BRANCH  25  26
ATOM     26  N   UNL A   1      32.592  33.384  27.414  1.00  0.00    -0.352 N 
ATOM     27  C   UNL A   1      33.233  34.170  28.337  1.00  0.00     0.251 C 
ATOM     28  H   UNL A   1      31.960  33.861  26.828  1.00  0.00     0.163 HD
ATOM     29  O   UNL A   1      32.826  35.310  28.546  1.00  0.00    -0.269 OA
BRANCH  27  30
ATOM     30  C   UNL A   1      34.399  33.648  29.082  1.00  0.00     0.039 A 
ATOM     31  C   UNL A   1      34.186  32.735  30.119  1.00  0.00     0.014 A 
ATOM     32  C   UNL A   1      35.694  34.087  28.790  1.00  0.00     0.014 A 
ATOM     33  C   UNL A   1      35.276  32.219  30.825  1.00  0.00     0.010 A 
ATOM     34  C   UNL A   1      36.783  33.526  29.452  1.00  0.00     0.010 A 
ATOM     35  C   UNL A   1      36.585  32.589  30.478  1.00  0.00    -0.014 A 
BRANCH  35  36
ATOM     36  C   UNL A   1      37.761  32.012  31.180  1.00  0.00     0.031 A 
ATOM     37  C   UNL A   1      38.536  30.886  30.551  1.00  0.00     0.074 A 
ATOM     38  C   UNL A   1      38.086  32.457  32.409  1.00  0.00     0.049 A 
ATOM     39  N   UNL A   1      39.526  30.185  31.042  1.00  0.00    -0.248 NA
ATOM     40  C   UNL A   1      38.119  30.475  29.203  1.00  0.00     0.031 C 
ATOM     41  C   UNL A   1      37.388  33.521  33.134  1.00  0.00     0.029 A 
ATOM     42  N   UNL A   1      39.076  32.063  33.274  1.00  0.00    -0.354 N 
ATOM     43  C   UNL A   1      39.842  29.241  30.070  1.00  0.00     0.074 A 
ATOM     44  C   UNL A   1      38.899  29.427  28.987  1.00  0.00     0.031 C 
ATOM     45  C   UNL A   1      37.980  33.704  34.324  1.00  0.00     0.029 A 
ATOM     46  C   UNL A   1      39.070  32.745  34.469  1.00  0.00     0.049 A 
ATOM     47  H   UNL A   1      39.730  31.359  33.059  1.00  0.00     0.167 HD
ATOM     48  C   UNL A   1      40.839  28.321  30.074  1.00  0.00     0.034 A 
ATOM     49  C   UNL A   1      39.844  32.601  35.562  1.00  0.00     0.034 A 
ATOM     50  C   UNL A   1      41.778  28.161  31.158  1.00  0.00     0.049 A 
ATOM     51  C   UNL A   1      40.932  31.558  35.553  1.00  0.00     0.074 A 
ATOM     52  C   UNL A   1      42.858  27.299  31.246  1.00  0.00     0.029 A 
ATOM     53  N   UNL A   1      41.746  28.875  32.351  1.00  0.00    -0.354 N 
ATOM     54  N   UNL A   1      41.247  30.702  34.607  1.00  0.00    -0.248 NA
ATOM     55  C   UNL A   1      41.776  31.471  36.750  1.00  0.00     0.031 C 
ATOM     56  C   UNL A   1      43.438  27.446  32.511  1.00  0.00     0.029 A 
ATOM     57  C   UNL A   1      42.766  28.451  33.189  1.00  0.00     0.049 A 
ATOM     58  H   UNL A   1      41.092  29.578  32.568  1.00  0.00     0.167 HD
ATOM     59  C   UNL A   1      42.344  29.994  35.088  1.00  0.00     0.074 A 
ATOM     60  C   UNL A   1      42.644  30.534  36.399  1.00  0.00     0.031 C 
ATOM     61  C   UNL A   1      43.044  28.991  34.499  1.00  0.00     0.034 A 
BRANCH  48  62
ATOM     62  C   UNL A   1      40.941  27.402  28.879  1.00  0.00     0.023 A 
ATOM     63  C   UNL A   1      41.949  27.558  27.912  1.00  0.00     0.031 A 
ATOM     64  C   UNL A   1      40.000  26.375  28.687  1.00  0.00     0.131 A 
ATOM     65  C   UNL A   1      41.948  26.753  26.761  1.00  0.00     0.055 A 
ATOM     66  C   UNL A   1      40.054  25.524  27.581  1.00  0.00     0.041 A 
ATOM     67  F   UNL A   1      39.001  26.190  29.564  1.00  0.00    -0.206 F 
ATOM     68  C   UNL A   1      41.022  25.721  26.602  1.00  0.00     0.022 A 
BRANCH  65  69
ATOM     69  S   UNL A   1      43.084  27.173  25.411  1.00  0.00     0.124 S 
ATOM     70  O   UNL A   1      42.299  28.150  24.660  1.00  0.00    -0.237 OA
ATOM     71  O   UNL A   1      44.242  27.696  26.124  1.00  0.00    -0.237 OA
ATOM     72  O   UNL A   1      43.293  25.897  24.731  1.00  0.00    -0.744 OA
ENDBRANCH  65  69
ENDBRANCH  48  62
BRANCH  49  73
ATOM     73  C   UNL A   1      39.616  33.452  36.765  1.00  0.00     0.023 A 
ATOM     74  C   UNL A   1      38.954  32.946  37.894  1.00  0.00     0.031 A 
ATOM     75  C   UNL A   1      40.027  34.797  36.789  1.00  0.00     0.131 A 
ATOM     76  C   UNL A   1      38.679  33.789  38.981  1.00  0.00     0.055 A 
ATOM     77  C   UNL A   1      39.796  35.619  37.893  1.00  0.00     0.041 A 
ATOM     78  F   UNL A   1      40.670  35.329  35.738  1.00  0.00    -0.206 F 
ATOM     79  C   UNL A   1      39.107  35.119  38.993  1.00  0.00     0.022 A 
BRANCH  76  80
ATOM     80  S   UNL A   1      37.680  33.144  40.349  1.00  0.00     0.124 S 
ATOM     81  O   UNL A   1      37.601  34.301  41.233  1.00  0.00    -0.237 OA
ATOM     82  O   UNL A   1      36.444  32.768  39.670  1.00  0.00    -0.237 OA
ATOM     83  O   UNL A   1      38.475  32.025  40.853  1.00  0.00    -0.744 OA
ENDBRANCH  76  80
ENDBRANCH  49  73
BRANCH  61  84
ATOM     84  C   UNL A   1      44.228  28.448  35.259  1.00  0.00     0.023 A 
ATOM     85  C   UNL A   1      44.086  27.441  36.229  1.00  0.00     0.031 A 
ATOM     86  C   UNL A   1      45.517  28.960  35.019  1.00  0.00     0.131 A 
ATOM     87  C   UNL A   1      45.204  27.016  36.964  1.00  0.00     0.055 A 
ATOM     88  C   UNL A   1      46.633  28.491  35.711  1.00  0.00     0.041 A 
ATOM     89  F   UNL A   1      45.709  29.924  34.104  1.00  0.00    -0.206 F 
ATOM     90  C   UNL A   1      46.479  27.522  36.699  1.00  0.00     0.022 A 
BRANCH  87  91
ATOM     91  S   UNL A   1      44.955  25.853  38.333  1.00  0.00     0.124 S 
ATOM     92  O   UNL A   1      46.233  25.934  39.035  1.00  0.00    -0.237 OA
ATOM     93  O   UNL A   1      43.809  26.430  39.029  1.00  0.00    -0.237 OA
ATOM     94  O   UNL A   1      44.696  24.582  37.661  1.00  0.00    -0.744 OA
ENDBRANCH  87  91
ENDBRANCH  61  84
ENDBRANCH  35  36
ENDBRANCH  27  30
ENDBRANCH  25  26
ENDBRANCH  24  25
ENDBRANCH   1  24
TORSDOF 18
ENDMDL
MODEL 2
REMARK VINA RESULT:     -11.5      5.904     10.105
REMARK SMILES CC1(C)C(C(=O)N2CCOC[C@H]2C(=O)NCCCCCCNC(=O)c2ccc(-c3c4nc(c(-c5cc(S(=O)(=O)[O-])ccc5F)c5ccc([nH]5)c(-c5cc(S(=O)(=O)[O-])ccc5F)c5nc(c(-c6cc(S(=O)(=O)[O-])ccc6F)c6ccc3[nH]6)C=C5)C=C4)cc2)C1(C)C
REMARK SMILES IDX 19 1 18 2 17 3 16 4 15 5 13 6 14 7 12 9 7 10 8 11 9 12 11 13
REMARK SMILES IDX 10 14 5 15 6 16 4 17 1 18 2 19 3 20 88 21 89 22 90 23 20 24
REMARK SMILES IDX 21 25 22 26 23 27 24 29 25 30 26 31 87 32 27 33 86 34 28 35
REMARK SMILES IDX 29 36 30 37 80 38 31 39 85 40 79 41 81 42 32 43 84 44 78 45
REMARK SMILES IDX 77 46 33 48 65 49 45 50 64 51 46 52 49 53 63 54 82 55 47 56
REMARK SMILES IDX 48 57 62 59 83 60 50 61 34 62 35 63 43 64 36 65 42 66 44 67
REMARK SMILES IDX 41 68 37 69 38 70 39 71 40 72 66 73 67 74 75 75 68 76 74 77
REMARK SMILES IDX 76 78 73 79 69 80 70 81 71 82 72 83 51 84 52 85 60 86 53 87
REMARK SMILES IDX 59 88 61 89 58 90 54 91 55 92 56 93 57 94
REMARK H PARENT 15 8 22 28 81 47 49 58
REMARK Flexibility Score: inf
ROOT
ATOM      1  C   UNL A   1      40.271  22.013  27.149  1.00  0.00     0.002 C 
ENDROOT
BRANCH   1   2
ATOM      2  C   UNL A   1      40.129  23.186  26.173  1.00  0.00     0.002 C 
BRANCH   2   3
ATOM      3  C   UNL A   1      38.926  24.093  26.429  1.00  0.00     0.021 C 
BRANCH   3   4
ATOM      4  C   UNL A   1      37.581  23.423  26.127  1.00  0.00     0.116 C 
BRANCH   4   5
ATOM      5  N   UNL A   1      37.398  23.179  24.707  1.00  0.00    -0.354 N 
ATOM      6  C   UNL A   1      36.371  23.319  23.829  1.00  0.00     0.245 C 
ATOM      7  O   UNL A   1      36.668  23.049  22.655  1.00  0.00    -0.273 OA
ATOM      8  H   UNL A   1      38.211  22.828  24.279  1.00  0.00     0.163 HD
BRANCH   6   9
ATOM      9  C   UNL A   1      34.911  23.713  24.178  1.00  0.00     0.200 C 
ATOM     10  N   UNL A   1      34.074  24.183  23.054  1.00  0.00    -0.326 N 
ATOM     11  C   UNL A   1      33.470  23.113  22.299  1.00  0.00     0.149 C 
ATOM     12  C   UNL A   1      32.676  22.177  23.224  1.00  0.00     0.181 C 
ATOM     13  C   UNL A   1      34.121  22.734  25.055  1.00  0.00     0.195 C 
ATOM     14  O   UNL A   1      33.461  21.692  24.323  1.00  0.00    -0.377 OA
BRANCH  10  15
ATOM     15  C   UNL A   1      33.875  25.547  22.909  1.00  0.00     0.227 C 
ATOM     16  O   UNL A   1      33.816  26.048  21.791  1.00  0.00    -0.275 OA
BRANCH  15  17
ATOM     17  C   UNL A   1      33.759  26.529  24.038  1.00  0.00     0.091 C 
ATOM     18  C   UNL A   1      33.688  28.508  25.683  1.00  0.00     0.012 C 
ATOM     19  C   UNL A   1      33.049  27.803  24.484  1.00  0.00    -0.017 C 
ATOM     20  C   UNL A   1      32.441  28.846  23.582  1.00  0.00     0.012 C 
ATOM     21  C   UNL A   1      32.363  26.462  24.730  1.00  0.00    -0.017 C 
ATOM     22  C   UNL A   1      32.290  25.873  26.120  1.00  0.00     0.012 C 
ATOM     23  C   UNL A   1      31.155  26.046  23.912  1.00  0.00     0.012 C 
ENDBRANCH  15  17
ENDBRANCH  10  15
ENDBRANCH   6   9
ENDBRANCH   4   5
ENDBRANCH   3   4
ENDBRANCH   2   3
ENDBRANCH   1   2
BRANCH   1  24
ATOM     24  C   UNL A   1      40.358  20.623  26.512  1.00  0.00     0.021 C 
BRANCH  24  25
ATOM     25  C   UNL A   1      41.414  19.695  27.112  1.00  0.00     0.116 C 
BRANCH  25  26
ATOM     26  N   UNL A   1      42.347  19.208  26.109  1.00  0.00    -0.352 N 
ATOM     27  C   UNL A   1      43.259  19.891  25.345  1.00  0.00     0.251 C 
ATOM     28  H   UNL A   1      42.319  18.236  25.954  1.00  0.00     0.163 HD
ATOM     29  O   UNL A   1      43.783  19.331  24.387  1.00  0.00    -0.269 OA
BRANCH  27  30
ATOM     30  C   UNL A   1      43.605  21.293  25.668  1.00  0.00     0.039 A 
ATOM     31  C   UNL A   1      43.413  22.277  24.694  1.00  0.00     0.014 A 
ATOM     32  C   UNL A   1      44.153  21.631  26.908  1.00  0.00     0.014 A 
ATOM     33  C   UNL A   1      43.720  23.610  24.985  1.00  0.00     0.010 A 
ATOM     34  C   UNL A   1      44.400  22.966  27.218  1.00  0.00     0.010 A 
ATOM     35  C   UNL A   1      44.188  23.968  26.258  1.00  0.00    -0.014 A 
BRANCH  35  36
ATOM     36  C   UNL A   1      44.470  25.386  26.605  1.00  0.00     0.031 A 
ATOM     37  C   UNL A   1      45.850  25.950  26.407  1.00  0.00     0.074 A 
ATOM     38  C   UNL A   1      43.500  26.140  27.160  1.00  0.00     0.049 A 
ATOM     39  N   UNL A   1      46.321  27.126  26.738  1.00  0.00    -0.248 NA
ATOM     40  C   UNL A   1      46.840  25.060  25.783  1.00  0.00     0.031 C 
ATOM     41  C   UNL A   1      42.133  25.691  27.431  1.00  0.00     0.029 A 
ATOM     42  N   UNL A   1      43.519  27.436  27.610  1.00  0.00    -0.354 N 
ATOM     43  C   UNL A   1      47.664  27.113  26.375  1.00  0.00     0.074 A 
ATOM     44  C   UNL A   1      47.941  25.791  25.852  1.00  0.00     0.031 C 
ATOM     45  C   UNL A   1      41.441  26.699  27.984  1.00  0.00     0.029 A 
ATOM     46  C   UNL A   1      42.323  27.850  28.151  1.00  0.00     0.049 A 
ATOM     47  H   UNL A   1      44.312  28.015  27.550  1.00  0.00     0.167 HD
ATOM     48  C   UNL A   1      48.573  28.117  26.453  1.00  0.00     0.034 A 
ATOM     49  C   UNL A   1      41.982  29.018  28.728  1.00  0.00     0.034 A 
ATOM     50  C   UNL A   1      48.272  29.432  26.965  1.00  0.00     0.049 A 
ATOM     51  C   UNL A   1      43.014  30.112  28.823  1.00  0.00     0.074 A 
ATOM     52  C   UNL A   1      49.101  30.539  27.041  1.00  0.00     0.029 A 
ATOM     53  N   UNL A   1      47.048  29.818  27.498  1.00  0.00    -0.354 N 
ATOM     54  N   UNL A   1      44.269  30.100  28.434  1.00  0.00    -0.248 NA
ATOM     55  C   UNL A   1      42.581  31.381  29.421  1.00  0.00     0.031 C 
ATOM     56  C   UNL A   1      48.399  31.571  27.675  1.00  0.00     0.029 A 
ATOM     57  C   UNL A   1      47.109  31.134  27.930  1.00  0.00     0.049 A 
ATOM     58  H   UNL A   1      46.254  29.240  27.559  1.00  0.00     0.167 HD
ATOM     59  C   UNL A   1      44.765  31.369  28.718  1.00  0.00     0.074 A 
ATOM     60  C   UNL A   1      43.670  32.123  29.294  1.00  0.00     0.031 C 
ATOM     61  C   UNL A   1      46.012  31.869  28.516  1.00  0.00     0.034 A 
BRANCH  48  62
ATOM     62  C   UNL A   1      49.982  27.816  25.997  1.00  0.00     0.023 A 
ATOM     63  C   UNL A   1      50.349  27.879  24.642  1.00  0.00     0.031 A 
ATOM     64  C   UNL A   1      50.964  27.430  26.926  1.00  0.00     0.131 A 
ATOM     65  C   UNL A   1      51.638  27.489  24.245  1.00  0.00     0.055 A 
ATOM     66  C   UNL A   1      52.269  27.123  26.534  1.00  0.00     0.041 A 
ATOM     67  F   UNL A   1      50.670  27.330  28.232  1.00  0.00    -0.206 F 
ATOM     68  C   UNL A   1      52.608  27.136  25.184  1.00  0.00     0.022 A 
BRANCH  65  69
ATOM     69  S   UNL A   1      51.980  27.311  22.473  1.00  0.00     0.124 S 
ATOM     70  O   UNL A   1      52.961  26.227  22.471  1.00  0.00    -0.237 OA
ATOM     71  O   UNL A   1      50.668  26.985  21.929  1.00  0.00    -0.237 OA
ATOM     72  O   UNL A   1      52.508  28.619  22.092  1.00  0.00    -0.744 OA
ENDBRANCH  65  69
ENDBRANCH  48  62
BRANCH  49  73
ATOM     73  C   UNL A   1      40.610  29.217  29.276  1.00  0.00     0.023 A 
ATOM     74  C   UNL A   1      40.365  29.140  30.656  1.00  0.00     0.031 A 
ATOM     75  C   UNL A   1      39.516  29.450  28.424  1.00  0.00     0.131 A 
ATOM     76  C   UNL A   1      39.052  29.249  31.141  1.00  0.00     0.055 A 
ATOM     77  C   UNL A   1      38.219  29.608  28.914  1.00  0.00     0.041 A 
ATOM     78  F   UNL A   1      39.697  29.539  27.096  1.00  0.00    -0.206 F 
ATOM     79  C   UNL A   1      37.980  29.495  30.280  1.00  0.00     0.022 A 
BRANCH  76  80
ATOM     80  S   UNL A   1      38.755  28.983  32.909  1.00  0.00     0.124 S 
ATOM     81  O   UNL A   1      39.932  28.213  33.295  1.00  0.00    -0.237 OA
ATOM     82  O   UNL A   1      38.688  30.350  33.414  1.00  0.00    -0.237 OA
ATOM     83  O   UNL A   1      37.492  28.248  32.935  1.00  0.00    -0.744 OA
ENDBRANCH  76  80
ENDBRANCH  49  73
BRANCH  61  84
ATOM     84  C   UNL A   1      46.235  33.313  28.885  1.00  0.00     0.023 A 
ATOM     85  C   UNL A   1      45.998  34.355  27.972  1.00  0.00     0.031 A 
ATOM     86  C   UNL A   1      46.707  33.651  30.167  1.00  0.00     0.131 A 
ATOM     87  C   UNL A   1      46.288  35.680  28.332  1.00  0.00     0.055 A 
ATOM     88  C   UNL A   1      46.937  34.975  30.539  1.00  0.00     0.041 A 
ATOM     89  F   UNL A   1      46.952  32.695  31.078  1.00  0.00    -0.206 F 
ATOM     90  C   UNL A   1      46.739  35.998  29.616  1.00  0.00     0.022 A 
BRANCH  87  91
ATOM     91  S   UNL A   1      46.148  36.976  27.071  1.00  0.00     0.124 S 
ATOM     92  O   UNL A   1      44.701  37.110  26.933  1.00  0.00    -0.237 OA
ATOM     93  O   UNL A   1      46.834  38.100  27.702  1.00  0.00    -0.237 OA
ATOM     94  O   UNL A   1      46.832  36.403  25.914  1.00  0.00    -0.744 OA
ENDBRANCH  87  91
ENDBRANCH  61  84
ENDBRANCH  35  36
ENDBRANCH  27  30
ENDBRANCH  25  26
ENDBRANCH  24  25
ENDBRANCH   1  24
TORSDOF 18
ENDMDL
MODEL 3
REMARK VINA RESULT:     -11.5      5.496      8.597
REMARK SMILES CC1(C)C(C(=O)N2CCOC[C@H]2C(=O)NCCCCCCNC(=O)c2ccc(-c3c4nc(c(-c5cc(S(=O)(=O)[O-])ccc5F)c5ccc([nH]5)c(-c5cc(S(=O)(=O)[O-])ccc5F)c5nc(c(-c6cc(S(=O)(=O)[O-])ccc6F)c6ccc3[nH]6)C=C5)C=C4)cc2)C1(C)C
REMARK SMILES IDX 19 1 18 2 17 3 16 4 15 5 13 6 14 7 12 9 7 10 8 11 9 12 11 13
REMARK SMILES IDX 10 14 5 15 6 16 4 17 1 18 2 19 3 20 88 21 89 22 90 23 20 24
REMARK SMILES IDX 21 25 22 26 23 27 24 29 25 30 26 31 87 32 27 33 86 34 28 35
REMARK SMILES IDX 29 36 30 37 80 38 31 39 85 40 79 41 81 42 32 43 84 44 78 45
REMARK SMILES IDX 77 46 33 48 65 49 45 50 64 51 46 52 49 53 63 54 82 55 47 56
REMARK SMILES IDX 48 57 62 59 83 60 50 61 34 62 35 63 43 64 36 65 42 66 44 67
REMARK SMILES IDX 41 68 37 69 38 70 39 71 40 72 66 73 67 74 75 75 68 76 74 77
REMARK SMILES IDX 76 78 73 79 69 80 70 81 71 82 72 83 51 84 52 85 60 86 53 87
REMARK SMILES IDX 59 88 61 89 58 90 54 91 55 92 56 93 57 94
REMARK H PARENT 15 8 22 28 81 47 49 58
REMARK Flexibility Score: inf
ROOT
ATOM      1  C   UNL A   1      35.715  20.729  25.044  1.00  0.00     0.002 C 
ENDROOT
BRANCH   1   2
ATOM      2  C   UNL A   1      34.424  19.974  25.381  1.00  0.00     0.002 C 
BRANCH   2   3
ATOM      3  C   UNL A   1      33.375  19.967  24.269  1.00  0.00     0.021 C 
BRANCH   3   4
ATOM      4  C   UNL A   1      32.116  20.770  24.612  1.00  0.00     0.116 C 
BRANCH   4   5
ATOM      5  N   UNL A   1      32.186  21.357  25.939  1.00  0.00    -0.354 N 
ATOM      6  C   UNL A   1      32.052  22.608  26.448  1.00  0.00     0.245 C 
ATOM      7  O   UNL A   1      32.123  22.662  27.686  1.00  0.00    -0.273 OA
ATOM      8  H   UNL A   1      32.375  20.687  26.635  1.00  0.00     0.163 HD
BRANCH   6   9
ATOM      9  C   UNL A   1      31.889  23.919  25.633  1.00  0.00     0.200 C 
ATOM     10  N   UNL A   1      33.116  24.463  25.015  1.00  0.00    -0.326 N 
ATOM     11  C   UNL A   1      33.434  23.861  23.742  1.00  0.00     0.149 C 
ATOM     12  C   UNL A   1      32.240  23.964  22.780  1.00  0.00     0.181 C 
ATOM     13  C   UNL A   1      30.724  23.975  24.638  1.00  0.00     0.195 C 
ATOM     14  O   UNL A   1      31.030  23.437  23.344  1.00  0.00    -0.377 OA
BRANCH  10  15
ATOM     15  C   UNL A   1      33.753  25.523  25.640  1.00  0.00     0.227 C 
ATOM     16  O   UNL A   1      34.966  25.497  25.820  1.00  0.00    -0.275 OA
BRANCH  15  17
ATOM     17  C   UNL A   1      33.070  26.744  26.183  1.00  0.00     0.091 C 
ATOM     18  C   UNL A   1      32.220  28.847  27.401  1.00  0.00     0.012 C 
ATOM     19  C   UNL A   1      33.258  28.232  26.459  1.00  0.00    -0.017 C 
ATOM     20  C   UNL A   1      34.574  28.939  26.665  1.00  0.00     0.012 C 
ATOM     21  C   UNL A   1      32.792  27.802  25.071  1.00  0.00    -0.017 C 
ATOM     22  C   UNL A   1      31.361  28.012  24.634  1.00  0.00     0.012 C 
ATOM     23  C   UNL A   1      33.728  27.879  23.879  1.00  0.00     0.012 C 
ENDBRANCH  15  17
ENDBRANCH  10  15
ENDBRANCH   6   9
ENDBRANCH   4   5
ENDBRANCH   3   4
ENDBRANCH   2   3
ENDBRANCH   1   2
BRANCH   1  24
ATOM     24  C   UNL A   1      35.909  22.069  25.759  1.00  0.00     0.021 C 
BRANCH  24  25
ATOM     25  C   UNL A   1      37.282  22.714  25.575  1.00  0.00     0.116 C 
BRANCH  25  26
ATOM     26  N   UNL A   1      38.360  21.831  25.987  1.00  0.00    -0.352 N 
ATOM     27  C   UNL A   1      39.613  22.127  26.461  1.00  0.00     0.251 C 
ATOM     28  H   UNL A   1      38.159  20.869  25.914  1.00  0.00     0.163 HD
ATOM     29  O   UNL A   1      40.459  21.240  26.526  1.00  0.00    -0.269 OA
BRANCH  27  30
ATOM     30  C   UNL A   1      39.946  23.505  26.884  1.00  0.00     0.039 A 
ATOM     31  C   UNL A   1      40.310  23.734  28.214  1.00  0.00     0.014 A 
ATOM     32  C   UNL A   1      39.861  24.573  25.986  1.00  0.00     0.014 A 
ATOM     33  C   UNL A   1      40.642  25.026  28.629  1.00  0.00     0.010 A 
ATOM     34  C   UNL A   1      40.252  25.848  26.386  1.00  0.00     0.010 A 
ATOM     35  C   UNL A   1      40.644  26.088  27.712  1.00  0.00    -0.014 A 
BRANCH  35  36
ATOM     36  C   UNL A   1      41.046  27.460  28.121  1.00  0.00     0.031 A 
ATOM     37  C   UNL A   1      42.500  27.846  28.133  1.00  0.00     0.074 A 
ATOM     38  C   UNL A   1      40.107  28.330  28.542  1.00  0.00     0.049 A 
ATOM     39  N   UNL A   1      43.060  28.954  28.548  1.00  0.00    -0.248 NA
ATOM     40  C   UNL A   1      43.451  26.839  27.643  1.00  0.00     0.031 C 
ATOM     41  C   UNL A   1      38.670  28.056  28.605  1.00  0.00     0.029 A 
ATOM     42  N   UNL A   1      40.221  29.614  29.012  1.00  0.00    -0.354 N 
ATOM     43  C   UNL A   1      44.429  28.773  28.382  1.00  0.00     0.074 A 
ATOM     44  C   UNL A   1      44.613  27.426  27.883  1.00  0.00     0.031 C 
ATOM     45  C   UNL A   1      38.036  29.144  29.070  1.00  0.00     0.029 A 
ATOM     46  C   UNL A   1      39.020  30.175  29.381  1.00  0.00     0.049 A 
ATOM     47  H   UNL A   1      41.080  30.090  29.077  1.00  0.00     0.167 HD
ATOM     48  C   UNL A   1      45.434  29.655  28.607  1.00  0.00     0.034 A 
ATOM     49  C   UNL A   1      38.746  31.378  29.923  1.00  0.00     0.034 A 
ATOM     50  C   UNL A   1      45.228  30.998  29.092  1.00  0.00     0.049 A 
ATOM     51  C   UNL A   1      39.881  32.335  30.184  1.00  0.00     0.074 A 
ATOM     52  C   UNL A   1      46.167  31.994  29.306  1.00  0.00     0.029 A 
ATOM     53  N   UNL A   1      43.997  31.536  29.449  1.00  0.00    -0.354 N 
ATOM     54  N   UNL A   1      41.168  32.165  29.980  1.00  0.00    -0.248 NA
ATOM     55  C   UNL A   1      39.527  33.648  30.734  1.00  0.00     0.031 C 
ATOM     56  C   UNL A   1      45.515  33.106  29.849  1.00  0.00     0.029 A 
ATOM     57  C   UNL A   1      44.157  32.834  29.908  1.00  0.00     0.049 A 
ATOM     58  H   UNL A   1      43.137  31.061  29.386  1.00  0.00     0.167 HD
ATOM     59  C   UNL A   1      41.771  33.362  30.353  1.00  0.00     0.074 A 
ATOM     60  C   UNL A   1      40.707  34.248  30.777  1.00  0.00     0.031 C 
ATOM     61  C   UNL A   1      43.086  33.701  30.342  1.00  0.00     0.034 A 
BRANCH  48  62
ATOM     62  C   UNL A   1      46.846  29.179  28.354  1.00  0.00     0.023 A 
ATOM     63  C   UNL A   1      47.318  28.923  27.055  1.00  0.00     0.031 A 
ATOM     64  C   UNL A   1      47.724  28.949  29.428  1.00  0.00     0.131 A 
ATOM     65  C   UNL A   1      48.599  28.381  26.867  1.00  0.00     0.055 A 
ATOM     66  C   UNL A   1      49.027  28.488  29.229  1.00  0.00     0.041 A 
ATOM     67  F   UNL A   1      47.325  29.155  30.694  1.00  0.00    -0.206 F 
ATOM     68  C   UNL A   1      49.466  28.185  27.944  1.00  0.00     0.022 A 
BRANCH  65  69
ATOM     69  S   UNL A   1      49.058  27.799  25.213  1.00  0.00     0.124 S 
ATOM     70  O   UNL A   1      50.287  28.551  24.967  1.00  0.00    -0.237 OA
ATOM     71  O   UNL A   1      49.218  26.365  25.415  1.00  0.00    -0.237 OA
ATOM     72  O   UNL A   1      47.921  28.191  24.384  1.00  0.00    -0.744 OA
ENDBRANCH  65  69
ENDBRANCH  48  62
BRANCH  49  73
ATOM     73  C   UNL A   1      37.344  31.748  30.271  1.00  0.00     0.023 A 
ATOM     74  C   UNL A   1      36.458  32.221  29.291  1.00  0.00     0.031 A 
ATOM     75  C   UNL A   1      36.881  31.667  31.596  1.00  0.00     0.131 A 
ATOM     76  C   UNL A   1      35.169  32.640  29.657  1.00  0.00     0.055 A 
ATOM     77  C   UNL A   1      35.582  32.037  31.948  1.00  0.00     0.041 A 
ATOM     78  F   UNL A   1      37.687  31.214  32.570  1.00  0.00    -0.206 F 
ATOM     79  C   UNL A   1      34.722  32.539  30.977  1.00  0.00     0.022 A 
BRANCH  76  80
ATOM     80  S   UNL A   1      34.112  33.397  28.394  1.00  0.00     0.124 S 
ATOM     81  O   UNL A   1      33.224  34.222  29.205  1.00  0.00    -0.237 OA
ATOM     82  O   UNL A   1      35.084  34.113  27.575  1.00  0.00    -0.237 OA
ATOM     83  O   UNL A   1      33.480  32.249  27.747  1.00  0.00    -0.744 OA
ENDBRANCH  76  80
ENDBRANCH  49  73
BRANCH  61  84
ATOM     84  C   UNL A   1      43.431  35.107  30.763  1.00  0.00     0.023 A 
ATOM     85  C   UNL A   1      43.508  36.160  29.834  1.00  0.00     0.031 A 
ATOM     86  C   UNL A   1      43.702  35.394  32.113  1.00  0.00     0.131 A 
ATOM     87  C   UNL A   1      43.903  37.438  30.258  1.00  0.00     0.055 A 
ATOM     88  C   UNL A   1      44.036  36.680  32.538  1.00  0.00     0.041 A 
ATOM     89  F   UNL A   1      43.644  34.426  33.043  1.00  0.00    -0.206 F 
ATOM     90  C   UNL A   1      44.151  37.709  31.607  1.00  0.00     0.022 A 
BRANCH  87  91
ATOM     91  S   UNL A   1      44.174  38.725  29.009  1.00  0.00     0.124 S 
ATOM     92  O   UNL A   1      43.996  37.981  27.765  1.00  0.00    -0.237 OA
ATOM     93  O   UNL A   1      43.128  39.693  29.326  1.00  0.00    -0.237 OA
ATOM     94  O   UNL A   1      45.538  39.177  29.272  1.00  0.00    -0.744 OA
ENDBRANCH  87  91
ENDBRANCH  61  84
ENDBRANCH  35  36
ENDBRANCH  27  30
ENDBRANCH  25  26
ENDBRANCH  24  25
ENDBRANCH   1  24
TORSDOF 18
ENDMDL
