MODEL 1
REMARK VINA RESULT:     -12.3      0.000      0.000
REMARK SMILES O=C(NCCCCCCNC(=O)c1ccc(Br)c(NC(=S)NC(=O)c2ccc(F)cc2)c1)c1ccc(-c2c3nc(c(-c4cc(S(=O)(=O)[O-])ccc4F)c4ccc([nH]4)c(-c4cc(S(=O)(=O)[O-])ccc4F)c4nc(c(-c5cc(S(=O)(=O)[O-])ccc5F)c5ccc2[nH]5)C=C4)C=C3)cc1
REMARK SMILES IDX 7 1 6 2 5 3 4 4 3 5 1 6 2 7 33 9 34 10 95 11 35 12 94 13
REMARK SMILES IDX 36 14 37 15 38 16 88 17 39 18 93 19 87 20 89 21 40 22 92 23
REMARK SMILES IDX 86 24 85 25 41 27 73 28 53 29 72 30 54 31 57 32 71 33 90 34
REMARK SMILES IDX 55 35 56 36 70 38 91 39 58 40 42 41 43 42 51 43 44 44 50 45
REMARK SMILES IDX 52 46 49 47 45 48 46 49 47 50 48 51 74 52 75 53 83 54 76 55
REMARK SMILES IDX 82 56 84 57 81 58 77 59 78 60 79 61 80 62 59 63 60 64 68 65
REMARK SMILES IDX 61 66 67 67 69 68 66 69 62 70 63 71 64 72 65 73 8 74 9 75
REMARK SMILES IDX 10 76 11 77 12 79 13 80 14 81 32 82 15 83 18 84 16 85 17 86
REMARK SMILES IDX 19 87 20 89 21 90 22 91 23 92 24 94 25 95 26 96 31 97 27 98
REMARK SMILES IDX 30 99 28 100 29 101
REMARK H PARENT 3 8 89 26 57 37 10 78 19 88 22 93
REMARK Flexibility Score: inf
ROOT
ATOM      1  C   UNL A   1      33.072  29.933  25.692  1.00  0.00     0.002 C 
ENDROOT
BRANCH   1   2
ATOM      2  C   UNL A   1      31.604  30.341  25.858  1.00  0.00     0.002 C 
BRANCH   2   3
ATOM      3  C   UNL A   1      31.368  31.702  26.496  1.00  0.00     0.021 C 
BRANCH   3   4
ATOM      4  C   UNL A   1      32.615  32.335  27.076  1.00  0.00     0.116 C 
BRANCH   4   5
ATOM      5  N   UNL A   1      32.402  33.714  27.490  1.00  0.00    -0.352 N 
ATOM      6  O   UNL A   1      32.713  35.529  28.809  1.00  0.00    -0.269 OA
ATOM      7  C   UNL A   1      33.101  34.427  28.437  1.00  0.00     0.251 C 
ATOM      8  H   UNL A   1      31.671  34.193  27.038  1.00  0.00     0.163 HD
BRANCH   7   9
ATOM      9  C   UNL A   1      34.315  33.814  29.015  1.00  0.00     0.039 A 
ATOM     10  C   UNL A   1      34.180  32.783  29.945  1.00  0.00     0.014 A 
ATOM     11  C   UNL A   1      35.574  34.328  28.701  1.00  0.00     0.014 A 
ATOM     12  C   UNL A   1      35.274  32.406  30.704  1.00  0.00     0.010 A 
ATOM     13  C   UNL A   1      36.702  33.830  29.360  1.00  0.00     0.010 A 
ATOM     14  C   UNL A   1      36.557  32.882  30.386  1.00  0.00    -0.014 A 
BRANCH  14  15
ATOM     15  C   UNL A   1      37.720  32.259  31.068  1.00  0.00     0.031 A 
ATOM     16  C   UNL A   1      38.160  32.676  32.439  1.00  0.00     0.074 A 
ATOM     17  C   UNL A   1      38.345  31.249  30.427  1.00  0.00     0.049 A 
ATOM     18  N   UNL A   1      39.122  32.175  33.172  1.00  0.00    -0.248 NA
ATOM     19  C   UNL A   1      37.447  33.795  33.070  1.00  0.00     0.031 C 
ATOM     20  C   UNL A   1      37.997  30.767  29.085  1.00  0.00     0.029 A 
ATOM     21  N   UNL A   1      39.361  30.418  30.818  1.00  0.00    -0.354 N 
ATOM     22  C   UNL A   1      39.144  32.926  34.341  1.00  0.00     0.074 A 
ATOM     23  C   UNL A   1      38.117  33.936  34.207  1.00  0.00     0.031 C 
ATOM     24  C   UNL A   1      38.712  29.674  28.808  1.00  0.00     0.029 A 
ATOM     25  C   UNL A   1      39.653  29.441  29.896  1.00  0.00     0.049 A 
ATOM     26  H   UNL A   1      39.836  30.511  31.675  1.00  0.00     0.167 HD
ATOM     27  C   UNL A   1      39.950  32.775  35.421  1.00  0.00     0.034 A 
ATOM     28  C   UNL A   1      40.590  28.476  29.897  1.00  0.00     0.034 A 
ATOM     29  C   UNL A   1      40.969  31.759  35.526  1.00  0.00     0.049 A 
ATOM     30  C   UNL A   1      41.511  28.372  31.073  1.00  0.00     0.074 A 
ATOM     31  C   UNL A   1      41.815  31.499  36.591  1.00  0.00     0.029 A 
ATOM     32  N   UNL A   1      41.299  30.846  34.530  1.00  0.00    -0.354 N 
ATOM     33  N   UNL A   1      41.519  29.093  32.169  1.00  0.00    -0.248 NA
ATOM     34  C   UNL A   1      42.552  27.340  31.016  1.00  0.00     0.031 C 
ATOM     35  C   UNL A   1      42.711  30.499  36.207  1.00  0.00     0.029 A 
ATOM     36  C   UNL A   1      42.362  30.058  34.940  1.00  0.00     0.049 A 
ATOM     37  H   UNL A   1      40.843  30.772  33.660  1.00  0.00     0.167 HD
ATOM     38  C   UNL A   1      42.557  28.590  32.944  1.00  0.00     0.074 A 
ATOM     39  C   UNL A   1      43.152  27.506  32.188  1.00  0.00     0.031 C 
ATOM     40  C   UNL A   1      42.962  28.988  34.174  1.00  0.00     0.034 A 
BRANCH  27  41
ATOM     41  C   UNL A   1      39.798  33.755  36.559  1.00  0.00     0.023 A 
ATOM     42  C   UNL A   1      39.249  33.379  37.795  1.00  0.00     0.031 A 
ATOM     43  C   UNL A   1      40.238  35.084  36.410  1.00  0.00     0.131 A 
ATOM     44  C   UNL A   1      39.109  34.331  38.818  1.00  0.00     0.055 A 
ATOM     45  C   UNL A   1      40.161  36.008  37.454  1.00  0.00     0.041 A 
ATOM     46  F   UNL A   1      40.756  35.505  35.246  1.00  0.00    -0.206 F 
ATOM     47  C   UNL A   1      39.585  35.636  38.665  1.00  0.00     0.022 A 
BRANCH  44  48
ATOM     48  S   UNL A   1      38.205  33.865  40.319  1.00  0.00     0.124 S 
ATOM     49  O   UNL A   1      36.992  33.271  39.762  1.00  0.00    -0.237 OA
ATOM     50  O   UNL A   1      39.126  32.941  40.970  1.00  0.00    -0.237 OA
ATOM     51  O   UNL A   1      38.006  35.137  41.010  1.00  0.00    -0.744 OA
ENDBRANCH  44  48
ENDBRANCH  27  41
BRANCH  28  52
ATOM     52  C   UNL A   1      40.694  27.574  28.720  1.00  0.00     0.023 A 
ATOM     53  C   UNL A   1      41.638  27.807  27.711  1.00  0.00     0.031 A 
ATOM     54  C   UNL A   1      39.911  26.405  28.644  1.00  0.00     0.131 A 
ATOM     55  C   UNL A   1      41.783  26.877  26.669  1.00  0.00     0.055 A 
ATOM     56  C   UNL A   1      40.088  25.465  27.629  1.00  0.00     0.041 A 
ATOM     57  F   UNL A   1      39.010  26.130  29.600  1.00  0.00    -0.206 F 
ATOM     58  C   UNL A   1      41.029  25.700  26.632  1.00  0.00     0.022 A 
BRANCH  55  59
ATOM     59  S   UNL A   1      42.985  27.222  25.356  1.00  0.00     0.124 S 
ATOM     60  O   UNL A   1      42.314  28.283  24.613  1.00  0.00    -0.237 OA
ATOM     61  O   UNL A   1      44.165  27.618  26.118  1.00  0.00    -0.237 OA
ATOM     62  O   UNL A   1      43.099  25.945  24.656  1.00  0.00    -0.744 OA
ENDBRANCH  55  59
ENDBRANCH  28  52
BRANCH  40  63
ATOM     63  C   UNL A   1      44.088  28.225  34.822  1.00  0.00     0.023 A 
ATOM     64  C   UNL A   1      43.883  26.975  35.429  1.00  0.00     0.031 A 
ATOM     65  C   UNL A   1      45.401  28.723  34.746  1.00  0.00     0.131 A 
ATOM     66  C   UNL A   1      44.979  26.266  35.942  1.00  0.00     0.055 A 
ATOM     67  C   UNL A   1      46.491  27.991  35.215  1.00  0.00     0.041 A 
ATOM     68  F   UNL A   1      45.646  29.913  34.175  1.00  0.00    -0.206 F 
ATOM     69  C   UNL A   1      46.283  26.755  35.818  1.00  0.00     0.022 A 
BRANCH  66  70
ATOM     70  S   UNL A   1      44.681  24.693  36.795  1.00  0.00     0.124 S 
ATOM     71  O   UNL A   1      45.761  23.860  36.275  1.00  0.00    -0.237 OA
ATOM     72  O   UNL A   1      44.787  25.070  38.201  1.00  0.00    -0.237 OA
ATOM     73  O   UNL A   1      43.339  24.314  36.357  1.00  0.00    -0.744 OA
ENDBRANCH  66  70
ENDBRANCH  40  63
ENDBRANCH  14  15
ENDBRANCH   7   9
ENDBRANCH   4   5
ENDBRANCH   3   4
ENDBRANCH   2   3
ENDBRANCH   1   2
BRANCH   1  74
ATOM     74  C   UNL A   1      33.364  28.752  24.758  1.00  0.00     0.021 C 
BRANCH  74  75
ATOM     75  C   UNL A   1      33.537  29.090  23.283  1.00  0.00     0.116 C 
BRANCH  75  76
ATOM     76  N   UNL A   1      32.273  29.283  22.604  1.00  0.00    -0.352 N 
ATOM     77  C   UNL A   1      31.146  28.516  22.493  1.00  0.00     0.251 C 
ATOM     78  H   UNL A   1      32.213  30.140  22.122  1.00  0.00     0.163 HD
ATOM     79  O   UNL A   1      30.187  29.063  21.955  1.00  0.00    -0.269 OA
BRANCH  77  80
ATOM     80  C   UNL A   1      31.134  27.082  23.088  1.00  0.00     0.041 A 
ATOM     81  C   UNL A   1      30.236  27.155  24.675  1.00  0.00     0.015 A 
ATOM     82  C   UNL A   1      31.733  25.232  22.543  1.00  0.00     0.041 A 
ATOM     83  C   UNL A   1      30.038  25.643  25.605  1.00  0.00     0.018 A 
ATOM     84  C   UNL A   1      31.581  23.866  23.554  1.00  0.00     0.055 A 
ATOM     85  C   UNL A   1      30.697  24.066  25.051  1.00  0.00     0.041 A 
ATOM     86  Br  UNL A   1      30.632  22.612  26.262  1.00  0.00    -0.049 Br
BRANCH  84  87
ATOM     87  N   UNL A   1      32.629  22.962  23.287  1.00  0.00    -0.331 N 
ATOM     88  H   UNL A   1      33.520  23.374  23.222  1.00  0.00     0.169 HD
BRANCH  87  89
ATOM     89  C   UNL A   1      32.613  21.595  23.103  1.00  0.00     0.177 C 
ATOM     90  S   UNL A   1      31.721  21.042  21.786  1.00  0.00    -0.040 S 
BRANCH  89  91
ATOM     91  N   UNL A   1      33.238  20.565  23.886  1.00  0.00    -0.299 N 
ATOM     92  C   UNL A   1      34.264  19.999  24.827  1.00  0.00     0.257 C 
ATOM     93  H   UNL A   1      32.668  19.783  23.702  1.00  0.00     0.172 HD
ATOM     94  O   UNL A   1      34.313  18.784  25.002  1.00  0.00    -0.269 OA
BRANCH  92  95
ATOM     95  C   UNL A   1      35.284  20.894  25.530  1.00  0.00     0.040 A 
ATOM     96  C   UNL A   1      34.383  21.548  26.871  1.00  0.00     0.017 A 
ATOM     97  C   UNL A   1      36.168  21.910  24.330  1.00  0.00     0.017 A 
ATOM     98  C   UNL A   1      34.107  23.299  26.908  1.00  0.00     0.040 A 
ATOM     99  C   UNL A   1      36.012  23.690  24.263  1.00  0.00     0.040 A 
ATOM    100  C   UNL A   1      34.932  24.482  25.479  1.00  0.00     0.123 A 
ATOM    101  F   UNL A   1      34.787  25.812  25.251  1.00  0.00    -0.207 F 
ENDBRANCH  92  95
ENDBRANCH  89  91
ENDBRANCH  87  89
ENDBRANCH  84  87
ENDBRANCH  77  80
ENDBRANCH  75  76
ENDBRANCH  74  75
ENDBRANCH   1  74
TORSDOF 20
ENDMDL
MODEL 2
REMARK VINA RESULT:     -12.1      1.235      7.417
REMARK SMILES O=C(NCCCCCCNC(=O)c1ccc(Br)c(NC(=S)NC(=O)c2ccc(F)cc2)c1)c1ccc(-c2c3nc(c(-c4cc(S(=O)(=O)[O-])ccc4F)c4ccc([nH]4)c(-c4cc(S(=O)(=O)[O-])ccc4F)c4nc(c(-c5cc(S(=O)(=O)[O-])ccc5F)c5ccc2[nH]5)C=C4)C=C3)cc1
REMARK SMILES IDX 7 1 6 2 5 3 4 4 3 5 1 6 2 7 33 9 34 10 95 11 35 12 94 13
REMARK SMILES IDX 36 14 37 15 38 16 88 17 39 18 93 19 87 20 89 21 40 22 92 23
REMARK SMILES IDX 86 24 85 25 41 27 73 28 53 29 72 30 54 31 57 32 71 33 90 34
REMARK SMILES IDX 55 35 56 36 70 38 91 39 58 40 42 41 43 42 51 43 44 44 50 45
REMARK SMILES IDX 52 46 49 47 45 48 46 49 47 50 48 51 74 52 75 53 83 54 76 55
REMARK SMILES IDX 82 56 84 57 81 58 77 59 78 60 79 61 80 62 59 63 60 64 68 65
REMARK SMILES IDX 61 66 67 67 69 68 66 69 62 70 63 71 64 72 65 73 8 74 9 75
REMARK SMILES IDX 10 76 11 77 12 79 13 80 14 81 32 82 15 83 18 84 16 85 17 86
REMARK SMILES IDX 19 87 20 89 21 90 22 91 23 92 24 94 25 95 26 96 31 97 27 98
REMARK SMILES IDX 30 99 28 100 29 101
REMARK H PARENT 3 8 89 26 57 37 10 78 19 88 22 93
REMARK Flexibility Score: inf
ROOT
ATOM      1  C   UNL A   1      32.929  29.817  25.608  1.00  0.00     0.002 C 
ENDROOT
BRANCH   1   2
ATOM      2  C   UNL A   1      31.490  30.336  25.714  1.00  0.00     0.002 C 
BRANCH   2   3
ATOM      3  C   UNL A   1      31.331  31.702  26.367  1.00  0.00     0.021 C 
BRANCH   3   4
ATOM      4  C   UNL A   1      32.618  32.273  26.923  1.00  0.00     0.116 C 
BRANCH   4   5
ATOM      5  N   UNL A   1      32.471  33.649  27.373  1.00  0.00    -0.352 N 
ATOM      6  O   UNL A   1      32.870  35.414  28.736  1.00  0.00    -0.269 OA
ATOM      7  C   UNL A   1      33.205  34.304  28.335  1.00  0.00     0.251 C 
ATOM      8  H   UNL A   1      31.763  34.174  26.936  1.00  0.00     0.163 HD
BRANCH   7   9
ATOM      9  C   UNL A   1      34.390  33.620  28.893  1.00  0.00     0.039 A 
ATOM     10  C   UNL A   1      34.217  32.441  29.618  1.00  0.00     0.014 A 
ATOM     11  C   UNL A   1      35.653  34.201  28.772  1.00  0.00     0.014 A 
ATOM     12  C   UNL A   1      35.262  31.956  30.385  1.00  0.00     0.010 A 
ATOM     13  C   UNL A   1      36.743  33.614  29.423  1.00  0.00     0.010 A 
ATOM     14  C   UNL A   1      36.550  32.501  30.255  1.00  0.00    -0.014 A 
BRANCH  14  15
ATOM     15  C   UNL A   1      37.677  31.788  30.909  1.00  0.00     0.031 A 
ATOM     16  C   UNL A   1      38.521  30.788  30.178  1.00  0.00     0.074 A 
ATOM     17  C   UNL A   1      37.958  32.115  32.187  1.00  0.00     0.049 A 
ATOM     18  N   UNL A   1      39.570  30.136  30.612  1.00  0.00    -0.248 NA
ATOM     19  C   UNL A   1      38.147  30.464  28.794  1.00  0.00     0.031 C 
ATOM     20  C   UNL A   1      37.194  33.075  32.992  1.00  0.00     0.029 A 
ATOM     21  N   UNL A   1      38.971  31.724  33.022  1.00  0.00    -0.354 N 
ATOM     22  C   UNL A   1      39.972  29.313  29.566  1.00  0.00     0.074 A 
ATOM     23  C   UNL A   1      39.035  29.528  28.485  1.00  0.00     0.031 C 
ATOM     24  C   UNL A   1      37.818  33.271  34.157  1.00  0.00     0.029 A 
ATOM     25  C   UNL A   1      38.958  32.368  34.236  1.00  0.00     0.049 A 
ATOM     26  H   UNL A   1      39.644  31.048  32.776  1.00  0.00     0.167 HD
ATOM     27  C   UNL A   1      41.029  28.466  29.523  1.00  0.00     0.034 A 
ATOM     28  C   UNL A   1      39.749  32.236  35.316  1.00  0.00     0.034 A 
ATOM     29  C   UNL A   1      41.947  28.271  30.620  1.00  0.00     0.049 A 
ATOM     30  C   UNL A   1      40.870  31.244  35.266  1.00  0.00     0.074 A 
ATOM     31  C   UNL A   1      43.069  27.461  30.665  1.00  0.00     0.029 A 
ATOM     32  N   UNL A   1      41.844  28.871  31.869  1.00  0.00    -0.354 N 
ATOM     33  N   UNL A   1      41.234  30.473  34.269  1.00  0.00    -0.248 NA
ATOM     34  C   UNL A   1      41.681  31.092  36.479  1.00  0.00     0.031 C 
ATOM     35  C   UNL A   1      43.587  27.500  31.961  1.00  0.00     0.029 A 
ATOM     36  C   UNL A   1      42.853  28.414  32.702  1.00  0.00     0.049 A 
ATOM     37  H   UNL A   1      41.154  29.526  32.125  1.00  0.00     0.167 HD
ATOM     38  C   UNL A   1      42.330  29.754  34.728  1.00  0.00     0.074 A 
ATOM     39  C   UNL A   1      42.567  30.182  36.093  1.00  0.00     0.031 C 
ATOM     40  C   UNL A   1      43.075  28.834  34.067  1.00  0.00     0.034 A 
BRANCH  27  41
ATOM     41  C   UNL A   1      41.229  27.649  28.270  1.00  0.00     0.023 A 
ATOM     42  C   UNL A   1      40.881  26.290  28.204  1.00  0.00     0.031 A 
ATOM     43  C   UNL A   1      41.752  28.251  27.110  1.00  0.00     0.131 A 
ATOM     44  C   UNL A   1      41.104  25.566  27.022  1.00  0.00     0.055 A 
ATOM     45  C   UNL A   1      41.906  27.544  25.916  1.00  0.00     0.041 A 
ATOM     46  F   UNL A   1      42.118  29.543  27.117  1.00  0.00    -0.206 F 
ATOM     47  C   UNL A   1      41.590  26.189  25.870  1.00  0.00     0.022 A 
BRANCH  44  48
ATOM     48  S   UNL A   1      40.841  23.772  27.042  1.00  0.00     0.124 S 
ATOM     49  O   UNL A   1      41.397  23.406  28.343  1.00  0.00    -0.237 OA
ATOM     50  O   UNL A   1      39.393  23.662  26.914  1.00  0.00    -0.237 OA
ATOM     51  O   UNL A   1      41.606  23.300  25.890  1.00  0.00    -0.744 OA
ENDBRANCH  44  48
ENDBRANCH  27  41
BRANCH  28  52
ATOM     52  C   UNL A   1      39.462  33.055  36.522  1.00  0.00     0.023 A 
ATOM     53  C   UNL A   1      38.587  32.598  37.516  1.00  0.00     0.031 A 
ATOM     54  C   UNL A   1      40.144  34.269  36.741  1.00  0.00     0.131 A 
ATOM     55  C   UNL A   1      38.420  33.347  38.692  1.00  0.00     0.055 A 
ATOM     56  C   UNL A   1      40.006  34.986  37.929  1.00  0.00     0.041 A 
ATOM     57  F   UNL A   1      41.010  34.733  35.827  1.00  0.00    -0.206 F 
ATOM     58  C   UNL A   1      39.138  34.526  38.913  1.00  0.00     0.022 A 
BRANCH  55  59
ATOM     59  S   UNL A   1      37.252  32.751  39.944  1.00  0.00     0.124 S 
ATOM     60  O   UNL A   1      36.027  32.614  39.164  1.00  0.00    -0.237 OA
ATOM     61  O   UNL A   1      37.878  31.508  40.381  1.00  0.00    -0.237 OA
ATOM     62  O   UNL A   1      37.243  33.823  40.937  1.00  0.00    -0.744 OA
ENDBRANCH  55  59
ENDBRANCH  28  52
BRANCH  40  63
ATOM     63  C   UNL A   1      44.258  28.242  34.787  1.00  0.00     0.023 A 
ATOM     64  C   UNL A   1      44.125  27.144  35.651  1.00  0.00     0.031 A 
ATOM     65  C   UNL A   1      45.549  28.737  34.528  1.00  0.00     0.131 A 
ATOM     66  C   UNL A   1      45.270  26.576  36.232  1.00  0.00     0.055 A 
ATOM     67  C   UNL A   1      46.685  28.139  35.070  1.00  0.00     0.041 A 
ATOM     68  F   UNL A   1      45.725  29.786  33.709  1.00  0.00    -0.206 F 
ATOM     69  C   UNL A   1      46.549  27.052  35.928  1.00  0.00     0.022 A 
BRANCH  66  70
ATOM     70  S   UNL A   1      45.070  25.211  37.408  1.00  0.00     0.124 S 
ATOM     71  O   UNL A   1      44.815  24.082  36.519  1.00  0.00    -0.237 OA
ATOM     72  O   UNL A   1      46.354  25.200  38.102  1.00  0.00    -0.237 OA
ATOM     73  O   UNL A   1      43.931  25.626  38.225  1.00  0.00    -0.744 OA
ENDBRANCH  66  70
ENDBRANCH  40  63
ENDBRANCH  14  15
ENDBRANCH   7   9
ENDBRANCH   4   5
ENDBRANCH   3   4
ENDBRANCH   2   3
ENDBRANCH   1   2
BRANCH   1  74
ATOM     74  C   UNL A   1      33.183  28.673  24.619  1.00  0.00     0.021 C 
BRANCH  74  75
ATOM     75  C   UNL A   1      33.363  29.074  23.161  1.00  0.00     0.116 C 
BRANCH  75  76
ATOM     76  N   UNL A   1      32.104  29.214  22.462  1.00  0.00    -0.352 N 
ATOM     77  C   UNL A   1      30.998  28.414  22.360  1.00  0.00     0.251 C 
ATOM     78  H   UNL A   1      32.028  30.055  21.955  1.00  0.00     0.163 HD
ATOM     79  O   UNL A   1      30.032  28.920  21.795  1.00  0.00    -0.269 OA
BRANCH  77  80
ATOM     80  C   UNL A   1      31.017  26.999  22.996  1.00  0.00     0.041 A 
ATOM     81  C   UNL A   1      30.137  27.103  24.591  1.00  0.00     0.015 A 
ATOM     82  C   UNL A   1      31.638  25.142  22.497  1.00  0.00     0.041 A 
ATOM     83  C   UNL A   1      29.975  25.616  25.568  1.00  0.00     0.018 A 
ATOM     84  C   UNL A   1      31.520  23.804  23.549  1.00  0.00     0.055 A 
ATOM     85  C   UNL A   1      30.651  24.034  25.051  1.00  0.00     0.041 A 
ATOM     86  Br  UNL A   1      30.624  22.615  26.304  1.00  0.00    -0.049 Br
BRANCH  84  87
ATOM     87  N   UNL A   1      32.579  22.910  23.295  1.00  0.00    -0.331 N 
ATOM     88  H   UNL A   1      33.468  23.329  23.242  1.00  0.00     0.169 HD
BRANCH  87  89
ATOM     89  C   UNL A   1      32.577  21.543  23.109  1.00  0.00     0.177 C 
ATOM     90  S   UNL A   1      31.714  20.985  21.775  1.00  0.00    -0.040 S 
BRANCH  89  91
ATOM     91  N   UNL A   1      33.194  20.516  23.903  1.00  0.00    -0.299 N 
ATOM     92  C   UNL A   1      34.220  19.951  24.846  1.00  0.00     0.257 C 
ATOM     93  H   UNL A   1      32.613  19.739  23.733  1.00  0.00     0.172 HD
ATOM     94  O   UNL A   1      34.254  18.738  25.037  1.00  0.00    -0.269 OA
BRANCH  92  95
ATOM     95  C   UNL A   1      35.255  20.844  25.529  1.00  0.00     0.040 A 
ATOM     96  C   UNL A   1      34.384  21.487  26.896  1.00  0.00     0.017 A 
ATOM     97  C   UNL A   1      36.108  21.868  24.316  1.00  0.00     0.017 A 
ATOM     98  C   UNL A   1      34.106  23.238  26.950  1.00  0.00     0.040 A 
ATOM     99  C   UNL A   1      35.947  23.649  24.263  1.00  0.00     0.040 A 
ATOM    100  C   UNL A   1      34.895  24.431  25.510  1.00  0.00     0.123 A 
ATOM    101  F   UNL A   1      34.743  25.762  25.293  1.00  0.00    -0.207 F 
ENDBRANCH  92  95
ENDBRANCH  89  91
ENDBRANCH  87  89
ENDBRANCH  84  87
ENDBRANCH  77  80
ENDBRANCH  75  76
ENDBRANCH  74  75
ENDBRANCH   1  74
TORSDOF 20
ENDMDL
MODEL 3
REMARK VINA RESULT:     -12.0      1.321      7.662
REMARK SMILES O=C(NCCCCCCNC(=O)c1ccc(Br)c(NC(=S)NC(=O)c2ccc(F)cc2)c1)c1ccc(-c2c3nc(c(-c4cc(S(=O)(=O)[O-])ccc4F)c4ccc([nH]4)c(-c4cc(S(=O)(=O)[O-])ccc4F)c4nc(c(-c5cc(S(=O)(=O)[O-])ccc5F)c5ccc2[nH]5)C=C4)C=C3)cc1
REMARK SMILES IDX 7 1 6 2 5 3 4 4 3 5 1 6 2 7 33 9 34 10 95 11 35 12 94 13
REMARK SMILES IDX 36 14 37 15 38 16 88 17 39 18 93 19 87 20 89 21 40 22 92 23
REMARK SMILES IDX 86 24 85 25 41 27 73 28 53 29 72 30 54 31 57 32 71 33 90 34
REMARK SMILES IDX 55 35 56 36 70 38 91 39 58 40 42 41 43 42 51 43 44 44 50 45
REMARK SMILES IDX 52 46 49 47 45 48 46 49 47 50 48 51 74 52 75 53 83 54 76 55
REMARK SMILES IDX 82 56 84 57 81 58 77 59 78 60 79 61 80 62 59 63 60 64 68 65
REMARK SMILES IDX 61 66 67 67 69 68 66 69 62 70 63 71 64 72 65 73 8 74 9 75
REMARK SMILES IDX 10 76 11 77 12 79 13 80 14 81 32 82 15 83 18 84 16 85 17 86
REMARK SMILES IDX 19 87 20 89 21 90 22 91 23 92 24 94 25 95 26 96 31 97 27 98
REMARK SMILES IDX 30 99 28 100 29 101
REMARK H PARENT 3 8 89 26 57 37 10 78 19 88 22 93
REMARK Flexibility Score: inf
ROOT
ATOM      1  C   UNL A   1      33.593  30.004  26.945  1.00  0.00     0.002 C 
ENDROOT
BRANCH   1   2
ATOM      2  C   UNL A   1      32.131  30.370  27.226  1.00  0.00     0.002 C 
BRANCH   2   3
ATOM      3  C   UNL A   1      31.750  31.815  26.941  1.00  0.00     0.021 C 
BRANCH   3   4
ATOM      4  C   UNL A   1      32.920  32.775  26.946  1.00  0.00     0.116 C 
BRANCH   4   5
ATOM      5  N   UNL A   1      32.597  34.050  27.568  1.00  0.00    -0.352 N 
ATOM      6  O   UNL A   1      32.671  35.607  29.212  1.00  0.00    -0.269 OA
ATOM      7  C   UNL A   1      33.151  34.600  28.701  1.00  0.00     0.251 C 
ATOM      8  H   UNL A   1      31.898  34.582  27.125  1.00  0.00     0.163 HD
BRANCH   7   9
ATOM      9  C   UNL A   1      34.322  33.928  29.300  1.00  0.00     0.039 A 
ATOM     10  C   UNL A   1      34.119  32.869  30.186  1.00  0.00     0.014 A 
ATOM     11  C   UNL A   1      35.608  34.411  29.053  1.00  0.00     0.014 A 
ATOM     12  C   UNL A   1      35.171  32.430  30.971  1.00  0.00     0.010 A 
ATOM     13  C   UNL A   1      36.693  33.853  29.736  1.00  0.00     0.010 A 
ATOM     14  C   UNL A   1      36.479  32.874  30.719  1.00  0.00    -0.014 A 
BRANCH  14  15
ATOM     15  C   UNL A   1      37.595  32.189  31.420  1.00  0.00     0.031 A 
ATOM     16  C   UNL A   1      38.416  31.121  30.762  1.00  0.00     0.074 A 
ATOM     17  C   UNL A   1      37.889  32.605  32.669  1.00  0.00     0.049 A 
ATOM     18  N   UNL A   1      39.454  30.482  31.240  1.00  0.00    -0.248 NA
ATOM     19  C   UNL A   1      38.028  30.703  29.408  1.00  0.00     0.031 C 
ATOM     20  C   UNL A   1      37.148  33.638  33.403  1.00  0.00     0.029 A 
ATOM     21  N   UNL A   1      38.898  32.257  33.527  1.00  0.00    -0.354 N 
ATOM     22  C   UNL A   1      39.834  29.576  30.257  1.00  0.00     0.074 A 
ATOM     23  C   UNL A   1      38.895  29.729  29.166  1.00  0.00     0.031 C 
ATOM     24  C   UNL A   1      37.781  33.908  34.548  1.00  0.00     0.029 A 
ATOM     25  C   UNL A   1      38.903  32.989  34.690  1.00  0.00     0.049 A 
ATOM     26  H   UNL A   1      39.556  31.551  33.330  1.00  0.00     0.167 HD
ATOM     27  C   UNL A   1      40.873  28.707  30.274  1.00  0.00     0.034 A 
ATOM     28  C   UNL A   1      39.698  32.923  35.774  1.00  0.00     0.034 A 
ATOM     29  C   UNL A   1      41.793  28.575  31.379  1.00  0.00     0.049 A 
ATOM     30  C   UNL A   1      40.799  31.908  35.794  1.00  0.00     0.074 A 
ATOM     31  C   UNL A   1      42.899  27.749  31.480  1.00  0.00     0.029 A 
ATOM     32  N   UNL A   1      41.708  29.269  32.580  1.00  0.00    -0.354 N 
ATOM     33  N   UNL A   1      41.142  31.057  34.856  1.00  0.00    -0.248 NA
ATOM     34  C   UNL A   1      41.612  31.830  37.012  1.00  0.00     0.031 C 
ATOM     35  C   UNL A   1      43.424  27.874  32.768  1.00  0.00     0.029 A 
ATOM     36  C   UNL A   1      42.712  28.855  33.441  1.00  0.00     0.049 A 
ATOM     37  H   UNL A   1      41.033  29.955  32.789  1.00  0.00     0.167 HD
ATOM     38  C   UNL A   1      42.226  30.352  35.364  1.00  0.00     0.074 A 
ATOM     39  C   UNL A   1      42.478  30.876  36.692  1.00  0.00     0.031 C 
ATOM     40  C   UNL A   1      42.949  29.371  34.771  1.00  0.00     0.034 A 
BRANCH  27  41
ATOM     41  C   UNL A   1      41.051  27.795  29.084  1.00  0.00     0.023 A 
ATOM     42  C   UNL A   1      42.027  28.033  28.103  1.00  0.00     0.031 A 
ATOM     43  C   UNL A   1      40.244  26.649  28.946  1.00  0.00     0.131 A 
ATOM     44  C   UNL A   1      42.141  27.168  27.004  1.00  0.00     0.055 A 
ATOM     45  C   UNL A   1      40.410  25.753  27.888  1.00  0.00     0.041 A 
ATOM     46  F   UNL A   1      39.284  26.378  29.844  1.00  0.00    -0.206 F 
ATOM     47  C   UNL A   1      41.357  26.015  26.903  1.00  0.00     0.022 A 
BRANCH  44  48
ATOM     48  S   UNL A   1      43.264  27.622  25.655  1.00  0.00     0.124 S 
ATOM     49  O   UNL A   1      43.987  26.371  25.437  1.00  0.00    -0.237 OA
ATOM     50  O   UNL A   1      42.343  28.018  24.595  1.00  0.00    -0.237 OA
ATOM     51  O   UNL A   1      44.063  28.705  26.223  1.00  0.00    -0.744 OA
ENDBRANCH  44  48
ENDBRANCH  27  41
BRANCH  28  52
ATOM     52  C   UNL A   1      39.433  33.835  36.917  1.00  0.00     0.023 A 
ATOM     53  C   UNL A   1      38.794  33.376  38.076  1.00  0.00     0.031 A 
ATOM     54  C   UNL A   1      39.911  35.160  36.899  1.00  0.00     0.131 A 
ATOM     55  C   UNL A   1      38.655  34.235  39.178  1.00  0.00     0.055 A 
ATOM     56  C   UNL A   1      39.807  35.995  38.012  1.00  0.00     0.041 A 
ATOM     57  F   UNL A   1      40.550  35.636  35.819  1.00  0.00    -0.206 F 
ATOM     58  C   UNL A   1      39.174  35.533  39.160  1.00  0.00     0.022 A 
BRANCH  55  59
ATOM     59  S   UNL A   1      37.789  33.627  40.650  1.00  0.00     0.124 S 
ATOM     60  O   UNL A   1      37.426  34.873  41.316  1.00  0.00    -0.237 OA
ATOM     61  O   UNL A   1      36.689  32.867  40.066  1.00  0.00    -0.237 OA
ATOM     62  O   UNL A   1      38.802  32.825  41.333  1.00  0.00    -0.744 OA
ENDBRANCH  55  59
ENDBRANCH  28  52
BRANCH  40  63
ATOM     63  C   UNL A   1      44.123  28.811  35.529  1.00  0.00     0.023 A 
ATOM     64  C   UNL A   1      43.985  27.737  36.422  1.00  0.00     0.031 A 
ATOM     65  C   UNL A   1      45.415  29.309  35.278  1.00  0.00     0.131 A 
ATOM     66  C   UNL A   1      45.123  27.196  37.039  1.00  0.00     0.055 A 
ATOM     67  C   UNL A   1      46.546  28.737  35.857  1.00  0.00     0.041 A 
ATOM     68  F   UNL A   1      45.597  30.336  34.433  1.00  0.00    -0.206 F 
ATOM     69  C   UNL A   1      46.404  27.674  36.744  1.00  0.00     0.022 A 
BRANCH  66  70
ATOM     70  S   UNL A   1      44.913  25.864  38.250  1.00  0.00     0.124 S 
ATOM     71  O   UNL A   1      44.237  24.841  37.459  1.00  0.00    -0.237 OA
ATOM     72  O   UNL A   1      46.289  25.566  38.636  1.00  0.00    -0.237 OA
ATOM     73  O   UNL A   1      44.098  26.477  39.297  1.00  0.00    -0.744 OA
ENDBRANCH  66  70
ENDBRANCH  40  63
ENDBRANCH  14  15
ENDBRANCH   7   9
ENDBRANCH   4   5
ENDBRANCH   3   4
ENDBRANCH   2   3
ENDBRANCH   1   2
BRANCH   1  74
ATOM     74  C   UNL A   1      33.844  28.800  26.030  1.00  0.00     0.021 C 
BRANCH  74  75
ATOM     75  C   UNL A   1      33.718  29.057  24.534  1.00  0.00     0.116 C 
BRANCH  75  76
ATOM     76  N   UNL A   1      32.406  29.541  24.161  1.00  0.00    -0.352 N 
ATOM     77  C   UNL A   1      31.189  28.931  24.022  1.00  0.00     0.251 C 
ATOM     78  H   UNL A   1      32.385  30.506  23.965  1.00  0.00     0.163 HD
ATOM     79  O   UNL A   1      30.239  29.686  23.835  1.00  0.00    -0.269 OA
BRANCH  77  80
ATOM     80  C   UNL A   1      31.086  27.389  24.171  1.00  0.00     0.041 A 
ATOM     81  C   UNL A   1      30.998  27.015  25.954  1.00  0.00     0.015 A 
ATOM     82  C   UNL A   1      30.926  25.778  22.962  1.00  0.00     0.041 A 
ATOM     83  C   UNL A   1      30.856  25.306  26.454  1.00  0.00     0.018 A 
ATOM     84  C   UNL A   1      30.893  24.175  23.545  1.00  0.00     0.055 A 
ATOM     85  C   UNL A   1      30.811  23.949  25.278  1.00  0.00     0.041 A 
ATOM     86  Br  UNL A   1      30.919  22.186  25.964  1.00  0.00    -0.049 Br
BRANCH  84  87
ATOM     87  N   UNL A   1      31.474  23.315  22.590  1.00  0.00    -0.331 N 
ATOM     88  H   UNL A   1      31.030  23.316  21.712  1.00  0.00     0.169 HD
BRANCH  87  89
ATOM     89  C   UNL A   1      32.561  22.471  22.684  1.00  0.00     0.177 C 
ATOM     90  S   UNL A   1      32.209  20.828  22.790  1.00  0.00    -0.040 S 
BRANCH  89  91
ATOM     91  N   UNL A   1      33.961  22.793  22.721  1.00  0.00    -0.299 N 
ATOM     92  C   UNL A   1      35.311  22.940  23.366  1.00  0.00     0.257 C 
ATOM     93  H   UNL A   1      34.137  23.082  21.797  1.00  0.00     0.172 HD
ATOM     94  O   UNL A   1      36.210  23.511  22.754  1.00  0.00    -0.269 OA
BRANCH  92  95
ATOM     95  C   UNL A   1      35.577  22.443  24.787  1.00  0.00     0.040 A 
ATOM     96  C   UNL A   1      36.047  23.893  25.633  1.00  0.00     0.017 A 
ATOM     97  C   UNL A   1      36.568  20.937  24.756  1.00  0.00     0.017 A 
ATOM     98  C   UNL A   1      37.698  23.976  26.277  1.00  0.00     0.040 A 
ATOM     99  C   UNL A   1      38.237  20.860  25.394  1.00  0.00     0.040 A 
ATOM    100  C   UNL A   1      38.927  22.368  26.117  1.00  0.00     0.123 A 
ATOM    101  F   UNL A   1      40.237  22.230  26.445  1.00  0.00    -0.207 F 
ENDBRANCH  92  95
ENDBRANCH  89  91
ENDBRANCH  87  89
ENDBRANCH  84  87
ENDBRANCH  77  80
ENDBRANCH  75  76
ENDBRANCH  74  75
ENDBRANCH   1  74
TORSDOF 20
ENDMDL
