MODEL 1
REMARK VINA RESULT:     -11.6      0.000      0.000
REMARK SMILES O=C(C[C@@H]([NH2+]Cc1ccccc1)C(=O)NCCCCCCNC(=O)c1ccc(-c2c3nc(c(-c4cc(S(=O)(=O)[O-])ccc4F)c4ccc([nH]4)c(-c4cc(S(=O)(=O)[O-])ccc4F)c4nc(c(-c5cc(S(=O)(=O)[O-])ccc5F)c5ccc2[nH]5)C=C4)C=C3)cc1)Nc1cccc(Cl)c1Cl
REMARK SMILES IDX 18 1 17 2 16 3 15 4 13 5 14 6 4 8 3 9 2 10 1 11 88 12 89 14
REMARK SMILES IDX 90 15 95 16 91 17 93 18 96 19 92 20 94 21 5 22 6 25 7 26
REMARK SMILES IDX 8 27 12 28 9 29 11 30 10 31 19 32 20 33 21 34 22 35 23 36
REMARK SMILES IDX 24 38 25 39 26 40 87 41 27 42 86 43 28 44 29 45 30 46 80 47
REMARK SMILES IDX 31 48 85 49 79 50 81 51 32 52 84 53 78 54 77 55 33 57 65 58
REMARK SMILES IDX 45 59 64 60 46 61 49 62 63 63 82 64 47 65 48 66 62 68 83 69
REMARK SMILES IDX 50 70 34 71 35 72 43 73 36 74 42 75 44 76 41 77 37 78 38 79
REMARK SMILES IDX 39 80 40 81 66 82 67 83 75 84 68 85 74 86 76 87 73 88 69 89
REMARK SMILES IDX 70 90 71 91 72 92 51 93 52 94 60 95 53 96 59 97 61 98 58 99
REMARK SMILES IDX 54 100 55 101 56 102 57 103
REMARK H PARENT 15 7 88 13 5 23 5 24 22 37 81 56 49 67
REMARK Flexibility Score: inf
ROOT
ATOM      1  C   UNL A   1      31.796  29.322  27.220  1.00  0.00     0.002 C 
ENDROOT
BRANCH   1   2
ATOM      2  C   UNL A   1      32.985  28.371  27.037  1.00  0.00     0.021 C 
BRANCH   2   3
ATOM      3  C   UNL A   1      32.666  27.172  26.144  1.00  0.00     0.116 C 
BRANCH   3   4
ATOM      4  N   UNL A   1      31.469  26.510  26.625  1.00  0.00    -0.351 N 
ATOM      5  C   UNL A   1      30.598  25.694  25.973  1.00  0.00     0.278 C 
ATOM      6  O   UNL A   1      29.570  25.360  26.571  1.00  0.00    -0.268 OA
ATOM      7  H   UNL A   1      31.255  26.677  27.571  1.00  0.00     0.163 HD
BRANCH   5   8
ATOM      8  C   UNL A   1      30.901  25.159  24.560  1.00  0.00     0.282 C 
BRANCH   8   9
ATOM      9  C   UNL A   1      30.818  23.626  24.552  1.00  0.00     0.175 C 
BRANCH   9  10
ATOM     10  C   UNL A   1      32.101  22.984  24.082  1.00  0.00     0.230 C 
ATOM     11  O   UNL A   1      32.155  22.328  23.048  1.00  0.00    -0.274 OA
ATOM     12  N   UNL A   1      33.145  23.162  24.977  1.00  0.00    -0.325 N 
ATOM     13  H   UNL A   1      32.957  23.618  25.828  1.00  0.00     0.169 HD
BRANCH  12  14
ATOM     14  C   UNL A   1      34.463  22.723  24.731  1.00  0.00     0.061 A 
ATOM     15  C   UNL A   1      35.348  23.675  24.205  1.00  0.00     0.028 A 
ATOM     16  C   UNL A   1      34.902  21.401  24.954  1.00  0.00     0.083 A 
ATOM     17  C   UNL A   1      36.684  23.347  23.981  1.00  0.00     0.004 A 
ATOM     18  C   UNL A   1      36.245  21.078  24.704  1.00  0.00     0.061 A 
ATOM     19  Cl  UNL A   1      33.765  20.144  25.345  1.00  0.00    -0.080 Cl
ATOM     20  C   UNL A   1      37.132  22.053  24.236  1.00  0.00     0.022 A 
ATOM     21  Cl  UNL A   1      36.877  19.481  24.921  1.00  0.00    -0.083 Cl
ENDBRANCH  12  14
ENDBRANCH   9  10
ENDBRANCH   8   9
BRANCH   8  22
ATOM     22  N   UNL A   1      30.040  25.816  23.522  1.00  0.00    -0.332 N 
ATOM     23  H   UNL A   1      29.116  25.976  23.922  1.00  0.00     0.347 HD
ATOM     24  H   UNL A   1      30.005  25.191  22.717  1.00  0.00     0.347 HD
BRANCH  22  25
ATOM     25  C   UNL A   1      30.581  27.110  23.054  1.00  0.00     0.297 C 
BRANCH  25  26
ATOM     26  C   UNL A   1      29.559  28.216  23.155  1.00  0.00     0.006 A 
ATOM     27  C   UNL A   1      29.956  29.560  23.130  1.00  0.00     0.009 A 
ATOM     28  C   UNL A   1      28.190  27.912  23.177  1.00  0.00     0.009 A 
ATOM     29  C   UNL A   1      29.005  30.578  23.090  1.00  0.00     0.001 A 
ATOM     30  C   UNL A   1      27.240  28.932  23.144  1.00  0.00     0.001 A 
ATOM     31  C   UNL A   1      27.648  30.264  23.091  1.00  0.00     0.000 A 
ENDBRANCH  25  26
ENDBRANCH  22  25
ENDBRANCH   8  22
ENDBRANCH   5   8
ENDBRANCH   3   4
ENDBRANCH   2   3
ENDBRANCH   1   2
BRANCH   1  32
ATOM     32  C   UNL A   1      31.604  30.328  26.079  1.00  0.00     0.002 C 
BRANCH  32  33
ATOM     33  C   UNL A   1      31.496  31.787  26.530  1.00  0.00     0.021 C 
BRANCH  33  34
ATOM     34  C   UNL A   1      32.808  32.384  27.026  1.00  0.00     0.116 C 
BRANCH  34  35
ATOM     35  N   UNL A   1      32.633  33.751  27.491  1.00  0.00    -0.352 N 
ATOM     36  C   UNL A   1      33.244  34.389  28.540  1.00  0.00     0.251 C 
ATOM     37  H   UNL A   1      31.986  34.292  26.984  1.00  0.00     0.163 HD
ATOM     38  O   UNL A   1      32.803  35.464  28.943  1.00  0.00    -0.269 OA
BRANCH  36  39
ATOM     39  C   UNL A   1      34.416  33.766  29.192  1.00  0.00     0.039 A 
ATOM     40  C   UNL A   1      34.210  32.796  30.173  1.00  0.00     0.014 A 
ATOM     41  C   UNL A   1      35.714  34.137  28.828  1.00  0.00     0.014 A 
ATOM     42  C   UNL A   1      35.309  32.153  30.748  1.00  0.00     0.010 A 
ATOM     43  C   UNL A   1      36.803  33.442  29.345  1.00  0.00     0.010 A 
ATOM     44  C   UNL A   1      36.613  32.444  30.314  1.00  0.00    -0.014 A 
BRANCH  44  45
ATOM     45  C   UNL A   1      37.787  31.720  30.866  1.00  0.00     0.031 A 
ATOM     46  C   UNL A   1      38.315  32.073  32.232  1.00  0.00     0.074 A 
ATOM     47  C   UNL A   1      38.404  30.780  30.122  1.00  0.00     0.049 A 
ATOM     48  N   UNL A   1      39.366  31.608  32.857  1.00  0.00    -0.248 NA
ATOM     49  C   UNL A   1      37.575  33.098  32.982  1.00  0.00     0.031 C 
ATOM     50  C   UNL A   1      38.000  30.369  28.776  1.00  0.00     0.029 A 
ATOM     51  N   UNL A   1      39.501  29.998  30.389  1.00  0.00    -0.354 N 
ATOM     52  C   UNL A   1      39.414  32.281  34.073  1.00  0.00     0.074 A 
ATOM     53  C   UNL A   1      38.327  33.237  34.064  1.00  0.00     0.031 C 
ATOM     54  C   UNL A   1      38.815  29.390  28.351  1.00  0.00     0.029 A 
ATOM     55  C   UNL A   1      39.834  29.141  29.364  1.00  0.00     0.049 A 
ATOM     56  H   UNL A   1      40.003  30.046  31.235  1.00  0.00     0.167 HD
ATOM     57  C   UNL A   1      40.265  32.099  35.112  1.00  0.00     0.034 A 
ATOM     58  C   UNL A   1      40.854  28.267  29.250  1.00  0.00     0.034 A 
ATOM     59  C   UNL A   1      41.342  31.140  35.109  1.00  0.00     0.049 A 
ATOM     60  C   UNL A   1      41.828  28.133  30.397  1.00  0.00     0.074 A 
ATOM     61  C   UNL A   1      42.248  30.859  36.116  1.00  0.00     0.029 A 
ATOM     62  N   UNL A   1      41.663  30.307  34.045  1.00  0.00    -0.354 N 
ATOM     63  N   UNL A   1      41.836  28.756  31.553  1.00  0.00    -0.248 NA
ATOM     64  C   UNL A   1      42.925  27.172  30.226  1.00  0.00     0.031 C 
ATOM     65  C   UNL A   1      43.157  29.911  35.639  1.00  0.00     0.029 A 
ATOM     66  C   UNL A   1      42.770  29.535  34.363  1.00  0.00     0.049 A 
ATOM     67  H   UNL A   1      41.177  30.271  33.190  1.00  0.00     0.167 HD
ATOM     68  C   UNL A   1      42.912  28.226  32.261  1.00  0.00     0.074 A 
ATOM     69  C   UNL A   1      43.517  27.224  31.409  1.00  0.00     0.031 C 
ATOM     70  C   UNL A   1      43.361  28.537  33.504  1.00  0.00     0.034 A 
BRANCH  57  71
ATOM     71  C   UNL A   1      40.069  32.965  36.333  1.00  0.00     0.023 A 
ATOM     72  C   UNL A   1      40.826  34.134  36.533  1.00  0.00     0.031 A 
ATOM     73  C   UNL A   1      39.119  32.622  37.311  1.00  0.00     0.131 A 
ATOM     74  C   UNL A   1      40.664  34.881  37.709  1.00  0.00     0.055 A 
ATOM     75  C   UNL A   1      38.906  33.415  38.441  1.00  0.00     0.041 A 
ATOM     76  F   UNL A   1      38.383  31.507  37.187  1.00  0.00    -0.206 F 
ATOM     77  C   UNL A   1      39.690  34.545  38.651  1.00  0.00     0.022 A 
BRANCH  74  78
ATOM     78  S   UNL A   1      41.837  36.221  38.050  1.00  0.00     0.124 S 
ATOM     79  O   UNL A   1      41.054  37.078  38.938  1.00  0.00    -0.237 OA
ATOM     80  O   UNL A   1      42.954  35.516  38.665  1.00  0.00    -0.237 OA
ATOM     81  O   UNL A   1      42.106  36.785  36.729  1.00  0.00    -0.744 OA
ENDBRANCH  74  78
ENDBRANCH  57  71
BRANCH  58  82
ATOM     82  C   UNL A   1      41.033  27.454  28.009  1.00  0.00     0.023 A 
ATOM     83  C   UNL A   1      40.733  26.083  27.999  1.00  0.00     0.031 A 
ATOM     84  C   UNL A   1      41.589  28.014  26.845  1.00  0.00     0.131 A 
ATOM     85  C   UNL A   1      41.057  25.303  26.877  1.00  0.00     0.055 A 
ATOM     86  C   UNL A   1      41.842  27.247  25.706  1.00  0.00     0.041 A 
ATOM     87  F   UNL A   1      41.896  29.320  26.796  1.00  0.00    -0.206 F 
ATOM     88  C   UNL A   1      41.595  25.878  25.726  1.00  0.00     0.022 A 
BRANCH  85  89
ATOM     89  S   UNL A   1      40.891  23.501  27.001  1.00  0.00     0.124 S 
ATOM     90  O   UNL A   1      41.770  23.051  25.927  1.00  0.00    -0.237 OA
ATOM     91  O   UNL A   1      41.355  23.247  28.360  1.00  0.00    -0.237 OA
ATOM     92  O   UNL A   1      39.465  23.275  26.777  1.00  0.00    -0.744 OA
ENDBRANCH  85  89
ENDBRANCH  58  82
BRANCH  70  93
ATOM     93  C   UNL A   1      44.529  27.739  34.034  1.00  0.00     0.023 A 
ATOM     94  C   UNL A   1      44.348  26.548  34.757  1.00  0.00     0.031 A 
ATOM     95  C   UNL A   1      45.845  28.189  33.819  1.00  0.00     0.131 A 
ATOM     96  C   UNL A   1      45.459  25.881  35.294  1.00  0.00     0.055 A 
ATOM     97  C   UNL A   1      46.950  27.483  34.296  1.00  0.00     0.041 A 
ATOM     98  F   UNL A   1      46.078  29.321  33.137  1.00  0.00    -0.206 F 
ATOM     99  C   UNL A   1      46.760  26.330  35.051  1.00  0.00     0.022 A 
BRANCH  96 100
ATOM    100  S   UNL A   1      45.177  24.474  36.403  1.00  0.00     0.124 S 
ATOM    101  O   UNL A   1      44.423  25.089  37.489  1.00  0.00    -0.237 OA
ATOM    102  O   UNL A   1      44.430  23.551  35.553  1.00  0.00    -0.237 OA
ATOM    103  O   UNL A   1      46.527  24.036  36.753  1.00  0.00    -0.744 OA
ENDBRANCH  96 100
ENDBRANCH  70  93
ENDBRANCH  44  45
ENDBRANCH  36  39
ENDBRANCH  34  35
ENDBRANCH  33  34
ENDBRANCH  32  33
ENDBRANCH   1  32
TORSDOF 22
ENDMDL
MODEL 2
REMARK VINA RESULT:     -11.6      5.748      9.959
REMARK SMILES O=C(C[C@@H]([NH2+]Cc1ccccc1)C(=O)NCCCCCCNC(=O)c1ccc(-c2c3nc(c(-c4cc(S(=O)(=O)[O-])ccc4F)c4ccc([nH]4)c(-c4cc(S(=O)(=O)[O-])ccc4F)c4nc(c(-c5cc(S(=O)(=O)[O-])ccc5F)c5ccc2[nH]5)C=C4)C=C3)cc1)Nc1cccc(Cl)c1Cl
REMARK SMILES IDX 18 1 17 2 16 3 15 4 13 5 14 6 4 8 3 9 2 10 1 11 88 12 89 14
REMARK SMILES IDX 90 15 95 16 91 17 93 18 96 19 92 20 94 21 5 22 6 25 7 26
REMARK SMILES IDX 8 27 12 28 9 29 11 30 10 31 19 32 20 33 21 34 22 35 23 36
REMARK SMILES IDX 24 38 25 39 26 40 87 41 27 42 86 43 28 44 29 45 30 46 80 47
REMARK SMILES IDX 31 48 85 49 79 50 81 51 32 52 84 53 78 54 77 55 33 57 65 58
REMARK SMILES IDX 45 59 64 60 46 61 49 62 63 63 82 64 47 65 48 66 62 68 83 69
REMARK SMILES IDX 50 70 34 71 35 72 43 73 36 74 42 75 44 76 41 77 37 78 38 79
REMARK SMILES IDX 39 80 40 81 66 82 67 83 75 84 68 85 74 86 76 87 73 88 69 89
REMARK SMILES IDX 70 90 71 91 72 92 51 93 52 94 60 95 53 96 59 97 61 98 58 99
REMARK SMILES IDX 54 100 55 101 56 102 57 103
REMARK H PARENT 15 7 88 13 5 23 5 24 22 37 81 56 49 67
REMARK Flexibility Score: inf
ROOT
ATOM      1  C   UNL A   1      37.753  22.137  25.061  1.00  0.00     0.002 C 
ENDROOT
BRANCH   1   2
ATOM      2  C   UNL A   1      36.712  23.232  24.791  1.00  0.00     0.021 C 
BRANCH   2   3
ATOM      3  C   UNL A   1      35.351  22.678  24.370  1.00  0.00     0.116 C 
BRANCH   3   4
ATOM      4  N   UNL A   1      34.842  23.438  23.246  1.00  0.00    -0.351 N 
ATOM      5  C   UNL A   1      33.577  23.533  22.752  1.00  0.00     0.278 C 
ATOM      6  O   UNL A   1      33.421  24.147  21.693  1.00  0.00    -0.268 OA
ATOM      7  H   UNL A   1      35.517  23.970  22.765  1.00  0.00     0.163 HD
BRANCH   5   8
ATOM      8  C   UNL A   1      32.373  22.943  23.511  1.00  0.00     0.282 C 
BRANCH   8   9
ATOM      9  C   UNL A   1      31.131  23.817  23.282  1.00  0.00     0.175 C 
BRANCH   9  10
ATOM     10  C   UNL A   1      31.084  25.002  24.215  1.00  0.00     0.230 C 
ATOM     11  O   UNL A   1      30.422  24.987  25.248  1.00  0.00    -0.274 OA
ATOM     12  N   UNL A   1      31.796  26.090  23.733  1.00  0.00    -0.325 N 
ATOM     13  H   UNL A   1      32.202  26.023  22.839  1.00  0.00     0.169 HD
BRANCH  12  14
ATOM     14  C   UNL A   1      31.966  27.290  24.456  1.00  0.00     0.061 A 
ATOM     15  C   UNL A   1      31.130  28.357  24.096  1.00  0.00     0.028 A 
ATOM     16  C   UNL A   1      32.932  27.463  25.469  1.00  0.00     0.083 A 
ATOM     17  C   UNL A   1      31.188  29.563  24.791  1.00  0.00     0.004 A 
ATOM     18  C   UNL A   1      32.994  28.691  26.148  1.00  0.00     0.061 A 
ATOM     19  Cl  UNL A   1      34.151  26.255  25.746  1.00  0.00    -0.080 Cl
ATOM     20  C   UNL A   1      32.114  29.727  25.819  1.00  0.00     0.022 A 
ATOM     21  Cl  UNL A   1      34.159  29.013  27.388  1.00  0.00    -0.083 Cl
ENDBRANCH  12  14
ENDBRANCH   9  10
ENDBRANCH   8   9
BRANCH   8  22
ATOM     22  N   UNL A   1      32.162  21.496  23.177  1.00  0.00    -0.332 N 
ATOM     23  H   UNL A   1      32.900  21.200  22.539  1.00  0.00     0.347 HD
ATOM     24  H   UNL A   1      31.237  21.414  22.756  1.00  0.00     0.347 HD
BRANCH  22  25
ATOM     25  C   UNL A   1      32.187  20.617  24.365  1.00  0.00     0.297 C 
BRANCH  25  26
ATOM     26  C   UNL A   1      32.888  19.310  24.084  1.00  0.00     0.006 A 
ATOM     27  C   UNL A   1      32.366  18.406  23.149  1.00  0.00     0.009 A 
ATOM     28  C   UNL A   1      34.125  19.030  24.684  1.00  0.00     0.009 A 
ATOM     29  C   UNL A   1      33.082  17.264  22.793  1.00  0.00     0.001 A 
ATOM     30  C   UNL A   1      34.836  17.883  24.332  1.00  0.00     0.001 A 
ATOM     31  C   UNL A   1      34.319  17.006  23.380  1.00  0.00     0.000 A 
ENDBRANCH  25  26
ENDBRANCH  22  25
ENDBRANCH   8  22
ENDBRANCH   5   8
ENDBRANCH   3   4
ENDBRANCH   2   3
ENDBRANCH   1   2
BRANCH   1  32
ATOM     32  C   UNL A   1      37.327  20.731  24.625  1.00  0.00     0.002 C 
BRANCH  32  33
ATOM     33  C   UNL A   1      38.333  19.629  24.964  1.00  0.00     0.021 C 
BRANCH  33  34
ATOM     34  C   UNL A   1      39.338  20.014  26.044  1.00  0.00     0.116 C 
BRANCH  34  35
ATOM     35  N   UNL A   1      40.522  19.170  26.000  1.00  0.00    -0.352 N 
ATOM     36  C   UNL A   1      41.843  19.537  25.993  1.00  0.00     0.251 C 
ATOM     37  H   UNL A   1      40.350  18.201  25.971  1.00  0.00     0.163 HD
ATOM     38  O   UNL A   1      42.706  18.709  25.709  1.00  0.00    -0.269 OA
BRANCH  36  39
ATOM     39  C   UNL A   1      42.215  20.933  26.304  1.00  0.00     0.039 A 
ATOM     40  C   UNL A   1      42.435  21.295  27.634  1.00  0.00     0.014 A 
ATOM     41  C   UNL A   1      42.352  21.879  25.284  1.00  0.00     0.014 A 
ATOM     42  C   UNL A   1      42.851  22.595  27.934  1.00  0.00     0.010 A 
ATOM     43  C   UNL A   1      42.841  23.149  25.577  1.00  0.00     0.010 A 
ATOM     44  C   UNL A   1      43.093  23.522  26.907  1.00  0.00    -0.014 A 
BRANCH  44  45
ATOM     45  C   UNL A   1      43.602  24.886  27.206  1.00  0.00     0.031 A 
ATOM     46  C   UNL A   1      42.669  25.936  27.746  1.00  0.00     0.074 A 
ATOM     47  C   UNL A   1      44.891  25.190  26.948  1.00  0.00     0.049 A 
ATOM     48  N   UNL A   1      42.904  27.198  28.002  1.00  0.00    -0.248 NA
ATOM     49  C   UNL A   1      41.285  25.518  28.012  1.00  0.00     0.031 C 
ATOM     50  C   UNL A   1      45.884  24.263  26.401  1.00  0.00     0.029 A 
ATOM     51  N   UNL A   1      45.588  26.362  27.110  1.00  0.00    -0.354 N 
ATOM     52  C   UNL A   1      41.701  27.723  28.461  1.00  0.00     0.074 A 
ATOM     53  C   UNL A   1      40.722  26.659  28.378  1.00  0.00     0.031 C 
ATOM     54  C   UNL A   1      47.067  24.891  26.306  1.00  0.00     0.029 A 
ATOM     55  C   UNL A   1      46.908  26.278  26.728  1.00  0.00     0.049 A 
ATOM     56  H   UNL A   1      45.182  27.184  27.467  1.00  0.00     0.167 HD
ATOM     57  C   UNL A   1      41.442  28.966  28.935  1.00  0.00     0.034 A 
ATOM     58  C   UNL A   1      47.874  27.218  26.706  1.00  0.00     0.034 A 
ATOM     59  C   UNL A   1      42.428  30.016  29.015  1.00  0.00     0.049 A 
ATOM     60  C   UNL A   1      47.541  28.615  27.177  1.00  0.00     0.074 A 
ATOM     61  C   UNL A   1      42.278  31.303  29.499  1.00  0.00     0.029 A 
ATOM     62  N   UNL A   1      43.748  29.902  28.596  1.00  0.00    -0.354 N 
ATOM     63  N   UNL A   1      46.404  29.083  27.639  1.00  0.00    -0.248 NA
ATOM     64  C   UNL A   1      48.623  29.606  27.132  1.00  0.00     0.031 C 
ATOM     65  C   UNL A   1      43.482  31.988  29.309  1.00  0.00     0.029 A 
ATOM     66  C   UNL A   1      44.411  31.105  28.786  1.00  0.00     0.049 A 
ATOM     67  H   UNL A   1      44.152  29.088  28.221  1.00  0.00     0.167 HD
ATOM     68  C   UNL A   1      46.652  30.411  27.979  1.00  0.00     0.074 A 
ATOM     69  C   UNL A   1      48.047  30.661  27.685  1.00  0.00     0.031 C 
ATOM     70  C   UNL A   1      45.805  31.340  28.490  1.00  0.00     0.034 A 
BRANCH  57  71
ATOM     71  C   UNL A   1      40.033  29.259  29.392  1.00  0.00     0.023 A 
ATOM     72  C   UNL A   1      39.682  29.228  30.753  1.00  0.00     0.031 A 
ATOM     73  C   UNL A   1      39.028  29.572  28.460  1.00  0.00     0.131 A 
ATOM     74  C   UNL A   1      38.350  29.443  31.139  1.00  0.00     0.055 A 
ATOM     75  C   UNL A   1      37.721  29.864  28.857  1.00  0.00     0.041 A 
ATOM     76  F   UNL A   1      39.298  29.595  27.146  1.00  0.00    -0.206 F 
ATOM     77  C   UNL A   1      37.373  29.789  30.203  1.00  0.00     0.022 A 
BRANCH  74  78
ATOM     78  S   UNL A   1      37.889  29.134  32.864  1.00  0.00     0.124 S 
ATOM     79  O   UNL A   1      37.744  27.680  32.875  1.00  0.00    -0.237 OA
ATOM     80  O   UNL A   1      39.031  29.667  33.598  1.00  0.00    -0.237 OA
ATOM     81  O   UNL A   1      36.642  29.879  33.024  1.00  0.00    -0.744 OA
ENDBRANCH  74  78
ENDBRANCH  57  71
BRANCH  58  82
ATOM     82  C   UNL A   1      49.247  26.897  26.212  1.00  0.00     0.023 A 
ATOM     83  C   UNL A   1      49.700  27.387  24.977  1.00  0.00     0.031 A 
ATOM     84  C   UNL A   1      50.093  26.028  26.924  1.00  0.00     0.131 A 
ATOM     85  C   UNL A   1      50.926  26.947  24.456  1.00  0.00     0.055 A 
ATOM     86  C   UNL A   1      51.345  25.650  26.432  1.00  0.00     0.041 A 
ATOM     87  F   UNL A   1      49.714  25.527  28.111  1.00  0.00    -0.206 F 
ATOM     88  C   UNL A   1      51.759  26.094  25.181  1.00  0.00     0.022 A 
BRANCH  85  89
ATOM     89  S   UNL A   1      51.353  27.399  22.751  1.00  0.00     0.124 S 
ATOM     90  O   UNL A   1      52.709  26.873  22.638  1.00  0.00    -0.237 OA
ATOM     91  O   UNL A   1      50.327  26.700  21.988  1.00  0.00    -0.237 OA
ATOM     92  O   UNL A   1      51.246  28.856  22.750  1.00  0.00    -0.744 OA
ENDBRANCH  85  89
ENDBRANCH  58  82
BRANCH  70  93
ATOM     93  C   UNL A   1      46.386  32.695  28.817  1.00  0.00     0.023 A 
ATOM     94  C   UNL A   1      46.438  33.730  27.867  1.00  0.00     0.031 A 
ATOM     95  C   UNL A   1      46.906  32.948  30.100  1.00  0.00     0.131 A 
ATOM     96  C   UNL A   1      47.055  34.947  28.194  1.00  0.00     0.055 A 
ATOM     97  C   UNL A   1      47.455  34.185  30.440  1.00  0.00     0.041 A 
ATOM     98  F   UNL A   1      46.885  31.997  31.046  1.00  0.00    -0.206 F 
ATOM     99  C   UNL A   1      47.546  35.188  29.479  1.00  0.00     0.022 A 
BRANCH  96 100
ATOM    100  S   UNL A   1      47.300  36.176  26.882  1.00  0.00     0.124 S 
ATOM    101  O   UNL A   1      46.132  35.957  26.037  1.00  0.00    -0.237 OA
ATOM    102  O   UNL A   1      47.319  37.430  27.629  1.00  0.00    -0.237 OA
ATOM    103  O   UNL A   1      48.579  35.792  26.287  1.00  0.00    -0.744 OA
ENDBRANCH  96 100
ENDBRANCH  70  93
ENDBRANCH  44  45
ENDBRANCH  36  39
ENDBRANCH  34  35
ENDBRANCH  33  34
ENDBRANCH  32  33
ENDBRANCH   1  32
TORSDOF 22
ENDMDL
MODEL 3
REMARK VINA RESULT:     -11.3      2.465      7.676
REMARK SMILES O=C(C[C@@H]([NH2+]Cc1ccccc1)C(=O)NCCCCCCNC(=O)c1ccc(-c2c3nc(c(-c4cc(S(=O)(=O)[O-])ccc4F)c4ccc([nH]4)c(-c4cc(S(=O)(=O)[O-])ccc4F)c4nc(c(-c5cc(S(=O)(=O)[O-])ccc5F)c5ccc2[nH]5)C=C4)C=C3)cc1)Nc1cccc(Cl)c1Cl
REMARK SMILES IDX 18 1 17 2 16 3 15 4 13 5 14 6 4 8 3 9 2 10 1 11 88 12 89 14
REMARK SMILES IDX 90 15 95 16 91 17 93 18 96 19 92 20 94 21 5 22 6 25 7 26
REMARK SMILES IDX 8 27 12 28 9 29 11 30 10 31 19 32 20 33 21 34 22 35 23 36
REMARK SMILES IDX 24 38 25 39 26 40 87 41 27 42 86 43 28 44 29 45 30 46 80 47
REMARK SMILES IDX 31 48 85 49 79 50 81 51 32 52 84 53 78 54 77 55 33 57 65 58
REMARK SMILES IDX 45 59 64 60 46 61 49 62 63 63 82 64 47 65 48 66 62 68 83 69
REMARK SMILES IDX 50 70 34 71 35 72 43 73 36 74 42 75 44 76 41 77 37 78 38 79
REMARK SMILES IDX 39 80 40 81 66 82 67 83 75 84 68 85 74 86 76 87 73 88 69 89
REMARK SMILES IDX 70 90 71 91 72 92 51 93 52 94 60 95 53 96 59 97 61 98 58 99
REMARK SMILES IDX 54 100 55 101 56 102 57 103
REMARK H PARENT 15 7 88 13 5 23 5 24 22 37 81 56 49 67
REMARK Flexibility Score: inf
ROOT
ATOM      1  C   UNL A   1      31.849  26.328  26.615  1.00  0.00     0.002 C 
ENDROOT
BRANCH   1   2
ATOM      2  C   UNL A   1      31.339  24.883  26.537  1.00  0.00     0.021 C 
BRANCH   2   3
ATOM      3  C   UNL A   1      32.347  23.859  27.058  1.00  0.00     0.116 C 
BRANCH   3   4
ATOM      4  N   UNL A   1      31.996  22.539  26.573  1.00  0.00    -0.351 N 
ATOM      5  C   UNL A   1      31.989  22.045  25.305  1.00  0.00     0.278 C 
ATOM      6  O   UNL A   1      31.517  20.917  25.133  1.00  0.00    -0.268 OA
ATOM      7  H   UNL A   1      31.722  21.900  27.269  1.00  0.00     0.163 HD
BRANCH   5   8
ATOM      8  C   UNL A   1      32.594  22.839  24.130  1.00  0.00     0.282 C 
BRANCH   8   9
ATOM      9  C   UNL A   1      33.676  22.000  23.435  1.00  0.00     0.175 C 
BRANCH   9  10
ATOM     10  C   UNL A   1      35.068  22.499  23.734  1.00  0.00     0.230 C 
ATOM     11  O   UNL A   1      35.662  23.256  22.974  1.00  0.00    -0.274 OA
ATOM     12  N   UNL A   1      35.595  21.949  24.894  1.00  0.00    -0.325 N 
ATOM     13  H   UNL A   1      35.066  21.269  25.369  1.00  0.00     0.169 HD
BRANCH  12  14
ATOM     14  C   UNL A   1      36.849  22.314  25.427  1.00  0.00     0.061 A 
ATOM     15  C   UNL A   1      36.987  23.649  25.834  1.00  0.00     0.028 A 
ATOM     16  C   UNL A   1      37.942  21.428  25.533  1.00  0.00     0.083 A 
ATOM     17  C   UNL A   1      38.172  24.086  26.423  1.00  0.00     0.004 A 
ATOM     18  C   UNL A   1      39.137  21.888  26.109  1.00  0.00     0.061 A 
ATOM     19  Cl  UNL A   1      37.883  19.856  24.792  1.00  0.00    -0.080 Cl
ATOM     20  C   UNL A   1      39.242  23.206  26.566  1.00  0.00     0.022 A 
ATOM     21  Cl  UNL A   1      40.543  20.889  26.262  1.00  0.00    -0.083 Cl
ENDBRANCH  12  14
ENDBRANCH   9  10
ENDBRANCH   8   9
BRANCH   8  22
ATOM     22  N   UNL A   1      31.533  23.346  23.200  1.00  0.00    -0.332 N 
ATOM     23  H   UNL A   1      30.697  23.557  23.745  1.00  0.00     0.347 HD
ATOM     24  H   UNL A   1      31.364  22.618  22.507  1.00  0.00     0.347 HD
BRANCH  22  25
ATOM     25  C   UNL A   1      31.938  24.566  22.469  1.00  0.00     0.297 C 
BRANCH  25  26
ATOM     26  C   UNL A   1      31.049  25.741  22.800  1.00  0.00     0.006 A 
ATOM     27  C   UNL A   1      31.298  27.004  22.245  1.00  0.00     0.009 A 
ATOM     28  C   UNL A   1      29.906  25.560  23.592  1.00  0.00     0.009 A 
ATOM     29  C   UNL A   1      30.403  28.053  22.446  1.00  0.00     0.001 A 
ATOM     30  C   UNL A   1      29.015  26.613  23.798  1.00  0.00     0.001 A 
ATOM     31  C   UNL A   1      29.260  27.856  23.217  1.00  0.00     0.000 A 
ENDBRANCH  25  26
ENDBRANCH  22  25
ENDBRANCH   8  22
ENDBRANCH   5   8
ENDBRANCH   3   4
ENDBRANCH   2   3
ENDBRANCH   1   2
BRANCH   1  32
ATOM     32  C   UNL A   1      33.235  26.548  26.001  1.00  0.00     0.002 C 
BRANCH  32  33
ATOM     33  C   UNL A   1      33.300  27.674  24.965  1.00  0.00     0.021 C 
BRANCH  33  34
ATOM     34  C   UNL A   1      34.164  28.858  25.385  1.00  0.00     0.116 C 
BRANCH  34  35
ATOM     35  N   UNL A   1      33.354  30.000  25.778  1.00  0.00    -0.352 N 
ATOM     36  C   UNL A   1      33.482  30.811  26.876  1.00  0.00     0.251 C 
ATOM     37  H   UNL A   1      32.610  30.221  25.172  1.00  0.00     0.163 HD
ATOM     38  O   UNL A   1      32.570  31.576  27.182  1.00  0.00    -0.269 OA
BRANCH  36  39
ATOM     39  C   UNL A   1      34.710  30.740  27.697  1.00  0.00     0.039 A 
ATOM     40  C   UNL A   1      35.005  29.556  28.375  1.00  0.00     0.014 A 
ATOM     41  C   UNL A   1      35.570  31.838  27.790  1.00  0.00     0.014 A 
ATOM     42  C   UNL A   1      36.194  29.455  29.100  1.00  0.00     0.010 A 
ATOM     43  C   UNL A   1      36.790  31.709  28.448  1.00  0.00     0.010 A 
ATOM     44  C   UNL A   1      37.114  30.517  29.113  1.00  0.00    -0.014 A 
BRANCH  44  45
ATOM     45  C   UNL A   1      38.415  30.399  29.822  1.00  0.00     0.031 A 
ATOM     46  C   UNL A   1      39.538  29.606  29.209  1.00  0.00     0.074 A 
ATOM     47  C   UNL A   1      38.569  30.968  31.035  1.00  0.00     0.049 A 
ATOM     48  N   UNL A   1      40.719  29.327  29.701  1.00  0.00    -0.248 NA
ATOM     49  C   UNL A   1      39.293  29.031  27.878  1.00  0.00     0.031 C 
ATOM     50  C   UNL A   1      37.545  31.740  31.742  1.00  0.00     0.029 A 
ATOM     51  N   UNL A   1      39.643  30.985  31.891  1.00  0.00    -0.354 N 
ATOM     52  C   UNL A   1      41.356  28.549  28.741  1.00  0.00     0.074 A 
ATOM     53  C   UNL A   1      40.403  28.340  27.672  1.00  0.00     0.031 C 
ATOM     54  C   UNL A   1      38.051  32.183  32.904  1.00  0.00     0.029 A 
ATOM     55  C   UNL A   1      39.412  31.681  33.056  1.00  0.00     0.049 A 
ATOM     56  H   UNL A   1      40.498  30.541  31.689  1.00  0.00     0.167 HD
ATOM     57  C   UNL A   1      42.627  28.078  28.738  1.00  0.00     0.034 A 
ATOM     58  C   UNL A   1      40.203  31.878  34.130  1.00  0.00     0.034 A 
ATOM     59  C   UNL A   1      43.567  28.296  29.809  1.00  0.00     0.049 A 
ATOM     60  C   UNL A   1      41.592  31.283  34.128  1.00  0.00     0.074 A 
ATOM     61  C   UNL A   1      44.885  27.882  29.896  1.00  0.00     0.029 A 
ATOM     62  N   UNL A   1      43.291  28.985  30.983  1.00  0.00    -0.354 N 
ATOM     63  N   UNL A   1      42.189  30.578  33.195  1.00  0.00    -0.248 NA
ATOM     64  C   UNL A   1      42.416  31.520  35.320  1.00  0.00     0.031 C 
ATOM     65  C   UNL A   1      45.382  28.257  31.148  1.00  0.00     0.029 A 
ATOM     66  C   UNL A   1      44.404  28.981  31.810  1.00  0.00     0.049 A 
ATOM     67  H   UNL A   1      42.431  29.412  31.196  1.00  0.00     0.167 HD
ATOM     68  C   UNL A   1      43.473  30.326  33.674  1.00  0.00     0.074 A 
ATOM     69  C   UNL A   1      43.567  30.969  34.967  1.00  0.00     0.031 C 
ATOM     70  C   UNL A   1      44.484  29.629  33.097  1.00  0.00     0.034 A 
BRANCH  57  71
ATOM     71  C   UNL A   1      43.067  27.269  27.541  1.00  0.00     0.023 A 
ATOM     72  C   UNL A   1      42.980  25.865  27.532  1.00  0.00     0.031 A 
ATOM     73  C   UNL A   1      43.581  27.903  26.396  1.00  0.00     0.131 A 
ATOM     74  C   UNL A   1      43.457  25.140  26.430  1.00  0.00     0.055 A 
ATOM     75  C   UNL A   1      43.978  27.180  25.269  1.00  0.00     0.041 A 
ATOM     76  F   UNL A   1      43.709  29.238  26.354  1.00  0.00    -0.206 F 
ATOM     77  C   UNL A   1      43.929  25.789  25.286  1.00  0.00     0.022 A 
BRANCH  74  78
ATOM     78  S   UNL A   1      43.572  23.336  26.565  1.00  0.00     0.124 S 
ATOM     79  O   UNL A   1      42.663  23.065  27.677  1.00  0.00    -0.237 OA
ATOM     80  O   UNL A   1      43.125  22.891  25.251  1.00  0.00    -0.237 OA
ATOM     81  O   UNL A   1      44.985  23.104  26.855  1.00  0.00    -0.744 OA
ENDBRANCH  74  78
ENDBRANCH  57  71
BRANCH  58  82
ATOM     82  C   UNL A   1      39.717  32.654  35.310  1.00  0.00     0.023 A 
ATOM     83  C   UNL A   1      39.053  32.013  36.368  1.00  0.00     0.031 A 
ATOM     84  C   UNL A   1      39.829  34.055  35.358  1.00  0.00     0.131 A 
ATOM     85  C   UNL A   1      38.464  32.775  37.390  1.00  0.00     0.055 A 
ATOM     86  C   UNL A   1      39.302  34.802  36.414  1.00  0.00     0.041 A 
ATOM     87  F   UNL A   1      40.453  34.723  34.373  1.00  0.00    -0.206 F 
ATOM     88  C   UNL A   1      38.597  34.163  37.428  1.00  0.00     0.022 A 
BRANCH  85  89
ATOM     89  S   UNL A   1      37.401  31.931  38.594  1.00  0.00     0.124 S 
ATOM     90  O   UNL A   1      37.265  30.610  37.991  1.00  0.00    -0.237 OA
ATOM     91  O   UNL A   1      38.206  32.002  39.808  1.00  0.00    -0.237 OA
ATOM     92  O   UNL A   1      36.187  32.743  38.602  1.00  0.00    -0.744 OA
ENDBRANCH  85  89
ENDBRANCH  58  82
BRANCH  70  93
ATOM     93  C   UNL A   1      45.798  29.580  33.841  1.00  0.00     0.023 A 
ATOM     94  C   UNL A   1      46.087  28.569  34.774  1.00  0.00     0.031 A 
ATOM     95  C   UNL A   1      46.772  30.571  33.618  1.00  0.00     0.131 A 
ATOM     96  C   UNL A   1      47.289  28.607  35.495  1.00  0.00     0.055 A 
ATOM     97  C   UNL A   1      47.996  30.563  34.288  1.00  0.00     0.041 A 
ATOM     98  F   UNL A   1      46.550  31.562  32.741  1.00  0.00    -0.206 F 
ATOM     99  C   UNL A   1      48.254  29.586  35.244  1.00  0.00     0.022 A 
BRANCH  96 100
ATOM    100  S   UNL A   1      47.532  27.416  36.842  1.00  0.00     0.124 S 
ATOM    101  O   UNL A   1      48.986  27.328  36.910  1.00  0.00    -0.237 OA
ATOM    102  O   UNL A   1      46.881  28.080  37.968  1.00  0.00    -0.237 OA
ATOM    103  O   UNL A   1      46.858  26.211  36.361  1.00  0.00    -0.744 OA
ENDBRANCH  96 100
ENDBRANCH  70  93
ENDBRANCH  44  45
ENDBRANCH  36  39
ENDBRANCH  34  35
ENDBRANCH  33  34
ENDBRANCH  32  33
ENDBRANCH   1  32
TORSDOF 22
ENDMDL
