MODEL 1
REMARK VINA RESULT:     -11.8      0.000      0.000
REMARK SMILES Cc1ccc(Br)cc1C(=O)N1CCO[C@H](CC(=O)NCCCCCCNC(=O)c2ccc(-c3c4nc(c(-c5cc(S(=O)(=O)[O-])ccc5F)c5ccc([nH]5)c(-c5cc(S(=O)(=O)[O-])ccc5F)c5nc(c(-c6cc(S(=O)(=O)[O-])ccc6F)c6ccc3[nH]6)C=C5)C=C4)cc2)C1
REMARK SMILES IDX 22 1 21 2 20 3 19 4 17 5 18 6 16 8 15 9 11 10 12 11 92 12
REMARK SMILES IDX 13 13 14 14 9 15 10 16 8 17 1 18 2 19 3 20 4 21 7 22 5 23
REMARK SMILES IDX 6 24 23 25 24 26 25 27 26 28 27 29 28 31 29 32 30 33 91 34
REMARK SMILES IDX 31 35 90 36 32 37 33 38 34 39 84 40 35 41 89 42 83 43 85 44
REMARK SMILES IDX 36 45 88 46 82 47 81 48 37 50 69 51 49 52 68 53 50 54 53 55
REMARK SMILES IDX 67 56 86 57 51 58 52 59 66 61 87 62 54 63 38 64 39 65 47 66
REMARK SMILES IDX 40 67 46 68 48 69 45 70 41 71 42 72 43 73 44 74 70 75 71 76
REMARK SMILES IDX 79 77 72 78 78 79 80 80 77 81 73 82 74 83 75 84 76 85 55 86
REMARK SMILES IDX 56 87 64 88 57 89 63 90 65 91 62 92 58 93 59 94 60 95 61 96
REMARK H PARENT 19 7 26 30 85 49 53 60
REMARK Flexibility Score: inf
ROOT
ATOM      1  C   UNL A   1      32.704  29.884  27.357  1.00  0.00     0.002 C 
ENDROOT
BRANCH   1   2
ATOM      2  C   UNL A   1      34.099  29.537  26.827  1.00  0.00     0.021 C 
BRANCH   2   3
ATOM      3  C   UNL A   1      34.164  28.126  26.256  1.00  0.00     0.116 C 
BRANCH   3   4
ATOM      4  N   UNL A   1      33.808  28.155  24.852  1.00  0.00    -0.356 N 
ATOM      5  C   UNL A   1      33.484  27.095  24.061  1.00  0.00     0.222 C 
ATOM      6  O   UNL A   1      33.508  27.217  22.837  1.00  0.00    -0.275 OA
ATOM      7  H   UNL A   1      33.800  29.040  24.421  1.00  0.00     0.163 HD
BRANCH   5   8
ATOM      8  C   UNL A   1      32.989  25.839  24.723  1.00  0.00     0.133 C 
BRANCH   8   9
ATOM      9  C   UNL A   1      31.472  25.757  24.958  1.00  0.00     0.147 C 
ATOM     10  N   UNL A   1      31.659  23.447  25.672  1.00  0.00    -0.334 N 
ATOM     11  C   UNL A   1      30.906  22.932  24.534  1.00  0.00     0.148 C 
ATOM     12  C   UNL A   1      31.190  24.769  26.098  1.00  0.00     0.152 C 
ATOM     13  C   UNL A   1      30.806  23.976  23.398  1.00  0.00     0.182 C 
ATOM     14  O   UNL A   1      30.697  25.356  23.803  1.00  0.00    -0.374 OA
BRANCH  10  15
ATOM     15  C   UNL A   1      32.473  22.740  26.542  1.00  0.00     0.254 C 
ATOM     16  O   UNL A   1      32.251  22.831  27.755  1.00  0.00    -0.269 OA
BRANCH  15  17
ATOM     17  C   UNL A   1      33.730  21.990  26.135  1.00  0.00     0.044 A 
ATOM     18  C   UNL A   1      32.803  19.743  25.202  1.00  0.00     0.045 C 
ATOM     19  C   UNL A   1      33.870  20.749  25.472  1.00  0.00    -0.038 A 
ATOM     20  C   UNL A   1      35.139  20.357  24.976  1.00  0.00     0.005 A 
ATOM     21  C   UNL A   1      36.256  21.172  25.093  1.00  0.00     0.016 A 
ATOM     22  C   UNL A   1      34.902  22.779  26.271  1.00  0.00     0.029 A 
ATOM     23  C   UNL A   1      36.132  22.383  25.748  1.00  0.00     0.018 A 
ATOM     24  Br  UNL A   1      37.631  23.527  25.884  1.00  0.00    -0.051 Br
ENDBRANCH  15  17
ENDBRANCH  10  15
ENDBRANCH   8   9
ENDBRANCH   5   8
ENDBRANCH   3   4
ENDBRANCH   2   3
ENDBRANCH   1   2
BRANCH   1  25
ATOM     25  C   UNL A   1      31.857  30.714  26.386  1.00  0.00     0.002 C 
BRANCH  25  26
ATOM     26  C   UNL A   1      31.614  32.156  26.837  1.00  0.00     0.021 C 
BRANCH  26  27
ATOM     27  C   UNL A   1      32.841  32.824  27.446  1.00  0.00     0.116 C 
BRANCH  27  28
ATOM     28  N   UNL A   1      32.578  34.215  27.779  1.00  0.00    -0.352 N 
ATOM     29  C   UNL A   1      33.099  34.971  28.799  1.00  0.00     0.251 C 
ATOM     30  H   UNL A   1      31.937  34.677  27.192  1.00  0.00     0.163 HD
ATOM     31  O   UNL A   1      32.587  36.045  29.090  1.00  0.00    -0.269 OA
BRANCH  29  32
ATOM     32  C   UNL A   1      34.267  34.463  29.548  1.00  0.00     0.039 A 
ATOM     33  C   UNL A   1      34.062  33.820  30.770  1.00  0.00     0.014 A 
ATOM     34  C   UNL A   1      35.558  34.615  29.035  1.00  0.00     0.014 A 
ATOM     35  C   UNL A   1      35.153  33.275  31.450  1.00  0.00     0.010 A 
ATOM     36  C   UNL A   1      36.632  34.002  29.673  1.00  0.00     0.010 A 
ATOM     37  C   UNL A   1      36.440  33.330  30.890  1.00  0.00    -0.014 A 
BRANCH  37  38
ATOM     38  C   UNL A   1      37.603  32.695  31.564  1.00  0.00     0.031 A 
ATOM     39  C   UNL A   1      38.316  31.546  30.906  1.00  0.00     0.074 A 
ATOM     40  C   UNL A   1      37.973  33.113  32.790  1.00  0.00     0.049 A 
ATOM     41  N   UNL A   1      39.290  30.804  31.366  1.00  0.00    -0.248 NA
ATOM     42  C   UNL A   1      37.850  31.162  29.564  1.00  0.00     0.031 C 
ATOM     43  C   UNL A   1      37.337  34.199  33.540  1.00  0.00     0.029 A 
ATOM     44  N   UNL A   1      38.967  32.673  33.628  1.00  0.00    -0.354 N 
ATOM     45  C   UNL A   1      39.547  29.860  30.377  1.00  0.00     0.074 A 
ATOM     46  C   UNL A   1      38.581  30.084  29.323  1.00  0.00     0.031 C 
ATOM     47  C   UNL A   1      37.973  34.355  34.712  1.00  0.00     0.029 A 
ATOM     48  C   UNL A   1      39.023  33.348  34.825  1.00  0.00     0.049 A 
ATOM     49  H   UNL A   1      39.583  31.940  33.393  1.00  0.00     0.167 HD
ATOM     50  C   UNL A   1      40.514  28.910  30.343  1.00  0.00     0.034 A 
ATOM     51  C   UNL A   1      39.816  33.165  35.900  1.00  0.00     0.034 A 
ATOM     52  C   UNL A   1      41.473  28.707  31.403  1.00  0.00     0.049 A 
ATOM     53  C   UNL A   1      40.854  32.071  35.858  1.00  0.00     0.074 A 
ATOM     54  C   UNL A   1      42.523  27.809  31.452  1.00  0.00     0.029 A 
ATOM     55  N   UNL A   1      41.490  29.403  32.606  1.00  0.00    -0.354 N 
ATOM     56  N   UNL A   1      41.115  31.215  34.896  1.00  0.00    -0.248 NA
ATOM     57  C   UNL A   1      41.711  31.924  37.042  1.00  0.00     0.031 C 
ATOM     58  C   UNL A   1      43.124  27.903  32.712  1.00  0.00     0.029 A 
ATOM     59  C   UNL A   1      42.510  28.926  33.416  1.00  0.00     0.049 A 
ATOM     60  H   UNL A   1      40.870  30.128  32.847  1.00  0.00     0.167 HD
ATOM     61  C   UNL A   1      42.190  30.454  35.347  1.00  0.00     0.074 A 
ATOM     62  C   UNL A   1      42.534  30.959  36.659  1.00  0.00     0.031 C 
ATOM     63  C   UNL A   1      42.839  29.434  34.728  1.00  0.00     0.034 A 
BRANCH  50  64
ATOM     64  C   UNL A   1      40.560  28.003  29.136  1.00  0.00     0.023 A 
ATOM     65  C   UNL A   1      41.520  28.171  28.122  1.00  0.00     0.031 A 
ATOM     66  C   UNL A   1      39.618  26.971  28.984  1.00  0.00     0.131 A 
ATOM     67  C   UNL A   1      41.469  27.371  26.970  1.00  0.00     0.055 A 
ATOM     68  C   UNL A   1      39.629  26.120  27.876  1.00  0.00     0.041 A 
ATOM     69  F   UNL A   1      38.663  26.775  29.906  1.00  0.00    -0.206 F 
ATOM     70  C   UNL A   1      40.548  26.329  26.852  1.00  0.00     0.022 A 
BRANCH  67  71
ATOM     71  S   UNL A   1      42.524  27.814  25.563  1.00  0.00     0.124 S 
ATOM     72  O   UNL A   1      42.454  26.601  24.749  1.00  0.00    -0.237 OA
ATOM     73  O   UNL A   1      41.851  28.988  25.019  1.00  0.00    -0.237 OA
ATOM     74  O   UNL A   1      43.826  28.069  26.176  1.00  0.00    -0.744 OA
ENDBRANCH  67  71
ENDBRANCH  50  64
BRANCH  51  75
ATOM     75  C   UNL A   1      39.655  34.019  37.113  1.00  0.00     0.023 A 
ATOM     76  C   UNL A   1      39.017  33.529  38.263  1.00  0.00     0.031 A 
ATOM     77  C   UNL A   1      40.095  35.355  37.123  1.00  0.00     0.131 A 
ATOM     78  C   UNL A   1      38.791  34.382  39.355  1.00  0.00     0.055 A 
ATOM     79  C   UNL A   1      39.923  36.181  38.235  1.00  0.00     0.041 A 
ATOM     80  F   UNL A   1      40.713  35.876  36.050  1.00  0.00    -0.206 F 
ATOM     81  C   UNL A   1      39.253  35.700  39.355  1.00  0.00     0.022 A 
BRANCH  78  82
ATOM     82  S   UNL A   1      37.792  33.771  40.740  1.00  0.00     0.124 S 
ATOM     83  O   UNL A   1      37.377  35.017  41.376  1.00  0.00    -0.237 OA
ATOM     84  O   UNL A   1      36.746  33.021  40.052  1.00  0.00    -0.237 OA
ATOM     85  O   UNL A   1      38.735  32.962  41.508  1.00  0.00    -0.744 OA
ENDBRANCH  78  82
ENDBRANCH  51  75
BRANCH  63  86
ATOM     86  C   UNL A   1      44.025  28.833  35.444  1.00  0.00     0.023 A 
ATOM     87  C   UNL A   1      43.886  27.767  36.350  1.00  0.00     0.031 A 
ATOM     88  C   UNL A   1      45.317  29.338  35.212  1.00  0.00     0.131 A 
ATOM     89  C   UNL A   1      45.012  27.275  37.028  1.00  0.00     0.055 A 
ATOM     90  C   UNL A   1      46.441  28.800  35.838  1.00  0.00     0.041 A 
ATOM     91  F   UNL A   1      45.509  30.359  34.362  1.00  0.00    -0.206 F 
ATOM     92  C   UNL A   1      46.291  27.770  36.762  1.00  0.00     0.022 A 
BRANCH  89  93
ATOM     93  S   UNL A   1      44.772  26.039  38.333  1.00  0.00     0.124 S 
ATOM     94  O   UNL A   1      46.024  26.137  39.077  1.00  0.00    -0.237 OA
ATOM     95  O   UNL A   1      43.583  26.535  39.018  1.00  0.00    -0.237 OA
ATOM     96  O   UNL A   1      44.585  24.791  37.594  1.00  0.00    -0.744 OA
ENDBRANCH  89  93
ENDBRANCH  63  86
ENDBRANCH  37  38
ENDBRANCH  29  32
ENDBRANCH  27  28
ENDBRANCH  26  27
ENDBRANCH  25  26
ENDBRANCH   1  25
TORSDOF 19
ENDMDL
MODEL 2
REMARK VINA RESULT:     -11.6      5.746     10.673
REMARK SMILES Cc1ccc(Br)cc1C(=O)N1CCO[C@H](CC(=O)NCCCCCCNC(=O)c2ccc(-c3c4nc(c(-c5cc(S(=O)(=O)[O-])ccc5F)c5ccc([nH]5)c(-c5cc(S(=O)(=O)[O-])ccc5F)c5nc(c(-c6cc(S(=O)(=O)[O-])ccc6F)c6ccc3[nH]6)C=C5)C=C4)cc2)C1
REMARK SMILES IDX 22 1 21 2 20 3 19 4 17 5 18 6 16 8 15 9 11 10 12 11 92 12
REMARK SMILES IDX 13 13 14 14 9 15 10 16 8 17 1 18 2 19 3 20 4 21 7 22 5 23
REMARK SMILES IDX 6 24 23 25 24 26 25 27 26 28 27 29 28 31 29 32 30 33 91 34
REMARK SMILES IDX 31 35 90 36 32 37 33 38 34 39 84 40 35 41 89 42 83 43 85 44
REMARK SMILES IDX 36 45 88 46 82 47 81 48 37 50 69 51 49 52 68 53 50 54 53 55
REMARK SMILES IDX 67 56 86 57 51 58 52 59 66 61 87 62 54 63 38 64 39 65 47 66
REMARK SMILES IDX 40 67 46 68 48 69 45 70 41 71 42 72 43 73 44 74 70 75 71 76
REMARK SMILES IDX 79 77 72 78 78 79 80 80 77 81 73 82 74 83 75 84 76 85 55 86
REMARK SMILES IDX 56 87 64 88 57 89 63 90 65 91 62 92 58 93 59 94 60 95 61 96
REMARK H PARENT 19 7 26 30 85 49 53 60
REMARK Flexibility Score: inf
ROOT
ATOM      1  C   UNL A   1      34.939  23.009  23.265  1.00  0.00     0.002 C 
ENDROOT
BRANCH   1   2
ATOM      2  C   UNL A   1      34.280  24.383  23.424  1.00  0.00     0.021 C 
BRANCH   2   3
ATOM      3  C   UNL A   1      34.303  24.870  24.868  1.00  0.00     0.116 C 
BRANCH   3   4
ATOM      4  N   UNL A   1      34.351  26.318  24.888  1.00  0.00    -0.356 N 
ATOM      5  C   UNL A   1      33.350  27.171  25.243  1.00  0.00     0.222 C 
ATOM      6  O   UNL A   1      33.418  28.357  24.922  1.00  0.00    -0.275 OA
ATOM      7  H   UNL A   1      35.201  26.732  24.615  1.00  0.00     0.163 HD
BRANCH   5   8
ATOM      8  C   UNL A   1      32.250  26.649  26.125  1.00  0.00     0.133 C 
BRANCH   8   9
ATOM      9  C   UNL A   1      30.823  26.797  25.574  1.00  0.00     0.147 C 
ATOM     10  N   UNL A   1      30.613  24.392  25.336  1.00  0.00    -0.334 N 
ATOM     11  C   UNL A   1      30.538  24.444  23.881  1.00  0.00     0.148 C 
ATOM     12  C   UNL A   1      29.999  25.563  25.969  1.00  0.00     0.152 C 
ATOM     13  C   UNL A   1      31.030  25.804  23.333  1.00  0.00     0.182 C 
ATOM     14  O   UNL A   1      30.736  26.963  24.139  1.00  0.00    -0.374 OA
BRANCH  10  15
ATOM     15  C   UNL A   1      30.874  23.290  26.134  1.00  0.00     0.254 C 
ATOM     16  O   UNL A   1      30.217  23.152  27.173  1.00  0.00    -0.269 OA
BRANCH  15  17
ATOM     17  C   UNL A   1      32.023  22.319  25.922  1.00  0.00     0.044 A 
ATOM     18  C   UNL A   1      33.556  22.759  27.982  1.00  0.00     0.045 C 
ATOM     19  C   UNL A   1      33.122  22.020  26.761  1.00  0.00    -0.038 A 
ATOM     20  C   UNL A   1      33.943  20.901  26.470  1.00  0.00     0.005 A 
ATOM     21  C   UNL A   1      33.685  20.061  25.396  1.00  0.00     0.016 A 
ATOM     22  C   UNL A   1      31.813  21.462  24.812  1.00  0.00     0.029 A 
ATOM     23  C   UNL A   1      32.618  20.350  24.565  1.00  0.00     0.018 A 
ATOM     24  Br  UNL A   1      32.223  19.198  23.119  1.00  0.00    -0.051 Br
ENDBRANCH  15  17
ENDBRANCH  10  15
ENDBRANCH   8   9
ENDBRANCH   5   8
ENDBRANCH   3   4
ENDBRANCH   2   3
ENDBRANCH   1   2
BRANCH   1  25
ATOM     25  C   UNL A   1      36.399  22.961  23.729  1.00  0.00     0.002 C 
BRANCH  25  26
ATOM     26  C   UNL A   1      36.869  21.578  24.186  1.00  0.00     0.021 C 
BRANCH  26  27
ATOM     27  C   UNL A   1      37.240  21.512  25.663  1.00  0.00     0.116 C 
BRANCH  27  28
ATOM     28  N   UNL A   1      38.236  20.483  25.915  1.00  0.00    -0.352 N 
ATOM     29  C   UNL A   1      39.562  20.626  26.238  1.00  0.00     0.251 C 
ATOM     30  H   UNL A   1      37.914  19.555  25.842  1.00  0.00     0.163 HD
ATOM     31  O   UNL A   1      40.317  19.665  26.170  1.00  0.00    -0.269 OA
BRANCH  29  32
ATOM     32  C   UNL A   1      40.063  21.955  26.647  1.00  0.00     0.039 A 
ATOM     33  C   UNL A   1      40.939  22.045  27.730  1.00  0.00     0.014 A 
ATOM     34  C   UNL A   1      39.675  23.103  25.952  1.00  0.00     0.014 A 
ATOM     35  C   UNL A   1      41.474  23.287  28.079  1.00  0.00     0.010 A 
ATOM     36  C   UNL A   1      40.269  24.325  26.250  1.00  0.00     0.010 A 
ATOM     37  C   UNL A   1      41.171  24.430  27.320  1.00  0.00    -0.014 A 
BRANCH  37  38
ATOM     38  C   UNL A   1      41.783  25.748  27.631  1.00  0.00     0.031 A 
ATOM     39  C   UNL A   1      40.997  26.780  28.392  1.00  0.00     0.074 A 
ATOM     40  C   UNL A   1      43.019  26.034  27.176  1.00  0.00     0.049 A 
ATOM     41  N   UNL A   1      41.317  28.014  28.684  1.00  0.00    -0.248 NA
ATOM     42  C   UNL A   1      39.661  26.380  28.858  1.00  0.00     0.031 C 
ATOM     43  C   UNL A   1      43.865  25.122  26.400  1.00  0.00     0.029 A 
ATOM     44  N   UNL A   1      43.778  27.172  27.288  1.00  0.00    -0.354 N 
ATOM     45  C   UNL A   1      40.221  28.541  29.359  1.00  0.00     0.074 A 
ATOM     46  C   UNL A   1      39.204  27.511  29.372  1.00  0.00     0.031 C 
ATOM     47  C   UNL A   1      45.033  25.728  26.132  1.00  0.00     0.029 A 
ATOM     48  C   UNL A   1      45.000  27.087  26.662  1.00  0.00     0.049 A 
ATOM     49  H   UNL A   1      43.474  27.975  27.771  1.00  0.00     0.167 HD
ATOM     50  C   UNL A   1      40.085  29.761  29.933  1.00  0.00     0.034 A 
ATOM     51  C   UNL A   1      45.976  28.005  26.516  1.00  0.00     0.034 A 
ATOM     52  C   UNL A   1      41.116  30.772  29.915  1.00  0.00     0.049 A 
ATOM     53  C   UNL A   1      45.784  29.373  27.123  1.00  0.00     0.074 A 
ATOM     54  C   UNL A   1      41.104  32.023  30.506  1.00  0.00     0.029 A 
ATOM     55  N   UNL A   1      42.336  30.655  29.261  1.00  0.00    -0.354 N 
ATOM     56  N   UNL A   1      44.758  29.840  27.798  1.00  0.00    -0.248 NA
ATOM     57  C   UNL A   1      46.883  30.333  26.958  1.00  0.00     0.031 C 
ATOM     58  C   UNL A   1      42.278  32.691  30.143  1.00  0.00     0.029 A 
ATOM     59  C   UNL A   1      43.067  31.824  29.404  1.00  0.00     0.049 A 
ATOM     60  H   UNL A   1      42.638  29.857  28.769  1.00  0.00     0.167 HD
ATOM     61  C   UNL A   1      45.107  31.137  28.168  1.00  0.00     0.074 A 
ATOM     62  C   UNL A   1      46.440  31.371  27.651  1.00  0.00     0.031 C 
ATOM     63  C   UNL A   1      44.394  32.048  28.877  1.00  0.00     0.034 A 
BRANCH  50  64
ATOM     64  C   UNL A   1      38.768  30.077  30.602  1.00  0.00     0.023 A 
ATOM     65  C   UNL A   1      37.768  30.820  29.950  1.00  0.00     0.031 A 
ATOM     66  C   UNL A   1      38.515  29.647  31.916  1.00  0.00     0.131 A 
ATOM     67  C   UNL A   1      36.598  31.175  30.640  1.00  0.00     0.055 A 
ATOM     68  C   UNL A   1      37.311  29.928  32.565  1.00  0.00     0.041 A 
ATOM     69  F   UNL A   1      39.440  28.954  32.599  1.00  0.00    -0.206 F 
ATOM     70  C   UNL A   1      36.350  30.711  31.933  1.00  0.00     0.022 A 
BRANCH  67  71
ATOM     71  S   UNL A   1      35.477  32.380  29.876  1.00  0.00     0.124 S 
ATOM     72  O   UNL A   1      36.317  33.575  29.830  1.00  0.00    -0.237 OA
ATOM     73  O   UNL A   1      35.175  31.761  28.591  1.00  0.00    -0.237 OA
ATOM     74  O   UNL A   1      34.359  32.450  30.814  1.00  0.00    -0.744 OA
ENDBRANCH  67  71
ENDBRANCH  50  64
BRANCH  51  75
ATOM     75  C   UNL A   1      47.214  27.677  25.750  1.00  0.00     0.023 A 
ATOM     76  C   UNL A   1      47.306  27.940  24.374  1.00  0.00     0.031 A 
ATOM     77  C   UNL A   1      48.309  27.052  26.375  1.00  0.00     0.131 A 
ATOM     78  C   UNL A   1      48.442  27.533  23.657  1.00  0.00     0.055 A 
ATOM     79  C   UNL A   1      49.463  26.705  25.670  1.00  0.00     0.041 A 
ATOM     80  F   UNL A   1      48.277  26.778  27.689  1.00  0.00    -0.206 F 
ATOM     81  C   UNL A   1      49.528  26.931  24.299  1.00  0.00     0.022 A 
BRANCH  78  82
ATOM     82  S   UNL A   1      48.440  27.710  21.853  1.00  0.00     0.124 S 
ATOM     83  O   UNL A   1      48.632  26.330  21.421  1.00  0.00    -0.237 OA
ATOM     84  O   UNL A   1      47.121  28.284  21.607  1.00  0.00    -0.237 OA
ATOM     85  O   UNL A   1      49.565  28.607  21.599  1.00  0.00    -0.744 OA
ENDBRANCH  78  82
ENDBRANCH  51  75
BRANCH  63  86
ATOM     86  C   UNL A   1      45.065  33.366  29.183  1.00  0.00     0.023 A 
ATOM     87  C   UNL A   1      45.005  34.456  28.297  1.00  0.00     0.031 A 
ATOM     88  C   UNL A   1      45.775  33.532  30.386  1.00  0.00     0.131 A 
ATOM     89  C   UNL A   1      45.686  35.644  28.604  1.00  0.00     0.055 A 
ATOM     90  C   UNL A   1      46.394  34.737  30.716  1.00  0.00     0.041 A 
ATOM     91  F   UNL A   1      45.870  32.523  31.268  1.00  0.00    -0.206 F 
ATOM     92  C   UNL A   1      46.363  35.799  29.817  1.00  0.00     0.022 A 
BRANCH  89  93
ATOM     93  S   UNL A   1      45.757  36.956  27.353  1.00  0.00     0.124 S 
ATOM     94  O   UNL A   1      46.081  36.205  26.144  1.00  0.00    -0.237 OA
ATOM     95  O   UNL A   1      44.411  37.516  27.413  1.00  0.00    -0.237 OA
ATOM     96  O   UNL A   1      46.817  37.838  27.840  1.00  0.00    -0.744 OA
ENDBRANCH  89  93
ENDBRANCH  63  86
ENDBRANCH  37  38
ENDBRANCH  29  32
ENDBRANCH  27  28
ENDBRANCH  26  27
ENDBRANCH  25  26
ENDBRANCH   1  25
TORSDOF 19
ENDMDL
MODEL 3
REMARK VINA RESULT:     -11.4      1.871      2.374
REMARK SMILES Cc1ccc(Br)cc1C(=O)N1CCO[C@H](CC(=O)NCCCCCCNC(=O)c2ccc(-c3c4nc(c(-c5cc(S(=O)(=O)[O-])ccc5F)c5ccc([nH]5)c(-c5cc(S(=O)(=O)[O-])ccc5F)c5nc(c(-c6cc(S(=O)(=O)[O-])ccc6F)c6ccc3[nH]6)C=C5)C=C4)cc2)C1
REMARK SMILES IDX 22 1 21 2 20 3 19 4 17 5 18 6 16 8 15 9 11 10 12 11 92 12
REMARK SMILES IDX 13 13 14 14 9 15 10 16 8 17 1 18 2 19 3 20 4 21 7 22 5 23
REMARK SMILES IDX 6 24 23 25 24 26 25 27 26 28 27 29 28 31 29 32 30 33 91 34
REMARK SMILES IDX 31 35 90 36 32 37 33 38 34 39 84 40 35 41 89 42 83 43 85 44
REMARK SMILES IDX 36 45 88 46 82 47 81 48 37 50 69 51 49 52 68 53 50 54 53 55
REMARK SMILES IDX 67 56 86 57 51 58 52 59 66 61 87 62 54 63 38 64 39 65 47 66
REMARK SMILES IDX 40 67 46 68 48 69 45 70 41 71 42 72 43 73 44 74 70 75 71 76
REMARK SMILES IDX 79 77 72 78 78 79 80 80 77 81 73 82 74 83 75 84 76 85 55 86
REMARK SMILES IDX 56 87 64 88 57 89 63 90 65 91 62 92 58 93 59 94 60 95 61 96
REMARK H PARENT 19 7 26 30 85 49 53 60
REMARK Flexibility Score: inf
ROOT
ATOM      1  C   UNL A   1      32.804  30.051  25.859  1.00  0.00     0.002 C 
ENDROOT
BRANCH   1   2
ATOM      2  C   UNL A   1      33.183  29.250  24.609  1.00  0.00     0.021 C 
BRANCH   2   3
ATOM      3  C   UNL A   1      33.197  27.748  24.868  1.00  0.00     0.116 C 
BRANCH   3   4
ATOM      4  N   UNL A   1      33.522  27.049  23.642  1.00  0.00    -0.356 N 
ATOM      5  C   UNL A   1      33.507  25.703  23.431  1.00  0.00     0.222 C 
ATOM      6  O   UNL A   1      34.095  25.232  22.459  1.00  0.00    -0.275 OA
ATOM      7  H   UNL A   1      33.783  27.608  22.875  1.00  0.00     0.163 HD
BRANCH   5   8
ATOM      8  C   UNL A   1      32.664  24.851  24.339  1.00  0.00     0.133 C 
BRANCH   8   9
ATOM      9  C   UNL A   1      33.106  24.798  25.810  1.00  0.00     0.147 C 
ATOM     10  N   UNL A   1      33.448  22.401  25.671  1.00  0.00    -0.334 N 
ATOM     11  C   UNL A   1      32.371  22.094  26.606  1.00  0.00     0.148 C 
ATOM     12  C   UNL A   1      34.122  23.662  25.991  1.00  0.00     0.152 C 
ATOM     13  C   UNL A   1      31.423  23.300  26.798  1.00  0.00     0.182 C 
ATOM     14  O   UNL A   1      32.033  24.607  26.763  1.00  0.00    -0.374 OA
BRANCH  10  15
ATOM     15  C   UNL A   1      34.077  21.538  24.788  1.00  0.00     0.254 C 
ATOM     16  O   UNL A   1      35.172  21.876  24.322  1.00  0.00    -0.269 OA
BRANCH  15  17
ATOM     17  C   UNL A   1      33.452  20.279  24.212  1.00  0.00     0.044 A 
ATOM     18  C   UNL A   1      31.821  21.204  22.404  1.00  0.00     0.045 C 
ATOM     19  C   UNL A   1      32.559  20.127  23.125  1.00  0.00    -0.038 A 
ATOM     20  C   UNL A   1      32.296  18.833  22.609  1.00  0.00     0.005 A 
ATOM     21  C   UNL A   1      32.914  17.700  23.119  1.00  0.00     0.016 A 
ATOM     22  C   UNL A   1      34.035  19.096  24.733  1.00  0.00     0.029 A 
ATOM     23  C   UNL A   1      33.781  17.837  24.188  1.00  0.00     0.018 A 
ATOM     24  Br  UNL A   1      34.666  16.313  24.873  1.00  0.00    -0.051 Br
ENDBRANCH  15  17
ENDBRANCH  10  15
ENDBRANCH   8   9
ENDBRANCH   5   8
ENDBRANCH   3   4
ENDBRANCH   2   3
ENDBRANCH   1   2
BRANCH   1  25
ATOM     25  C   UNL A   1      31.414  30.693  25.791  1.00  0.00     0.002 C 
BRANCH  25  26
ATOM     26  C   UNL A   1      31.320  32.061  26.468  1.00  0.00     0.021 C 
BRANCH  26  27
ATOM     27  C   UNL A   1      32.618  32.513  27.126  1.00  0.00     0.116 C 
BRANCH  27  28
ATOM     28  N   UNL A   1      32.534  33.893  27.576  1.00  0.00    -0.352 N 
ATOM     29  C   UNL A   1      33.216  34.512  28.593  1.00  0.00     0.251 C 
ATOM     30  H   UNL A   1      31.899  34.462  27.082  1.00  0.00     0.163 HD
ATOM     31  O   UNL A   1      32.847  35.606  29.002  1.00  0.00    -0.269 OA
BRANCH  29  32
ATOM     32  C   UNL A   1      34.381  33.833  29.196  1.00  0.00     0.039 A 
ATOM     33  C   UNL A   1      35.665  34.279  28.879  1.00  0.00     0.014 A 
ATOM     34  C   UNL A   1      34.200  32.767  30.081  1.00  0.00     0.014 A 
ATOM     35  C   UNL A   1      36.769  33.690  29.499  1.00  0.00     0.010 A 
ATOM     36  C   UNL A   1      35.294  32.235  30.756  1.00  0.00     0.010 A 
ATOM     37  C   UNL A   1      36.591  32.689  30.468  1.00  0.00    -0.014 A 
BRANCH  37  38
ATOM     38  C   UNL A   1      37.748  32.098  31.190  1.00  0.00     0.031 A 
ATOM     39  C   UNL A   1      38.513  30.959  30.575  1.00  0.00     0.074 A 
ATOM     40  C   UNL A   1      38.065  32.545  32.421  1.00  0.00     0.049 A 
ATOM     41  N   UNL A   1      39.491  30.252  31.080  1.00  0.00    -0.248 NA
ATOM     42  C   UNL A   1      38.104  30.541  29.226  1.00  0.00     0.031 C 
ATOM     43  C   UNL A   1      37.373  33.625  33.131  1.00  0.00     0.029 A 
ATOM     44  N   UNL A   1      39.042  32.146  33.298  1.00  0.00    -0.354 N 
ATOM     45  C   UNL A   1      39.808  29.300  30.116  1.00  0.00     0.074 A 
ATOM     46  C   UNL A   1      38.872  29.480  29.027  1.00  0.00     0.031 C 
ATOM     47  C   UNL A   1      37.965  33.817  34.321  1.00  0.00     0.029 A 
ATOM     48  C   UNL A   1      39.038  32.842  34.485  1.00  0.00     0.049 A 
ATOM     49  H   UNL A   1      39.685  31.428  33.097  1.00  0.00     0.167 HD
ATOM     50  C   UNL A   1      40.801  28.377  30.130  1.00  0.00     0.034 A 
ATOM     51  C   UNL A   1      39.800  32.698  35.588  1.00  0.00     0.034 A 
ATOM     52  C   UNL A   1      41.729  28.218  31.224  1.00  0.00     0.049 A 
ATOM     53  C   UNL A   1      40.869  31.632  35.599  1.00  0.00     0.074 A 
ATOM     54  C   UNL A   1      42.801  27.350  31.323  1.00  0.00     0.029 A 
ATOM     55  N   UNL A   1      41.686  28.932  32.415  1.00  0.00    -0.354 N 
ATOM     56  N   UNL A   1      41.185  30.770  34.661  1.00  0.00    -0.248 NA
ATOM     57  C   UNL A   1      41.688  31.528  36.813  1.00  0.00     0.031 C 
ATOM     58  C   UNL A   1      43.356  27.481  32.600  1.00  0.00     0.029 A 
ATOM     59  C   UNL A   1      42.691  28.497  33.266  1.00  0.00     0.049 A 
ATOM     60  H   UNL A   1      41.039  29.644  32.623  1.00  0.00     0.167 HD
ATOM     61  C   UNL A   1      42.265  30.046  35.160  1.00  0.00     0.074 A 
ATOM     62  C   UNL A   1      42.551  30.581  36.475  1.00  0.00     0.031 C 
ATOM     63  C   UNL A   1      42.962  29.035  34.580  1.00  0.00     0.034 A 
BRANCH  50  64
ATOM     64  C   UNL A   1      40.913  27.453  28.940  1.00  0.00     0.023 A 
ATOM     65  C   UNL A   1      41.868  27.662  27.929  1.00  0.00     0.031 A 
ATOM     66  C   UNL A   1      40.038  26.361  28.801  1.00  0.00     0.131 A 
ATOM     67  C   UNL A   1      41.875  26.840  26.792  1.00  0.00     0.055 A 
ATOM     68  C   UNL A   1      40.110  25.493  27.710  1.00  0.00     0.041 A 
ATOM     69  F   UNL A   1      39.090  26.123  29.720  1.00  0.00    -0.206 F 
ATOM     70  C   UNL A   1      41.022  25.739  26.688  1.00  0.00     0.022 A 
BRANCH  67  71
ATOM     71  S   UNL A   1      42.912  27.322  25.384  1.00  0.00     0.124 S 
ATOM     72  O   UNL A   1      42.121  28.400  24.792  1.00  0.00    -0.237 OA
ATOM     73  O   UNL A   1      44.156  27.722  26.029  1.00  0.00    -0.237 OA
ATOM     74  O   UNL A   1      42.988  26.103  24.581  1.00  0.00    -0.744 OA
ENDBRANCH  67  71
ENDBRANCH  50  64
BRANCH  51  75
ATOM     75  C   UNL A   1      39.575  33.566  36.781  1.00  0.00     0.023 A 
ATOM     76  C   UNL A   1      40.410  34.662  37.047  1.00  0.00     0.031 A 
ATOM     77  C   UNL A   1      38.549  33.282  37.701  1.00  0.00     0.131 A 
ATOM     78  C   UNL A   1      40.239  35.404  38.226  1.00  0.00     0.055 A 
ATOM     79  C   UNL A   1      38.343  34.061  38.842  1.00  0.00     0.041 A 
ATOM     80  F   UNL A   1      37.719  32.246  37.497  1.00  0.00    -0.206 F 
ATOM     81  C   UNL A   1      39.201  35.120  39.118  1.00  0.00     0.022 A 
BRANCH  78  82
ATOM     82  S   UNL A   1      41.457  36.685  38.631  1.00  0.00     0.124 S 
ATOM     83  O   UNL A   1      40.600  37.768  39.100  1.00  0.00    -0.237 OA
ATOM     84  O   UNL A   1      42.269  36.021  39.645  1.00  0.00    -0.237 OA
ATOM     85  O   UNL A   1      42.129  36.928  37.356  1.00  0.00    -0.744 OA
ENDBRANCH  78  82
ENDBRANCH  51  75
BRANCH  63  86
ATOM     86  C   UNL A   1      44.139  28.479  35.345  1.00  0.00     0.023 A 
ATOM     87  C   UNL A   1      43.993  27.448  36.290  1.00  0.00     0.031 A 
ATOM     88  C   UNL A   1      45.429  28.991  35.120  1.00  0.00     0.131 A 
ATOM     89  C   UNL A   1      45.110  26.998  37.011  1.00  0.00     0.055 A 
ATOM     90  C   UNL A   1      46.546  28.494  35.792  1.00  0.00     0.041 A 
ATOM     91  F   UNL A   1      45.627  29.980  34.234  1.00  0.00    -0.206 F 
ATOM     92  C   UNL A   1      46.389  27.500  36.753  1.00  0.00     0.022 A 
BRANCH  89  93
ATOM     93  S   UNL A   1      44.857  25.812  38.359  1.00  0.00     0.124 S 
ATOM     94  O   UNL A   1      46.229  25.502  38.751  1.00  0.00    -0.237 OA
ATOM     95  O   UNL A   1      44.081  26.591  39.318  1.00  0.00    -0.237 OA
ATOM     96  O   UNL A   1      44.131  24.715  37.720  1.00  0.00    -0.744 OA
ENDBRANCH  89  93
ENDBRANCH  63  86
ENDBRANCH  37  38
ENDBRANCH  29  32
ENDBRANCH  27  28
ENDBRANCH  26  27
ENDBRANCH  25  26
ENDBRANCH   1  25
TORSDOF 19
ENDMDL
