MODEL 1
REMARK VINA RESULT:     -12.2      0.000      0.000
REMARK SMILES CCc1ccc(S(=O)(=O)N2CCC3(CC2)NC(=O)C[C@H]3C(=O)NCCCCCCNC(=O)c2ccc(-c3c4nc(c(-c5cc(S(=O)(=O)[O-])ccc5F)c5ccc([nH]5)c(-c5cc(S(=O)(=O)[O-])ccc5F)c5nc(c(-c6cc(S(=O)(=O)[O-])ccc6F)c6ccc3[nH]6)C=C5)C=C4)cc2)s1
REMARK SMILES IDX 26 1 25 2 24 3 23 4 21 5 22 6 20 8 10 9 11 10 15 11 12 12
REMARK SMILES IDX 14 13 13 14 16 15 17 16 19 18 18 19 7 20 8 21 9 22 6 23 3 24
REMARK SMILES IDX 4 25 96 26 5 27 2 28 1 29 27 30 28 31 29 32 30 33 31 34
REMARK SMILES IDX 32 36 33 37 34 38 95 39 35 40 94 41 36 42 37 43 38 44 88 45
REMARK SMILES IDX 39 46 93 47 87 48 89 49 40 50 92 51 86 52 85 53 41 55 73 56
REMARK SMILES IDX 53 57 72 58 54 59 57 60 71 61 90 62 55 63 56 64 70 66 91 67
REMARK SMILES IDX 58 68 42 69 43 70 51 71 44 72 50 73 52 74 49 75 45 76 46 77
REMARK SMILES IDX 47 78 48 79 74 80 75 81 83 82 76 83 82 84 84 85 81 86 77 87
REMARK SMILES IDX 78 88 79 89 80 90 59 91 60 92 68 93 61 94 67 95 69 96 66 97
REMARK SMILES IDX 62 98 63 99 64 100 65 101
REMARK H PARENT 23 7 16 17 30 35 89 54 57 65
REMARK Flexibility Score: inf
ROOT
ATOM      1  C   UNL A   1      33.583  29.521  26.455  1.00  0.00     0.002 C 
ENDROOT
BRANCH   1   2
ATOM      2  C   UNL A   1      32.148  29.164  26.070  1.00  0.00     0.021 C 
BRANCH   2   3
ATOM      3  C   UNL A   1      31.532  30.072  25.001  1.00  0.00     0.116 C 
BRANCH   3   4
ATOM      4  N   UNL A   1      30.882  29.339  23.921  1.00  0.00    -0.356 N 
ATOM      5  C   UNL A   1      31.192  28.244  23.179  1.00  0.00     0.226 C 
ATOM      6  O   UNL A   1      30.364  27.921  22.318  1.00  0.00    -0.275 OA
ATOM      7  H   UNL A   1      30.013  29.728  23.671  1.00  0.00     0.163 HD
BRANCH   5   8
ATOM      8  C   UNL A   1      32.459  27.386  23.316  1.00  0.00     0.113 C 
ATOM      9  N   UNL A   1      32.309  24.680  26.433  1.00  0.00    -0.197 NA
ATOM     10  C   UNL A   1      33.597  25.199  25.984  1.00  0.00     0.105 C 
ATOM     11  C   UNL A   1      31.195  25.557  26.101  1.00  0.00     0.105 C 
ATOM     12  C   UNL A   1      33.627  25.382  24.469  1.00  0.00     0.046 C 
ATOM     13  C   UNL A   1      31.031  25.637  24.594  1.00  0.00     0.046 C 
ATOM     14  C   UNL A   1      32.322  25.912  23.772  1.00  0.00     0.055 C 
ATOM     15  N   UNL A   1      32.302  25.264  22.455  1.00  0.00    -0.350 N 
ATOM     16  C   UNL A   1      32.926  25.982  21.460  1.00  0.00     0.221 C 
ATOM     17  H   UNL A   1      31.880  24.389  22.298  1.00  0.00     0.164 HD
ATOM     18  C   UNL A   1      33.229  27.348  21.987  1.00  0.00     0.116 C 
ATOM     19  O   UNL A   1      33.156  25.557  20.344  1.00  0.00    -0.275 OA
BRANCH   9  20
ATOM     20  S   UNL A   1      32.063  23.072  26.925  1.00  0.00     0.252 S 
ATOM     21  O   UNL A   1      30.688  22.941  27.325  1.00  0.00    -0.206 OA
ATOM     22  O   UNL A   1      33.164  22.711  27.805  1.00  0.00    -0.206 OA
BRANCH  20  23
ATOM     23  C   UNL A   1      32.240  21.990  25.514  1.00  0.00     0.135 A 
ATOM     24  C   UNL A   1      32.709  20.026  24.069  1.00  0.00     0.006 A 
ATOM     25  C   UNL A   1      32.193  21.080  23.352  1.00  0.00     0.017 A 
ATOM     26  S   UNL A   1      32.839  20.400  25.747  1.00  0.00    -0.127 S 
ATOM     27  C   UNL A   1      31.985  22.195  24.181  1.00  0.00     0.034 A 
BRANCH  24  28
ATOM     28  C   UNL A   1      33.137  18.715  23.489  1.00  0.00     0.043 C 
ATOM     29  C   UNL A   1      34.228  18.052  24.310  1.00  0.00     0.010 C 
ENDBRANCH  24  28
ENDBRANCH  20  23
ENDBRANCH   9  20
ENDBRANCH   5   8
ENDBRANCH   3   4
ENDBRANCH   2   3
ENDBRANCH   1   2
BRANCH   1  30
ATOM     30  C   UNL A   1      33.699  30.490  27.633  1.00  0.00     0.002 C 
BRANCH  30  31
ATOM     31  C   UNL A   1      33.764  31.972  27.249  1.00  0.00     0.021 C 
BRANCH  31  32
ATOM     32  C   UNL A   1      32.506  32.775  27.574  1.00  0.00     0.116 C 
BRANCH  32  33
ATOM     33  N   UNL A   1      32.794  34.192  27.701  1.00  0.00    -0.352 N 
ATOM     34  C   UNL A   1      33.647  34.844  28.551  1.00  0.00     0.251 C 
ATOM     35  H   UNL A   1      32.298  34.774  27.080  1.00  0.00     0.163 HD
ATOM     36  O   UNL A   1      33.541  36.060  28.688  1.00  0.00    -0.269 OA
BRANCH  34  37
ATOM     37  C   UNL A   1      34.680  34.097  29.302  1.00  0.00     0.039 A 
ATOM     38  C   UNL A   1      36.013  34.221  28.906  1.00  0.00     0.014 A 
ATOM     39  C   UNL A   1      34.341  33.241  30.356  1.00  0.00     0.014 A 
ATOM     40  C   UNL A   1      37.007  33.519  29.588  1.00  0.00     0.010 A 
ATOM     41  C   UNL A   1      35.343  32.601  31.086  1.00  0.00     0.010 A 
ATOM     42  C   UNL A   1      36.685  32.725  30.702  1.00  0.00    -0.014 A 
BRANCH  42  43
ATOM     43  C   UNL A   1      37.763  32.036  31.462  1.00  0.00     0.031 A 
ATOM     44  C   UNL A   1      38.561  30.926  30.837  1.00  0.00     0.074 A 
ATOM     45  C   UNL A   1      38.012  32.417  32.730  1.00  0.00     0.049 A 
ATOM     46  N   UNL A   1      39.575  30.258  31.327  1.00  0.00    -0.248 NA
ATOM     47  C   UNL A   1      38.146  30.488  29.497  1.00  0.00     0.031 C 
ATOM     48  C   UNL A   1      37.256  33.433  33.466  1.00  0.00     0.029 A 
ATOM     49  N   UNL A   1      38.971  32.007  33.619  1.00  0.00    -0.354 N 
ATOM     50  C   UNL A   1      39.926  29.329  30.354  1.00  0.00     0.074 A 
ATOM     51  C   UNL A   1      38.960  29.465  29.285  1.00  0.00     0.031 C 
ATOM     52  C   UNL A   1      37.807  33.596  34.679  1.00  0.00     0.029 A 
ATOM     53  C   UNL A   1      38.930  32.675  34.821  1.00  0.00     0.049 A 
ATOM     54  H   UNL A   1      39.627  31.301  33.418  1.00  0.00     0.167 HD
ATOM     55  C   UNL A   1      40.974  28.466  30.340  1.00  0.00     0.034 A 
ATOM     56  C   UNL A   1      39.709  32.564  35.913  1.00  0.00     0.034 A 
ATOM     57  C   UNL A   1      41.918  28.335  31.427  1.00  0.00     0.049 A 
ATOM     58  C   UNL A   1      40.868  31.604  35.879  1.00  0.00     0.074 A 
ATOM     59  C   UNL A   1      43.032  27.519  31.513  1.00  0.00     0.029 A 
ATOM     60  N   UNL A   1      41.848  29.032  32.630  1.00  0.00    -0.354 N 
ATOM     61  N   UNL A   1      41.230  30.778  34.924  1.00  0.00    -0.248 NA
ATOM     62  C   UNL A   1      41.738  31.584  37.059  1.00  0.00     0.031 C 
ATOM     63  C   UNL A   1      43.593  27.669  32.787  1.00  0.00     0.029 A 
ATOM     64  C   UNL A   1      42.883  28.644  33.471  1.00  0.00     0.049 A 
ATOM     65  H   UNL A   1      41.164  29.704  32.852  1.00  0.00     0.167 HD
ATOM     66  C   UNL A   1      42.387  30.152  35.383  1.00  0.00     0.074 A 
ATOM     67  C   UNL A   1      42.672  30.723  36.685  1.00  0.00     0.031 C 
ATOM     68  C   UNL A   1      43.142  29.195  34.783  1.00  0.00     0.034 A 
BRANCH  55  69
ATOM     69  C   UNL A   1      41.128  27.589  29.116  1.00  0.00     0.023 A 
ATOM     70  C   UNL A   1      42.149  27.812  28.172  1.00  0.00     0.031 A 
ATOM     71  C   UNL A   1      40.217  26.550  28.855  1.00  0.00     0.131 A 
ATOM     72  C   UNL A   1      42.174  27.083  26.974  1.00  0.00     0.055 A 
ATOM     73  C   UNL A   1      40.305  25.761  27.703  1.00  0.00     0.041 A 
ATOM     74  F   UNL A   1      39.207  26.296  29.702  1.00  0.00    -0.206 F 
ATOM     75  C   UNL A   1      41.275  26.040  26.745  1.00  0.00     0.022 A 
BRANCH  72  76
ATOM     76  S   UNL A   1      43.278  27.639  25.646  1.00  0.00     0.124 S 
ATOM     77  O   UNL A   1      43.823  28.870  26.212  1.00  0.00    -0.237 OA
ATOM     78  O   UNL A   1      44.209  26.523  25.523  1.00  0.00    -0.237 OA
ATOM     79  O   UNL A   1      42.378  27.831  24.510  1.00  0.00    -0.744 OA
ENDBRANCH  72  76
ENDBRANCH  55  69
BRANCH  56  80
ATOM     80  C   UNL A   1      39.420  33.388  37.121  1.00  0.00     0.023 A 
ATOM     81  C   UNL A   1      38.666  32.881  38.191  1.00  0.00     0.031 A 
ATOM     82  C   UNL A   1      39.897  34.707  37.217  1.00  0.00     0.131 A 
ATOM     83  C   UNL A   1      38.382  33.701  39.295  1.00  0.00     0.055 A 
ATOM     84  C   UNL A   1      39.655  35.501  38.339  1.00  0.00     0.041 A 
ATOM     85  F   UNL A   1      40.632  35.237  36.225  1.00  0.00    -0.206 F 
ATOM     86  C   UNL A   1      38.884  35.001  39.382  1.00  0.00     0.022 A 
BRANCH  83  87
ATOM     87  S   UNL A   1      37.291  33.062  40.597  1.00  0.00     0.124 S 
ATOM     88  O   UNL A   1      38.091  31.975  41.149  1.00  0.00    -0.237 OA
ATOM     89  O   UNL A   1      37.122  34.233  41.451  1.00  0.00    -0.237 OA
ATOM     90  O   UNL A   1      36.095  32.650  39.866  1.00  0.00    -0.744 OA
ENDBRANCH  83  87
ENDBRANCH  56  80
BRANCH  68  91
ATOM     91  C   UNL A   1      44.370  28.731  35.535  1.00  0.00     0.023 A 
ATOM     92  C   UNL A   1      44.307  27.696  36.486  1.00  0.00     0.031 A 
ATOM     93  C   UNL A   1      45.608  29.368  35.338  1.00  0.00     0.131 A 
ATOM     94  C   UNL A   1      45.433  27.391  37.265  1.00  0.00     0.055 A 
ATOM     95  C   UNL A   1      46.745  29.006  36.062  1.00  0.00     0.041 A 
ATOM     96  F   UNL A   1      45.730  30.365  34.446  1.00  0.00    -0.206 F 
ATOM     97  C   UNL A   1      46.657  28.028  37.046  1.00  0.00     0.022 A 
BRANCH  94  98
ATOM     98  S   UNL A   1      45.238  26.257  38.667  1.00  0.00     0.124 S 
ATOM     99  O   UNL A   1      45.611  24.976  38.075  1.00  0.00    -0.237 OA
ATOM    100  O   UNL A   1      46.175  26.805  39.643  1.00  0.00    -0.237 OA
ATOM    101  O   UNL A   1      43.826  26.389  39.021  1.00  0.00    -0.744 OA
ENDBRANCH  94  98
ENDBRANCH  68  91
ENDBRANCH  42  43
ENDBRANCH  34  37
ENDBRANCH  32  33
ENDBRANCH  31  32
ENDBRANCH  30  31
ENDBRANCH   1  30
TORSDOF 19
ENDMDL
MODEL 2
REMARK VINA RESULT:     -12.1      1.609      7.435
REMARK SMILES CCc1ccc(S(=O)(=O)N2CCC3(CC2)NC(=O)C[C@H]3C(=O)NCCCCCCNC(=O)c2ccc(-c3c4nc(c(-c5cc(S(=O)(=O)[O-])ccc5F)c5ccc([nH]5)c(-c5cc(S(=O)(=O)[O-])ccc5F)c5nc(c(-c6cc(S(=O)(=O)[O-])ccc6F)c6ccc3[nH]6)C=C5)C=C4)cc2)s1
REMARK SMILES IDX 26 1 25 2 24 3 23 4 21 5 22 6 20 8 10 9 11 10 15 11 12 12
REMARK SMILES IDX 14 13 13 14 16 15 17 16 19 18 18 19 7 20 8 21 9 22 6 23 3 24
REMARK SMILES IDX 4 25 96 26 5 27 2 28 1 29 27 30 28 31 29 32 30 33 31 34
REMARK SMILES IDX 32 36 33 37 34 38 95 39 35 40 94 41 36 42 37 43 38 44 88 45
REMARK SMILES IDX 39 46 93 47 87 48 89 49 40 50 92 51 86 52 85 53 41 55 73 56
REMARK SMILES IDX 53 57 72 58 54 59 57 60 71 61 90 62 55 63 56 64 70 66 91 67
REMARK SMILES IDX 58 68 42 69 43 70 51 71 44 72 50 73 52 74 49 75 45 76 46 77
REMARK SMILES IDX 47 78 48 79 74 80 75 81 83 82 76 83 82 84 84 85 81 86 77 87
REMARK SMILES IDX 78 88 79 89 80 90 59 91 60 92 68 93 61 94 67 95 69 96 66 97
REMARK SMILES IDX 62 98 63 99 64 100 65 101
REMARK H PARENT 23 7 16 17 30 35 89 54 57 65
REMARK Flexibility Score: inf
ROOT
ATOM      1  C   UNL A   1      32.663  29.074  27.230  1.00  0.00     0.002 C 
ENDROOT
BRANCH   1   2
ATOM      2  C   UNL A   1      31.555  28.949  26.186  1.00  0.00     0.021 C 
BRANCH   2   3
ATOM      3  C   UNL A   1      31.816  29.718  24.887  1.00  0.00     0.116 C 
BRANCH   3   4
ATOM      4  N   UNL A   1      31.166  29.129  23.723  1.00  0.00    -0.356 N 
ATOM      5  C   UNL A   1      31.410  28.056  22.925  1.00  0.00     0.226 C 
ATOM      6  O   UNL A   1      30.612  27.879  21.997  1.00  0.00    -0.275 OA
ATOM      7  H   UNL A   1      30.361  29.624  23.449  1.00  0.00     0.163 HD
BRANCH   5   8
ATOM      8  C   UNL A   1      32.569  27.060  23.077  1.00  0.00     0.113 C 
ATOM      9  N   UNL A   1      32.149  24.490  26.283  1.00  0.00    -0.197 NA
ATOM     10  C   UNL A   1      33.483  24.839  25.803  1.00  0.00     0.105 C 
ATOM     11  C   UNL A   1      31.141  25.481  25.934  1.00  0.00     0.105 C 
ATOM     12  C   UNL A   1      33.512  24.970  24.283  1.00  0.00     0.046 C 
ATOM     13  C   UNL A   1      30.966  25.532  24.427  1.00  0.00     0.046 C 
ATOM     14  C   UNL A   1      32.268  25.627  23.583  1.00  0.00     0.055 C 
ATOM     15  N   UNL A   1      32.153  24.945  22.288  1.00  0.00    -0.350 N 
ATOM     16  C   UNL A   1      32.842  25.553  21.264  1.00  0.00     0.221 C 
ATOM     17  H   UNL A   1      31.629  24.122  22.165  1.00  0.00     0.164 HD
ATOM     18  C   UNL A   1      33.311  26.890  21.742  1.00  0.00     0.116 C 
ATOM     19  O   UNL A   1      33.005  25.069  20.160  1.00  0.00    -0.275 OA
BRANCH   9  20
ATOM     20  S   UNL A   1      31.723  22.938  26.830  1.00  0.00     0.252 S 
ATOM     21  O   UNL A   1      30.287  22.862  26.860  1.00  0.00    -0.206 OA
ATOM     22  O   UNL A   1      32.539  22.649  28.000  1.00  0.00    -0.206 OA
BRANCH  20  23
ATOM     23  C   UNL A   1      32.226  21.726  25.618  1.00  0.00     0.135 A 
ATOM     24  C   UNL A   1      33.209  19.726  24.522  1.00  0.00     0.006 A 
ATOM     25  C   UNL A   1      32.526  20.518  23.629  1.00  0.00     0.017 A 
ATOM     26  S   UNL A   1      33.140  20.365  26.122  1.00  0.00    -0.127 S 
ATOM     27  C   UNL A   1      32.025  21.668  24.261  1.00  0.00     0.034 A 
BRANCH  24  28
ATOM     28  C   UNL A   1      33.950  18.473  24.175  1.00  0.00     0.043 C 
ATOM     29  C   UNL A   1      33.176  17.597  23.207  1.00  0.00     0.010 C 
ENDBRANCH  24  28
ENDBRANCH  20  23
ENDBRANCH   9  20
ENDBRANCH   5   8
ENDBRANCH   3   4
ENDBRANCH   2   3
ENDBRANCH   1   2
BRANCH   1  30
ATOM     30  C   UNL A   1      33.446  30.386  27.169  1.00  0.00     0.002 C 
BRANCH  30  31
ATOM     31  C   UNL A   1      32.669  31.625  27.627  1.00  0.00     0.021 C 
BRANCH  31  32
ATOM     32  C   UNL A   1      33.223  32.954  27.117  1.00  0.00     0.116 C 
BRANCH  32  33
ATOM     33  N   UNL A   1      32.872  34.053  27.998  1.00  0.00    -0.352 N 
ATOM     34  C   UNL A   1      33.362  34.381  29.234  1.00  0.00     0.251 C 
ATOM     35  H   UNL A   1      32.173  34.656  27.653  1.00  0.00     0.163 HD
ATOM     36  O   UNL A   1      32.742  35.182  29.930  1.00  0.00    -0.269 OA
BRANCH  34  37
ATOM     37  C   UNL A   1      34.617  33.776  29.732  1.00  0.00     0.039 A 
ATOM     38  C   UNL A   1      34.534  32.736  30.660  1.00  0.00     0.014 A 
ATOM     39  C   UNL A   1      35.869  34.257  29.332  1.00  0.00     0.014 A 
ATOM     40  C   UNL A   1      35.701  32.155  31.155  1.00  0.00     0.010 A 
ATOM     41  C   UNL A   1      37.033  33.623  29.768  1.00  0.00     0.010 A 
ATOM     42  C   UNL A   1      36.961  32.573  30.693  1.00  0.00    -0.014 A 
BRANCH  42  43
ATOM     43  C   UNL A   1      38.194  31.898  31.179  1.00  0.00     0.031 A 
ATOM     44  C   UNL A   1      38.782  32.235  32.521  1.00  0.00     0.074 A 
ATOM     45  C   UNL A   1      38.788  30.979  30.392  1.00  0.00     0.049 A 
ATOM     46  N   UNL A   1      39.812  31.704  33.130  1.00  0.00    -0.248 NA
ATOM     47  C   UNL A   1      38.147  33.333  33.264  1.00  0.00     0.031 C 
ATOM     48  C   UNL A   1      38.350  30.622  29.041  1.00  0.00     0.029 A 
ATOM     49  N   UNL A   1      39.875  30.174  30.614  1.00  0.00    -0.354 N 
ATOM     50  C   UNL A   1      39.944  32.394  34.330  1.00  0.00     0.074 A 
ATOM     51  C   UNL A   1      38.940  33.438  34.319  1.00  0.00     0.031 C 
ATOM     52  C   UNL A   1      39.135  29.640  28.572  1.00  0.00     0.029 A 
ATOM     53  C   UNL A   1      40.151  29.322  29.570  1.00  0.00     0.049 A 
ATOM     54  H   UNL A   1      40.408  30.203  31.441  1.00  0.00     0.167 HD
ATOM     55  C   UNL A   1      40.800  32.159  35.357  1.00  0.00     0.034 A 
ATOM     56  C   UNL A   1      41.109  28.386  29.431  1.00  0.00     0.034 A 
ATOM     57  C   UNL A   1      41.806  31.122  35.340  1.00  0.00     0.049 A 
ATOM     58  C   UNL A   1      42.047  28.138  30.582  1.00  0.00     0.074 A 
ATOM     59  C   UNL A   1      42.707  30.773  36.331  1.00  0.00     0.029 A 
ATOM     60  N   UNL A   1      42.056  30.273  34.266  1.00  0.00    -0.354 N 
ATOM     61  N   UNL A   1      42.118  28.754  31.740  1.00  0.00    -0.248 NA
ATOM     62  C   UNL A   1      43.017  27.050  30.415  1.00  0.00     0.031 C 
ATOM     63  C   UNL A   1      43.543  29.765  35.834  1.00  0.00     0.029 A 
ATOM     64  C   UNL A   1      43.112  29.421  34.562  1.00  0.00     0.049 A 
ATOM     65  H   UNL A   1      41.555  30.276  33.418  1.00  0.00     0.167 HD
ATOM     66  C   UNL A   1      43.129  28.111  32.450  1.00  0.00     0.074 A 
ATOM     67  C   UNL A   1      43.613  27.044  31.597  1.00  0.00     0.031 C 
ATOM     68  C   UNL A   1      43.611  28.379  33.692  1.00  0.00     0.034 A 
BRANCH  55  69
ATOM     69  C   UNL A   1      40.688  33.063  36.567  1.00  0.00     0.023 A 
ATOM     70  C   UNL A   1      39.903  32.709  37.682  1.00  0.00     0.031 A 
ATOM     71  C   UNL A   1      41.325  34.316  36.593  1.00  0.00     0.131 A 
ATOM     72  C   UNL A   1      39.695  33.630  38.719  1.00  0.00     0.055 A 
ATOM     73  C   UNL A   1      41.192  35.191  37.675  1.00  0.00     0.041 A 
ATOM     74  F   UNL A   1      42.072  34.726  35.555  1.00  0.00    -0.206 F 
ATOM     75  C   UNL A   1      40.356  34.859  38.737  1.00  0.00     0.022 A 
BRANCH  72  76
ATOM     76  S   UNL A   1      38.407  33.273  39.947  1.00  0.00     0.124 S 
ATOM     77  O   UNL A   1      37.223  33.141  39.103  1.00  0.00    -0.237 OA
ATOM     78  O   UNL A   1      38.893  32.044  40.564  1.00  0.00    -0.237 OA
ATOM     79  O   UNL A   1      38.419  34.453  40.809  1.00  0.00    -0.744 OA
ENDBRANCH  72  76
ENDBRANCH  55  69
BRANCH  56  80
ATOM     80  C   UNL A   1      41.219  27.616  28.160  1.00  0.00     0.023 A 
ATOM     81  C   UNL A   1      40.826  26.271  28.081  1.00  0.00     0.031 A 
ATOM     82  C   UNL A   1      41.726  28.225  26.998  1.00  0.00     0.131 A 
ATOM     83  C   UNL A   1      40.981  25.568  26.876  1.00  0.00     0.055 A 
ATOM     84  C   UNL A   1      41.830  27.536  25.789  1.00  0.00     0.041 A 
ATOM     85  F   UNL A   1      42.106  29.513  27.017  1.00  0.00    -0.206 F 
ATOM     86  C   UNL A   1      41.466  26.196  25.726  1.00  0.00     0.022 A 
BRANCH  83  87
ATOM     87  S   UNL A   1      40.593  23.796  26.845  1.00  0.00     0.124 S 
ATOM     88  O   UNL A   1      40.894  23.401  28.216  1.00  0.00    -0.237 OA
ATOM     89  O   UNL A   1      39.182  23.801  26.473  1.00  0.00    -0.237 OA
ATOM     90  O   UNL A   1      41.500  23.267  25.828  1.00  0.00    -0.744 OA
ENDBRANCH  83  87
ENDBRANCH  56  80
BRANCH  68  91
ATOM     91  C   UNL A   1      44.709  27.472  34.203  1.00  0.00     0.023 A 
ATOM     92  C   UNL A   1      44.422  26.252  34.842  1.00  0.00     0.031 A 
ATOM     93  C   UNL A   1      46.057  27.858  34.097  1.00  0.00     0.131 A 
ATOM     94  C   UNL A   1      45.457  25.509  35.429  1.00  0.00     0.055 A 
ATOM     95  C   UNL A   1      47.089  27.075  34.615  1.00  0.00     0.041 A 
ATOM     96  F   UNL A   1      46.393  29.013  33.500  1.00  0.00    -0.206 F 
ATOM     97  C   UNL A   1      46.791  25.904  35.304  1.00  0.00     0.022 A 
BRANCH  94  98
ATOM     98  S   UNL A   1      45.023  24.099  36.485  1.00  0.00     0.124 S 
ATOM     99  O   UNL A   1      43.937  23.480  35.731  1.00  0.00    -0.237 OA
ATOM    100  O   UNL A   1      46.275  23.349  36.532  1.00  0.00    -0.237 OA
ATOM    101  O   UNL A   1      44.626  24.724  37.745  1.00  0.00    -0.744 OA
ENDBRANCH  94  98
ENDBRANCH  68  91
ENDBRANCH  42  43
ENDBRANCH  34  37
ENDBRANCH  32  33
ENDBRANCH  31  32
ENDBRANCH  30  31
ENDBRANCH   1  30
TORSDOF 19
ENDMDL
MODEL 3
REMARK VINA RESULT:     -11.9      3.060      7.993
REMARK SMILES CCc1ccc(S(=O)(=O)N2CCC3(CC2)NC(=O)C[C@H]3C(=O)NCCCCCCNC(=O)c2ccc(-c3c4nc(c(-c5cc(S(=O)(=O)[O-])ccc5F)c5ccc([nH]5)c(-c5cc(S(=O)(=O)[O-])ccc5F)c5nc(c(-c6cc(S(=O)(=O)[O-])ccc6F)c6ccc3[nH]6)C=C5)C=C4)cc2)s1
REMARK SMILES IDX 26 1 25 2 24 3 23 4 21 5 22 6 20 8 10 9 11 10 15 11 12 12
REMARK SMILES IDX 14 13 13 14 16 15 17 16 19 18 18 19 7 20 8 21 9 22 6 23 3 24
REMARK SMILES IDX 4 25 96 26 5 27 2 28 1 29 27 30 28 31 29 32 30 33 31 34
REMARK SMILES IDX 32 36 33 37 34 38 95 39 35 40 94 41 36 42 37 43 38 44 88 45
REMARK SMILES IDX 39 46 93 47 87 48 89 49 40 50 92 51 86 52 85 53 41 55 73 56
REMARK SMILES IDX 53 57 72 58 54 59 57 60 71 61 90 62 55 63 56 64 70 66 91 67
REMARK SMILES IDX 58 68 42 69 43 70 51 71 44 72 50 73 52 74 49 75 45 76 46 77
REMARK SMILES IDX 47 78 48 79 74 80 75 81 83 82 76 83 82 84 84 85 81 86 77 87
REMARK SMILES IDX 78 88 79 89 80 90 59 91 60 92 68 93 61 94 67 95 69 96 66 97
REMARK SMILES IDX 62 98 63 99 64 100 65 101
REMARK H PARENT 23 7 16 17 30 35 89 54 57 65
REMARK Flexibility Score: inf
ROOT
ATOM      1  C   UNL A   1      33.504  28.503  26.310  1.00  0.00     0.002 C 
ENDROOT
BRANCH   1   2
ATOM      2  C   UNL A   1      32.019  28.852  26.227  1.00  0.00     0.021 C 
BRANCH   2   3
ATOM      3  C   UNL A   1      31.622  29.650  24.980  1.00  0.00     0.116 C 
BRANCH   3   4
ATOM      4  N   UNL A   1      30.915  28.855  23.983  1.00  0.00    -0.356 N 
ATOM      5  C   UNL A   1      31.233  27.792  23.198  1.00  0.00     0.226 C 
ATOM      6  O   UNL A   1      30.339  27.389  22.444  1.00  0.00    -0.275 OA
ATOM      7  H   UNL A   1      29.990  29.159  23.846  1.00  0.00     0.163 HD
BRANCH   5   8
ATOM      8  C   UNL A   1      32.583  27.059  23.170  1.00  0.00     0.113 C 
ATOM      9  N   UNL A   1      33.127  24.448  26.324  1.00  0.00    -0.197 NA
ATOM     10  C   UNL A   1      34.285  25.069  25.688  1.00  0.00     0.105 C 
ATOM     11  C   UNL A   1      31.899  25.209  26.138  1.00  0.00     0.105 C 
ATOM     12  C   UNL A   1      34.086  25.207  24.182  1.00  0.00     0.046 C 
ATOM     13  C   UNL A   1      31.520  25.226  24.668  1.00  0.00     0.046 C 
ATOM     14  C   UNL A   1      32.652  25.593  23.667  1.00  0.00     0.055 C 
ATOM     15  N   UNL A   1      32.511  24.905  22.378  1.00  0.00    -0.350 N 
ATOM     16  C   UNL A   1      32.919  25.647  21.292  1.00  0.00     0.221 C 
ATOM     17  H   UNL A   1      32.156  23.992  22.297  1.00  0.00     0.164 HD
ATOM     18  C   UNL A   1      33.160  27.051  21.746  1.00  0.00     0.116 C 
ATOM     19  O   UNL A   1      33.031  25.210  20.162  1.00  0.00    -0.275 OA
BRANCH   9  20
ATOM     20  S   UNL A   1      33.106  22.840  26.874  1.00  0.00     0.252 S 
ATOM     21  O   UNL A   1      31.956  22.682  27.723  1.00  0.00    -0.206 OA
ATOM     22  O   UNL A   1      34.451  22.515  27.323  1.00  0.00    -0.206 OA
BRANCH  20  23
ATOM     23  C   UNL A   1      32.816  21.747  25.491  1.00  0.00     0.135 A 
ATOM     24  C   UNL A   1      32.527  19.725  24.079  1.00  0.00     0.006 A 
ATOM     25  C   UNL A   1      32.301  20.882  23.372  1.00  0.00     0.017 A 
ATOM     26  S   UNL A   1      32.913  20.051  25.728  1.00  0.00    -0.127 S 
ATOM     27  C   UNL A   1      32.521  22.012  24.177  1.00  0.00     0.034 A 
BRANCH  24  28
ATOM     28  C   UNL A   1      32.476  18.341  23.511  1.00  0.00     0.043 C 
ATOM     29  C   UNL A   1      32.429  18.344  21.994  1.00  0.00     0.010 C 
ENDBRANCH  24  28
ENDBRANCH  20  23
ENDBRANCH   9  20
ENDBRANCH   5   8
ENDBRANCH   3   4
ENDBRANCH   2   3
ENDBRANCH   1   2
BRANCH   1  30
ATOM     30  C   UNL A   1      34.304  29.368  27.285  1.00  0.00     0.002 C 
BRANCH  30  31
ATOM     31  C   UNL A   1      33.656  30.710  27.642  1.00  0.00     0.021 C 
BRANCH  31  32
ATOM     32  C   UNL A   1      34.619  31.894  27.698  1.00  0.00     0.116 C 
BRANCH  32  33
ATOM     33  N   UNL A   1      34.335  32.762  28.826  1.00  0.00    -0.352 N 
ATOM     34  C   UNL A   1      34.890  32.789  30.078  1.00  0.00     0.251 C 
ATOM     35  H   UNL A   1      33.633  33.435  28.666  1.00  0.00     0.163 HD
ATOM     36  O   UNL A   1      34.320  33.413  30.971  1.00  0.00    -0.269 OA
BRANCH  34  37
ATOM     37  C   UNL A   1      36.153  32.073  30.358  1.00  0.00     0.039 A 
ATOM     38  C   UNL A   1      37.346  32.608  29.865  1.00  0.00     0.014 A 
ATOM     39  C   UNL A   1      36.167  30.860  31.056  1.00  0.00     0.014 A 
ATOM     40  C   UNL A   1      38.551  31.947  30.104  1.00  0.00     0.010 A 
ATOM     41  C   UNL A   1      37.381  30.243  31.360  1.00  0.00     0.010 A 
ATOM     42  C   UNL A   1      38.584  30.774  30.877  1.00  0.00    -0.014 A 
BRANCH  42  43
ATOM     43  C   UNL A   1      39.884  30.119  31.181  1.00  0.00     0.031 A 
ATOM     44  C   UNL A   1      40.708  30.546  32.364  1.00  0.00     0.074 A 
ATOM     45  C   UNL A   1      40.323  29.135  30.372  1.00  0.00     0.049 A 
ATOM     46  N   UNL A   1      41.832  30.047  32.813  1.00  0.00    -0.248 NA
ATOM     47  C   UNL A   1      40.221  31.707  33.123  1.00  0.00     0.031 C 
ATOM     48  C   UNL A   1      39.645  28.683  29.155  1.00  0.00     0.029 A 
ATOM     49  N   UNL A   1      41.431  28.331  30.453  1.00  0.00    -0.354 N 
ATOM     50  C   UNL A   1      42.181  30.823  33.913  1.00  0.00     0.074 A 
ATOM     51  C   UNL A   1      41.194  31.878  34.005  1.00  0.00     0.031 C 
ATOM     52  C   UNL A   1      40.329  27.657  28.627  1.00  0.00     0.029 A 
ATOM     53  C   UNL A   1      41.510  27.400  29.445  1.00  0.00     0.049 A 
ATOM     54  H   UNL A   1      42.106  28.414  31.164  1.00  0.00     0.167 HD
ATOM     55  C   UNL A   1      43.210  30.654  34.782  1.00  0.00     0.034 A 
ATOM     56  C   UNL A   1      42.426  26.442  29.206  1.00  0.00     0.034 A 
ATOM     57  C   UNL A   1      44.195  29.603  34.661  1.00  0.00     0.049 A 
ATOM     58  C   UNL A   1      43.558  26.266  30.182  1.00  0.00     0.074 A 
ATOM     59  C   UNL A   1      45.261  29.315  35.495  1.00  0.00     0.029 A 
ATOM     60  N   UNL A   1      44.243  28.671  33.628  1.00  0.00    -0.354 N 
ATOM     61  N   UNL A   1      43.840  26.966  31.257  1.00  0.00    -0.248 NA
ATOM     62  C   UNL A   1      44.479  25.154  29.925  1.00  0.00     0.031 C 
ATOM     63  C   UNL A   1      45.991  28.260  34.933  1.00  0.00     0.029 A 
ATOM     64  C   UNL A   1      45.334  27.828  33.791  1.00  0.00     0.049 A 
ATOM     65  H   UNL A   1      43.595  28.618  32.888  1.00  0.00     0.167 HD
ATOM     66  C   UNL A   1      44.963  26.363  31.818  1.00  0.00     0.074 A 
ATOM     67  C   UNL A   1      45.282  25.227  30.976  1.00  0.00     0.031 C 
ATOM     68  C   UNL A   1      45.664  26.716  32.927  1.00  0.00     0.034 A 
BRANCH  55  69
ATOM     69  C   UNL A   1      43.323  31.647  35.919  1.00  0.00     0.023 A 
ATOM     70  C   UNL A   1      42.427  31.628  37.006  1.00  0.00     0.031 A 
ATOM     71  C   UNL A   1      44.298  32.660  35.898  1.00  0.00     0.131 A 
ATOM     72  C   UNL A   1      42.459  32.652  37.965  1.00  0.00     0.055 A 
ATOM     73  C   UNL A   1      44.386  33.622  36.908  1.00  0.00     0.041 A 
ATOM     74  F   UNL A   1      45.170  32.750  34.881  1.00  0.00    -0.206 F 
ATOM     75  C   UNL A   1      43.451  33.634  37.938  1.00  0.00     0.022 A 
BRANCH  72  76
ATOM     76  S   UNL A   1      41.078  32.784  39.134  1.00  0.00     0.124 S 
ATOM     77  O   UNL A   1      41.524  31.911  40.216  1.00  0.00    -0.237 OA
ATOM     78  O   UNL A   1      41.055  34.212  39.433  1.00  0.00    -0.237 OA
ATOM     79  O   UNL A   1      39.935  32.286  38.373  1.00  0.00    -0.744 OA
ENDBRANCH  72  76
ENDBRANCH  55  69
BRANCH  56  80
ATOM     80  C   UNL A   1      42.300  25.576  27.999  1.00  0.00     0.023 A 
ATOM     81  C   UNL A   1      41.552  24.389  28.022  1.00  0.00     0.031 A 
ATOM     82  C   UNL A   1      42.937  25.931  26.796  1.00  0.00     0.131 A 
ATOM     83  C   UNL A   1      41.489  23.581  26.876  1.00  0.00     0.055 A 
ATOM     84  C   UNL A   1      42.829  25.151  25.645  1.00  0.00     0.041 A 
ATOM     85  F   UNL A   1      43.657  27.063  26.718  1.00  0.00    -0.206 F 
ATOM     86  C   UNL A   1      42.110  23.962  25.684  1.00  0.00     0.022 A 
BRANCH  83  87
ATOM     87  S   UNL A   1      40.629  21.987  26.980  1.00  0.00     0.124 S 
ATOM     88  O   UNL A   1      41.370  21.185  26.013  1.00  0.00    -0.237 OA
ATOM     89  O   UNL A   1      40.815  21.634  28.384  1.00  0.00    -0.237 OA
ATOM     90  O   UNL A   1      39.257  22.316  26.600  1.00  0.00    -0.744 OA
ENDBRANCH  83  87
ENDBRANCH  56  80
BRANCH  68  91
ATOM     91  C   UNL A   1      46.836  25.834  33.297  1.00  0.00     0.023 A 
ATOM     92  C   UNL A   1      48.126  26.063  32.785  1.00  0.00     0.031 A 
ATOM     93  C   UNL A   1      46.649  24.716  34.130  1.00  0.00     0.131 A 
ATOM     94  C   UNL A   1      49.154  25.142  33.035  1.00  0.00     0.055 A 
ATOM     95  C   UNL A   1      47.695  23.845  34.439  1.00  0.00     0.041 A 
ATOM     96  F   UNL A   1      45.440  24.442  34.647  1.00  0.00    -0.206 F 
ATOM     97  C   UNL A   1      48.951  24.043  33.874  1.00  0.00     0.022 A 
BRANCH  94  98
ATOM     98  S   UNL A   1      50.717  25.317  32.131  1.00  0.00     0.124 S 
ATOM     99  O   UNL A   1      51.697  24.941  33.145  1.00  0.00    -0.237 OA
ATOM    100  O   UNL A   1      50.545  24.374  31.030  1.00  0.00    -0.237 OA
ATOM    101  O   UNL A   1      50.734  26.726  31.744  1.00  0.00    -0.744 OA
ENDBRANCH  94  98
ENDBRANCH  68  91
ENDBRANCH  42  43
ENDBRANCH  34  37
ENDBRANCH  32  33
ENDBRANCH  31  32
ENDBRANCH  30  31
ENDBRANCH   1  30
TORSDOF 19
ENDMDL
