MODEL 1
REMARK VINA RESULT:     -12.4      0.000      0.000
REMARK SMILES O=C(NCCCCCCNC(=O)c1ccc2c(=O)n(CCc3c[nH]c4ccccc34)c(=O)[nH]c2c1)c1ccc(-c2c3nc(c(-c4cc(S(=O)(=O)[O-])ccc4F)c4ccc([nH]4)c(-c4cc(S(=O)(=O)[O-])ccc4F)c4nc(c(-c5cc(S(=O)(=O)[O-])ccc5F)c5ccc2[nH]5)C=C4)C=C3)cc1
REMARK SMILES IDX 6 1 5 2 4 3 3 4 1 5 2 6 36 8 37 9 98 10 38 11 97 12 39 13
REMARK SMILES IDX 40 14 41 15 91 16 42 17 96 18 90 19 92 20 43 21 95 22 89 23
REMARK SMILES IDX 88 24 44 26 76 27 56 28 75 29 57 30 60 31 74 32 93 33 58 34
REMARK SMILES IDX 59 35 73 37 94 38 61 39 45 40 46 41 54 42 47 43 53 44 55 45
REMARK SMILES IDX 52 46 48 47 49 48 50 49 51 50 77 51 78 52 86 53 79 54 85 55
REMARK SMILES IDX 87 56 84 57 80 58 81 59 82 60 83 61 62 62 63 63 71 64 64 65
REMARK SMILES IDX 70 66 72 67 69 68 65 69 66 70 67 71 68 72 7 73 8 74 9 75
REMARK SMILES IDX 10 76 11 77 12 79 13 80 14 81 35 82 15 83 34 84 16 85 33 86
REMARK SMILES IDX 17 87 31 88 18 90 19 91 32 92 20 93 21 94 22 95 23 96 30 97
REMARK SMILES IDX 24 98 25 99 29 100 26 102 28 103 27 104
REMARK H PARENT 3 7 92 25 60 36 10 78 33 89 24 101
REMARK Flexibility Score: inf
ROOT
ATOM      1  C   UNL A   1      34.310  32.221  27.969  1.00  0.00     0.002 C 
ENDROOT
BRANCH   1   2
ATOM      2  C   UNL A   1      33.096  33.158  27.924  1.00  0.00     0.021 C 
BRANCH   2   3
ATOM      3  C   UNL A   1      33.374  34.654  28.081  1.00  0.00     0.116 C 
BRANCH   3   4
ATOM      4  N   UNL A   1      32.919  35.177  29.357  1.00  0.00    -0.352 N 
ATOM      5  O   UNL A   1      32.669  35.337  31.577  1.00  0.00    -0.269 OA
ATOM      6  C   UNL A   1      33.338  34.910  30.638  1.00  0.00     0.251 C 
ATOM      7  H   UNL A   1      32.187  35.831  29.295  1.00  0.00     0.163 HD
BRANCH   6   8
ATOM      8  C   UNL A   1      34.575  34.140  30.918  1.00  0.00     0.039 A 
ATOM      9  C   UNL A   1      34.490  33.025  31.763  1.00  0.00     0.014 A 
ATOM     10  C   UNL A   1      35.828  34.569  30.470  1.00  0.00     0.014 A 
ATOM     11  C   UNL A   1      35.649  32.348  32.159  1.00  0.00     0.010 A 
ATOM     12  C   UNL A   1      36.978  33.856  30.818  1.00  0.00     0.010 A 
ATOM     13  C   UNL A   1      36.906  32.762  31.697  1.00  0.00    -0.014 A 
BRANCH  13  14
ATOM     14  C   UNL A   1      38.163  32.142  32.197  1.00  0.00     0.031 A 
ATOM     15  C   UNL A   1      38.802  31.032  31.402  1.00  0.00     0.074 A 
ATOM     16  C   UNL A   1      38.710  32.532  33.365  1.00  0.00     0.049 A 
ATOM     17  N   UNL A   1      39.809  30.264  31.721  1.00  0.00    -0.248 NA
ATOM     18  C   UNL A   1      38.217  30.734  30.083  1.00  0.00     0.031 C 
ATOM     19  C   UNL A   1      38.190  33.597  34.219  1.00  0.00     0.029 A 
ATOM     20  N   UNL A   1      39.810  32.063  34.047  1.00  0.00    -0.354 N 
ATOM     21  C   UNL A   1      39.962  29.379  30.659  1.00  0.00     0.074 A 
ATOM     22  C   UNL A   1      38.922  29.678  29.703  1.00  0.00     0.031 C 
ATOM     23  C   UNL A   1      38.961  33.695  35.313  1.00  0.00     0.029 A 
ATOM     24  C   UNL A   1      39.998  32.664  35.272  1.00  0.00     0.049 A 
ATOM     25  H   UNL A   1      40.405  31.363  33.693  1.00  0.00     0.167 HD
ATOM     26  C   UNL A   1      40.900  28.419  30.491  1.00  0.00     0.034 A 
ATOM     27  C   UNL A   1      40.877  32.397  36.263  1.00  0.00     0.034 A 
ATOM     28  C   UNL A   1      41.965  28.168  31.427  1.00  0.00     0.049 A 
ATOM     29  C   UNL A   1      41.906  31.310  36.059  1.00  0.00     0.074 A 
ATOM     30  C   UNL A   1      43.000  27.260  31.307  1.00  0.00     0.029 A 
ATOM     31  N   UNL A   1      42.141  28.822  32.635  1.00  0.00    -0.354 N 
ATOM     32  N   UNL A   1      42.078  30.527  35.019  1.00  0.00    -0.248 NA
ATOM     33  C   UNL A   1      42.868  31.068  37.146  1.00  0.00     0.031 C 
ATOM     34  C   UNL A   1      43.755  27.306  32.475  1.00  0.00     0.029 A 
ATOM     35  C   UNL A   1      43.250  28.311  33.285  1.00  0.00     0.049 A 
ATOM     36  H   UNL A   1      41.564  29.543  32.980  1.00  0.00     0.167 HD
ATOM     37  C   UNL A   1      43.181  29.729  35.314  1.00  0.00     0.074 A 
ATOM     38  C   UNL A   1      43.650  30.131  36.622  1.00  0.00     0.031 C 
ATOM     39  C   UNL A   1      43.745  28.747  34.568  1.00  0.00     0.034 A 
BRANCH  26  40
ATOM     40  C   UNL A   1      40.874  27.563  29.250  1.00  0.00     0.023 A 
ATOM     41  C   UNL A   1      41.776  27.837  28.202  1.00  0.00     0.031 A 
ATOM     42  C   UNL A   1      39.845  26.637  29.020  1.00  0.00     0.131 A 
ATOM     43  C   UNL A   1      41.585  27.242  26.950  1.00  0.00     0.055 A 
ATOM     44  C   UNL A   1      39.690  26.008  27.784  1.00  0.00     0.041 A 
ATOM     45  F   UNL A   1      38.960  26.345  29.988  1.00  0.00    -0.206 F 
ATOM     46  C   UNL A   1      40.550  26.326  26.736  1.00  0.00     0.022 A 
BRANCH  43  47
ATOM     47  S   UNL A   1      42.609  27.714  25.529  1.00  0.00     0.124 S 
ATOM     48  O   UNL A   1      43.912  27.928  26.156  1.00  0.00    -0.237 OA
ATOM     49  O   UNL A   1      42.512  26.532  24.678  1.00  0.00    -0.237 OA
ATOM     50  O   UNL A   1      41.965  28.919  25.017  1.00  0.00    -0.744 OA
ENDBRANCH  43  47
ENDBRANCH  26  40
BRANCH  27  51
ATOM     51  C   UNL A   1      40.814  33.191  37.528  1.00  0.00     0.023 A 
ATOM     52  C   UNL A   1      40.018  32.758  38.605  1.00  0.00     0.031 A 
ATOM     53  C   UNL A   1      41.464  34.430  37.650  1.00  0.00     0.131 A 
ATOM     54  C   UNL A   1      39.834  33.587  39.719  1.00  0.00     0.055 A 
ATOM     55  C   UNL A   1      41.345  35.217  38.798  1.00  0.00     0.041 A 
ATOM     56  F   UNL A   1      42.227  34.895  36.648  1.00  0.00    -0.206 F 
ATOM     57  C   UNL A   1      40.510  34.805  39.832  1.00  0.00     0.022 A 
BRANCH  54  58
ATOM     58  S   UNL A   1      38.600  33.178  40.985  1.00  0.00     0.124 S 
ATOM     59  O   UNL A   1      38.899  31.777  41.263  1.00  0.00    -0.237 OA
ATOM     60  O   UNL A   1      38.940  34.120  42.049  1.00  0.00    -0.237 OA
ATOM     61  O   UNL A   1      37.326  33.433  40.321  1.00  0.00    -0.744 OA
ENDBRANCH  54  58
ENDBRANCH  27  51
BRANCH  39  62
ATOM     62  C   UNL A   1      44.963  28.020  35.087  1.00  0.00     0.023 A 
ATOM     63  C   UNL A   1      44.795  26.928  35.963  1.00  0.00     0.031 A 
ATOM     64  C   UNL A   1      46.254  28.545  34.918  1.00  0.00     0.131 A 
ATOM     65  C   UNL A   1      45.888  26.449  36.697  1.00  0.00     0.055 A 
ATOM     66  C   UNL A   1      47.350  28.025  35.607  1.00  0.00     0.041 A 
ATOM     67  F   UNL A   1      46.462  29.593  34.104  1.00  0.00    -0.206 F 
ATOM     68  C   UNL A   1      47.166  26.988  36.518  1.00  0.00     0.022 A 
BRANCH  65  69
ATOM     69  S   UNL A   1      45.665  25.203  37.997  1.00  0.00     0.124 S 
ATOM     70  O   UNL A   1      46.949  25.257  38.691  1.00  0.00    -0.237 OA
ATOM     71  O   UNL A   1      44.529  25.736  38.742  1.00  0.00    -0.237 OA
ATOM     72  O   UNL A   1      45.412  23.968  37.262  1.00  0.00    -0.744 OA
ENDBRANCH  65  69
ENDBRANCH  39  62
ENDBRANCH  13  14
ENDBRANCH   6   8
ENDBRANCH   3   4
ENDBRANCH   2   3
ENDBRANCH   1   2
BRANCH   1  73
ATOM     73  C   UNL A   1      34.045  30.727  27.769  1.00  0.00     0.002 C 
BRANCH  73  74
ATOM     74  C   UNL A   1      32.678  30.335  27.206  1.00  0.00     0.021 C 
BRANCH  74  75
ATOM     75  C   UNL A   1      32.582  30.054  25.702  1.00  0.00     0.116 C 
BRANCH  75  76
ATOM     76  N   UNL A   1      31.400  30.555  25.027  1.00  0.00    -0.352 N 
ATOM     77  C   UNL A   1      30.481  29.882  24.247  1.00  0.00     0.251 C 
ATOM     78  H   UNL A   1      31.226  31.517  25.142  1.00  0.00     0.163 HD
ATOM     79  O   UNL A   1      29.513  30.472  23.778  1.00  0.00    -0.269 OA
BRANCH  77  80
ATOM     80  C   UNL A   1      30.636  28.446  23.925  1.00  0.00     0.041 A 
ATOM     81  C   UNL A   1      30.203  27.463  24.828  1.00  0.00     0.015 A 
ATOM     82  C   UNL A   1      31.135  28.079  22.666  1.00  0.00     0.040 A 
ATOM     83  C   UNL A   1      30.357  26.106  24.510  1.00  0.00     0.017 A 
ATOM     84  C   UNL A   1      31.322  26.725  22.375  1.00  0.00     0.056 A 
ATOM     85  C   UNL A   1      30.955  25.746  23.299  1.00  0.00     0.064 A 
ATOM     86  N   UNL A   1      31.998  26.344  21.215  1.00  0.00    -0.307 N 
ATOM     87  C   UNL A   1      31.400  24.358  23.057  1.00  0.00     0.264 A 
ATOM     88  C   UNL A   1      32.568  25.108  21.052  1.00  0.00     0.328 A 
ATOM     89  H   UNL A   1      32.068  26.994  20.478  1.00  0.00     0.171 HD
ATOM     90  O   UNL A   1      30.925  23.436  23.724  1.00  0.00    -0.268 OA
ATOM     91  N   UNL A   1      32.384  24.208  22.091  1.00  0.00    -0.260 N 
ATOM     92  O   UNL A   1      33.237  24.878  20.046  1.00  0.00    -0.248 OA
BRANCH  91  93
ATOM     93  C   UNL A   1      33.240  23.028  22.140  1.00  0.00     0.136 C 
BRANCH  93  94
ATOM     94  C   UNL A   1      34.104  22.994  23.409  1.00  0.00     0.060 C 
BRANCH  94  95
ATOM     95  C   UNL A   1      34.019  21.777  24.285  1.00  0.00    -0.021 A 
ATOM     96  C   UNL A   1      34.739  21.597  25.453  1.00  0.00     0.087 A 
ATOM     97  C   UNL A   1      33.249  20.571  24.152  1.00  0.00     0.003 A 
ATOM     98  N   UNL A   1      33.989  20.731  26.201  1.00  0.00    -0.361 N 
ATOM     99  C   UNL A   1      33.366  19.862  25.349  1.00  0.00     0.046 A 
ATOM    100  C   UNL A   1      32.481  19.985  23.145  1.00  0.00     0.010 A 
ATOM    101  H   UNL A   1      33.910  20.734  27.183  1.00  0.00     0.166 HD
ATOM    102  C   UNL A   1      32.863  18.573  25.560  1.00  0.00     0.026 A 
ATOM    103  C   UNL A   1      32.189  18.623  23.260  1.00  0.00     0.001 A 
ATOM    104  C   UNL A   1      32.352  17.924  24.446  1.00  0.00     0.002 A 
ENDBRANCH  94  95
ENDBRANCH  93  94
ENDBRANCH  91  93
ENDBRANCH  77  80
ENDBRANCH  75  76
ENDBRANCH  74  75
ENDBRANCH  73  74
ENDBRANCH   1  73
TORSDOF 19
ENDMDL
MODEL 2
REMARK VINA RESULT:     -12.4      4.871     11.323
REMARK SMILES O=C(NCCCCCCNC(=O)c1ccc2c(=O)n(CCc3c[nH]c4ccccc34)c(=O)[nH]c2c1)c1ccc(-c2c3nc(c(-c4cc(S(=O)(=O)[O-])ccc4F)c4ccc([nH]4)c(-c4cc(S(=O)(=O)[O-])ccc4F)c4nc(c(-c5cc(S(=O)(=O)[O-])ccc5F)c5ccc2[nH]5)C=C4)C=C3)cc1
REMARK SMILES IDX 6 1 5 2 4 3 3 4 1 5 2 6 36 8 37 9 98 10 38 11 97 12 39 13
REMARK SMILES IDX 40 14 41 15 91 16 42 17 96 18 90 19 92 20 43 21 95 22 89 23
REMARK SMILES IDX 88 24 44 26 76 27 56 28 75 29 57 30 60 31 74 32 93 33 58 34
REMARK SMILES IDX 59 35 73 37 94 38 61 39 45 40 46 41 54 42 47 43 53 44 55 45
REMARK SMILES IDX 52 46 48 47 49 48 50 49 51 50 77 51 78 52 86 53 79 54 85 55
REMARK SMILES IDX 87 56 84 57 80 58 81 59 82 60 83 61 62 62 63 63 71 64 64 65
REMARK SMILES IDX 70 66 72 67 69 68 65 69 66 70 67 71 68 72 7 73 8 74 9 75
REMARK SMILES IDX 10 76 11 77 12 79 13 80 14 81 35 82 15 83 34 84 16 85 33 86
REMARK SMILES IDX 17 87 31 88 18 90 19 91 32 92 20 93 21 94 22 95 23 96 30 97
REMARK SMILES IDX 24 98 25 99 29 100 26 102 28 103 27 104
REMARK H PARENT 3 7 92 25 60 36 10 78 33 89 24 101
REMARK Flexibility Score: inf
ROOT
ATOM      1  C   UNL A   1      35.161  22.205  23.882  1.00  0.00     0.002 C 
ENDROOT
BRANCH   1   2
ATOM      2  C   UNL A   1      36.125  23.264  24.433  1.00  0.00     0.021 C 
BRANCH   2   3
ATOM      3  C   UNL A   1      36.621  23.064  25.867  1.00  0.00     0.116 C 
BRANCH   3   4
ATOM      4  N   UNL A   1      37.586  21.985  25.980  1.00  0.00    -0.352 N 
ATOM      5  O   UNL A   1      39.580  20.974  26.127  1.00  0.00    -0.269 OA
ATOM      6  C   UNL A   1      38.927  22.006  26.276  1.00  0.00     0.251 C 
ATOM      7  H   UNL A   1      37.219  21.087  25.815  1.00  0.00     0.163 HD
BRANCH   6   8
ATOM      8  C   UNL A   1      39.603  23.226  26.782  1.00  0.00     0.039 A 
ATOM      9  C   UNL A   1      39.298  24.456  26.184  1.00  0.00     0.014 A 
ATOM     10  C   UNL A   1      40.620  23.162  27.740  1.00  0.00     0.014 A 
ATOM     11  C   UNL A   1      40.005  25.610  26.539  1.00  0.00     0.010 A 
ATOM     12  C   UNL A   1      41.284  24.325  28.136  1.00  0.00     0.010 A 
ATOM     13  C   UNL A   1      41.011  25.555  27.513  1.00  0.00    -0.014 A 
BRANCH  13  14
ATOM     14  C   UNL A   1      41.863  26.735  27.822  1.00  0.00     0.031 A 
ATOM     15  C   UNL A   1      41.275  27.883  28.602  1.00  0.00     0.074 A 
ATOM     16  C   UNL A   1      43.134  26.807  27.378  1.00  0.00     0.049 A 
ATOM     17  N   UNL A   1      41.789  29.057  28.857  1.00  0.00    -0.248 NA
ATOM     18  C   UNL A   1      39.921  27.691  29.152  1.00  0.00     0.031 C 
ATOM     19  C   UNL A   1      43.816  25.761  26.620  1.00  0.00     0.029 A 
ATOM     20  N   UNL A   1      44.070  27.811  27.480  1.00  0.00    -0.354 N 
ATOM     21  C   UNL A   1      40.817  29.750  29.570  1.00  0.00     0.074 A 
ATOM     22  C   UNL A   1      39.668  28.881  29.676  1.00  0.00     0.031 C 
ATOM     23  C   UNL A   1      45.055  26.179  26.317  1.00  0.00     0.029 A 
ATOM     24  C   UNL A   1      45.241  27.544  26.807  1.00  0.00     0.049 A 
ATOM     25  H   UNL A   1      43.915  28.642  27.986  1.00  0.00     0.167 HD
ATOM     26  C   UNL A   1      40.888  30.990  30.104  1.00  0.00     0.034 A 
ATOM     27  C   UNL A   1      46.326  28.318  26.578  1.00  0.00     0.034 A 
ATOM     28  C   UNL A   1      42.060  31.823  30.038  1.00  0.00     0.049 A 
ATOM     29  C   UNL A   1      46.377  29.706  27.173  1.00  0.00     0.074 A 
ATOM     30  C   UNL A   1      42.246  33.068  30.609  1.00  0.00     0.029 A 
ATOM     31  N   UNL A   1      43.236  31.502  29.380  1.00  0.00    -0.354 N 
ATOM     32  N   UNL A   1      45.475  30.321  27.902  1.00  0.00    -0.248 NA
ATOM     33  C   UNL A   1      47.587  30.508  26.930  1.00  0.00     0.031 C 
ATOM     34  C   UNL A   1      43.501  33.536  30.231  1.00  0.00     0.029 A 
ATOM     35  C   UNL A   1      44.139  32.543  29.504  1.00  0.00     0.049 A 
ATOM     36  H   UNL A   1      43.405  30.660  28.897  1.00  0.00     0.167 HD
ATOM     37  C   UNL A   1      46.020  31.560  28.230  1.00  0.00     0.074 A 
ATOM     38  C   UNL A   1      47.338  31.606  27.635  1.00  0.00     0.031 C 
ATOM     39  C   UNL A   1      45.471  32.567  28.951  1.00  0.00     0.034 A 
BRANCH  26  40
ATOM     40  C   UNL A   1      39.699  31.550  30.843  1.00  0.00     0.023 A 
ATOM     41  C   UNL A   1      39.674  31.502  32.251  1.00  0.00     0.031 A 
ATOM     42  C   UNL A   1      38.529  31.931  30.167  1.00  0.00     0.131 A 
ATOM     43  C   UNL A   1      38.479  31.759  32.932  1.00  0.00     0.055 A 
ATOM     44  C   UNL A   1      37.354  32.236  30.855  1.00  0.00     0.041 A 
ATOM     45  F   UNL A   1      38.505  31.990  28.825  1.00  0.00    -0.206 F 
ATOM     46  C   UNL A   1      37.321  32.130  32.243  1.00  0.00     0.022 A 
BRANCH  43  47
ATOM     47  S   UNL A   1      38.360  31.522  34.727  1.00  0.00     0.124 S 
ATOM     48  O   UNL A   1      38.528  30.075  34.850  1.00  0.00    -0.237 OA
ATOM     49  O   UNL A   1      39.478  32.323  35.215  1.00  0.00    -0.237 OA
ATOM     50  O   UNL A   1      37.030  32.020  35.059  1.00  0.00    -0.744 OA
ENDBRANCH  43  47
ENDBRANCH  26  40
BRANCH  27  51
ATOM     51  C   UNL A   1      47.448  27.775  25.752  1.00  0.00     0.023 A 
ATOM     52  C   UNL A   1      47.549  28.095  24.385  1.00  0.00     0.031 A 
ATOM     53  C   UNL A   1      48.375  26.864  26.284  1.00  0.00     0.131 A 
ATOM     54  C   UNL A   1      48.503  27.453  23.585  1.00  0.00     0.055 A 
ATOM     55  C   UNL A   1      49.378  26.289  25.499  1.00  0.00     0.041 A 
ATOM     56  F   UNL A   1      48.316  26.516  27.579  1.00  0.00    -0.206 F 
ATOM     57  C   UNL A   1      49.433  26.568  24.137  1.00  0.00     0.022 A 
BRANCH  54  58
ATOM     58  S   UNL A   1      48.472  27.637  21.779  1.00  0.00     0.124 S 
ATOM     59  O   UNL A   1      49.602  28.529  21.542  1.00  0.00    -0.237 OA
ATOM     60  O   UNL A   1      48.652  26.256  21.335  1.00  0.00    -0.237 OA
ATOM     61  O   UNL A   1      47.153  28.203  21.513  1.00  0.00    -0.744 OA
ENDBRANCH  54  58
ENDBRANCH  27  51
BRANCH  39  62
ATOM     62  C   UNL A   1      46.266  33.828  29.199  1.00  0.00     0.023 A 
ATOM     63  C   UNL A   1      46.262  34.850  28.228  1.00  0.00     0.031 A 
ATOM     64  C   UNL A   1      47.193  33.912  30.250  1.00  0.00     0.131 A 
ATOM     65  C   UNL A   1      47.223  35.868  28.283  1.00  0.00     0.055 A 
ATOM     66  C   UNL A   1      48.109  34.961  30.334  1.00  0.00     0.041 A 
ATOM     67  F   UNL A   1      47.243  32.956  31.193  1.00  0.00    -0.206 F 
ATOM     68  C   UNL A   1      48.142  35.932  29.336  1.00  0.00     0.022 A 
BRANCH  65  69
ATOM     69  S   UNL A   1      47.394  37.065  26.931  1.00  0.00     0.124 S 
ATOM     70  O   UNL A   1      47.244  36.214  25.753  1.00  0.00    -0.237 OA
ATOM     71  O   UNL A   1      46.285  37.979  27.187  1.00  0.00    -0.237 OA
ATOM     72  O   UNL A   1      48.728  37.625  27.122  1.00  0.00    -0.744 OA
ENDBRANCH  65  69
ENDBRANCH  39  62
ENDBRANCH  13  14
ENDBRANCH   6   8
ENDBRANCH   3   4
ENDBRANCH   2   3
ENDBRANCH   1   2
BRANCH   1  73
ATOM     73  C   UNL A   1      33.860  22.709  23.252  1.00  0.00     0.002 C 
BRANCH  73  74
ATOM     74  C   UNL A   1      32.584  21.934  23.584  1.00  0.00     0.021 C 
BRANCH  74  75
ATOM     75  C   UNL A   1      32.542  21.167  24.910  1.00  0.00     0.116 C 
BRANCH  75  76
ATOM     76  N   UNL A   1      31.380  21.391  25.749  1.00  0.00    -0.352 N 
ATOM     77  C   UNL A   1      30.835  22.578  26.196  1.00  0.00     0.251 C 
ATOM     78  H   UNL A   1      30.909  20.578  26.041  1.00  0.00     0.163 HD
ATOM     79  O   UNL A   1      29.816  22.576  26.880  1.00  0.00    -0.269 OA
BRANCH  77  80
ATOM     80  C   UNL A   1      31.463  23.885  25.899  1.00  0.00     0.041 A 
ATOM     81  C   UNL A   1      32.760  24.171  26.350  1.00  0.00     0.015 A 
ATOM     82  C   UNL A   1      30.783  24.798  25.080  1.00  0.00     0.040 A 
ATOM     83  C   UNL A   1      33.342  25.414  26.062  1.00  0.00     0.017 A 
ATOM     84  C   UNL A   1      31.353  26.049  24.832  1.00  0.00     0.056 A 
ATOM     85  C   UNL A   1      32.616  26.363  25.337  1.00  0.00     0.064 A 
ATOM     86  N   UNL A   1      30.613  27.043  24.189  1.00  0.00    -0.307 N 
ATOM     87  C   UNL A   1      33.066  27.769  25.266  1.00  0.00     0.264 A 
ATOM     88  C   UNL A   1      30.927  28.376  24.263  1.00  0.00     0.328 A 
ATOM     89  H   UNL A   1      29.830  26.774  23.657  1.00  0.00     0.171 HD
ATOM     90  O   UNL A   1      34.243  28.048  25.501  1.00  0.00    -0.268 OA
ATOM     91  N   UNL A   1      32.077  28.695  24.969  1.00  0.00    -0.260 N 
ATOM     92  O   UNL A   1      30.171  29.204  23.759  1.00  0.00    -0.248 OA
BRANCH  91  93
ATOM     93  C   UNL A   1      32.272  30.082  25.379  1.00  0.00     0.136 C 
BRANCH  93  94
ATOM     94  C   UNL A   1      32.398  30.221  26.903  1.00  0.00     0.060 C 
BRANCH  94  95
ATOM     95  C   UNL A   1      33.558  31.007  27.443  1.00  0.00    -0.021 A 
ATOM     96  C   UNL A   1      34.781  30.464  27.793  1.00  0.00     0.087 A 
ATOM     97  C   UNL A   1      33.694  32.408  27.733  1.00  0.00     0.003 A 
ATOM     98  N   UNL A   1      35.676  31.491  27.659  1.00  0.00    -0.361 N 
ATOM     99  C   UNL A   1      35.042  32.653  28.000  1.00  0.00     0.046 A 
ATOM    100  C   UNL A   1      32.826  33.497  27.820  1.00  0.00     0.010 A 
ATOM    101  H   UNL A   1      36.612  31.407  27.366  1.00  0.00     0.166 HD
ATOM    102  C   UNL A   1      35.552  33.876  28.451  1.00  0.00     0.026 A 
ATOM    103  C   UNL A   1      33.278  34.636  28.492  1.00  0.00     0.001 A 
ATOM    104  C   UNL A   1      34.616  34.843  28.789  1.00  0.00     0.002 A 
ENDBRANCH  94  95
ENDBRANCH  93  94
ENDBRANCH  91  93
ENDBRANCH  77  80
ENDBRANCH  75  76
ENDBRANCH  74  75
ENDBRANCH  73  74
ENDBRANCH   1  73
TORSDOF 19
ENDMDL
MODEL 3
REMARK VINA RESULT:     -12.3      4.662      8.716
REMARK SMILES O=C(NCCCCCCNC(=O)c1ccc2c(=O)n(CCc3c[nH]c4ccccc34)c(=O)[nH]c2c1)c1ccc(-c2c3nc(c(-c4cc(S(=O)(=O)[O-])ccc4F)c4ccc([nH]4)c(-c4cc(S(=O)(=O)[O-])ccc4F)c4nc(c(-c5cc(S(=O)(=O)[O-])ccc5F)c5ccc2[nH]5)C=C4)C=C3)cc1
REMARK SMILES IDX 6 1 5 2 4 3 3 4 1 5 2 6 36 8 37 9 98 10 38 11 97 12 39 13
REMARK SMILES IDX 40 14 41 15 91 16 42 17 96 18 90 19 92 20 43 21 95 22 89 23
REMARK SMILES IDX 88 24 44 26 76 27 56 28 75 29 57 30 60 31 74 32 93 33 58 34
REMARK SMILES IDX 59 35 73 37 94 38 61 39 45 40 46 41 54 42 47 43 53 44 55 45
REMARK SMILES IDX 52 46 48 47 49 48 50 49 51 50 77 51 78 52 86 53 79 54 85 55
REMARK SMILES IDX 87 56 84 57 80 58 81 59 82 60 83 61 62 62 63 63 71 64 64 65
REMARK SMILES IDX 70 66 72 67 69 68 65 69 66 70 67 71 68 72 7 73 8 74 9 75
REMARK SMILES IDX 10 76 11 77 12 79 13 80 14 81 35 82 15 83 34 84 16 85 33 86
REMARK SMILES IDX 17 87 31 88 18 90 19 91 32 92 20 93 21 94 22 95 23 96 30 97
REMARK SMILES IDX 24 98 25 99 29 100 26 102 28 103 27 104
REMARK H PARENT 3 7 92 25 60 36 10 78 33 89 24 101
REMARK Flexibility Score: inf
ROOT
ATOM      1  C   UNL A   1      35.002  22.241  23.773  1.00  0.00     0.002 C 
ENDROOT
BRANCH   1   2
ATOM      2  C   UNL A   1      35.858  23.308  24.468  1.00  0.00     0.021 C 
BRANCH   2   3
ATOM      3  C   UNL A   1      36.398  22.959  25.857  1.00  0.00     0.116 C 
BRANCH   3   4
ATOM      4  N   UNL A   1      37.419  21.927  25.817  1.00  0.00    -0.352 N 
ATOM      5  O   UNL A   1      39.463  21.011  25.820  1.00  0.00    -0.269 OA
ATOM      6  C   UNL A   1      38.759  21.976  26.113  1.00  0.00     0.251 C 
ATOM      7  H   UNL A   1      37.097  21.043  25.529  1.00  0.00     0.163 HD
BRANCH   6   8
ATOM      8  C   UNL A   1      39.376  23.147  26.784  1.00  0.00     0.039 A 
ATOM      9  C   UNL A   1      38.982  24.431  26.383  1.00  0.00     0.014 A 
ATOM     10  C   UNL A   1      40.420  23.005  27.703  1.00  0.00     0.014 A 
ATOM     11  C   UNL A   1      39.628  25.562  26.894  1.00  0.00     0.010 A 
ATOM     12  C   UNL A   1      41.025  24.136  28.256  1.00  0.00     0.010 A 
ATOM     13  C   UNL A   1      40.663  25.425  27.830  1.00  0.00    -0.014 A 
BRANCH  13  14
ATOM     14  C   UNL A   1      41.452  26.597  28.297  1.00  0.00     0.031 A 
ATOM     15  C   UNL A   1      42.892  26.730  27.873  1.00  0.00     0.074 A 
ATOM     16  C   UNL A   1      40.909  27.512  29.124  1.00  0.00     0.049 A 
ATOM     17  N   UNL A   1      43.794  27.586  28.273  1.00  0.00    -0.248 NA
ATOM     18  C   UNL A   1      43.387  25.760  26.880  1.00  0.00     0.031 C 
ATOM     19  C   UNL A   1      39.528  27.496  29.600  1.00  0.00     0.029 A 
ATOM     20  N   UNL A   1      41.457  28.620  29.730  1.00  0.00    -0.354 N 
ATOM     21  C   UNL A   1      44.965  27.244  27.605  1.00  0.00     0.074 A 
ATOM     22  C   UNL A   1      44.671  26.079  26.803  1.00  0.00     0.031 C 
ATOM     23  C   UNL A   1      39.338  28.535  30.428  1.00  0.00     0.029 A 
ATOM     24  C   UNL A   1      40.596  29.262  30.592  1.00  0.00     0.049 A 
ATOM     25  H   UNL A   1      42.379  28.924  29.562  1.00  0.00     0.167 HD
ATOM     26  C   UNL A   1      46.168  27.859  27.644  1.00  0.00     0.034 A 
ATOM     27  C   UNL A   1      40.802  30.292  31.442  1.00  0.00     0.034 A 
ATOM     28  C   UNL A   1      46.432  29.052  28.407  1.00  0.00     0.049 A 
ATOM     29  C   UNL A   1      42.159  30.955  31.480  1.00  0.00     0.074 A 
ATOM     30  C   UNL A   1      47.604  29.784  28.454  1.00  0.00     0.029 A 
ATOM     31  N   UNL A   1      45.524  29.690  29.237  1.00  0.00    -0.354 N 
ATOM     32  N   UNL A   1      43.236  30.659  30.792  1.00  0.00    -0.248 NA
ATOM     33  C   UNL A   1      42.336  32.094  32.394  1.00  0.00     0.031 C 
ATOM     34  C   UNL A   1      47.434  30.816  29.371  1.00  0.00     0.029 A 
ATOM     35  C   UNL A   1      46.125  30.789  29.826  1.00  0.00     0.049 A 
ATOM     36  H   UNL A   1      44.593  29.406  29.384  1.00  0.00     0.167 HD
ATOM     37  C   UNL A   1      44.202  31.591  31.164  1.00  0.00     0.074 A 
ATOM     38  C   UNL A   1      43.580  32.473  32.127  1.00  0.00     0.031 C 
ATOM     39  C   UNL A   1      45.488  31.696  30.750  1.00  0.00     0.034 A 
BRANCH  26  40
ATOM     40  C   UNL A   1      47.313  27.307  26.833  1.00  0.00     0.023 A 
ATOM     41  C   UNL A   1      47.491  27.741  25.504  1.00  0.00     0.031 A 
ATOM     42  C   UNL A   1      48.080  26.225  27.291  1.00  0.00     0.131 A 
ATOM     43  C   UNL A   1      48.363  27.046  24.659  1.00  0.00     0.055 A 
ATOM     44  C   UNL A   1      48.987  25.568  26.458  1.00  0.00     0.041 A 
ATOM     45  F   UNL A   1      47.944  25.776  28.549  1.00  0.00    -0.206 F 
ATOM     46  C   UNL A   1      49.116  25.965  25.129  1.00  0.00     0.022 A 
BRANCH  43  47
ATOM     47  S   UNL A   1      48.476  27.455  22.896  1.00  0.00     0.124 S 
ATOM     48  O   UNL A   1      48.487  26.130  22.280  1.00  0.00    -0.237 OA
ATOM     49  O   UNL A   1      47.258  28.231  22.685  1.00  0.00    -0.237 OA
ATOM     50  O   UNL A   1      49.727  28.197  22.787  1.00  0.00    -0.744 OA
ENDBRANCH  43  47
ENDBRANCH  26  40
BRANCH  27  51
ATOM     51  C   UNL A   1      39.677  30.753  32.314  1.00  0.00     0.023 A 
ATOM     52  C   UNL A   1      38.919  31.886  31.965  1.00  0.00     0.031 A 
ATOM     53  C   UNL A   1      39.403  30.133  33.544  1.00  0.00     0.131 A 
ATOM     54  C   UNL A   1      37.981  32.406  32.865  1.00  0.00     0.055 A 
ATOM     55  C   UNL A   1      38.408  30.606  34.403  1.00  0.00     0.041 A 
ATOM     56  F   UNL A   1      40.104  29.055  33.931  1.00  0.00    -0.206 F 
ATOM     57  C   UNL A   1      37.704  31.761  34.074  1.00  0.00     0.022 A 
BRANCH  54  58
ATOM     58  S   UNL A   1      37.197  34.014  32.561  1.00  0.00     0.124 S 
ATOM     59  O   UNL A   1      35.857  33.627  32.133  1.00  0.00    -0.237 OA
ATOM     60  O   UNL A   1      37.284  34.643  33.877  1.00  0.00    -0.237 OA
ATOM     61  O   UNL A   1      38.038  34.620  31.533  1.00  0.00    -0.744 OA
ENDBRANCH  54  58
ENDBRANCH  27  51
BRANCH  39  62
ATOM     62  C   UNL A   1      46.356  32.813  31.281  1.00  0.00     0.023 A 
ATOM     63  C   UNL A   1      46.469  34.010  30.545  1.00  0.00     0.031 A 
ATOM     64  C   UNL A   1      47.236  32.606  32.354  1.00  0.00     0.131 A 
ATOM     65  C   UNL A   1      47.495  34.916  30.842  1.00  0.00     0.055 A 
ATOM     66  C   UNL A   1      48.218  33.540  32.685  1.00  0.00     0.041 A 
ATOM     67  F   UNL A   1      47.175  31.475  33.078  1.00  0.00    -0.206 F 
ATOM     68  C   UNL A   1      48.366  34.691  31.913  1.00  0.00     0.022 A 
BRANCH  65  69
ATOM     69  S   UNL A   1      47.813  36.350  29.776  1.00  0.00     0.124 S 
ATOM     70  O   UNL A   1      47.172  37.430  30.521  1.00  0.00    -0.237 OA
ATOM     71  O   UNL A   1      49.272  36.392  29.746  1.00  0.00    -0.237 OA
ATOM     72  O   UNL A   1      47.168  36.001  28.514  1.00  0.00    -0.744 OA
ENDBRANCH  65  69
ENDBRANCH  39  62
ENDBRANCH  13  14
ENDBRANCH   6   8
ENDBRANCH   3   4
ENDBRANCH   2   3
ENDBRANCH   1   2
BRANCH   1  73
ATOM     73  C   UNL A   1      33.656  22.694  23.199  1.00  0.00     0.002 C 
BRANCH  73  74
ATOM     74  C   UNL A   1      32.421  21.895  23.617  1.00  0.00     0.021 C 
BRANCH  74  75
ATOM     75  C   UNL A   1      32.443  21.216  24.991  1.00  0.00     0.116 C 
BRANCH  75  76
ATOM     76  N   UNL A   1      31.302  21.465  25.852  1.00  0.00    -0.352 N 
ATOM     77  C   UNL A   1      30.791  22.663  26.309  1.00  0.00     0.251 C 
ATOM     78  H   UNL A   1      30.820  20.661  26.153  1.00  0.00     0.163 HD
ATOM     79  O   UNL A   1      29.785  22.681  27.012  1.00  0.00    -0.269 OA
BRANCH  77  80
ATOM     80  C   UNL A   1      31.439  23.956  25.998  1.00  0.00     0.041 A 
ATOM     81  C   UNL A   1      32.757  24.209  26.410  1.00  0.00     0.015 A 
ATOM     82  C   UNL A   1      30.755  24.890  25.207  1.00  0.00     0.040 A 
ATOM     83  C   UNL A   1      33.358  25.439  26.109  1.00  0.00     0.017 A 
ATOM     84  C   UNL A   1      31.346  26.129  24.948  1.00  0.00     0.056 A 
ATOM     85  C   UNL A   1      32.632  26.410  25.413  1.00  0.00     0.064 A 
ATOM     86  N   UNL A   1      30.610  27.143  24.335  1.00  0.00    -0.307 N 
ATOM     87  C   UNL A   1      33.112  27.805  25.335  1.00  0.00     0.264 A 
ATOM     88  C   UNL A   1      30.957  28.468  24.406  1.00  0.00     0.328 A 
ATOM     89  H   UNL A   1      29.803  26.897  23.827  1.00  0.00     0.171 HD
ATOM     90  O   UNL A   1      34.303  28.056  25.534  1.00  0.00    -0.268 OA
ATOM     91  N   UNL A   1      32.137  28.756  25.076  1.00  0.00    -0.260 N 
ATOM     92  O   UNL A   1      30.205  29.317  23.930  1.00  0.00    -0.248 OA
BRANCH  91  93
ATOM     93  C   UNL A   1      32.377  30.135  25.487  1.00  0.00     0.136 C 
BRANCH  93  94
ATOM     94  C   UNL A   1      32.495  30.271  27.012  1.00  0.00     0.060 C 
BRANCH  94  95
ATOM     95  C   UNL A   1      33.589  31.144  27.557  1.00  0.00    -0.021 A 
ATOM     96  C   UNL A   1      33.463  32.499  27.804  1.00  0.00     0.087 A 
ATOM     97  C   UNL A   1      34.945  30.840  27.922  1.00  0.00     0.003 A 
ATOM     98  N   UNL A   1      34.382  32.768  28.781  1.00  0.00    -0.361 N 
ATOM     99  C   UNL A   1      35.463  31.955  28.582  1.00  0.00     0.046 A 
ATOM    100  C   UNL A   1      35.804  29.754  27.750  1.00  0.00     0.010 A 
ATOM    101  H   UNL A   1      34.282  33.431  29.503  1.00  0.00     0.166 HD
ATOM    102  C   UNL A   1      36.799  32.094  28.978  1.00  0.00     0.026 A 
ATOM    103  C   UNL A   1      37.173  29.975  27.919  1.00  0.00     0.001 A 
ATOM    104  C   UNL A   1      37.673  31.110  28.539  1.00  0.00     0.002 A 
ENDBRANCH  94  95
ENDBRANCH  93  94
ENDBRANCH  91  93
ENDBRANCH  77  80
ENDBRANCH  75  76
ENDBRANCH  74  75
ENDBRANCH  73  74
ENDBRANCH   1  73
TORSDOF 19
ENDMDL
