MODEL 1
REMARK VINA RESULT:     -13.1      0.000      0.000
REMARK SMILES Cc1ccc(-c2cc([C@@H](C)C(=O)NCCCCCCNC(=O)c3ccc(-c4c5nc(c(-c6cc(S(=O)(=O)[O-])ccc6F)c6ccc([nH]6)c(-c6cc(S(=O)(=O)[O-])ccc6F)c6nc(c(-c7cc(S(=O)(=O)[O-])ccc7F)c7ccc4[nH]7)C=C6)C=C5)cc3)ccc2C[C@H]2CCCC2=O)cc1
REMARK SMILES IDX 16 1 15 2 14 3 13 4 11 5 12 6 9 8 10 9 8 10 6 11 7 12 88 13
REMARK SMILES IDX 87 14 86 15 5 16 1 17 2 18 3 19 97 20 4 21 96 22 89 23 90 24
REMARK SMILES IDX 91 25 94 26 92 27 93 28 95 29 17 30 18 31 19 32 20 33 21 34
REMARK SMILES IDX 22 36 23 37 24 38 85 39 25 40 84 41 26 42 27 43 28 44 78 45
REMARK SMILES IDX 29 46 83 47 77 48 79 49 30 50 82 51 76 52 75 53 31 55 63 56
REMARK SMILES IDX 43 57 62 58 44 59 47 60 61 61 80 62 45 63 46 64 60 66 81 67
REMARK SMILES IDX 48 68 32 69 33 70 41 71 34 72 40 73 42 74 39 75 35 76 36 77
REMARK SMILES IDX 37 78 38 79 64 80 65 81 73 82 66 83 72 84 74 85 71 86 67 87
REMARK SMILES IDX 68 88 69 89 70 90 49 91 50 92 58 93 51 94 57 95 59 96 56 97
REMARK SMILES IDX 52 98 53 99 54 100 55 101
REMARK H PARENT 13 7 20 35 79 54 47 65
REMARK Flexibility Score: inf
ROOT
ATOM      1  C   UNL A   1      37.073  21.956  24.081  1.00  0.00     0.002 C 
ENDROOT
BRANCH   1   2
ATOM      2  C   UNL A   1      36.285  22.971  23.242  1.00  0.00     0.021 C 
BRANCH   2   3
ATOM      3  C   UNL A   1      34.933  23.387  23.825  1.00  0.00     0.116 C 
BRANCH   3   4
ATOM      4  N   UNL A   1      33.841  22.568  23.340  1.00  0.00    -0.356 N 
ATOM      5  C   UNL A   1      32.565  22.394  23.781  1.00  0.00     0.227 C 
ATOM      6  O   UNL A   1      31.864  21.595  23.146  1.00  0.00    -0.274 OA
ATOM      7  H   UNL A   1      34.064  22.036  22.542  1.00  0.00     0.163 HD
BRANCH   5   8
ATOM      8  C   UNL A   1      31.955  23.147  24.975  1.00  0.00     0.105 C 
ATOM      9  C   UNL A   1      31.004  22.307  25.828  1.00  0.00     0.023 C 
BRANCH   8  10
ATOM     10  C   UNL A   1      31.476  24.551  24.642  1.00  0.00    -0.035 A 
ATOM     11  C   UNL A   1      31.770  26.993  24.888  1.00  0.00    -0.015 A 
ATOM     12  C   UNL A   1      32.138  25.664  25.194  1.00  0.00     0.013 A 
ATOM     13  C   UNL A   1      30.788  27.203  23.894  1.00  0.00    -0.039 A 
ATOM     14  C   UNL A   1      30.070  26.097  23.415  1.00  0.00     0.004 A 
ATOM     15  C   UNL A   1      30.388  24.799  23.808  1.00  0.00     0.005 A 
BRANCH  11  16
ATOM     16  C   UNL A   1      32.327  28.091  25.702  1.00  0.00    -0.018 A 
ATOM     17  C   UNL A   1      34.121  31.294  28.002  1.00  0.00     0.044 C 
ATOM     18  C   UNL A   1      33.487  30.205  27.190  1.00  0.00    -0.051 A 
ATOM     19  C   UNL A   1      34.298  29.269  26.542  1.00  0.00     0.004 A 
ATOM     20  C   UNL A   1      32.096  30.085  27.081  1.00  0.00     0.004 A 
ATOM     21  C   UNL A   1      33.723  28.236  25.802  1.00  0.00     0.009 A 
ATOM     22  C   UNL A   1      31.523  29.041  26.343  1.00  0.00     0.009 A 
ENDBRANCH  11  16
BRANCH  13  23
ATOM     23  C   UNL A   1      30.479  28.562  23.291  1.00  0.00     0.047 C 
BRANCH  23  24
ATOM     24  C   UNL A   1      29.144  28.683  22.535  1.00  0.00     0.060 C 
ATOM     25  C   UNL A   1      27.874  28.629  23.394  1.00  0.00     0.012 C 
ATOM     26  C   UNL A   1      28.975  29.994  21.791  1.00  0.00     0.136 C 
ATOM     27  C   UNL A   1      27.380  30.067  23.510  1.00  0.00     0.009 C 
ATOM     28  C   UNL A   1      27.698  30.699  22.164  1.00  0.00     0.076 C 
ATOM     29  O   UNL A   1      29.779  30.426  20.970  1.00  0.00    -0.299 OA
ENDBRANCH  23  24
ENDBRANCH  13  23
ENDBRANCH   8  10
ENDBRANCH   5   8
ENDBRANCH   3   4
ENDBRANCH   2   3
ENDBRANCH   1   2
BRANCH   1  30
ATOM     30  C   UNL A   1      37.706  22.479  25.381  1.00  0.00     0.002 C 
BRANCH  30  31
ATOM     31  C   UNL A   1      38.976  21.766  25.848  1.00  0.00     0.021 C 
BRANCH  31  32
ATOM     32  C   UNL A   1      39.758  22.530  26.912  1.00  0.00     0.116 C 
BRANCH  32  33
ATOM     33  N   UNL A   1      41.079  22.961  26.465  1.00  0.00    -0.352 N 
ATOM     34  C   UNL A   1      41.571  24.245  26.290  1.00  0.00     0.251 C 
ATOM     35  H   UNL A   1      41.712  22.235  26.259  1.00  0.00     0.163 HD
ATOM     36  O   UNL A   1      42.678  24.447  25.830  1.00  0.00    -0.269 OA
BRANCH  34  37
ATOM     37  C   UNL A   1      40.770  25.380  26.813  1.00  0.00     0.039 A 
ATOM     38  C   UNL A   1      40.881  26.599  26.134  1.00  0.00     0.014 A 
ATOM     39  C   UNL A   1      40.139  25.312  28.051  1.00  0.00     0.014 A 
ATOM     40  C   UNL A   1      40.576  27.781  26.803  1.00  0.00     0.010 A 
ATOM     41  C   UNL A   1      39.920  26.485  28.747  1.00  0.00     0.010 A 
ATOM     42  C   UNL A   1      40.206  27.716  28.147  1.00  0.00    -0.014 A 
BRANCH  42  43
ATOM     43  C   UNL A   1      40.242  28.879  29.026  1.00  0.00     0.031 A 
ATOM     44  C   UNL A   1      39.138  29.866  29.016  1.00  0.00     0.074 A 
ATOM     45  C   UNL A   1      41.292  29.061  29.860  1.00  0.00     0.049 A 
ATOM     46  N   UNL A   1      39.276  31.116  29.308  1.00  0.00    -0.248 NA
ATOM     47  C   UNL A   1      37.775  29.514  28.632  1.00  0.00     0.031 C 
ATOM     48  C   UNL A   1      41.403  30.059  30.923  1.00  0.00     0.029 A 
ATOM     49  N   UNL A   1      42.558  28.492  29.854  1.00  0.00    -0.354 N 
ATOM     50  C   UNL A   1      38.017  31.658  29.435  1.00  0.00     0.074 A 
ATOM     51  C   UNL A   1      37.121  30.641  28.932  1.00  0.00     0.031 C 
ATOM     52  C   UNL A   1      42.704  30.246  31.203  1.00  0.00     0.029 A 
ATOM     53  C   UNL A   1      43.461  29.491  30.222  1.00  0.00     0.049 A 
ATOM     54  H   UNL A   1      42.779  27.558  29.632  1.00  0.00     0.167 HD
ATOM     55  C   UNL A   1      37.852  32.848  30.083  1.00  0.00     0.034 A 
ATOM     56  C   UNL A   1      44.423  30.017  29.405  1.00  0.00     0.034 A 
ATOM     57  C   UNL A   1      39.130  33.401  30.531  1.00  0.00     0.049 A 
ATOM     58  C   UNL A   1      44.310  31.525  29.241  1.00  0.00     0.074 A 
ATOM     59  C   UNL A   1      39.777  33.383  31.755  1.00  0.00     0.029 A 
ATOM     60  N   UNL A   1      40.062  33.841  29.598  1.00  0.00    -0.354 N 
ATOM     61  N   UNL A   1      43.242  32.212  29.548  1.00  0.00    -0.248 NA
ATOM     62  C   UNL A   1      45.368  32.373  28.695  1.00  0.00     0.031 C 
ATOM     63  C   UNL A   1      41.131  33.742  31.541  1.00  0.00     0.029 A 
ATOM     64  C   UNL A   1      41.297  34.016  30.193  1.00  0.00     0.049 A 
ATOM     65  H   UNL A   1      39.870  34.003  28.646  1.00  0.00     0.167 HD
ATOM     66  C   UNL A   1      43.431  33.534  29.240  1.00  0.00     0.074 A 
ATOM     67  C   UNL A   1      44.792  33.588  28.734  1.00  0.00     0.031 C 
ATOM     68  C   UNL A   1      42.444  34.464  29.413  1.00  0.00     0.034 A 
BRANCH  55  69
ATOM     69  C   UNL A   1      36.515  33.341  30.595  1.00  0.00     0.023 A 
ATOM     70  C   UNL A   1      35.669  34.072  29.736  1.00  0.00     0.031 A 
ATOM     71  C   UNL A   1      36.040  33.172  31.909  1.00  0.00     0.131 A 
ATOM     72  C   UNL A   1      34.498  34.693  30.208  1.00  0.00     0.055 A 
ATOM     73  C   UNL A   1      34.908  33.840  32.399  1.00  0.00     0.041 A 
ATOM     74  F   UNL A   1      36.619  32.312  32.759  1.00  0.00    -0.206 F 
ATOM     75  C   UNL A   1      34.139  34.621  31.550  1.00  0.00     0.022 A 
BRANCH  72  76
ATOM     76  S   UNL A   1      33.442  35.593  29.038  1.00  0.00     0.124 S 
ATOM     77  O   UNL A   1      34.415  36.145  28.100  1.00  0.00    -0.237 OA
ATOM     78  O   UNL A   1      32.579  34.533  28.525  1.00  0.00    -0.237 OA
ATOM     79  O   UNL A   1      32.768  36.581  29.879  1.00  0.00    -0.744 OA
ENDBRANCH  72  76
ENDBRANCH  55  69
BRANCH  56  80
ATOM     80  C   UNL A   1      44.927  29.084  28.360  1.00  0.00     0.023 A 
ATOM     81  C   UNL A   1      45.888  28.129  28.752  1.00  0.00     0.031 A 
ATOM     82  C   UNL A   1      44.243  28.871  27.156  1.00  0.00     0.131 A 
ATOM     83  C   UNL A   1      46.023  26.929  28.041  1.00  0.00     0.055 A 
ATOM     84  C   UNL A   1      44.423  27.695  26.416  1.00  0.00     0.041 A 
ATOM     85  F   UNL A   1      43.301  29.731  26.742  1.00  0.00    -0.206 F 
ATOM     86  C   UNL A   1      45.281  26.698  26.882  1.00  0.00     0.022 A 
BRANCH  83  87
ATOM     87  S   UNL A   1      46.966  25.564  28.789  1.00  0.00     0.124 S 
ATOM     88  O   UNL A   1      46.385  25.487  30.123  1.00  0.00    -0.237 OA
ATOM     89  O   UNL A   1      46.677  24.439  27.904  1.00  0.00    -0.237 OA
ATOM     90  O   UNL A   1      48.346  26.039  28.724  1.00  0.00    -0.744 OA
ENDBRANCH  83  87
ENDBRANCH  56  80
BRANCH  68  91
ATOM     91  C   UNL A   1      42.487  35.901  28.936  1.00  0.00     0.023 A 
ATOM     92  C   UNL A   1      43.205  36.911  29.594  1.00  0.00     0.031 A 
ATOM     93  C   UNL A   1      41.858  36.284  27.726  1.00  0.00     0.131 A 
ATOM     94  C   UNL A   1      43.212  38.232  29.110  1.00  0.00     0.055 A 
ATOM     95  C   UNL A   1      41.936  37.579  27.202  1.00  0.00     0.041 A 
ATOM     96  F   UNL A   1      41.144  35.415  26.996  1.00  0.00    -0.206 F 
ATOM     97  C   UNL A   1      42.603  38.569  27.904  1.00  0.00     0.022 A 
BRANCH  94  98
ATOM     98  S   UNL A   1      43.980  39.517  30.130  1.00  0.00     0.124 S 
ATOM     99  O   UNL A   1      43.213  40.700  29.748  1.00  0.00    -0.237 OA
ATOM    100  O   UNL A   1      43.751  39.022  31.483  1.00  0.00    -0.237 OA
ATOM    101  O   UNL A   1      45.375  39.517  29.696  1.00  0.00    -0.744 OA
ENDBRANCH  94  98
ENDBRANCH  68  91
ENDBRANCH  42  43
ENDBRANCH  34  37
ENDBRANCH  32  33
ENDBRANCH  31  32
ENDBRANCH  30  31
ENDBRANCH   1  30
TORSDOF 20
ENDMDL
MODEL 2
REMARK VINA RESULT:     -12.9      1.342      2.022
REMARK SMILES Cc1ccc(-c2cc([C@@H](C)C(=O)NCCCCCCNC(=O)c3ccc(-c4c5nc(c(-c6cc(S(=O)(=O)[O-])ccc6F)c6ccc([nH]6)c(-c6cc(S(=O)(=O)[O-])ccc6F)c6nc(c(-c7cc(S(=O)(=O)[O-])ccc7F)c7ccc4[nH]7)C=C6)C=C5)cc3)ccc2C[C@H]2CCCC2=O)cc1
REMARK SMILES IDX 16 1 15 2 14 3 13 4 11 5 12 6 9 8 10 9 8 10 6 11 7 12 88 13
REMARK SMILES IDX 87 14 86 15 5 16 1 17 2 18 3 19 97 20 4 21 96 22 89 23 90 24
REMARK SMILES IDX 91 25 94 26 92 27 93 28 95 29 17 30 18 31 19 32 20 33 21 34
REMARK SMILES IDX 22 36 23 37 24 38 85 39 25 40 84 41 26 42 27 43 28 44 78 45
REMARK SMILES IDX 29 46 83 47 77 48 79 49 30 50 82 51 76 52 75 53 31 55 63 56
REMARK SMILES IDX 43 57 62 58 44 59 47 60 61 61 80 62 45 63 46 64 60 66 81 67
REMARK SMILES IDX 48 68 32 69 33 70 41 71 34 72 40 73 42 74 39 75 35 76 36 77
REMARK SMILES IDX 37 78 38 79 64 80 65 81 73 82 66 83 72 84 74 85 71 86 67 87
REMARK SMILES IDX 68 88 69 89 70 90 49 91 50 92 58 93 51 94 57 95 59 96 56 97
REMARK SMILES IDX 52 98 53 99 54 100 55 101
REMARK H PARENT 13 7 20 35 79 54 47 65
REMARK Flexibility Score: inf
ROOT
ATOM      1  C   UNL A   1      36.118  23.079  25.604  1.00  0.00     0.002 C 
ENDROOT
BRANCH   1   2
ATOM      2  C   UNL A   1      35.349  22.893  26.919  1.00  0.00     0.021 C 
BRANCH   2   3
ATOM      3  C   UNL A   1      34.284  21.795  26.900  1.00  0.00     0.116 C 
BRANCH   3   4
ATOM      4  N   UNL A   1      34.661  20.668  26.071  1.00  0.00    -0.356 N 
ATOM      5  C   UNL A   1      34.082  20.109  24.974  1.00  0.00     0.227 C 
ATOM      6  O   UNL A   1      34.651  19.121  24.490  1.00  0.00    -0.274 OA
ATOM      7  H   UNL A   1      35.491  20.222  26.356  1.00  0.00     0.163 HD
BRANCH   5   8
ATOM      8  C   UNL A   1      32.809  20.648  24.301  1.00  0.00     0.105 C 
ATOM      9  C   UNL A   1      32.121  19.651  23.368  1.00  0.00     0.023 C 
BRANCH   8  10
ATOM     10  C   UNL A   1      32.943  22.065  23.768  1.00  0.00    -0.035 A 
ATOM     11  C   UNL A   1      33.026  24.493  24.228  1.00  0.00    -0.015 A 
ATOM     12  C   UNL A   1      32.864  23.155  24.654  1.00  0.00     0.013 A 
ATOM     13  C   UNL A   1      33.409  24.725  22.888  1.00  0.00    -0.039 A 
ATOM     14  C   UNL A   1      33.397  23.647  21.989  1.00  0.00     0.004 A 
ATOM     15  C   UNL A   1      33.137  22.348  22.417  1.00  0.00     0.005 A 
BRANCH  11  16
ATOM     16  C   UNL A   1      32.667  25.584  25.154  1.00  0.00    -0.018 A 
ATOM     17  C   UNL A   1      31.463  28.690  27.925  1.00  0.00     0.044 C 
ATOM     18  C   UNL A   1      31.898  27.606  26.985  1.00  0.00    -0.051 A 
ATOM     19  C   UNL A   1      30.964  26.672  26.532  1.00  0.00     0.004 A 
ATOM     20  C   UNL A   1      33.219  27.518  26.527  1.00  0.00     0.004 A 
ATOM     21  C   UNL A   1      31.348  25.671  25.639  1.00  0.00     0.009 A 
ATOM     22  C   UNL A   1      33.599  26.516  25.624  1.00  0.00     0.009 A 
ENDBRANCH  11  16
BRANCH  13  23
ATOM     23  C   UNL A   1      33.858  26.078  22.365  1.00  0.00     0.047 C 
BRANCH  23  24
ATOM     24  C   UNL A   1      32.761  26.974  21.764  1.00  0.00     0.060 C 
ATOM     25  C   UNL A   1      31.360  26.355  21.669  1.00  0.00     0.012 C 
ATOM     26  C   UNL A   1      32.502  28.242  22.554  1.00  0.00     0.136 C 
ATOM     27  C   UNL A   1      30.551  26.962  22.810  1.00  0.00     0.009 C 
ATOM     28  C   UNL A   1      31.050  28.395  22.923  1.00  0.00     0.076 C 
ATOM     29  O   UNL A   1      33.370  29.058  22.848  1.00  0.00    -0.299 OA
ENDBRANCH  23  24
ENDBRANCH  13  23
ENDBRANCH   8  10
ENDBRANCH   5   8
ENDBRANCH   3   4
ENDBRANCH   2   3
ENDBRANCH   1   2
BRANCH   1  30
ATOM     30  C   UNL A   1      37.594  23.496  25.721  1.00  0.00     0.002 C 
BRANCH  30  31
ATOM     31  C   UNL A   1      38.617  22.359  25.741  1.00  0.00     0.021 C 
BRANCH  31  32
ATOM     32  C   UNL A   1      39.631  22.459  26.876  1.00  0.00     0.116 C 
BRANCH  32  33
ATOM     33  N   UNL A   1      40.958  22.877  26.434  1.00  0.00    -0.352 N 
ATOM     34  C   UNL A   1      41.463  24.155  26.258  1.00  0.00     0.251 C 
ATOM     35  H   UNL A   1      41.585  22.144  26.234  1.00  0.00     0.163 HD
ATOM     36  O   UNL A   1      42.574  24.345  25.803  1.00  0.00    -0.269 OA
BRANCH  34  37
ATOM     37  C   UNL A   1      40.670  25.299  26.773  1.00  0.00     0.039 A 
ATOM     38  C   UNL A   1      40.826  26.524  26.115  1.00  0.00     0.014 A 
ATOM     39  C   UNL A   1      40.001  25.228  27.990  1.00  0.00     0.014 A 
ATOM     40  C   UNL A   1      40.524  27.703  26.791  1.00  0.00     0.010 A 
ATOM     41  C   UNL A   1      39.784  26.396  28.697  1.00  0.00     0.010 A 
ATOM     42  C   UNL A   1      40.113  27.628  28.123  1.00  0.00    -0.014 A 
BRANCH  42  43
ATOM     43  C   UNL A   1      40.146  28.778  29.019  1.00  0.00     0.031 A 
ATOM     44  C   UNL A   1      39.055  29.779  29.002  1.00  0.00     0.074 A 
ATOM     45  C   UNL A   1      41.182  28.935  29.875  1.00  0.00     0.049 A 
ATOM     46  N   UNL A   1      39.203  31.023  29.313  1.00  0.00    -0.248 NA
ATOM     47  C   UNL A   1      37.696  29.450  28.586  1.00  0.00     0.031 C 
ATOM     48  C   UNL A   1      41.284  29.917  30.954  1.00  0.00     0.029 A 
ATOM     49  N   UNL A   1      42.441  28.350  29.885  1.00  0.00    -0.354 N 
ATOM     50  C   UNL A   1      37.949  31.579  29.424  1.00  0.00     0.074 A 
ATOM     51  C   UNL A   1      37.050  30.581  28.890  1.00  0.00     0.031 C 
ATOM     52  C   UNL A   1      42.582  30.083  31.262  1.00  0.00     0.029 A 
ATOM     53  C   UNL A   1      43.349  29.332  30.285  1.00  0.00     0.049 A 
ATOM     54  H   UNL A   1      42.654  27.417  29.655  1.00  0.00     0.167 HD
ATOM     55  C   UNL A   1      37.785  32.761  30.085  1.00  0.00     0.034 A 
ATOM     56  C   UNL A   1      44.333  29.857  29.494  1.00  0.00     0.034 A 
ATOM     57  C   UNL A   1      39.061  33.293  30.566  1.00  0.00     0.049 A 
ATOM     58  C   UNL A   1      44.242  31.369  29.350  1.00  0.00     0.074 A 
ATOM     59  C   UNL A   1      39.684  33.249  31.802  1.00  0.00     0.029 A 
ATOM     60  N   UNL A   1      40.017  33.733  29.658  1.00  0.00    -0.354 N 
ATOM     61  N   UNL A   1      43.176  32.065  29.646  1.00  0.00    -0.248 NA
ATOM     62  C   UNL A   1      45.321  32.211  28.837  1.00  0.00     0.031 C 
ATOM     63  C   UNL A   1      41.047  33.594  31.619  1.00  0.00     0.029 A 
ATOM     64  C   UNL A   1      41.242  33.885  30.279  1.00  0.00     0.049 A 
ATOM     65  H   UNL A   1      39.846  33.912  28.705  1.00  0.00     0.167 HD
ATOM     66  C   UNL A   1      43.388  33.389  29.360  1.00  0.00     0.074 A 
ATOM     67  C   UNL A   1      44.759  33.433  28.882  1.00  0.00     0.031 C 
ATOM     68  C   UNL A   1      42.409  34.329  29.527  1.00  0.00     0.034 A 
BRANCH  55  69
ATOM     69  C   UNL A   1      36.445  33.264  30.579  1.00  0.00     0.023 A 
ATOM     70  C   UNL A   1      35.624  34.017  29.713  1.00  0.00     0.031 A 
ATOM     71  C   UNL A   1      35.943  33.084  31.881  1.00  0.00     0.131 A 
ATOM     72  C   UNL A   1      34.452  34.645  30.171  1.00  0.00     0.055 A 
ATOM     73  C   UNL A   1      34.810  33.760  32.358  1.00  0.00     0.041 A 
ATOM     74  F   UNL A   1      36.496  32.207  32.730  1.00  0.00    -0.206 F 
ATOM     75  C   UNL A   1      34.066  34.561  31.505  1.00  0.00     0.022 A 
BRANCH  72  76
ATOM     76  S   UNL A   1      33.429  35.572  28.993  1.00  0.00     0.124 S 
ATOM     77  O   UNL A   1      34.426  36.125  28.081  1.00  0.00    -0.237 OA
ATOM     78  O   UNL A   1      32.564  34.530  28.450  1.00  0.00    -0.237 OA
ATOM     79  O   UNL A   1      32.751  36.558  29.833  1.00  0.00    -0.744 OA
ENDBRANCH  72  76
ENDBRANCH  55  69
BRANCH  56  80
ATOM     80  C   UNL A   1      44.845  28.933  28.447  1.00  0.00     0.023 A 
ATOM     81  C   UNL A   1      45.728  27.912  28.857  1.00  0.00     0.031 A 
ATOM     82  C   UNL A   1      44.223  28.800  27.198  1.00  0.00     0.131 A 
ATOM     83  C   UNL A   1      45.838  26.730  28.112  1.00  0.00     0.055 A 
ATOM     84  C   UNL A   1      44.382  27.641  26.427  1.00  0.00     0.041 A 
ATOM     85  F   UNL A   1      43.357  29.726  26.763  1.00  0.00    -0.206 F 
ATOM     86  C   UNL A   1      45.154  26.582  26.904  1.00  0.00     0.022 A 
BRANCH  83  87
ATOM     87  S   UNL A   1      46.659  25.289  28.861  1.00  0.00     0.124 S 
ATOM     88  O   UNL A   1      45.534  24.402  29.127  1.00  0.00    -0.237 OA
ATOM     89  O   UNL A   1      47.580  24.853  27.814  1.00  0.00    -0.237 OA
ATOM     90  O   UNL A   1      47.314  25.856  30.038  1.00  0.00    -0.744 OA
ENDBRANCH  83  87
ENDBRANCH  56  80
BRANCH  68  91
ATOM     91  C   UNL A   1      42.480  35.772  29.072  1.00  0.00     0.023 A 
ATOM     92  C   UNL A   1      43.249  36.748  29.721  1.00  0.00     0.031 A 
ATOM     93  C   UNL A   1      41.822  36.194  27.890  1.00  0.00     0.131 A 
ATOM     94  C   UNL A   1      43.279  38.077  29.258  1.00  0.00     0.055 A 
ATOM     95  C   UNL A   1      41.921  37.493  27.385  1.00  0.00     0.041 A 
ATOM     96  F   UNL A   1      41.058  35.358  27.172  1.00  0.00    -0.206 F 
ATOM     97  C   UNL A   1      42.640  38.452  28.079  1.00  0.00     0.022 A 
BRANCH  94  98
ATOM     98  S   UNL A   1      44.120  39.321  30.272  1.00  0.00     0.124 S 
ATOM     99  O   UNL A   1      45.451  39.346  29.671  1.00  0.00    -0.237 OA
ATOM    100  O   UNL A   1      43.303  40.510  30.052  1.00  0.00    -0.237 OA
ATOM    101  O   UNL A   1      44.061  38.766  31.622  1.00  0.00    -0.744 OA
ENDBRANCH  94  98
ENDBRANCH  68  91
ENDBRANCH  42  43
ENDBRANCH  34  37
ENDBRANCH  32  33
ENDBRANCH  31  32
ENDBRANCH  30  31
ENDBRANCH   1  30
TORSDOF 20
ENDMDL
MODEL 3
REMARK VINA RESULT:     -12.5      2.417      2.951
REMARK SMILES Cc1ccc(-c2cc([C@@H](C)C(=O)NCCCCCCNC(=O)c3ccc(-c4c5nc(c(-c6cc(S(=O)(=O)[O-])ccc6F)c6ccc([nH]6)c(-c6cc(S(=O)(=O)[O-])ccc6F)c6nc(c(-c7cc(S(=O)(=O)[O-])ccc7F)c7ccc4[nH]7)C=C6)C=C5)cc3)ccc2C[C@H]2CCCC2=O)cc1
REMARK SMILES IDX 16 1 15 2 14 3 13 4 11 5 12 6 9 8 10 9 8 10 6 11 7 12 88 13
REMARK SMILES IDX 87 14 86 15 5 16 1 17 2 18 3 19 97 20 4 21 96 22 89 23 90 24
REMARK SMILES IDX 91 25 94 26 92 27 93 28 95 29 17 30 18 31 19 32 20 33 21 34
REMARK SMILES IDX 22 36 23 37 24 38 85 39 25 40 84 41 26 42 27 43 28 44 78 45
REMARK SMILES IDX 29 46 83 47 77 48 79 49 30 50 82 51 76 52 75 53 31 55 63 56
REMARK SMILES IDX 43 57 62 58 44 59 47 60 61 61 80 62 45 63 46 64 60 66 81 67
REMARK SMILES IDX 48 68 32 69 33 70 41 71 34 72 40 73 42 74 39 75 35 76 36 77
REMARK SMILES IDX 37 78 38 79 64 80 65 81 73 82 66 83 72 84 74 85 71 86 67 87
REMARK SMILES IDX 68 88 69 89 70 90 49 91 50 92 58 93 51 94 57 95 59 96 56 97
REMARK SMILES IDX 52 98 53 99 54 100 55 101
REMARK H PARENT 13 7 20 35 79 54 47 65
REMARK Flexibility Score: inf
ROOT
ATOM      1  C   UNL A   1      35.215  23.452  23.563  1.00  0.00     0.002 C 
ENDROOT
BRANCH   1   2
ATOM      2  C   UNL A   1      34.586  24.247  24.716  1.00  0.00     0.021 C 
BRANCH   2   3
ATOM      3  C   UNL A   1      34.063  23.402  25.880  1.00  0.00     0.116 C 
BRANCH   3   4
ATOM      4  N   UNL A   1      33.003  22.498  25.480  1.00  0.00    -0.356 N 
ATOM      5  C   UNL A   1      31.679  22.453  25.788  1.00  0.00     0.227 C 
ATOM      6  O   UNL A   1      31.025  21.527  25.288  1.00  0.00    -0.274 OA
ATOM      7  H   UNL A   1      33.297  21.782  24.871  1.00  0.00     0.163 HD
BRANCH   5   8
ATOM      8  C   UNL A   1      30.964  23.485  26.676  1.00  0.00     0.105 C 
ATOM      9  C   UNL A   1      29.708  22.955  27.369  1.00  0.00     0.023 C 
BRANCH   8  10
ATOM     10  C   UNL A   1      30.837  24.862  26.044  1.00  0.00    -0.035 A 
ATOM     11  C   UNL A   1      31.739  27.147  25.768  1.00  0.00    -0.015 A 
ATOM     12  C   UNL A   1      31.776  25.863  26.356  1.00  0.00     0.013 A 
ATOM     13  C   UNL A   1      30.802  27.383  24.738  1.00  0.00    -0.039 A 
ATOM     14  C   UNL A   1      29.812  26.418  24.495  1.00  0.00     0.004 A 
ATOM     15  C   UNL A   1      29.813  25.195  25.160  1.00  0.00     0.005 A 
BRANCH  11  16
ATOM     16  C   UNL A   1      32.583  28.215  26.338  1.00  0.00    -0.018 A 
ATOM     17  C   UNL A   1      34.908  31.431  28.075  1.00  0.00     0.044 C 
ATOM     18  C   UNL A   1      34.110  30.302  27.496  1.00  0.00    -0.051 A 
ATOM     19  C   UNL A   1      32.746  30.478  27.251  1.00  0.00     0.004 A 
ATOM     20  C   UNL A   1      34.704  29.076  27.169  1.00  0.00     0.004 A 
ATOM     21  C   UNL A   1      31.995  29.444  26.691  1.00  0.00     0.009 A 
ATOM     22  C   UNL A   1      33.947  28.044  26.599  1.00  0.00     0.009 A 
ENDBRANCH  11  16
BRANCH  13  23
ATOM     23  C   UNL A   1      30.817  28.619  23.855  1.00  0.00     0.047 C 
BRANCH  23  24
ATOM     24  C   UNL A   1      31.820  28.609  22.688  1.00  0.00     0.060 C 
ATOM     25  C   UNL A   1      33.272  28.956  23.042  1.00  0.00     0.012 C 
ATOM     26  C   UNL A   1      31.966  27.259  22.013  1.00  0.00     0.136 C 
ATOM     27  C   UNL A   1      34.030  27.633  23.065  1.00  0.00     0.009 C 
ATOM     28  C   UNL A   1      33.400  26.803  21.957  1.00  0.00     0.076 C 
ATOM     29  O   UNL A   1      31.027  26.616  21.553  1.00  0.00    -0.299 OA
ENDBRANCH  23  24
ENDBRANCH  13  23
ENDBRANCH   8  10
ENDBRANCH   5   8
ENDBRANCH   3   4
ENDBRANCH   2   3
ENDBRANCH   1   2
BRANCH   1  30
ATOM     30  C   UNL A   1      36.311  22.440  23.940  1.00  0.00     0.002 C 
BRANCH  30  31
ATOM     31  C   UNL A   1      36.849  22.529  25.369  1.00  0.00     0.021 C 
BRANCH  31  32
ATOM     32  C   UNL A   1      37.844  23.665  25.586  1.00  0.00     0.116 C 
BRANCH  32  33
ATOM     33  N   UNL A   1      39.125  23.222  26.127  1.00  0.00    -0.352 N 
ATOM     34  C   UNL A   1      40.052  23.926  26.878  1.00  0.00     0.251 C 
ATOM     35  H   UNL A   1      39.363  22.286  25.931  1.00  0.00     0.163 HD
ATOM     36  O   UNL A   1      41.122  23.439  27.191  1.00  0.00    -0.269 OA
BRANCH  34  37
ATOM     37  C   UNL A   1      39.655  25.249  27.421  1.00  0.00     0.039 A 
ATOM     38  C   UNL A   1      40.035  26.376  26.683  1.00  0.00     0.014 A 
ATOM     39  C   UNL A   1      39.156  25.382  28.712  1.00  0.00     0.014 A 
ATOM     40  C   UNL A   1      40.138  27.607  27.325  1.00  0.00     0.010 A 
ATOM     41  C   UNL A   1      39.342  26.580  29.375  1.00  0.00     0.010 A 
ATOM     42  C   UNL A   1      39.899  27.670  28.699  1.00  0.00    -0.014 A 
BRANCH  42  43
ATOM     43  C   UNL A   1      40.345  28.790  29.519  1.00  0.00     0.031 A 
ATOM     44  C   UNL A   1      39.383  29.818  29.979  1.00  0.00     0.074 A 
ATOM     45  C   UNL A   1      41.648  28.894  29.867  1.00  0.00     0.049 A 
ATOM     46  N   UNL A   1      39.691  31.047  30.223  1.00  0.00    -0.248 NA
ATOM     47  C   UNL A   1      37.963  29.536  30.163  1.00  0.00     0.031 C 
ATOM     48  C   UNL A   1      42.226  29.838  30.823  1.00  0.00     0.029 A 
ATOM     49  N   UNL A   1      42.775  28.278  29.339  1.00  0.00    -0.354 N 
ATOM     50  C   UNL A   1      38.618  31.631  30.858  1.00  0.00     0.074 A 
ATOM     51  C   UNL A   1      37.544  30.672  30.730  1.00  0.00     0.031 C 
ATOM     52  C   UNL A   1      43.539  29.962  30.563  1.00  0.00     0.029 A 
ATOM     53  C   UNL A   1      43.801  29.224  29.341  1.00  0.00     0.049 A 
ATOM     54  H   UNL A   1      42.838  27.348  29.024  1.00  0.00     0.167 HD
ATOM     55  C   UNL A   1      38.788  32.795  31.549  1.00  0.00     0.034 A 
ATOM     56  C   UNL A   1      44.383  29.750  28.221  1.00  0.00     0.034 A 
ATOM     57  C   UNL A   1      40.166  33.279  31.462  1.00  0.00     0.049 A 
ATOM     58  C   UNL A   1      44.295  31.267  28.156  1.00  0.00     0.074 A 
ATOM     59  C   UNL A   1      41.246  33.181  32.324  1.00  0.00     0.029 A 
ATOM     60  N   UNL A   1      40.671  33.724  30.246  1.00  0.00    -0.354 N 
ATOM     61  N   UNL A   1      43.476  31.979  28.883  1.00  0.00    -0.248 NA
ATOM     62  C   UNL A   1      45.090  32.098  27.254  1.00  0.00     0.031 C 
ATOM     63  C   UNL A   1      42.420  33.497  31.594  1.00  0.00     0.029 A 
ATOM     64  C   UNL A   1      42.049  33.826  30.301  1.00  0.00     0.049 A 
ATOM     65  H   UNL A   1      40.125  33.937  29.455  1.00  0.00     0.167 HD
ATOM     66  C   UNL A   1      43.596  33.306  28.560  1.00  0.00     0.074 A 
ATOM     67  C   UNL A   1      44.643  33.331  27.553  1.00  0.00     0.031 C 
ATOM     68  C   UNL A   1      42.810  34.264  29.138  1.00  0.00     0.034 A 
BRANCH  55  69
ATOM     69  C   UNL A   1      37.796  33.315  32.567  1.00  0.00     0.023 A 
ATOM     70  C   UNL A   1      38.010  33.062  33.938  1.00  0.00     0.031 A 
ATOM     71  C   UNL A   1      36.613  34.014  32.261  1.00  0.00     0.131 A 
ATOM     72  C   UNL A   1      37.039  33.377  34.906  1.00  0.00     0.055 A 
ATOM     73  C   UNL A   1      35.616  34.271  33.214  1.00  0.00     0.041 A 
ATOM     74  F   UNL A   1      36.395  34.522  31.041  1.00  0.00    -0.206 F 
ATOM     75  C   UNL A   1      35.819  33.936  34.543  1.00  0.00     0.022 A 
BRANCH  72  76
ATOM     76  S   UNL A   1      37.397  33.049  36.655  1.00  0.00     0.124 S 
ATOM     77  O   UNL A   1      37.657  31.613  36.657  1.00  0.00    -0.237 OA
ATOM     78  O   UNL A   1      38.547  33.914  36.901  1.00  0.00    -0.237 OA
ATOM     79  O   UNL A   1      36.168  33.453  37.336  1.00  0.00    -0.744 OA
ENDBRANCH  72  76
ENDBRANCH  55  69
BRANCH  56  80
ATOM     80  C   UNL A   1      44.378  28.846  27.038  1.00  0.00     0.023 A 
ATOM     81  C   UNL A   1      45.328  27.803  27.014  1.00  0.00     0.031 A 
ATOM     82  C   UNL A   1      43.280  28.755  26.173  1.00  0.00     0.131 A 
ATOM     83  C   UNL A   1      45.082  26.641  26.271  1.00  0.00     0.055 A 
ATOM     84  C   UNL A   1      43.067  27.615  25.387  1.00  0.00     0.041 A 
ATOM     85  F   UNL A   1      42.333  29.704  26.166  1.00  0.00    -0.206 F 
ATOM     86  C   UNL A   1      43.945  26.533  25.469  1.00  0.00     0.022 A 
BRANCH  83  87
ATOM     87  S   UNL A   1      46.110  25.170  26.572  1.00  0.00     0.124 S 
ATOM     88  O   UNL A   1      46.689  24.929  25.256  1.00  0.00    -0.237 OA
ATOM     89  O   UNL A   1      47.041  25.623  27.603  1.00  0.00    -0.237 OA
ATOM     90  O   UNL A   1      45.143  24.176  27.032  1.00  0.00    -0.744 OA
ENDBRANCH  83  87
ENDBRANCH  56  80
BRANCH  68  91
ATOM     91  C   UNL A   1      42.736  35.719  28.722  1.00  0.00     0.023 A 
ATOM     92  C   UNL A   1      43.633  36.697  29.175  1.00  0.00     0.031 A 
ATOM     93  C   UNL A   1      41.785  36.153  27.766  1.00  0.00     0.131 A 
ATOM     94  C   UNL A   1      43.520  38.036  28.758  1.00  0.00     0.055 A 
ATOM     95  C   UNL A   1      41.728  37.466  27.290  1.00  0.00     0.041 A 
ATOM     96  F   UNL A   1      40.873  35.318  27.249  1.00  0.00    -0.206 F 
ATOM     97  C   UNL A   1      42.588  38.425  27.798  1.00  0.00     0.022 A 
BRANCH  94  98
ATOM     98  S   UNL A   1      44.577  39.275  29.552  1.00  0.00     0.124 S 
ATOM     99  O   UNL A   1      43.947  39.410  30.863  1.00  0.00    -0.237 OA
ATOM    100  O   UNL A   1      45.884  38.628  29.540  1.00  0.00    -0.237 OA
ATOM    101  O   UNL A   1      44.454  40.445  28.684  1.00  0.00    -0.744 OA
ENDBRANCH  94  98
ENDBRANCH  68  91
ENDBRANCH  42  43
ENDBRANCH  34  37
ENDBRANCH  32  33
ENDBRANCH  31  32
ENDBRANCH  30  31
ENDBRANCH   1  30
TORSDOF 20
ENDMDL
