MODEL 1
REMARK VINA RESULT:     -12.1      0.000      0.000
REMARK SMILES CCc1cc(S(F)(F)(F)(F)F)cc2c1O[C@@H](C(F)(F)F)C(C(=O)NCCCCCCNC(=O)c1ccc(-c3c4nc(c(-c5cc(S(=O)(=O)[O-])ccc5F)c5ccc([nH]5)c(-c5cc(S(=O)(=O)[O-])ccc5F)c5nc(c(-c6cc(S(=O)(=O)[O-])ccc6F)c6ccc3[nH]6)C=C5)C=C4)cc1)=C2
REMARK SMILES IDX 28 1 27 2 26 3 25 4 24 5 22 6 23 7 21 9 3 10 4 11 14 12 5 13
REMARK SMILES IDX 13 14 15 15 12 16 97 17 16 18 2 19 1 20 6 21 7 22 8 23 9 24
REMARK SMILES IDX 10 25 11 26 17 27 18 28 19 29 20 30 29 31 30 32 31 33 32 34
REMARK SMILES IDX 33 36 34 37 35 38 96 39 36 40 95 41 37 42 38 43 39 44 89 45
REMARK SMILES IDX 40 46 94 47 88 48 90 49 41 50 93 51 87 52 86 53 42 55 74 56
REMARK SMILES IDX 54 57 73 58 55 59 58 60 72 61 91 62 56 63 57 64 71 66 92 67
REMARK SMILES IDX 59 68 43 69 44 70 52 71 45 72 51 73 53 74 50 75 46 76 47 77
REMARK SMILES IDX 48 78 49 79 75 80 76 81 84 82 77 83 83 84 85 85 82 86 78 87
REMARK SMILES IDX 79 88 80 89 81 90 60 91 61 92 69 93 62 94 68 95 70 96 67 97
REMARK SMILES IDX 63 98 64 99 65 100 66 101
REMARK H PARENT 24 8 31 35 90 54 58 65
REMARK Flexibility Score: inf
ROOT
ATOM      1  C   UNL A   1      36.117  23.376  23.708  1.00  0.00     0.002 C 
ENDROOT
BRANCH   1   2
ATOM      2  C   UNL A   1      34.837  23.873  23.057  1.00  0.00     0.002 C 
BRANCH   2   3
ATOM      3  C   UNL A   1      33.940  22.689  22.734  1.00  0.00     0.021 C 
BRANCH   3   4
ATOM      4  C   UNL A   1      32.505  23.169  22.579  1.00  0.00     0.116 C 
BRANCH   4   5
ATOM      5  N   UNL A   1      31.672  22.566  23.628  1.00  0.00    -0.352 N 
ATOM      6  C   UNL A   1      30.989  23.423  24.608  1.00  0.00     0.251 C 
ATOM      7  O   UNL A   1      30.268  22.902  25.516  1.00  0.00    -0.270 OA
ATOM      8  H   UNL A   1      31.570  21.588  23.675  1.00  0.00     0.163 HD
BRANCH   6   9
ATOM      9  C   UNL A   1      31.146  24.933  24.536  1.00  0.00     0.067 C 
ATOM     10  C   UNL A   1      31.432  29.091  24.826  1.00  0.00    -0.004 A 
ATOM     11  C   UNL A   1      30.558  29.894  24.116  1.00  0.00     0.032 A 
ATOM     12  C   UNL A   1      31.281  27.727  24.754  1.00  0.00     0.131 A 
ATOM     13  C   UNL A   1      29.556  29.347  23.359  1.00  0.00     0.108 A 
ATOM     14  C   UNL A   1      30.294  27.139  23.985  1.00  0.00     0.019 A 
ATOM     15  O   UNL A   1      32.084  26.947  25.552  1.00  0.00    -0.475 OA
ATOM     16  C   UNL A   1      29.429  27.975  23.288  1.00  0.00     0.036 A 
ATOM     17  C   UNL A   1      30.192  25.690  24.005  1.00  0.00     0.025 C 
ATOM     18  C   UNL A   1      32.401  25.611  25.069  1.00  0.00     0.314 C 
BRANCH  10  19
ATOM     19  C   UNL A   1      32.614  29.757  25.510  1.00  0.00     0.036 C 
ATOM     20  C   UNL A   1      32.140  30.458  26.773  1.00  0.00     0.009 C 
ENDBRANCH  10  19
BRANCH  13  21
ATOM     21  S   UNL A   1      28.407  30.416  22.457  1.00  0.00     0.310 S 
ATOM     22  F   UNL A   1      27.472  29.197  22.066  1.00  0.00    -0.094 F 
ATOM     23  F   UNL A   1      29.226  30.120  21.144  1.00  0.00    -0.094 F 
ATOM     24  F   UNL A   1      27.430  31.338  21.673  1.00  0.00    -0.094 F 
ATOM     25  F   UNL A   1      27.519  30.588  23.752  1.00  0.00    -0.094 F 
ATOM     26  F   UNL A   1      29.323  29.393  23.240  1.00  0.00    -0.094 F 
ENDBRANCH  13  21
BRANCH  18  27
ATOM     27  C   UNL A   1      32.959  24.788  26.218  1.00  0.00     0.429 C 
ATOM     28  F   UNL A   1      33.218  23.555  25.795  1.00  0.00    -0.167 F 
ATOM     29  F   UNL A   1      34.080  25.350  26.663  1.00  0.00    -0.167 F 
ATOM     30  F   UNL A   1      32.067  24.740  27.204  1.00  0.00    -0.167 F 
ENDBRANCH  18  27
ENDBRANCH   6   9
ENDBRANCH   4   5
ENDBRANCH   3   4
ENDBRANCH   2   3
ENDBRANCH   1   2
BRANCH   1  31
ATOM     31  C   UNL A   1      35.821  22.122  24.516  1.00  0.00     0.021 C 
BRANCH  31  32
ATOM     32  C   UNL A   1      36.747  22.065  25.720  1.00  0.00     0.116 C 
BRANCH  32  33
ATOM     33  N   UNL A   1      37.583  20.858  25.637  1.00  0.00    -0.352 N 
ATOM     34  C   UNL A   1      39.001  20.919  26.018  1.00  0.00     0.251 C 
ATOM     35  H   UNL A   1      37.192  20.009  25.327  1.00  0.00     0.163 HD
ATOM     36  O   UNL A   1      39.725  19.877  25.946  1.00  0.00    -0.269 OA
BRANCH  34  37
ATOM     37  C   UNL A   1      39.604  22.230  26.496  1.00  0.00     0.039 A 
ATOM     38  C   UNL A   1      39.211  23.416  25.895  1.00  0.00     0.014 A 
ATOM     39  C   UNL A   1      40.494  22.219  27.481  1.00  0.00     0.014 A 
ATOM     40  C   UNL A   1      40.037  24.520  26.214  1.00  0.00     0.010 A 
ATOM     41  C   UNL A   1      41.166  23.366  27.831  1.00  0.00     0.010 A 
ATOM     42  C   UNL A   1      40.871  24.562  27.237  1.00  0.00    -0.014 A 
BRANCH  42  43
ATOM     43  C   UNL A   1      41.470  25.869  27.730  1.00  0.00     0.031 A 
ATOM     44  C   UNL A   1      42.798  26.121  27.380  1.00  0.00     0.074 A 
ATOM     45  C   UNL A   1      40.684  26.740  28.464  1.00  0.00     0.049 A 
ATOM     46  N   UNL A   1      43.515  27.214  27.647  1.00  0.00    -0.248 NA
ATOM     47  C   UNL A   1      43.646  25.183  26.630  1.00  0.00     0.031 C 
ATOM     48  C   UNL A   1      39.341  26.496  28.813  1.00  0.00     0.029 A 
ATOM     49  N   UNL A   1      41.037  27.966  28.981  1.00  0.00    -0.354 N 
ATOM     50  C   UNL A   1      44.743  27.096  27.133  1.00  0.00     0.074 A 
ATOM     51  C   UNL A   1      44.845  25.785  26.478  1.00  0.00     0.031 C 
ATOM     52  C   UNL A   1      38.896  27.555  29.539  1.00  0.00     0.029 A 
ATOM     53  C   UNL A   1      39.952  28.478  29.656  1.00  0.00     0.049 A 
ATOM     54  H   UNL A   1      41.915  28.402  28.884  1.00  0.00     0.167 HD
ATOM     55  C   UNL A   1      45.777  28.030  27.186  1.00  0.00     0.034 A 
ATOM     56  C   UNL A   1      39.868  29.680  30.342  1.00  0.00     0.034 A 
ATOM     57  C   UNL A   1      45.680  29.251  27.835  1.00  0.00     0.049 A 
ATOM     58  C   UNL A   1      40.923  30.589  30.444  1.00  0.00     0.074 A 
ATOM     59  C   UNL A   1      46.711  30.208  27.890  1.00  0.00     0.029 A 
ATOM     60  N   UNL A   1      44.601  29.752  28.531  1.00  0.00    -0.354 N 
ATOM     61  N   UNL A   1      42.135  30.489  29.897  1.00  0.00    -0.248 NA
ATOM     62  C   UNL A   1      40.856  31.849  31.195  1.00  0.00     0.031 C 
ATOM     63  C   UNL A   1      46.265  31.267  28.618  1.00  0.00     0.029 A 
ATOM     64  C   UNL A   1      44.947  30.988  29.028  1.00  0.00     0.049 A 
ATOM     65  H   UNL A   1      43.733  29.303  28.651  1.00  0.00     0.167 HD
ATOM     66  C   UNL A   1      42.866  31.563  30.200  1.00  0.00     0.074 A 
ATOM     67  C   UNL A   1      42.056  32.452  31.044  1.00  0.00     0.031 C 
ATOM     68  C   UNL A   1      44.175  31.842  29.801  1.00  0.00     0.034 A 
BRANCH  55  69
ATOM     69  C   UNL A   1      47.086  27.691  26.490  1.00  0.00     0.023 A 
ATOM     70  C   UNL A   1      47.286  28.101  25.182  1.00  0.00     0.031 A 
ATOM     71  C   UNL A   1      48.015  27.008  27.148  1.00  0.00     0.131 A 
ATOM     72  C   UNL A   1      48.395  27.486  24.554  1.00  0.00     0.055 A 
ATOM     73  C   UNL A   1      49.140  26.554  26.502  1.00  0.00     0.041 A 
ATOM     74  F   UNL A   1      47.856  26.760  28.445  1.00  0.00    -0.206 F 
ATOM     75  C   UNL A   1      49.374  26.872  25.193  1.00  0.00     0.022 A 
BRANCH  72  76
ATOM     76  S   UNL A   1      48.478  27.549  22.746  1.00  0.00     0.124 S 
ATOM     77  O   UNL A   1      47.272  28.323  22.207  1.00  0.00    -0.237 OA
ATOM     78  O   UNL A   1      49.768  28.252  22.318  1.00  0.00    -0.237 OA
ATOM     79  O   UNL A   1      48.461  25.957  22.120  1.00  0.00    -0.744 OA
ENDBRANCH  72  76
ENDBRANCH  55  69
BRANCH  56  80
ATOM     80  C   UNL A   1      38.554  30.026  31.023  1.00  0.00     0.023 A 
ATOM     81  C   UNL A   1      37.545  30.627  30.288  1.00  0.00     0.031 A 
ATOM     82  C   UNL A   1      38.394  29.747  32.311  1.00  0.00     0.131 A 
ATOM     83  C   UNL A   1      36.501  31.162  31.077  1.00  0.00     0.055 A 
ATOM     84  C   UNL A   1      37.283  30.187  32.990  1.00  0.00     0.041 A 
ATOM     85  F   UNL A   1      39.319  29.037  32.952  1.00  0.00    -0.206 F 
ATOM     86  C   UNL A   1      36.274  30.840  32.337  1.00  0.00     0.022 A 
BRANCH  83  87
ATOM     87  S   UNL A   1      35.400  32.375  30.308  1.00  0.00     0.124 S 
ATOM     88  O   UNL A   1      34.279  32.739  31.286  1.00  0.00    -0.237 OA
ATOM     89  O   UNL A   1      36.195  33.634  29.953  1.00  0.00    -0.237 OA
ATOM     90  O   UNL A   1      34.723  31.710  28.887  1.00  0.00    -0.744 OA
ENDBRANCH  83  87
ENDBRANCH  56  80
BRANCH  68  91
ATOM     91  C   UNL A   1      44.789  33.161  30.240  1.00  0.00     0.023 A 
ATOM     92  C   UNL A   1      44.593  34.285  29.453  1.00  0.00     0.031 A 
ATOM     93  C   UNL A   1      45.484  33.223  31.369  1.00  0.00     0.131 A 
ATOM     94  C   UNL A   1      45.422  35.379  29.801  1.00  0.00     0.055 A 
ATOM     95  C   UNL A   1      46.159  34.369  31.714  1.00  0.00     0.041 A 
ATOM     96  F   UNL A   1      45.527  32.166  32.175  1.00  0.00    -0.206 F 
ATOM     97  C   UNL A   1      46.059  35.500  30.952  1.00  0.00     0.022 A 
BRANCH  94  98
ATOM     98  S   UNL A   1      45.624  36.701  28.583  1.00  0.00     0.124 S 
ATOM     99  O   UNL A   1      46.490  36.202  27.425  1.00  0.00    -0.237 OA
ATOM    100  O   UNL A   1      44.251  37.119  28.050  1.00  0.00    -0.237 OA
ATOM    101  O   UNL A   1      46.380  38.046  29.321  1.00  0.00    -0.744 OA
ENDBRANCH  94  98
ENDBRANCH  68  91
ENDBRANCH  42  43
ENDBRANCH  34  37
ENDBRANCH  32  33
ENDBRANCH  31  32
ENDBRANCH   1  31
TORSDOF 19
ENDMDL
MODEL 2
REMARK VINA RESULT:     -11.8      2.844      4.456
REMARK SMILES CCc1cc(S(F)(F)(F)(F)F)cc2c1O[C@@H](C(F)(F)F)C(C(=O)NCCCCCCNC(=O)c1ccc(-c3c4nc(c(-c5cc(S(=O)(=O)[O-])ccc5F)c5ccc([nH]5)c(-c5cc(S(=O)(=O)[O-])ccc5F)c5nc(c(-c6cc(S(=O)(=O)[O-])ccc6F)c6ccc3[nH]6)C=C5)C=C4)cc1)=C2
REMARK SMILES IDX 28 1 27 2 26 3 25 4 24 5 22 6 23 7 21 9 3 10 4 11 14 12 5 13
REMARK SMILES IDX 13 14 15 15 12 16 97 17 16 18 2 19 1 20 6 21 7 22 8 23 9 24
REMARK SMILES IDX 10 25 11 26 17 27 18 28 19 29 20 30 29 31 30 32 31 33 32 34
REMARK SMILES IDX 33 36 34 37 35 38 96 39 36 40 95 41 37 42 38 43 39 44 89 45
REMARK SMILES IDX 40 46 94 47 88 48 90 49 41 50 93 51 87 52 86 53 42 55 74 56
REMARK SMILES IDX 54 57 73 58 55 59 58 60 72 61 91 62 56 63 57 64 71 66 92 67
REMARK SMILES IDX 59 68 43 69 44 70 52 71 45 72 51 73 53 74 50 75 46 76 47 77
REMARK SMILES IDX 48 78 49 79 75 80 76 81 84 82 77 83 83 84 85 85 82 86 78 87
REMARK SMILES IDX 79 88 80 89 81 90 60 91 61 92 69 93 62 94 68 95 70 96 67 97
REMARK SMILES IDX 63 98 64 99 65 100 66 101
REMARK H PARENT 24 8 31 35 90 54 58 65
REMARK Flexibility Score: inf
ROOT
ATOM      1  C   UNL A   1      41.011  21.728  26.051  1.00  0.00     0.002 C 
ENDROOT
BRANCH   1   2
ATOM      2  C   UNL A   1      40.103  22.248  27.153  1.00  0.00     0.002 C 
BRANCH   2   3
ATOM      3  C   UNL A   1      39.284  23.415  26.627  1.00  0.00     0.021 C 
BRANCH   3   4
ATOM      4  C   UNL A   1      37.914  22.917  26.191  1.00  0.00     0.116 C 
BRANCH   4   5
ATOM      5  N   UNL A   1      37.899  22.742  24.732  1.00  0.00    -0.352 N 
ATOM      6  C   UNL A   1      36.668  23.000  23.973  1.00  0.00     0.251 C 
ATOM      7  O   UNL A   1      36.654  22.849  22.711  1.00  0.00    -0.270 OA
ATOM      8  H   UNL A   1      38.715  22.452  24.263  1.00  0.00     0.163 HD
BRANCH   6   9
ATOM      9  C   UNL A   1      35.409  23.448  24.698  1.00  0.00     0.067 C 
ATOM     10  C   UNL A   1      31.694  24.529  26.274  1.00  0.00    -0.004 A 
ATOM     11  C   UNL A   1      31.397  25.862  26.490  1.00  0.00     0.032 A 
ATOM     12  C   UNL A   1      32.902  24.205  25.705  1.00  0.00     0.131 A 
ATOM     13  C   UNL A   1      32.284  26.847  26.140  1.00  0.00     0.108 A 
ATOM     14  C   UNL A   1      33.829  25.170  25.357  1.00  0.00     0.019 A 
ATOM     15  O   UNL A   1      33.135  22.887  25.394  1.00  0.00    -0.475 OA
ATOM     16  C   UNL A   1      33.498  26.501  25.583  1.00  0.00     0.036 A 
ATOM     17  C   UNL A   1      35.062  24.729  24.726  1.00  0.00     0.025 C 
ATOM     18  C   UNL A   1      34.519  22.437  25.409  1.00  0.00     0.314 C 
BRANCH  10  19
ATOM     19  C   UNL A   1      30.738  23.488  26.834  1.00  0.00     0.036 C 
ATOM     20  C   UNL A   1      29.346  24.087  26.946  1.00  0.00     0.009 C 
ENDBRANCH  10  19
BRANCH  13  21
ATOM     21  S   UNL A   1      31.866  28.587  26.409  1.00  0.00     0.310 S 
ATOM     22  F   UNL A   1      33.219  29.085  25.748  1.00  0.00    -0.094 F 
ATOM     23  F   UNL A   1      32.641  28.520  27.779  1.00  0.00    -0.094 F 
ATOM     24  F   UNL A   1      31.508  30.081  26.653  1.00  0.00    -0.094 F 
ATOM     25  F   UNL A   1      31.217  28.674  24.971  1.00  0.00    -0.094 F 
ATOM     26  F   UNL A   1      32.321  27.105  26.097  1.00  0.00    -0.094 F 
ENDBRANCH  13  21
BRANCH  18  27
ATOM     27  C   UNL A   1      34.614  21.101  24.690  1.00  0.00     0.429 C 
ATOM     28  F   UNL A   1      33.810  20.222  25.279  1.00  0.00    -0.167 F 
ATOM     29  F   UNL A   1      34.249  21.254  23.420  1.00  0.00    -0.167 F 
ATOM     30  F   UNL A   1      35.867  20.658  24.741  1.00  0.00    -0.167 F 
ENDBRANCH  18  27
ENDBRANCH   6   9
ENDBRANCH   4   5
ENDBRANCH   3   4
ENDBRANCH   2   3
ENDBRANCH   1   2
BRANCH   1  31
ATOM     31  C   UNL A   1      40.991  20.208  26.053  1.00  0.00     0.021 C 
BRANCH  31  32
ATOM     32  C   UNL A   1      42.350  19.684  26.488  1.00  0.00     0.116 C 
BRANCH  32  33
ATOM     33  N   UNL A   1      43.065  19.149  25.320  1.00  0.00    -0.352 N 
ATOM     34  C   UNL A   1      44.049  19.983  24.615  1.00  0.00     0.251 C 
ATOM     35  H   UNL A   1      42.885  18.232  25.010  1.00  0.00     0.163 HD
ATOM     36  O   UNL A   1      44.667  19.521  23.605  1.00  0.00    -0.269 OA
BRANCH  34  37
ATOM     37  C   UNL A   1      44.326  21.399  25.093  1.00  0.00     0.039 A 
ATOM     38  C   UNL A   1      44.896  21.594  26.341  1.00  0.00     0.014 A 
ATOM     39  C   UNL A   1      44.021  22.425  24.307  1.00  0.00     0.014 A 
ATOM     40  C   UNL A   1      44.839  22.934  26.793  1.00  0.00     0.010 A 
ATOM     41  C   UNL A   1      44.119  23.715  24.770  1.00  0.00     0.010 A 
ATOM     42  C   UNL A   1      44.617  23.979  26.016  1.00  0.00    -0.014 A 
BRANCH  42  43
ATOM     43  C   UNL A   1      44.901  25.398  26.480  1.00  0.00     0.031 A 
ATOM     44  C   UNL A   1      46.220  25.840  26.372  1.00  0.00     0.074 A 
ATOM     45  C   UNL A   1      43.859  26.177  26.955  1.00  0.00     0.049 A 
ATOM     46  N   UNL A   1      46.698  27.052  26.660  1.00  0.00    -0.248 NA
ATOM     47  C   UNL A   1      47.334  25.004  25.900  1.00  0.00     0.031 C 
ATOM     48  C   UNL A   1      42.524  25.740  27.059  1.00  0.00     0.029 A 
ATOM     49  N   UNL A   1      43.913  27.477  27.403  1.00  0.00    -0.354 N 
ATOM     50  C   UNL A   1      48.009  27.103  26.410  1.00  0.00     0.074 A 
ATOM     51  C   UNL A   1      48.437  25.785  25.924  1.00  0.00     0.031 C 
ATOM     52  C   UNL A   1      41.787  26.758  27.574  1.00  0.00     0.029 A 
ATOM     53  C   UNL A   1      42.648  27.849  27.798  1.00  0.00     0.049 A 
ATOM     54  H   UNL A   1      44.718  28.044  27.435  1.00  0.00     0.167 HD
ATOM     55  C   UNL A   1      48.861  28.196  26.567  1.00  0.00     0.034 A 
ATOM     56  C   UNL A   1      42.247  29.065  28.329  1.00  0.00     0.034 A 
ATOM     57  C   UNL A   1      48.451  29.427  27.057  1.00  0.00     0.049 A 
ATOM     58  C   UNL A   1      43.112  30.141  28.541  1.00  0.00     0.074 A 
ATOM     59  C   UNL A   1      49.296  30.542  27.214  1.00  0.00     0.029 A 
ATOM     60  N   UNL A   1      47.190  29.790  27.475  1.00  0.00    -0.354 N 
ATOM     61  N   UNL A   1      44.413  30.204  28.253  1.00  0.00    -0.248 NA
ATOM     62  C   UNL A   1      42.705  31.422  29.132  1.00  0.00     0.031 C 
ATOM     63  C   UNL A   1      48.558  31.561  27.729  1.00  0.00     0.029 A 
ATOM     64  C   UNL A   1      47.239  31.099  27.902  1.00  0.00     0.049 A 
ATOM     65  H   UNL A   1      46.392  29.214  27.470  1.00  0.00     0.167 HD
ATOM     66  C   UNL A   1      44.898  31.403  28.582  1.00  0.00     0.074 A 
ATOM     67  C   UNL A   1      43.808  32.203  29.157  1.00  0.00     0.031 C 
ATOM     68  C   UNL A   1      46.206  31.865  28.419  1.00  0.00     0.034 A 
BRANCH  55  69
ATOM     69  C   UNL A   1      50.321  28.030  26.177  1.00  0.00     0.023 A 
ATOM     70  C   UNL A   1      50.699  28.226  24.860  1.00  0.00     0.031 A 
ATOM     71  C   UNL A   1      51.209  27.699  27.107  1.00  0.00     0.131 A 
ATOM     72  C   UNL A   1      52.004  27.765  24.564  1.00  0.00     0.055 A 
ATOM     73  C   UNL A   1      52.503  27.391  26.762  1.00  0.00     0.041 A 
ATOM     74  F   UNL A   1      50.843  27.664  28.386  1.00  0.00    -0.206 F 
ATOM     75  C   UNL A   1      52.930  27.507  25.468  1.00  0.00     0.022 A 
BRANCH  72  76
ATOM     76  S   UNL A   1      52.431  27.511  22.823  1.00  0.00     0.124 S 
ATOM     77  O   UNL A   1      51.149  27.446  21.988  1.00  0.00    -0.237 OA
ATOM     78  O   UNL A   1      53.299  28.673  22.336  1.00  0.00    -0.237 OA
ATOM     79  O   UNL A   1      53.295  26.044  22.656  1.00  0.00    -0.744 OA
ENDBRANCH  72  76
ENDBRANCH  55  69
BRANCH  56  80
ATOM     80  C   UNL A   1      40.783  29.237  28.702  1.00  0.00     0.023 A 
ATOM     81  C   UNL A   1      40.426  29.297  30.039  1.00  0.00     0.031 A 
ATOM     82  C   UNL A   1      39.871  29.325  27.741  1.00  0.00     0.131 A 
ATOM     83  C   UNL A   1      39.037  29.162  30.268  1.00  0.00     0.055 A 
ATOM     84  C   UNL A   1      38.531  29.324  28.046  1.00  0.00     0.041 A 
ATOM     85  F   UNL A   1      40.259  29.414  26.471  1.00  0.00    -0.206 F 
ATOM     86  C   UNL A   1      38.106  29.324  29.346  1.00  0.00     0.022 A 
BRANCH  83  87
ATOM     87  S   UNL A   1      38.496  28.736  31.942  1.00  0.00     0.124 S 
ATOM     88  O   UNL A   1      38.615  27.223  32.147  1.00  0.00    -0.237 OA
ATOM     89  O   UNL A   1      39.377  29.459  32.962  1.00  0.00    -0.237 OA
ATOM     90  O   UNL A   1      36.869  29.213  32.155  1.00  0.00    -0.744 OA
ENDBRANCH  83  87
ENDBRANCH  56  80
BRANCH  68  91
ATOM     91  C   UNL A   1      46.514  33.295  28.832  1.00  0.00     0.023 A 
ATOM     92  C   UNL A   1      46.326  34.313  27.910  1.00  0.00     0.031 A 
ATOM     93  C   UNL A   1      46.938  33.549  30.064  1.00  0.00     0.131 A 
ATOM     94  C   UNL A   1      46.894  35.549  28.300  1.00  0.00     0.055 A 
ATOM     95  C   UNL A   1      47.351  34.813  30.415  1.00  0.00     0.041 A 
ATOM     96  F   UNL A   1      46.964  32.574  30.967  1.00  0.00    -0.206 F 
ATOM     97  C   UNL A   1      47.250  35.855  29.535  1.00  0.00     0.022 A 
BRANCH  94  98
ATOM     98  S   UNL A   1      47.153  36.798  27.016  1.00  0.00     0.124 S 
ATOM     99  O   UNL A   1      48.349  37.676  27.390  1.00  0.00    -0.237 OA
ATOM    100  O   UNL A   1      47.426  36.105  25.679  1.00  0.00    -0.237 OA
ATOM    101  O   UNL A   1      45.753  37.771  26.877  1.00  0.00    -0.744 OA
ENDBRANCH  94  98
ENDBRANCH  68  91
ENDBRANCH  42  43
ENDBRANCH  34  37
ENDBRANCH  32  33
ENDBRANCH  31  32
ENDBRANCH   1  31
TORSDOF 19
ENDMDL
MODEL 3
REMARK VINA RESULT:     -11.7      2.079      7.652
REMARK SMILES CCc1cc(S(F)(F)(F)(F)F)cc2c1O[C@@H](C(F)(F)F)C(C(=O)NCCCCCCNC(=O)c1ccc(-c3c4nc(c(-c5cc(S(=O)(=O)[O-])ccc5F)c5ccc([nH]5)c(-c5cc(S(=O)(=O)[O-])ccc5F)c5nc(c(-c6cc(S(=O)(=O)[O-])ccc6F)c6ccc3[nH]6)C=C5)C=C4)cc1)=C2
REMARK SMILES IDX 28 1 27 2 26 3 25 4 24 5 22 6 23 7 21 9 3 10 4 11 14 12 5 13
REMARK SMILES IDX 13 14 15 15 12 16 97 17 16 18 2 19 1 20 6 21 7 22 8 23 9 24
REMARK SMILES IDX 10 25 11 26 17 27 18 28 19 29 20 30 29 31 30 32 31 33 32 34
REMARK SMILES IDX 33 36 34 37 35 38 96 39 36 40 95 41 37 42 38 43 39 44 89 45
REMARK SMILES IDX 40 46 94 47 88 48 90 49 41 50 93 51 87 52 86 53 42 55 74 56
REMARK SMILES IDX 54 57 73 58 55 59 58 60 72 61 91 62 56 63 57 64 71 66 92 67
REMARK SMILES IDX 59 68 43 69 44 70 52 71 45 72 51 73 53 74 50 75 46 76 47 77
REMARK SMILES IDX 48 78 49 79 75 80 76 81 84 82 77 83 83 84 85 85 82 86 78 87
REMARK SMILES IDX 79 88 80 89 81 90 60 91 61 92 69 93 62 94 68 95 70 96 67 97
REMARK SMILES IDX 63 98 64 99 65 100 66 101
REMARK H PARENT 24 8 31 35 90 54 58 65
REMARK Flexibility Score: inf
ROOT
ATOM      1  C   UNL A   1      39.642  22.453  26.781  1.00  0.00     0.002 C 
ENDROOT
BRANCH   1   2
ATOM      2  C   UNL A   1      38.551  23.305  26.153  1.00  0.00     0.002 C 
BRANCH   2   3
ATOM      3  C   UNL A   1      37.748  22.461  25.177  1.00  0.00     0.021 C 
BRANCH   3   4
ATOM      4  C   UNL A   1      36.270  22.789  25.321  1.00  0.00     0.116 C 
BRANCH   4   5
ATOM      5  N   UNL A   1      35.630  21.791  26.189  1.00  0.00    -0.352 N 
ATOM      6  C   UNL A   1      34.206  21.919  26.532  1.00  0.00     0.251 C 
ATOM      7  O   UNL A   1      33.652  21.056  27.282  1.00  0.00    -0.270 OA
ATOM      8  H   UNL A   1      36.154  21.035  26.540  1.00  0.00     0.163 HD
BRANCH   6   9
ATOM      9  C   UNL A   1      33.396  23.085  25.989  1.00  0.00     0.067 C 
ATOM     10  C   UNL A   1      31.503  26.298  24.107  1.00  0.00    -0.004 A 
ATOM     11  C   UNL A   1      31.515  27.549  24.698  1.00  0.00     0.032 A 
ATOM     12  C   UNL A   1      32.179  25.272  24.721  1.00  0.00     0.131 A 
ATOM     13  C   UNL A   1      32.189  27.767  25.870  1.00  0.00     0.108 A 
ATOM     14  C   UNL A   1      32.855  25.450  25.914  1.00  0.00     0.019 A 
ATOM     15  O   UNL A   1      32.253  24.066  24.065  1.00  0.00    -0.475 OA
ATOM     16  C   UNL A   1      32.850  26.720  26.480  1.00  0.00     0.036 A 
ATOM     17  C   UNL A   1      33.571  24.312  26.465  1.00  0.00     0.025 C 
ATOM     18  C   UNL A   1      32.366  22.871  24.887  1.00  0.00     0.314 C 
BRANCH  10  19
ATOM     19  C   UNL A   1      30.603  26.091  22.899  1.00  0.00     0.036 C 
ATOM     20  C   UNL A   1      31.401  26.322  21.627  1.00  0.00     0.009 C 
ENDBRANCH  10  19
BRANCH  13  21
ATOM     21  S   UNL A   1      32.212  29.417  26.615  1.00  0.00     0.310 S 
ATOM     22  F   UNL A   1      31.056  29.938  25.662  1.00  0.00    -0.094 F 
ATOM     23  F   UNL A   1      33.235  29.861  25.503  1.00  0.00    -0.094 F 
ATOM     24  F   UNL A   1      32.244  30.836  27.251  1.00  0.00    -0.094 F 
ATOM     25  F   UNL A   1      31.081  28.994  27.635  1.00  0.00    -0.094 F 
ATOM     26  F   UNL A   1      32.083  28.006  25.912  1.00  0.00    -0.094 F 
ENDBRANCH  13  21
BRANCH  18  27
ATOM     27  C   UNL A   1      32.809  21.708  24.014  1.00  0.00     0.429 C 
ATOM     28  F   UNL A   1      34.077  21.881  23.654  1.00  0.00    -0.167 F 
ATOM     29  F   UNL A   1      32.693  20.572  24.696  1.00  0.00    -0.167 F 
ATOM     30  F   UNL A   1      32.044  21.653  22.928  1.00  0.00    -0.167 F 
ENDBRANCH  18  27
ENDBRANCH   6   9
ENDBRANCH   4   5
ENDBRANCH   3   4
ENDBRANCH   2   3
ENDBRANCH   1   2
BRANCH   1  31
ATOM     31  C   UNL A   1      39.655  21.081  26.126  1.00  0.00     0.021 C 
BRANCH  31  32
ATOM     32  C   UNL A   1      40.450  20.115  26.987  1.00  0.00     0.116 C 
BRANCH  32  33
ATOM     33  N   UNL A   1      41.439  19.416  26.154  1.00  0.00    -0.352 N 
ATOM     34  C   UNL A   1      42.673  20.102  25.746  1.00  0.00     0.251 C 
ATOM     35  H   UNL A   1      41.274  18.488  25.868  1.00  0.00     0.163 HD
ATOM     36  O   UNL A   1      43.528  19.499  25.025  1.00  0.00    -0.269 OA
BRANCH  34  37
ATOM     37  C   UNL A   1      42.926  21.535  26.186  1.00  0.00     0.039 A 
ATOM     38  C   UNL A   1      43.189  21.799  27.520  1.00  0.00     0.014 A 
ATOM     39  C   UNL A   1      42.893  22.510  25.285  1.00  0.00     0.014 A 
ATOM     40  C   UNL A   1      43.120  23.171  27.858  1.00  0.00     0.010 A 
ATOM     41  C   UNL A   1      42.968  23.826  25.674  1.00  0.00     0.010 A 
ATOM     42  C   UNL A   1      43.167  24.161  26.985  1.00  0.00    -0.014 A 
BRANCH  42  43
ATOM     43  C   UNL A   1      43.431  25.596  27.413  1.00  0.00     0.031 A 
ATOM     44  C   UNL A   1      42.338  26.316  27.899  1.00  0.00     0.074 A 
ATOM     45  C   UNL A   1      44.716  26.102  27.327  1.00  0.00     0.049 A 
ATOM     46  N   UNL A   1      42.334  27.559  28.381  1.00  0.00    -0.248 NA
ATOM     47  C   UNL A   1      40.966  25.791  27.959  1.00  0.00     0.031 C 
ATOM     48  C   UNL A   1      45.825  25.378  26.847  1.00  0.00     0.029 A 
ATOM     49  N   UNL A   1      45.154  27.360  27.677  1.00  0.00    -0.354 N 
ATOM     50  C   UNL A   1      41.101  27.900  28.768  1.00  0.00     0.074 A 
ATOM     51  C   UNL A   1      40.203  26.769  28.496  1.00  0.00     0.031 C 
ATOM     52  C   UNL A   1      46.912  26.193  26.895  1.00  0.00     0.029 A 
ATOM     53  C   UNL A   1      46.501  27.437  27.407  1.00  0.00     0.049 A 
ATOM     54  H   UNL A   1      44.598  28.080  28.055  1.00  0.00     0.167 HD
ATOM     55  C   UNL A   1      40.693  29.106  29.337  1.00  0.00     0.034 A 
ATOM     56  C   UNL A   1      47.343  28.524  27.590  1.00  0.00     0.034 A 
ATOM     57  C   UNL A   1      41.544  30.178  29.559  1.00  0.00     0.049 A 
ATOM     58  C   UNL A   1      46.922  29.752  28.105  1.00  0.00     0.074 A 
ATOM     59  C   UNL A   1      41.150  31.399  30.140  1.00  0.00     0.029 A 
ATOM     60  N   UNL A   1      42.887  30.264  29.267  1.00  0.00    -0.354 N 
ATOM     61  N   UNL A   1      45.700  30.078  28.529  1.00  0.00    -0.248 NA
ATOM     62  C   UNL A   1      47.797  30.920  28.272  1.00  0.00     0.031 C 
ATOM     63  C   UNL A   1      42.238  32.213  30.188  1.00  0.00     0.029 A 
ATOM     64  C   UNL A   1      43.329  31.513  29.638  1.00  0.00     0.049 A 
ATOM     65  H   UNL A   1      43.436  29.553  28.863  1.00  0.00     0.167 HD
ATOM     66  C   UNL A   1      45.687  31.336  28.971  1.00  0.00     0.074 A 
ATOM     67  C   UNL A   1      47.035  31.899  28.808  1.00  0.00     0.031 C 
ATOM     68  C   UNL A   1      44.607  32.038  29.511  1.00  0.00     0.034 A 
BRANCH  55  69
ATOM     69  C   UNL A   1      39.234  29.253  29.737  1.00  0.00     0.023 A 
ATOM     70  C   UNL A   1      38.366  29.937  28.901  1.00  0.00     0.031 A 
ATOM     71  C   UNL A   1      38.816  28.724  30.880  1.00  0.00     0.131 A 
ATOM     72  C   UNL A   1      37.127  30.259  29.503  1.00  0.00     0.055 A 
ATOM     73  C   UNL A   1      37.545  28.969  31.342  1.00  0.00     0.041 A 
ATOM     74  F   UNL A   1      39.634  27.947  31.585  1.00  0.00    -0.206 F 
ATOM     75  C   UNL A   1      36.653  29.687  30.594  1.00  0.00     0.022 A 
BRANCH  72  76
ATOM     76  S   UNL A   1      36.120  31.544  28.720  1.00  0.00     0.124 S 
ATOM     77  O   UNL A   1      34.990  31.954  29.668  1.00  0.00    -0.237 OA
ATOM     78  O   UNL A   1      36.995  32.761  28.413  1.00  0.00    -0.237 OA
ATOM     79  O   UNL A   1      35.454  30.938  27.266  1.00  0.00    -0.744 OA
ENDBRANCH  72  76
ENDBRANCH  55  69
BRANCH  56  80
ATOM     80  C   UNL A   1      48.805  28.370  27.206  1.00  0.00     0.023 A 
ATOM     81  C   UNL A   1      49.181  28.531  25.882  1.00  0.00     0.031 A 
ATOM     82  C   UNL A   1      49.699  28.083  28.144  1.00  0.00     0.131 A 
ATOM     83  C   UNL A   1      50.492  28.082  25.599  1.00  0.00     0.055 A 
ATOM     84  C   UNL A   1      50.998  27.786  27.807  1.00  0.00     0.041 A 
ATOM     85  F   UNL A   1      49.334  28.083  29.424  1.00  0.00    -0.206 F 
ATOM     86  C   UNL A   1      51.423  27.867  26.510  1.00  0.00     0.022 A 
BRANCH  83  87
ATOM     87  S   UNL A   1      50.923  27.780  23.867  1.00  0.00     0.124 S 
ATOM     88  O   UNL A   1      49.803  26.982  23.194  1.00  0.00    -0.237 OA
ATOM     89  O   UNL A   1      51.101  29.118  23.145  1.00  0.00    -0.237 OA
ATOM     90  O   UNL A   1      52.382  26.893  23.789  1.00  0.00    -0.744 OA
ENDBRANCH  83  87
ENDBRANCH  56  80
BRANCH  68  91
ATOM     91  C   UNL A   1      44.847  33.460  29.990  1.00  0.00     0.023 A 
ATOM     92  C   UNL A   1      44.599  34.510  29.120  1.00  0.00     0.031 A 
ATOM     93  C   UNL A   1      45.269  33.676  31.230  1.00  0.00     0.131 A 
ATOM     94  C   UNL A   1      45.108  35.753  29.565  1.00  0.00     0.055 A 
ATOM     95  C   UNL A   1      45.620  34.941  31.639  1.00  0.00     0.041 A 
ATOM     96  F   UNL A   1      45.352  32.661  32.085  1.00  0.00    -0.206 F 
ATOM     97  C   UNL A   1      45.458  36.017  30.811  1.00  0.00     0.022 A 
BRANCH  94  98
ATOM     98  S   UNL A   1      45.291  37.073  28.341  1.00  0.00     0.124 S 
ATOM     99  O   UNL A   1      46.774  37.273  28.023  1.00  0.00    -0.237 OA
ATOM    100  O   UNL A   1      44.542  36.691  27.062  1.00  0.00    -0.237 OA
ATOM    101  O   UNL A   1      44.642  38.527  28.967  1.00  0.00    -0.744 OA
ENDBRANCH  94  98
ENDBRANCH  68  91
ENDBRANCH  42  43
ENDBRANCH  34  37
ENDBRANCH  32  33
ENDBRANCH  31  32
ENDBRANCH   1  31
TORSDOF 19
ENDMDL
