MODEL 1
REMARK VINA RESULT:     -11.8      0.000      0.000
REMARK SMILES O=C(NCCCCCCNC(=O)c1cc2cnc(Cl)cc2[nH]1)c1ccc(-c2c3nc(c(-c4cc(S(=O)(=O)[O-])ccc4F)c4ccc([nH]4)c(-c4cc(S(=O)(=O)[O-])ccc4F)c4nc(c(-c5cc(S(=O)(=O)[O-])ccc5F)c5ccc2[nH]5)C=C4)C=C3)cc1
REMARK SMILES IDX 5 1 4 2 3 3 1 4 2 5 23 7 24 8 85 9 25 10 84 11 26 12 27 13
REMARK SMILES IDX 28 14 78 15 29 16 83 17 77 18 79 19 30 20 82 21 76 22 75 23
REMARK SMILES IDX 31 25 63 26 43 27 62 28 44 29 47 30 61 31 80 32 45 33 46 34
REMARK SMILES IDX 60 36 81 37 48 38 32 39 33 40 41 41 34 42 40 43 42 44 39 45
REMARK SMILES IDX 35 46 36 47 37 48 38 49 64 50 65 51 73 52 66 53 72 54 74 55
REMARK SMILES IDX 71 56 67 57 68 58 69 59 70 60 49 61 50 62 58 63 51 64 57 65
REMARK SMILES IDX 59 66 56 67 52 68 53 69 54 70 55 71 6 72 7 73 8 74 9 75
REMARK SMILES IDX 10 76 11 77 12 79 13 80 14 81 22 82 15 83 21 84 16 86 20 87
REMARK SMILES IDX 17 88 18 89 19 90
REMARK H PARENT 3 6 79 24 47 35 10 78 22 85
REMARK Flexibility Score: inf
ROOT
ATOM      1  C   UNL A   1      31.428  31.077  26.138  1.00  0.00     0.021 C 
ENDROOT
BRANCH   1   2
ATOM      2  C   UNL A   1      32.453  31.738  27.039  1.00  0.00     0.116 C 
BRANCH   2   3
ATOM      3  N   UNL A   1      32.285  33.194  27.210  1.00  0.00    -0.352 N 
ATOM      4  O   UNL A   1      32.450  35.121  28.439  1.00  0.00    -0.269 OA
ATOM      5  C   UNL A   1      32.902  34.019  28.157  1.00  0.00     0.251 C 
ATOM      6  H   UNL A   1      31.665  33.636  26.586  1.00  0.00     0.163 HD
BRANCH   5   7
ATOM      7  C   UNL A   1      34.147  33.526  28.778  1.00  0.00     0.039 A 
ATOM      8  C   UNL A   1      34.245  32.690  29.893  1.00  0.00     0.014 A 
ATOM      9  C   UNL A   1      35.281  33.854  28.073  1.00  0.00     0.014 A 
ATOM     10  C   UNL A   1      35.513  32.191  30.212  1.00  0.00     0.010 A 
ATOM     11  C   UNL A   1      36.266  32.929  28.063  1.00  0.00     0.010 A 
ATOM     12  C   UNL A   1      36.541  32.347  29.269  1.00  0.00    -0.014 A 
BRANCH  12  13
ATOM     13  C   UNL A   1      37.927  31.942  29.434  1.00  0.00     0.031 A 
ATOM     14  C   UNL A   1      38.201  30.556  29.018  1.00  0.00     0.074 A 
ATOM     15  C   UNL A   1      38.923  32.815  29.734  1.00  0.00     0.049 A 
ATOM     16  N   UNL A   1      38.348  29.535  29.788  1.00  0.00    -0.248 NA
ATOM     17  C   UNL A   1      38.092  30.229  27.591  1.00  0.00     0.031 C 
ATOM     18  C   UNL A   1      38.897  34.287  29.848  1.00  0.00     0.029 A 
ATOM     19  N   UNL A   1      40.238  32.548  29.938  1.00  0.00    -0.354 N 
ATOM     20  C   UNL A   1      38.595  28.462  28.942  1.00  0.00     0.074 A 
ATOM     21  C   UNL A   1      38.201  28.900  27.625  1.00  0.00     0.031 C 
ATOM     22  C   UNL A   1      40.157  34.776  29.863  1.00  0.00     0.029 A 
ATOM     23  C   UNL A   1      41.072  33.658  29.967  1.00  0.00     0.049 A 
ATOM     24  H   UNL A   1      40.576  31.631  30.057  1.00  0.00     0.167 HD
ATOM     25  C   UNL A   1      39.329  27.392  29.360  1.00  0.00     0.034 A 
ATOM     26  C   UNL A   1      42.426  33.656  30.066  1.00  0.00     0.034 A 
ATOM     27  C   UNL A   1      39.543  27.440  30.785  1.00  0.00     0.049 A 
ATOM     28  C   UNL A   1      42.818  32.329  30.607  1.00  0.00     0.074 A 
ATOM     29  C   UNL A   1      38.709  27.408  31.886  1.00  0.00     0.029 A 
ATOM     30  N   UNL A   1      40.731  27.979  31.227  1.00  0.00    -0.354 N 
ATOM     31  N   UNL A   1      42.537  31.938  31.820  1.00  0.00    -0.248 NA
ATOM     32  C   UNL A   1      43.055  31.264  29.644  1.00  0.00     0.031 C 
ATOM     33  C   UNL A   1      39.259  28.362  32.790  1.00  0.00     0.029 A 
ATOM     34  C   UNL A   1      40.443  28.862  32.240  1.00  0.00     0.049 A 
ATOM     35  H   UNL A   1      41.627  27.769  30.878  1.00  0.00     0.167 HD
ATOM     36  C   UNL A   1      42.119  30.621  31.676  1.00  0.00     0.074 A 
ATOM     37  C   UNL A   1      42.532  30.240  30.324  1.00  0.00     0.031 C 
ATOM     38  C   UNL A   1      41.217  30.057  32.532  1.00  0.00     0.034 A 
BRANCH  25  39
ATOM     39  C   UNL A   1      40.138  26.511  28.445  1.00  0.00     0.023 A 
ATOM     40  C   UNL A   1      39.783  25.182  28.147  1.00  0.00     0.031 A 
ATOM     41  C   UNL A   1      41.182  27.057  27.674  1.00  0.00     0.131 A 
ATOM     42  C   UNL A   1      40.446  24.448  27.158  1.00  0.00     0.055 A 
ATOM     43  C   UNL A   1      41.799  26.346  26.636  1.00  0.00     0.041 A 
ATOM     44  F   UNL A   1      41.602  28.316  27.872  1.00  0.00    -0.206 F 
ATOM     45  C   UNL A   1      41.431  25.033  26.373  1.00  0.00     0.022 A 
BRANCH  42  46
ATOM     46  S   UNL A   1      40.020  22.707  26.874  1.00  0.00     0.124 S 
ATOM     47  O   UNL A   1      40.284  22.117  28.181  1.00  0.00    -0.237 OA
ATOM     48  O   UNL A   1      38.613  22.807  26.496  1.00  0.00    -0.237 OA
ATOM     49  O   UNL A   1      40.920  22.307  25.797  1.00  0.00    -0.744 OA
ENDBRANCH  42  46
ENDBRANCH  25  39
BRANCH  26  50
ATOM     50  C   UNL A   1      43.339  34.452  29.207  1.00  0.00     0.023 A 
ATOM     51  C   UNL A   1      43.475  34.121  27.845  1.00  0.00     0.031 A 
ATOM     52  C   UNL A   1      44.307  35.307  29.763  1.00  0.00     0.131 A 
ATOM     53  C   UNL A   1      44.572  34.578  27.105  1.00  0.00     0.055 A 
ATOM     54  C   UNL A   1      45.394  35.780  29.016  1.00  0.00     0.041 A 
ATOM     55  F   UNL A   1      44.254  35.639  31.062  1.00  0.00    -0.206 F 
ATOM     56  C   UNL A   1      45.541  35.399  27.683  1.00  0.00     0.022 A 
BRANCH  53  57
ATOM     57  S   UNL A   1      44.816  34.017  25.394  1.00  0.00     0.124 S 
ATOM     58  O   UNL A   1      46.059  34.691  25.028  1.00  0.00    -0.237 OA
ATOM     59  O   UNL A   1      44.901  32.573  25.573  1.00  0.00    -0.237 OA
ATOM     60  O   UNL A   1      43.623  34.504  24.702  1.00  0.00    -0.744 OA
ENDBRANCH  53  57
ENDBRANCH  26  50
BRANCH  38  61
ATOM     61  C   UNL A   1      40.805  30.823  33.777  1.00  0.00     0.023 A 
ATOM     62  C   UNL A   1      39.600  31.544  33.713  1.00  0.00     0.031 A 
ATOM     63  C   UNL A   1      41.637  31.062  34.888  1.00  0.00     0.131 A 
ATOM     64  C   UNL A   1      39.287  32.495  34.691  1.00  0.00     0.055 A 
ATOM     65  C   UNL A   1      41.290  31.966  35.901  1.00  0.00     0.041 A 
ATOM     66  F   UNL A   1      42.845  30.500  34.992  1.00  0.00    -0.206 F 
ATOM     67  C   UNL A   1      40.116  32.702  35.796  1.00  0.00     0.022 A 
BRANCH  64  68
ATOM     68  S   UNL A   1      37.869  33.599  34.464  1.00  0.00     0.124 S 
ATOM     69  O   UNL A   1      38.438  34.903  34.795  1.00  0.00    -0.237 OA
ATOM     70  O   UNL A   1      37.544  33.398  33.053  1.00  0.00    -0.237 OA
ATOM     71  O   UNL A   1      36.873  33.094  35.405  1.00  0.00    -0.744 OA
ENDBRANCH  64  68
ENDBRANCH  38  61
ENDBRANCH  12  13
ENDBRANCH   5   7
ENDBRANCH   2   3
ENDBRANCH   1   2
BRANCH   1  72
ATOM     72  C   UNL A   1      31.914  29.782  25.469  1.00  0.00     0.002 C 
BRANCH  72  73
ATOM     73  C   UNL A   1      32.190  28.565  26.370  1.00  0.00     0.002 C 
BRANCH  73  74
ATOM     74  C   UNL A   1      31.905  27.182  25.781  1.00  0.00     0.021 C 
BRANCH  74  75
ATOM     75  C   UNL A   1      33.100  26.473  25.153  1.00  0.00     0.116 C 
BRANCH  75  76
ATOM     76  N   UNL A   1      33.197  26.681  23.716  1.00  0.00    -0.351 N 
ATOM     77  C   UNL A   1      33.609  25.811  22.732  1.00  0.00     0.267 C 
ATOM     78  H   UNL A   1      32.928  27.575  23.402  1.00  0.00     0.163 HD
ATOM     79  O   UNL A   1      33.782  26.245  21.601  1.00  0.00    -0.268 OA
BRANCH  77  80
ATOM     80  C   UNL A   1      33.811  24.432  23.098  1.00  0.00     0.105 A 
ATOM     81  C   UNL A   1      34.936  23.833  23.638  1.00  0.00     0.043 A 
ATOM     82  N   UNL A   1      32.875  23.435  22.951  1.00  0.00    -0.350 N 
ATOM     83  C   UNL A   1      34.590  22.503  24.015  1.00  0.00     0.019 A 
ATOM     84  C   UNL A   1      33.274  22.296  23.604  1.00  0.00     0.051 A 
ATOM     85  H   UNL A   1      32.033  23.525  22.447  1.00  0.00     0.167 HD
ATOM     86  C   UNL A   1      35.241  21.471  24.703  1.00  0.00     0.123 A 
ATOM     87  C   UNL A   1      32.580  21.125  23.890  1.00  0.00     0.067 A 
ATOM     88  N   UNL A   1      34.616  20.288  24.923  1.00  0.00    -0.244 NA
ATOM     89  C   UNL A   1      33.321  20.171  24.570  1.00  0.00     0.131 A 
ATOM     90  Cl  UNL A   1      32.605  18.662  24.973  1.00  0.00    -0.062 Cl
ENDBRANCH  77  80
ENDBRANCH  75  76
ENDBRANCH  74  75
ENDBRANCH  73  74
ENDBRANCH  72  73
ENDBRANCH   1  72
TORSDOF 16
ENDMDL
MODEL 2
REMARK VINA RESULT:     -11.4      2.799      3.712
REMARK SMILES O=C(NCCCCCCNC(=O)c1cc2cnc(Cl)cc2[nH]1)c1ccc(-c2c3nc(c(-c4cc(S(=O)(=O)[O-])ccc4F)c4ccc([nH]4)c(-c4cc(S(=O)(=O)[O-])ccc4F)c4nc(c(-c5cc(S(=O)(=O)[O-])ccc5F)c5ccc2[nH]5)C=C4)C=C3)cc1
REMARK SMILES IDX 5 1 4 2 3 3 1 4 2 5 23 7 24 8 85 9 25 10 84 11 26 12 27 13
REMARK SMILES IDX 28 14 78 15 29 16 83 17 77 18 79 19 30 20 82 21 76 22 75 23
REMARK SMILES IDX 31 25 63 26 43 27 62 28 44 29 47 30 61 31 80 32 45 33 46 34
REMARK SMILES IDX 60 36 81 37 48 38 32 39 33 40 41 41 34 42 40 43 42 44 39 45
REMARK SMILES IDX 35 46 36 47 37 48 38 49 64 50 65 51 73 52 66 53 72 54 74 55
REMARK SMILES IDX 71 56 67 57 68 58 69 59 70 60 49 61 50 62 58 63 51 64 57 65
REMARK SMILES IDX 59 66 56 67 52 68 53 69 54 70 55 71 6 72 7 73 8 74 9 75
REMARK SMILES IDX 10 76 11 77 12 79 13 80 14 81 22 82 15 83 21 84 16 86 20 87
REMARK SMILES IDX 17 88 18 89 19 90
REMARK H PARENT 3 6 79 24 47 35 10 78 22 85
REMARK Flexibility Score: inf
ROOT
ATOM      1  C   UNL A   1      32.924  31.844  27.674  1.00  0.00     0.021 C 
ENDROOT
BRANCH   1   2
ATOM      2  C   UNL A   1      33.047  33.223  27.057  1.00  0.00     0.116 C 
BRANCH   2   3
ATOM      3  N   UNL A   1      32.667  34.339  27.945  1.00  0.00    -0.352 N 
ATOM      4  O   UNL A   1      32.483  35.309  30.013  1.00  0.00    -0.269 OA
ATOM      5  C   UNL A   1      33.101  34.574  29.254  1.00  0.00     0.251 C 
ATOM      6  H   UNL A   1      32.033  34.994  27.573  1.00  0.00     0.163 HD
BRANCH   5   7
ATOM      7  C   UNL A   1      34.361  33.930  29.678  1.00  0.00     0.039 A 
ATOM      8  C   UNL A   1      34.494  32.904  30.616  1.00  0.00     0.014 A 
ATOM      9  C   UNL A   1      35.457  34.337  28.955  1.00  0.00     0.014 A 
ATOM     10  C   UNL A   1      35.754  32.307  30.740  1.00  0.00     0.010 A 
ATOM     11  C   UNL A   1      36.390  33.393  28.703  1.00  0.00     0.010 A 
ATOM     12  C   UNL A   1      36.719  32.593  29.761  1.00  0.00    -0.014 A 
BRANCH  12  13
ATOM     13  C   UNL A   1      38.091  32.112  29.741  1.00  0.00     0.031 A 
ATOM     14  C   UNL A   1      38.242  30.748  29.207  1.00  0.00     0.074 A 
ATOM     15  C   UNL A   1      39.160  32.913  29.985  1.00  0.00     0.049 A 
ATOM     16  N   UNL A   1      38.417  29.668  29.887  1.00  0.00    -0.248 NA
ATOM     17  C   UNL A   1      37.961  30.530  27.783  1.00  0.00     0.031 C 
ATOM     18  C   UNL A   1      39.227  34.373  30.198  1.00  0.00     0.029 A 
ATOM     19  N   UNL A   1      40.473  32.571  30.021  1.00  0.00    -0.354 N 
ATOM     20  C   UNL A   1      38.511  28.649  28.949  1.00  0.00     0.074 A 
ATOM     21  C   UNL A   1      38.000  29.198  27.717  1.00  0.00     0.031 C 
ATOM     22  C   UNL A   1      40.506  34.801  30.103  1.00  0.00     0.029 A 
ATOM     23  C   UNL A   1      41.364  33.637  30.029  1.00  0.00     0.049 A 
ATOM     24  H   UNL A   1      40.772  31.634  30.040  1.00  0.00     0.167 HD
ATOM     25  C   UNL A   1      39.227  27.519  29.210  1.00  0.00     0.034 A 
ATOM     26  C   UNL A   1      42.719  33.564  29.975  1.00  0.00     0.034 A 
ATOM     27  C   UNL A   1      39.598  27.454  30.602  1.00  0.00     0.049 A 
ATOM     28  C   UNL A   1      43.095  32.185  30.379  1.00  0.00     0.074 A 
ATOM     29  C   UNL A   1      38.888  27.383  31.785  1.00  0.00     0.029 A 
ATOM     30  N   UNL A   1      40.854  27.904  30.941  1.00  0.00    -0.354 N 
ATOM     31  N   UNL A   1      42.928  31.721  31.587  1.00  0.00    -0.248 NA
ATOM     32  C   UNL A   1      43.167  31.182  29.327  1.00  0.00     0.031 C 
ATOM     33  C   UNL A   1      39.586  28.243  32.683  1.00  0.00     0.029 A 
ATOM     34  C   UNL A   1      40.727  28.725  32.036  1.00  0.00     0.049 A 
ATOM     35  H   UNL A   1      41.694  27.678  30.481  1.00  0.00     0.167 HD
ATOM     36  C   UNL A   1      42.425  30.439  31.404  1.00  0.00     0.074 A 
ATOM     37  C   UNL A   1      42.667  30.137  29.992  1.00  0.00     0.031 C 
ATOM     38  C   UNL A   1      41.593  29.858  32.318  1.00  0.00     0.034 A 
BRANCH  25  39
ATOM     39  C   UNL A   1      39.882  26.669  28.153  1.00  0.00     0.023 A 
ATOM     40  C   UNL A   1      40.985  27.101  27.394  1.00  0.00     0.031 A 
ATOM     41  C   UNL A   1      39.542  25.308  28.025  1.00  0.00     0.131 A 
ATOM     42  C   UNL A   1      41.685  26.231  26.552  1.00  0.00     0.055 A 
ATOM     43  C   UNL A   1      40.285  24.420  27.237  1.00  0.00     0.041 A 
ATOM     44  F   UNL A   1      38.508  24.788  28.704  1.00  0.00    -0.206 F 
ATOM     45  C   UNL A   1      41.364  24.881  26.494  1.00  0.00     0.022 A 
BRANCH  42  46
ATOM     46  S   UNL A   1      43.041  26.853  25.519  1.00  0.00     0.124 S 
ATOM     47  O   UNL A   1      42.336  27.741  24.602  1.00  0.00    -0.237 OA
ATOM     48  O   UNL A   1      43.888  27.509  26.511  1.00  0.00    -0.237 OA
ATOM     49  O   UNL A   1      43.605  25.642  24.931  1.00  0.00    -0.744 OA
ENDBRANCH  42  46
ENDBRANCH  25  39
BRANCH  26  50
ATOM     50  C   UNL A   1      43.575  34.376  29.072  1.00  0.00     0.023 A 
ATOM     51  C   UNL A   1      44.022  33.824  27.857  1.00  0.00     0.031 A 
ATOM     52  C   UNL A   1      44.216  35.542  29.525  1.00  0.00     0.131 A 
ATOM     53  C   UNL A   1      45.107  34.385  27.173  1.00  0.00     0.055 A 
ATOM     54  C   UNL A   1      45.289  36.115  28.830  1.00  0.00     0.041 A 
ATOM     55  F   UNL A   1      43.859  36.105  30.690  1.00  0.00    -0.206 F 
ATOM     56  C   UNL A   1      45.753  35.525  27.656  1.00  0.00     0.022 A 
BRANCH  53  57
ATOM     57  S   UNL A   1      45.771  33.572  25.690  1.00  0.00     0.124 S 
ATOM     58  O   UNL A   1      46.605  34.624  25.115  1.00  0.00    -0.237 OA
ATOM     59  O   UNL A   1      46.482  32.442  26.275  1.00  0.00    -0.237 OA
ATOM     60  O   UNL A   1      44.575  33.243  24.918  1.00  0.00    -0.744 OA
ENDBRANCH  53  57
ENDBRANCH  26  50
BRANCH  38  61
ATOM     61  C   UNL A   1      41.361  30.551  33.649  1.00  0.00     0.023 A 
ATOM     62  C   UNL A   1      40.363  31.540  33.689  1.00  0.00     0.031 A 
ATOM     63  C   UNL A   1      42.214  30.457  34.766  1.00  0.00     0.131 A 
ATOM     64  C   UNL A   1      40.274  32.419  34.775  1.00  0.00     0.055 A 
ATOM     65  C   UNL A   1      42.081  31.294  35.881  1.00  0.00     0.041 A 
ATOM     66  F   UNL A   1      43.254  29.616  34.783  1.00  0.00    -0.206 F 
ATOM     67  C   UNL A   1      41.117  32.294  35.881  1.00  0.00     0.022 A 
BRANCH  64  68
ATOM     68  S   UNL A   1      39.161  33.845  34.700  1.00  0.00     0.124 S 
ATOM     69  O   UNL A   1      38.702  33.951  36.082  1.00  0.00    -0.237 OA
ATOM     70  O   UNL A   1      40.055  34.912  34.254  1.00  0.00    -0.237 OA
ATOM     71  O   UNL A   1      38.142  33.449  33.732  1.00  0.00    -0.744 OA
ENDBRANCH  64  68
ENDBRANCH  38  61
ENDBRANCH  12  13
ENDBRANCH   5   7
ENDBRANCH   2   3
ENDBRANCH   1   2
BRANCH   1  72
ATOM     72  C   UNL A   1      34.047  30.872  27.281  1.00  0.00     0.002 C 
BRANCH  72  73
ATOM     73  C   UNL A   1      33.893  29.393  27.682  1.00  0.00     0.002 C 
BRANCH  73  74
ATOM     74  C   UNL A   1      33.100  28.493  26.733  1.00  0.00     0.021 C 
BRANCH  74  75
ATOM     75  C   UNL A   1      33.322  28.744  25.245  1.00  0.00     0.116 C 
BRANCH  75  76
ATOM     76  N   UNL A   1      33.596  27.527  24.496  1.00  0.00    -0.351 N 
ATOM     77  C   UNL A   1      32.806  26.867  23.582  1.00  0.00     0.267 C 
ATOM     78  H   UNL A   1      34.474  27.116  24.667  1.00  0.00     0.163 HD
ATOM     79  O   UNL A   1      33.156  25.760  23.196  1.00  0.00    -0.268 OA
BRANCH  77  80
ATOM     80  C   UNL A   1      31.605  27.526  23.132  1.00  0.00     0.105 A 
ATOM     81  C   UNL A   1      30.292  27.283  23.497  1.00  0.00     0.043 A 
ATOM     82  N   UNL A   1      31.569  28.548  22.211  1.00  0.00    -0.350 N 
ATOM     83  C   UNL A   1      29.483  28.317  22.946  1.00  0.00     0.019 A 
ATOM     84  C   UNL A   1      30.322  29.119  22.173  1.00  0.00     0.051 A 
ATOM     85  H   UNL A   1      32.331  28.831  21.657  1.00  0.00     0.167 HD
ATOM     86  C   UNL A   1      28.135  28.682  23.059  1.00  0.00     0.123 A 
ATOM     87  C   UNL A   1      29.878  30.282  21.554  1.00  0.00     0.067 A 
ATOM     88  N   UNL A   1      27.656  29.765  22.398  1.00  0.00    -0.244 NA
ATOM     89  C   UNL A   1      28.528  30.544  21.728  1.00  0.00     0.131 A 
ATOM     90  Cl  UNL A   1      27.827  31.936  21.001  1.00  0.00    -0.062 Cl
ENDBRANCH  77  80
ENDBRANCH  75  76
ENDBRANCH  74  75
ENDBRANCH  73  74
ENDBRANCH  72  73
ENDBRANCH   1  72
TORSDOF 16
ENDMDL
MODEL 3
REMARK VINA RESULT:     -11.3      1.790      2.064
REMARK SMILES O=C(NCCCCCCNC(=O)c1cc2cnc(Cl)cc2[nH]1)c1ccc(-c2c3nc(c(-c4cc(S(=O)(=O)[O-])ccc4F)c4ccc([nH]4)c(-c4cc(S(=O)(=O)[O-])ccc4F)c4nc(c(-c5cc(S(=O)(=O)[O-])ccc5F)c5ccc2[nH]5)C=C4)C=C3)cc1
REMARK SMILES IDX 5 1 4 2 3 3 1 4 2 5 23 7 24 8 85 9 25 10 84 11 26 12 27 13
REMARK SMILES IDX 28 14 78 15 29 16 83 17 77 18 79 19 30 20 82 21 76 22 75 23
REMARK SMILES IDX 31 25 63 26 43 27 62 28 44 29 47 30 61 31 80 32 45 33 46 34
REMARK SMILES IDX 60 36 81 37 48 38 32 39 33 40 41 41 34 42 40 43 42 44 39 45
REMARK SMILES IDX 35 46 36 47 37 48 38 49 64 50 65 51 73 52 66 53 72 54 74 55
REMARK SMILES IDX 71 56 67 57 68 58 69 59 70 60 49 61 50 62 58 63 51 64 57 65
REMARK SMILES IDX 59 66 56 67 52 68 53 69 54 70 55 71 6 72 7 73 8 74 9 75
REMARK SMILES IDX 10 76 11 77 12 79 13 80 14 81 22 82 15 83 21 84 16 86 20 87
REMARK SMILES IDX 17 88 18 89 19 90
REMARK H PARENT 3 6 79 24 47 35 10 78 22 85
REMARK Flexibility Score: inf
ROOT
ATOM      1  C   UNL A   1      31.472  31.783  26.471  1.00  0.00     0.021 C 
ENDROOT
BRANCH   1   2
ATOM      2  C   UNL A   1      32.591  32.403  27.284  1.00  0.00     0.116 C 
BRANCH   2   3
ATOM      3  N   UNL A   1      32.424  33.839  27.580  1.00  0.00    -0.352 N 
ATOM      4  O   UNL A   1      32.598  35.654  28.969  1.00  0.00    -0.269 OA
ATOM      5  C   UNL A   1      33.048  34.580  28.590  1.00  0.00     0.251 C 
ATOM      6  H   UNL A   1      31.801  34.333  27.001  1.00  0.00     0.163 HD
BRANCH   5   7
ATOM      7  C   UNL A   1      34.297  34.037  29.158  1.00  0.00     0.039 A 
ATOM      8  C   UNL A   1      34.419  33.287  30.331  1.00  0.00     0.014 A 
ATOM      9  C   UNL A   1      35.393  34.211  28.346  1.00  0.00     0.014 A 
ATOM     10  C   UNL A   1      35.667  32.711  30.598  1.00  0.00     0.010 A 
ATOM     11  C   UNL A   1      36.300  33.210  28.344  1.00  0.00     0.010 A 
ATOM     12  C   UNL A   1      36.625  32.705  29.572  1.00  0.00    -0.014 A 
BRANCH  12  13
ATOM     13  C   UNL A   1      37.985  32.200  29.669  1.00  0.00     0.031 A 
ATOM     14  C   UNL A   1      38.140  30.806  29.221  1.00  0.00     0.074 A 
ATOM     15  C   UNL A   1      39.052  32.994  29.938  1.00  0.00     0.049 A 
ATOM     16  N   UNL A   1      38.248  29.763  29.969  1.00  0.00    -0.248 NA
ATOM     17  C   UNL A   1      37.947  30.513  27.795  1.00  0.00     0.031 C 
ATOM     18  C   UNL A   1      39.136  34.463  30.075  1.00  0.00     0.029 A 
ATOM     19  N   UNL A   1      40.352  32.632  30.080  1.00  0.00    -0.354 N 
ATOM     20  C   UNL A   1      38.380  28.691  29.096  1.00  0.00     0.074 A 
ATOM     21  C   UNL A   1      37.962  29.179  27.805  1.00  0.00     0.031 C 
ATOM     22  C   UNL A   1      40.427  34.861  30.041  1.00  0.00     0.029 A 
ATOM     23  C   UNL A   1      41.264  33.680  30.088  1.00  0.00     0.049 A 
ATOM     24  H   UNL A   1      40.629  31.691  30.170  1.00  0.00     0.167 HD
ATOM     25  C   UNL A   1      39.054  27.565  29.465  1.00  0.00     0.034 A 
ATOM     26  C   UNL A   1      42.617  33.580  30.127  1.00  0.00     0.034 A 
ATOM     27  C   UNL A   1      39.332  27.571  30.880  1.00  0.00     0.049 A 
ATOM     28  C   UNL A   1      42.936  32.219  30.630  1.00  0.00     0.074 A 
ATOM     29  C   UNL A   1      38.546  27.579  32.015  1.00  0.00     0.029 A 
ATOM     30  N   UNL A   1      40.573  28.017  31.276  1.00  0.00    -0.354 N 
ATOM     31  N   UNL A   1      42.682  31.827  31.848  1.00  0.00    -0.248 NA
ATOM     32  C   UNL A   1      43.056  31.158  29.641  1.00  0.00     0.031 C 
ATOM     33  C   UNL A   1      39.202  28.475  32.909  1.00  0.00     0.029 A 
ATOM     34  C   UNL A   1      40.393  28.900  32.314  1.00  0.00     0.049 A 
ATOM     35  H   UNL A   1      41.436  27.751  30.885  1.00  0.00     0.167 HD
ATOM     36  C   UNL A   1      42.165  30.546  31.703  1.00  0.00     0.074 A 
ATOM     37  C   UNL A   1      42.491  30.161  30.328  1.00  0.00     0.031 C 
ATOM     38  C   UNL A   1      41.262  30.031  32.590  1.00  0.00     0.034 A 
BRANCH  25  39
ATOM     39  C   UNL A   1      39.757  26.645  28.501  1.00  0.00     0.023 A 
ATOM     40  C   UNL A   1      40.911  27.019  27.787  1.00  0.00     0.031 A 
ATOM     41  C   UNL A   1      39.404  25.284  28.433  1.00  0.00     0.131 A 
ATOM     42  C   UNL A   1      41.647  26.091  27.041  1.00  0.00     0.055 A 
ATOM     43  C   UNL A   1      40.179  24.342  27.745  1.00  0.00     0.041 A 
ATOM     44  F   UNL A   1      38.323  24.817  29.077  1.00  0.00    -0.206 F 
ATOM     45  C   UNL A   1      41.309  24.744  27.043  1.00  0.00     0.022 A 
BRANCH  42  46
ATOM     46  S   UNL A   1      43.072  26.634  26.059  1.00  0.00     0.124 S 
ATOM     47  O   UNL A   1      43.051  28.077  26.273  1.00  0.00    -0.237 OA
ATOM     48  O   UNL A   1      44.166  25.913  26.704  1.00  0.00    -0.237 OA
ATOM     49  O   UNL A   1      42.747  26.183  24.709  1.00  0.00    -0.744 OA
ENDBRANCH  42  46
ENDBRANCH  25  39
BRANCH  26  50
ATOM     50  C   UNL A   1      43.547  34.325  29.240  1.00  0.00     0.023 A 
ATOM     51  C   UNL A   1      43.573  34.036  27.862  1.00  0.00     0.031 A 
ATOM     52  C   UNL A   1      44.618  35.070  29.763  1.00  0.00     0.131 A 
ATOM     53  C   UNL A   1      44.662  34.423  27.071  1.00  0.00     0.055 A 
ATOM     54  C   UNL A   1      45.698  35.474  28.967  1.00  0.00     0.041 A 
ATOM     55  F   UNL A   1      44.671  35.356  31.073  1.00  0.00    -0.206 F 
ATOM     56  C   UNL A   1      45.733  35.133  27.616  1.00  0.00     0.022 A 
BRANCH  53  57
ATOM     57  S   UNL A   1      44.755  33.908  25.332  1.00  0.00     0.124 S 
ATOM     58  O   UNL A   1      44.870  32.457  25.450  1.00  0.00    -0.237 OA
ATOM     59  O   UNL A   1      43.487  34.407  24.815  1.00  0.00    -0.237 OA
ATOM     60  O   UNL A   1      45.954  34.584  24.839  1.00  0.00    -0.744 OA
ENDBRANCH  53  57
ENDBRANCH  26  50
BRANCH  38  61
ATOM     61  C   UNL A   1      40.960  30.802  33.862  1.00  0.00     0.023 A 
ATOM     62  C   UNL A   1      40.147  31.942  33.741  1.00  0.00     0.031 A 
ATOM     63  C   UNL A   1      41.614  30.610  35.096  1.00  0.00     0.131 A 
ATOM     64  C   UNL A   1      40.050  32.863  34.791  1.00  0.00     0.055 A 
ATOM     65  C   UNL A   1      41.463  31.498  36.168  1.00  0.00     0.041 A 
ATOM     66  F   UNL A   1      42.484  29.611  35.278  1.00  0.00    -0.206 F 
ATOM     67  C   UNL A   1      40.690  32.643  36.012  1.00  0.00     0.022 A 
BRANCH  64  68
ATOM     68  S   UNL A   1      39.215  34.449  34.533  1.00  0.00     0.124 S 
ATOM     69  O   UNL A   1      40.209  35.199  33.770  1.00  0.00    -0.237 OA
ATOM     70  O   UNL A   1      38.022  34.053  33.788  1.00  0.00    -0.237 OA
ATOM     71  O   UNL A   1      38.964  34.941  35.884  1.00  0.00    -0.744 OA
ENDBRANCH  64  68
ENDBRANCH  38  61
ENDBRANCH  12  13
ENDBRANCH   5   7
ENDBRANCH   2   3
ENDBRANCH   1   2
BRANCH   1  72
ATOM     72  C   UNL A   1      31.530  30.251  26.377  1.00  0.00     0.002 C 
BRANCH  72  73
ATOM     73  C   UNL A   1      32.902  29.571  26.535  1.00  0.00     0.002 C 
BRANCH  73  74
ATOM     74  C   UNL A   1      32.905  28.070  26.829  1.00  0.00     0.021 C 
BRANCH  74  75
ATOM     75  C   UNL A   1      32.218  27.192  25.789  1.00  0.00     0.116 C 
BRANCH  75  76
ATOM     76  N   UNL A   1      31.001  26.566  26.285  1.00  0.00    -0.351 N 
ATOM     77  C   UNL A   1      30.658  25.234  26.329  1.00  0.00     0.267 C 
ATOM     78  H   UNL A   1      30.324  27.187  26.641  1.00  0.00     0.163 HD
ATOM     79  O   UNL A   1      29.509  24.934  26.626  1.00  0.00    -0.268 OA
BRANCH  77  80
ATOM     80  C   UNL A   1      31.682  24.267  26.022  1.00  0.00     0.105 A 
ATOM     81  C   UNL A   1      32.984  24.202  26.489  1.00  0.00     0.043 A 
ATOM     82  N   UNL A   1      31.528  23.206  25.160  1.00  0.00    -0.350 N 
ATOM     83  C   UNL A   1      33.544  22.964  26.065  1.00  0.00     0.019 A 
ATOM     84  C   UNL A   1      32.589  22.342  25.262  1.00  0.00     0.051 A 
ATOM     85  H   UNL A   1      30.761  23.082  24.555  1.00  0.00     0.167 HD
ATOM     86  C   UNL A   1      34.744  22.285  26.316  1.00  0.00     0.123 A 
ATOM     87  C   UNL A   1      32.769  21.064  24.743  1.00  0.00     0.067 A 
ATOM     88  N   UNL A   1      34.981  21.073  25.755  1.00  0.00    -0.244 NA
ATOM     89  C   UNL A   1      33.993  20.489  25.050  1.00  0.00     0.131 A 
ATOM     90  Cl  UNL A   1      34.370  18.920  24.459  1.00  0.00    -0.062 Cl
ENDBRANCH  77  80
ENDBRANCH  75  76
ENDBRANCH  74  75
ENDBRANCH  73  74
ENDBRANCH  72  73
ENDBRANCH   1  72
TORSDOF 16
ENDMDL
