MODEL 1
REMARK VINA RESULT:     -12.0      0.000      0.000
REMARK SMILES Cc1ccn2c([C@H]3C[C@@H]3C(=O)NCCCCCCNC(=O)c3ccc(-c4c5nc(c(-c6cc(S(=O)(=O)[O-])ccc6F)c6ccc([nH]6)c(-c6cc(S(=O)(=O)[O-])ccc6F)c6nc(c(-c7cc(S(=O)(=O)[O-])ccc7F)c7ccc4[nH]7)C=C6)C=C5)cc3)nnc2c1
REMARK SMILES IDX 16 1 15 2 14 3 13 4 12 5 10 6 11 7 9 9 7 10 8 11 6 12 1 13
REMARK SMILES IDX 2 14 3 15 88 16 4 17 87 18 5 19 86 20 85 21 17 22 18 23
REMARK SMILES IDX 19 24 20 25 21 27 22 28 23 29 84 30 24 31 83 32 25 33 26 34
REMARK SMILES IDX 27 35 77 36 28 37 82 38 76 39 78 40 29 41 81 42 75 43 74 44
REMARK SMILES IDX 30 46 62 47 42 48 61 49 43 50 46 51 60 52 79 53 44 54 45 55
REMARK SMILES IDX 59 57 80 58 47 59 31 60 32 61 40 62 33 63 39 64 41 65 38 66
REMARK SMILES IDX 34 67 35 68 36 69 37 70 63 71 64 72 72 73 65 74 71 75 73 76
REMARK SMILES IDX 70 77 66 78 67 79 68 80 69 81 48 82 49 83 57 84 50 85 56 86
REMARK SMILES IDX 58 87 55 88 51 89 52 90 53 91 54 92
REMARK H PARENT 12 8 19 26 78 45 46 56
REMARK Flexibility Score: inf
ROOT
ATOM      1  C   UNL A   1      36.023  23.361  24.689  1.00  0.00     0.002 C 
ENDROOT
BRANCH   1   2
ATOM      2  C   UNL A   1      35.497  23.628  26.104  1.00  0.00     0.002 C 
BRANCH   2   3
ATOM      3  C   UNL A   1      34.532  22.572  26.658  1.00  0.00     0.021 C 
BRANCH   3   4
ATOM      4  C   UNL A   1      34.852  21.138  26.234  1.00  0.00     0.116 C 
BRANCH   4   5
ATOM      5  N   UNL A   1      33.648  20.341  26.050  1.00  0.00    -0.356 N 
ATOM      6  C   UNL A   1      32.781  20.351  24.997  1.00  0.00     0.223 C 
ATOM      7  O   UNL A   1      31.811  19.591  24.956  1.00  0.00    -0.275 OA
ATOM      8  H   UNL A   1      33.432  19.716  26.778  1.00  0.00     0.163 HD
BRANCH   6   9
ATOM      9  C   UNL A   1      33.049  21.290  23.893  1.00  0.00     0.090 C 
ATOM     10  C   UNL A   1      32.087  22.412  23.559  1.00  0.00     0.071 C 
ATOM     11  C   UNL A   1      32.217  21.236  22.633  1.00  0.00     0.026 C 
BRANCH  10  12
ATOM     12  C   UNL A   1      32.692  23.751  23.181  1.00  0.00     0.141 A 
ATOM     13  C   UNL A   1      33.592  28.655  25.691  1.00  0.00     0.044 C 
ATOM     14  C   UNL A   1      33.349  27.329  25.037  1.00  0.00    -0.046 A 
ATOM     15  C   UNL A   1      32.545  26.356  25.783  1.00  0.00     0.022 A 
ATOM     16  C   UNL A   1      33.830  27.027  23.811  1.00  0.00     0.053 A 
ATOM     17  C   UNL A   1      32.322  25.140  25.254  1.00  0.00     0.095 A 
ATOM     18  C   UNL A   1      33.534  25.767  23.225  1.00  0.00     0.161 A 
ATOM     19  N   UNL A   1      32.829  24.853  23.990  1.00  0.00    -0.286 N 
ATOM     20  N   UNL A   1      33.750  25.272  22.027  1.00  0.00    -0.130 NA
ATOM     21  N   UNL A   1      33.172  24.023  21.984  1.00  0.00    -0.134 NA
ENDBRANCH  10  12
ENDBRANCH   6   9
ENDBRANCH   4   5
ENDBRANCH   3   4
ENDBRANCH   2   3
ENDBRANCH   1   2
BRANCH   1  22
ATOM     22  C   UNL A   1      37.436  22.771  24.609  1.00  0.00     0.021 C 
BRANCH  22  23
ATOM     23  C   UNL A   1      38.120  22.572  25.961  1.00  0.00     0.116 C 
BRANCH  23  24
ATOM     24  N   UNL A   1      39.508  22.169  25.871  1.00  0.00    -0.352 N 
ATOM     25  C   UNL A   1      40.685  22.664  26.363  1.00  0.00     0.251 C 
ATOM     26  H   UNL A   1      39.634  21.353  25.335  1.00  0.00     0.163 HD
ATOM     27  O   UNL A   1      41.681  21.956  26.195  1.00  0.00    -0.269 OA
BRANCH  25  28
ATOM     28  C   UNL A   1      40.847  24.003  26.993  1.00  0.00     0.039 A 
ATOM     29  C   UNL A   1      41.672  24.295  28.080  1.00  0.00     0.014 A 
ATOM     30  C   UNL A   1      40.054  25.035  26.456  1.00  0.00     0.014 A 
ATOM     31  C   UNL A   1      41.616  25.542  28.691  1.00  0.00     0.010 A 
ATOM     32  C   UNL A   1      40.012  26.292  27.047  1.00  0.00     0.010 A 
ATOM     33  C   UNL A   1      40.758  26.525  28.198  1.00  0.00    -0.014 A 
BRANCH  33  34
ATOM     34  C   UNL A   1      40.773  27.831  28.850  1.00  0.00     0.031 A 
ATOM     35  C   UNL A   1      41.807  28.768  28.320  1.00  0.00     0.074 A 
ATOM     36  C   UNL A   1      39.855  28.202  29.765  1.00  0.00     0.049 A 
ATOM     37  N   UNL A   1      42.808  29.302  28.941  1.00  0.00    -0.248 NA
ATOM     38  C   UNL A   1      41.802  29.025  26.871  1.00  0.00     0.031 C 
ATOM     39  C   UNL A   1      38.621  27.496  30.123  1.00  0.00     0.029 A 
ATOM     40  N   UNL A   1      39.765  29.355  30.486  1.00  0.00    -0.354 N 
ATOM     41  C   UNL A   1      43.448  30.124  28.008  1.00  0.00     0.074 A 
ATOM     42  C   UNL A   1      42.890  29.780  26.727  1.00  0.00     0.031 C 
ATOM     43  C   UNL A   1      37.801  28.343  30.786  1.00  0.00     0.029 A 
ATOM     44  C   UNL A   1      38.506  29.592  31.023  1.00  0.00     0.049 A 
ATOM     45  H   UNL A   1      40.526  29.967  30.614  1.00  0.00     0.167 HD
ATOM     46  C   UNL A   1      44.237  31.170  28.392  1.00  0.00     0.034 A 
ATOM     47  C   UNL A   1      38.044  30.759  31.540  1.00  0.00     0.034 A 
ATOM     48  C   UNL A   1      44.593  31.061  29.780  1.00  0.00     0.049 A 
ATOM     49  C   UNL A   1      39.204  31.630  31.829  1.00  0.00     0.074 A 
ATOM     50  C   UNL A   1      45.351  30.193  30.535  1.00  0.00     0.029 A 
ATOM     51  N   UNL A   1      43.848  31.795  30.667  1.00  0.00    -0.354 N 
ATOM     52  N   UNL A   1      40.067  31.418  32.781  1.00  0.00    -0.248 NA
ATOM     53  C   UNL A   1      39.643  32.533  30.776  1.00  0.00     0.031 C 
ATOM     54  C   UNL A   1      44.709  30.150  31.805  1.00  0.00     0.029 A 
ATOM     55  C   UNL A   1      43.625  31.031  31.778  1.00  0.00     0.049 A 
ATOM     56  H   UNL A   1      43.529  32.716  30.527  1.00  0.00     0.167 HD
ATOM     57  C   UNL A   1      41.287  31.761  32.220  1.00  0.00     0.074 A 
ATOM     58  C   UNL A   1      40.952  32.554  31.040  1.00  0.00     0.031 C 
ATOM     59  C   UNL A   1      42.436  31.131  32.600  1.00  0.00     0.034 A 
BRANCH  46  60
ATOM     60  C   UNL A   1      44.360  32.479  27.632  1.00  0.00     0.023 A 
ATOM     61  C   UNL A   1      43.642  33.643  27.962  1.00  0.00     0.031 A 
ATOM     62  C   UNL A   1      45.409  32.659  26.701  1.00  0.00     0.131 A 
ATOM     63  C   UNL A   1      43.984  34.897  27.435  1.00  0.00     0.055 A 
ATOM     64  C   UNL A   1      45.790  33.918  26.220  1.00  0.00     0.041 A 
ATOM     65  F   UNL A   1      46.149  31.622  26.279  1.00  0.00    -0.206 F 
ATOM     66  C   UNL A   1      45.083  35.050  26.598  1.00  0.00     0.022 A 
BRANCH  63  67
ATOM     67  S   UNL A   1      43.015  36.369  27.866  1.00  0.00     0.124 S 
ATOM     68  O   UNL A   1      43.939  37.097  28.727  1.00  0.00    -0.237 OA
ATOM     69  O   UNL A   1      42.775  36.958  26.551  1.00  0.00    -0.237 OA
ATOM     70  O   UNL A   1      41.831  35.820  28.522  1.00  0.00    -0.744 OA
ENDBRANCH  63  67
ENDBRANCH  46  60
BRANCH  47  71
ATOM     71  C   UNL A   1      36.687  31.332  31.369  1.00  0.00     0.023 A 
ATOM     72  C   UNL A   1      36.187  31.560  30.075  1.00  0.00     0.031 A 
ATOM     73  C   UNL A   1      36.024  31.960  32.439  1.00  0.00     0.131 A 
ATOM     74  C   UNL A   1      35.109  32.432  29.872  1.00  0.00     0.055 A 
ATOM     75  C   UNL A   1      34.934  32.817  32.235  1.00  0.00     0.041 A 
ATOM     76  F   UNL A   1      36.469  31.814  33.696  1.00  0.00    -0.206 F 
ATOM     77  C   UNL A   1      34.482  33.070  30.943  1.00  0.00     0.022 A 
BRANCH  74  78
ATOM     78  S   UNL A   1      34.565  32.831  28.188  1.00  0.00     0.124 S 
ATOM     79  O   UNL A   1      34.088  31.539  27.702  1.00  0.00    -0.237 OA
ATOM     80  O   UNL A   1      33.531  33.829  28.439  1.00  0.00    -0.237 OA
ATOM     81  O   UNL A   1      35.780  33.320  27.544  1.00  0.00    -0.744 OA
ENDBRANCH  74  78
ENDBRANCH  47  71
BRANCH  59  82
ATOM     82  C   UNL A   1      42.420  30.267  33.841  1.00  0.00     0.023 A 
ATOM     83  C   UNL A   1      42.751  30.897  35.053  1.00  0.00     0.031 A 
ATOM     84  C   UNL A   1      42.325  28.862  33.841  1.00  0.00     0.131 A 
ATOM     85  C   UNL A   1      43.030  30.137  36.193  1.00  0.00     0.055 A 
ATOM     86  C   UNL A   1      42.525  28.111  35.004  1.00  0.00     0.041 A 
ATOM     87  F   UNL A   1      42.128  28.170  32.712  1.00  0.00    -0.206 F 
ATOM     88  C   UNL A   1      42.899  28.747  36.183  1.00  0.00     0.022 A 
BRANCH  85  89
ATOM     89  S   UNL A   1      43.742  30.927  37.657  1.00  0.00     0.124 S 
ATOM     90  O   UNL A   1      44.498  29.833  38.262  1.00  0.00    -0.237 OA
ATOM     91  O   UNL A   1      44.549  31.996  37.072  1.00  0.00    -0.237 OA
ATOM     92  O   UNL A   1      42.581  31.380  38.417  1.00  0.00    -0.744 OA
ENDBRANCH  85  89
ENDBRANCH  59  82
ENDBRANCH  33  34
ENDBRANCH  25  28
ENDBRANCH  23  24
ENDBRANCH  22  23
ENDBRANCH   1  22
TORSDOF 17
ENDMDL
MODEL 2
REMARK VINA RESULT:     -12.0      3.787      8.871
REMARK SMILES Cc1ccn2c([C@H]3C[C@@H]3C(=O)NCCCCCCNC(=O)c3ccc(-c4c5nc(c(-c6cc(S(=O)(=O)[O-])ccc6F)c6ccc([nH]6)c(-c6cc(S(=O)(=O)[O-])ccc6F)c6nc(c(-c7cc(S(=O)(=O)[O-])ccc7F)c7ccc4[nH]7)C=C6)C=C5)cc3)nnc2c1
REMARK SMILES IDX 16 1 15 2 14 3 13 4 12 5 10 6 11 7 9 9 7 10 8 11 6 12 1 13
REMARK SMILES IDX 2 14 3 15 88 16 4 17 87 18 5 19 86 20 85 21 17 22 18 23
REMARK SMILES IDX 19 24 20 25 21 27 22 28 23 29 84 30 24 31 83 32 25 33 26 34
REMARK SMILES IDX 27 35 77 36 28 37 82 38 76 39 78 40 29 41 81 42 75 43 74 44
REMARK SMILES IDX 30 46 62 47 42 48 61 49 43 50 46 51 60 52 79 53 44 54 45 55
REMARK SMILES IDX 59 57 80 58 47 59 31 60 32 61 40 62 33 63 39 64 41 65 38 66
REMARK SMILES IDX 34 67 35 68 36 69 37 70 63 71 64 72 72 73 65 74 71 75 73 76
REMARK SMILES IDX 70 77 66 78 67 79 68 80 69 81 48 82 49 83 57 84 50 85 56 86
REMARK SMILES IDX 58 87 55 88 51 89 52 90 53 91 54 92
REMARK H PARENT 12 8 19 26 78 45 46 56
REMARK Flexibility Score: inf
ROOT
ATOM      1  C   UNL A   1      34.317  29.143  26.668  1.00  0.00     0.002 C 
ENDROOT
BRANCH   1   2
ATOM      2  C   UNL A   1      33.700  28.412  25.469  1.00  0.00     0.002 C 
BRANCH   2   3
ATOM      3  C   UNL A   1      32.914  29.296  24.492  1.00  0.00     0.021 C 
BRANCH   3   4
ATOM      4  C   UNL A   1      33.048  28.891  23.024  1.00  0.00     0.116 C 
BRANCH   4   5
ATOM      5  N   UNL A   1      31.877  29.265  22.246  1.00  0.00    -0.356 N 
ATOM      6  C   UNL A   1      30.577  28.902  22.447  1.00  0.00     0.223 C 
ATOM      7  O   UNL A   1      29.672  29.324  21.723  1.00  0.00    -0.275 OA
ATOM      8  H   UNL A   1      32.043  29.854  21.476  1.00  0.00     0.163 HD
BRANCH   6   9
ATOM      9  C   UNL A   1      30.281  28.000  23.574  1.00  0.00     0.090 C 
ATOM     10  C   UNL A   1      30.348  26.494  23.418  1.00  0.00     0.071 C 
ATOM     11  C   UNL A   1      29.017  27.172  23.570  1.00  0.00     0.026 C 
BRANCH  10  12
ATOM     12  C   UNL A   1      30.939  25.706  24.573  1.00  0.00     0.141 A 
ATOM     13  C   UNL A   1      35.923  23.576  25.907  1.00  0.00     0.044 C 
ATOM     14  C   UNL A   1      34.596  24.162  25.534  1.00  0.00    -0.046 A 
ATOM     15  C   UNL A   1      34.465  24.710  24.181  1.00  0.00     0.022 A 
ATOM     16  C   UNL A   1      33.549  24.183  26.388  1.00  0.00     0.053 A 
ATOM     17  C   UNL A   1      33.304  25.274  23.806  1.00  0.00     0.095 A 
ATOM     18  C   UNL A   1      32.301  24.716  25.966  1.00  0.00     0.161 A 
ATOM     19  N   UNL A   1      32.240  25.285  24.705  1.00  0.00    -0.286 N 
ATOM     20  N   UNL A   1      31.111  24.742  26.523  1.00  0.00    -0.130 NA
ATOM     21  N   UNL A   1      30.243  25.317  25.623  1.00  0.00    -0.134 NA
ENDBRANCH  10  12
ENDBRANCH   6   9
ENDBRANCH   4   5
ENDBRANCH   3   4
ENDBRANCH   2   3
ENDBRANCH   1   2
BRANCH   1  22
ATOM     22  C   UNL A   1      33.401  30.155  27.368  1.00  0.00     0.021 C 
BRANCH  22  23
ATOM     23  C   UNL A   1      34.027  31.531  27.590  1.00  0.00     0.116 C 
BRANCH  23  24
ATOM     24  N   UNL A   1      34.160  31.906  28.983  1.00  0.00    -0.352 N 
ATOM     25  C   UNL A   1      35.168  31.829  29.905  1.00  0.00     0.251 C 
ATOM     26  H   UNL A   1      33.339  32.306  29.350  1.00  0.00     0.163 HD
ATOM     27  O   UNL A   1      34.958  32.392  30.983  1.00  0.00    -0.269 OA
BRANCH  25  28
ATOM     28  C   UNL A   1      36.429  31.058  29.725  1.00  0.00     0.039 A 
ATOM     29  C   UNL A   1      36.532  29.666  29.688  1.00  0.00     0.014 A 
ATOM     30  C   UNL A   1      37.607  31.822  29.630  1.00  0.00     0.014 A 
ATOM     31  C   UNL A   1      37.780  29.053  29.684  1.00  0.00     0.010 A 
ATOM     32  C   UNL A   1      38.857  31.215  29.601  1.00  0.00     0.010 A 
ATOM     33  C   UNL A   1      38.940  29.829  29.680  1.00  0.00    -0.014 A 
BRANCH  33  34
ATOM     34  C   UNL A   1      40.222  29.133  29.630  1.00  0.00     0.031 A 
ATOM     35  C   UNL A   1      40.843  28.897  30.966  1.00  0.00     0.074 A 
ATOM     36  C   UNL A   1      40.741  28.637  28.488  1.00  0.00     0.049 A 
ATOM     37  N   UNL A   1      41.971  29.337  31.423  1.00  0.00    -0.248 NA
ATOM     38  C   UNL A   1      40.027  28.199  31.973  1.00  0.00     0.031 C 
ATOM     39  C   UNL A   1      40.079  28.526  27.185  1.00  0.00     0.029 A 
ATOM     40  N   UNL A   1      41.933  28.011  28.278  1.00  0.00    -0.354 N 
ATOM     41  C   UNL A   1      42.102  28.804  32.709  1.00  0.00     0.074 A 
ATOM     42  C   UNL A   1      40.813  28.263  33.047  1.00  0.00     0.031 C 
ATOM     43  C   UNL A   1      40.768  27.659  26.409  1.00  0.00     0.029 A 
ATOM     44  C   UNL A   1      41.987  27.273  27.102  1.00  0.00     0.049 A 
ATOM     45  H   UNL A   1      42.691  28.077  28.903  1.00  0.00     0.167 HD
ATOM     46  C   UNL A   1      43.320  28.666  33.310  1.00  0.00     0.034 A 
ATOM     47  C   UNL A   1      42.914  26.342  26.763  1.00  0.00     0.034 A 
ATOM     48  C   UNL A   1      44.317  29.448  32.633  1.00  0.00     0.049 A 
ATOM     49  C   UNL A   1      44.093  26.519  27.640  1.00  0.00     0.074 A 
ATOM     50  C   UNL A   1      44.549  30.793  32.441  1.00  0.00     0.029 A 
ATOM     51  N   UNL A   1      45.114  28.787  31.733  1.00  0.00    -0.354 N 
ATOM     52  N   UNL A   1      44.915  27.526  27.576  1.00  0.00    -0.248 NA
ATOM     53  C   UNL A   1      44.120  25.765  28.884  1.00  0.00     0.031 C 
ATOM     54  C   UNL A   1      45.143  30.885  31.150  1.00  0.00     0.029 A 
ATOM     55  C   UNL A   1      45.293  29.592  30.643  1.00  0.00     0.049 A 
ATOM     56  H   UNL A   1      45.493  27.886  31.853  1.00  0.00     0.167 HD
ATOM     57  C   UNL A   1      45.203  27.817  28.900  1.00  0.00     0.074 A 
ATOM     58  C   UNL A   1      44.791  26.631  29.648  1.00  0.00     0.031 C 
ATOM     59  C   UNL A   1      45.476  29.095  29.294  1.00  0.00     0.034 A 
BRANCH  46  60
ATOM     60  C   UNL A   1      43.691  27.534  34.252  1.00  0.00     0.023 A 
ATOM     61  C   UNL A   1      43.855  26.199  33.842  1.00  0.00     0.031 A 
ATOM     62  C   UNL A   1      44.144  27.825  35.561  1.00  0.00     0.131 A 
ATOM     63  C   UNL A   1      44.470  25.243  34.663  1.00  0.00     0.055 A 
ATOM     64  C   UNL A   1      44.812  26.888  36.359  1.00  0.00     0.041 A 
ATOM     65  F   UNL A   1      44.015  29.055  36.083  1.00  0.00    -0.206 F 
ATOM     66  C   UNL A   1      44.990  25.589  35.905  1.00  0.00     0.022 A 
BRANCH  63  67
ATOM     67  S   UNL A   1      44.637  23.525  34.106  1.00  0.00     0.124 S 
ATOM     68  O   UNL A   1      45.865  23.109  34.773  1.00  0.00    -0.237 OA
ATOM     69  O   UNL A   1      43.405  22.929  34.616  1.00  0.00    -0.237 OA
ATOM     70  O   UNL A   1      44.710  23.642  32.652  1.00  0.00    -0.744 OA
ENDBRANCH  63  67
ENDBRANCH  46  60
BRANCH  47  71
ATOM     71  C   UNL A   1      42.669  25.054  26.069  1.00  0.00     0.023 A 
ATOM     72  C   UNL A   1      41.679  24.181  26.554  1.00  0.00     0.031 A 
ATOM     73  C   UNL A   1      43.605  24.529  25.160  1.00  0.00     0.131 A 
ATOM     74  C   UNL A   1      41.678  22.830  26.185  1.00  0.00     0.055 A 
ATOM     75  C   UNL A   1      43.591  23.181  24.778  1.00  0.00     0.041 A 
ATOM     76  F   UNL A   1      44.598  25.296  24.686  1.00  0.00    -0.206 F 
ATOM     77  C   UNL A   1      42.633  22.320  25.304  1.00  0.00     0.022 A 
BRANCH  74  78
ATOM     78  S   UNL A   1      40.485  21.684  26.928  1.00  0.00     0.124 S 
ATOM     79  O   UNL A   1      40.782  21.807  28.353  1.00  0.00    -0.237 OA
ATOM     80  O   UNL A   1      39.214  22.259  26.498  1.00  0.00    -0.237 OA
ATOM     81  O   UNL A   1      40.833  20.396  26.335  1.00  0.00    -0.744 OA
ENDBRANCH  74  78
ENDBRANCH  47  71
BRANCH  59  82
ATOM     82  C   UNL A   1      45.754  30.141  28.240  1.00  0.00     0.023 A 
ATOM     83  C   UNL A   1      47.105  30.420  27.967  1.00  0.00     0.031 A 
ATOM     84  C   UNL A   1      44.787  31.003  27.687  1.00  0.00     0.131 A 
ATOM     85  C   UNL A   1      47.459  31.548  27.221  1.00  0.00     0.055 A 
ATOM     86  C   UNL A   1      45.142  32.083  26.874  1.00  0.00     0.041 A 
ATOM     87  F   UNL A   1      43.487  30.884  27.986  1.00  0.00    -0.206 F 
ATOM     88  C   UNL A   1      46.485  32.372  26.654  1.00  0.00     0.022 A 
BRANCH  85  89
ATOM     89  S   UNL A   1      49.191  32.066  27.127  1.00  0.00     0.124 S 
ATOM     90  O   UNL A   1      49.466  32.474  28.502  1.00  0.00    -0.237 OA
ATOM     91  O   UNL A   1      49.858  30.840  26.693  1.00  0.00    -0.237 OA
ATOM     92  O   UNL A   1      49.186  33.144  26.143  1.00  0.00    -0.744 OA
ENDBRANCH  85  89
ENDBRANCH  59  82
ENDBRANCH  33  34
ENDBRANCH  25  28
ENDBRANCH  23  24
ENDBRANCH  22  23
ENDBRANCH   1  22
TORSDOF 17
ENDMDL
MODEL 3
REMARK VINA RESULT:     -11.7      1.961      3.273
REMARK SMILES Cc1ccn2c([C@H]3C[C@@H]3C(=O)NCCCCCCNC(=O)c3ccc(-c4c5nc(c(-c6cc(S(=O)(=O)[O-])ccc6F)c6ccc([nH]6)c(-c6cc(S(=O)(=O)[O-])ccc6F)c6nc(c(-c7cc(S(=O)(=O)[O-])ccc7F)c7ccc4[nH]7)C=C6)C=C5)cc3)nnc2c1
REMARK SMILES IDX 16 1 15 2 14 3 13 4 12 5 10 6 11 7 9 9 7 10 8 11 6 12 1 13
REMARK SMILES IDX 2 14 3 15 88 16 4 17 87 18 5 19 86 20 85 21 17 22 18 23
REMARK SMILES IDX 19 24 20 25 21 27 22 28 23 29 84 30 24 31 83 32 25 33 26 34
REMARK SMILES IDX 27 35 77 36 28 37 82 38 76 39 78 40 29 41 81 42 75 43 74 44
REMARK SMILES IDX 30 46 62 47 42 48 61 49 43 50 46 51 60 52 79 53 44 54 45 55
REMARK SMILES IDX 59 57 80 58 47 59 31 60 32 61 40 62 33 63 39 64 41 65 38 66
REMARK SMILES IDX 34 67 35 68 36 69 37 70 63 71 64 72 72 73 65 74 71 75 73 76
REMARK SMILES IDX 70 77 66 78 67 79 68 80 69 81 48 82 49 83 57 84 50 85 56 86
REMARK SMILES IDX 58 87 55 88 51 89 52 90 53 91 54 92
REMARK H PARENT 12 8 19 26 78 45 46 56
REMARK Flexibility Score: inf
ROOT
ATOM      1  C   UNL A   1      35.501  23.156  24.115  1.00  0.00     0.002 C 
ENDROOT
BRANCH   1   2
ATOM      2  C   UNL A   1      34.952  24.510  24.579  1.00  0.00     0.002 C 
BRANCH   2   3
ATOM      3  C   UNL A   1      33.992  25.201  23.603  1.00  0.00     0.021 C 
BRANCH   3   4
ATOM      4  C   UNL A   1      33.852  26.709  23.813  1.00  0.00     0.116 C 
BRANCH   4   5
ATOM      5  N   UNL A   1      32.527  27.190  23.455  1.00  0.00    -0.356 N 
ATOM      6  C   UNL A   1      31.344  26.964  24.097  1.00  0.00     0.223 C 
ATOM      7  O   UNL A   1      30.291  27.467  23.699  1.00  0.00    -0.275 OA
ATOM      8  H   UNL A   1      32.477  27.750  22.648  1.00  0.00     0.163 HD
BRANCH   6   9
ATOM      9  C   UNL A   1      31.364  26.111  25.299  1.00  0.00     0.090 C 
ATOM     10  C   UNL A   1      30.730  24.735  25.300  1.00  0.00     0.071 C 
ATOM     11  C   UNL A   1      30.090  25.856  26.069  1.00  0.00     0.026 C 
BRANCH  10  12
ATOM     12  C   UNL A   1      31.472  23.634  26.035  1.00  0.00     0.141 A 
ATOM     13  C   UNL A   1      34.161  18.937  24.667  1.00  0.00     0.044 C 
ATOM     14  C   UNL A   1      33.442  20.205  25.013  1.00  0.00    -0.046 A 
ATOM     15  C   UNL A   1      32.709  20.872  23.932  1.00  0.00     0.022 A 
ATOM     16  C   UNL A   1      33.445  20.721  26.261  1.00  0.00     0.053 A 
ATOM     17  C   UNL A   1      32.071  22.028  24.183  1.00  0.00     0.095 A 
ATOM     18  C   UNL A   1      32.713  21.907  26.539  1.00  0.00     0.161 A 
ATOM     19  N   UNL A   1      32.091  22.541  25.477  1.00  0.00    -0.286 N 
ATOM     20  N   UNL A   1      32.437  22.539  27.658  1.00  0.00    -0.130 NA
ATOM     21  N   UNL A   1      31.611  23.595  27.345  1.00  0.00    -0.134 NA
ENDBRANCH  10  12
ENDBRANCH   6   9
ENDBRANCH   4   5
ENDBRANCH   3   4
ENDBRANCH   2   3
ENDBRANCH   1   2
BRANCH   1  22
ATOM     22  C   UNL A   1      37.006  22.946  24.324  1.00  0.00     0.021 C 
BRANCH  22  23
ATOM     23  C   UNL A   1      37.489  23.186  25.754  1.00  0.00     0.116 C 
BRANCH  23  24
ATOM     24  N   UNL A   1      38.676  22.437  26.114  1.00  0.00    -0.352 N 
ATOM     25  C   UNL A   1      39.764  22.687  26.904  1.00  0.00     0.251 C 
ATOM     26  H   UNL A   1      38.705  21.547  25.695  1.00  0.00     0.163 HD
ATOM     27  O   UNL A   1      40.525  21.734  27.092  1.00  0.00    -0.269 OA
BRANCH  25  28
ATOM     28  C   UNL A   1      40.121  24.019  27.464  1.00  0.00     0.039 A 
ATOM     29  C   UNL A   1      41.334  24.347  28.072  1.00  0.00     0.014 A 
ATOM     30  C   UNL A   1      39.115  25.002  27.401  1.00  0.00     0.014 A 
ATOM     31  C   UNL A   1      41.494  25.571  28.709  1.00  0.00     0.010 A 
ATOM     32  C   UNL A   1      39.278  26.238  28.014  1.00  0.00     0.010 A 
ATOM     33  C   UNL A   1      40.452  26.499  28.712  1.00  0.00    -0.014 A 
BRANCH  33  34
ATOM     34  C   UNL A   1      40.691  27.788  29.357  1.00  0.00     0.031 A 
ATOM     35  C   UNL A   1      41.658  28.664  28.632  1.00  0.00     0.074 A 
ATOM     36  C   UNL A   1      40.007  28.200  30.443  1.00  0.00     0.049 A 
ATOM     37  N   UNL A   1      42.799  29.117  29.038  1.00  0.00    -0.248 NA
ATOM     38  C   UNL A   1      41.375  28.951  27.217  1.00  0.00     0.031 C 
ATOM     39  C   UNL A   1      38.826  27.570  31.041  1.00  0.00     0.029 A 
ATOM     40  N   UNL A   1      40.147  29.341  31.174  1.00  0.00    -0.354 N 
ATOM     41  C   UNL A   1      43.291  29.914  28.000  1.00  0.00     0.074 A 
ATOM     42  C   UNL A   1      42.461  29.635  26.858  1.00  0.00     0.031 C 
ATOM     43  C   UNL A   1      38.219  28.456  31.863  1.00  0.00     0.029 A 
ATOM     44  C   UNL A   1      39.043  29.650  31.960  1.00  0.00     0.049 A 
ATOM     45  H   UNL A   1      40.958  29.898  31.148  1.00  0.00     0.167 HD
ATOM     46  C   UNL A   1      44.212  30.897  28.220  1.00  0.00     0.034 A 
ATOM     47  C   UNL A   1      38.779  30.834  32.568  1.00  0.00     0.034 A 
ATOM     48  C   UNL A   1      44.836  30.735  29.505  1.00  0.00     0.049 A 
ATOM     49  C   UNL A   1      40.032  31.620  32.620  1.00  0.00     0.074 A 
ATOM     50  C   UNL A   1      45.670  29.803  30.084  1.00  0.00     0.029 A 
ATOM     51  N   UNL A   1      44.341  31.499  30.532  1.00  0.00    -0.354 N 
ATOM     52  N   UNL A   1      41.053  31.331  33.373  1.00  0.00    -0.248 NA
ATOM     53  C   UNL A   1      40.308  32.513  31.505  1.00  0.00     0.031 C 
ATOM     54  C   UNL A   1      45.299  29.776  31.458  1.00  0.00     0.029 A 
ATOM     55  C   UNL A   1      44.296  30.728  31.660  1.00  0.00     0.049 A 
ATOM     56  H   UNL A   1      44.065  32.442  30.466  1.00  0.00     0.167 HD
ATOM     57  C   UNL A   1      42.154  31.603  32.577  1.00  0.00     0.074 A 
ATOM     58  C   UNL A   1      41.641  32.441  31.495  1.00  0.00     0.031 C 
ATOM     59  C   UNL A   1      43.310  30.890  32.709  1.00  0.00     0.034 A 
BRANCH  46  60
ATOM     60  C   UNL A   1      44.269  32.210  27.461  1.00  0.00     0.023 A 
ATOM     61  C   UNL A   1      43.616  33.383  27.881  1.00  0.00     0.031 A 
ATOM     62  C   UNL A   1      45.204  32.381  26.413  1.00  0.00     0.131 A 
ATOM     63  C   UNL A   1      43.916  34.635  27.326  1.00  0.00     0.055 A 
ATOM     64  C   UNL A   1      45.549  33.637  25.900  1.00  0.00     0.041 A 
ATOM     65  F   UNL A   1      45.870  31.335  25.900  1.00  0.00    -0.206 F 
ATOM     66  C   UNL A   1      44.912  34.778  26.366  1.00  0.00     0.022 A 
BRANCH  63  67
ATOM     67  S   UNL A   1      43.032  36.120  27.878  1.00  0.00     0.124 S 
ATOM     68  O   UNL A   1      42.703  36.764  26.612  1.00  0.00    -0.237 OA
ATOM     69  O   UNL A   1      41.907  35.539  28.606  1.00  0.00    -0.237 OA
ATOM     70  O   UNL A   1      44.013  36.814  28.709  1.00  0.00    -0.744 OA
ENDBRANCH  63  67
ENDBRANCH  46  60
BRANCH  47  71
ATOM     71  C   UNL A   1      37.459  31.500  32.683  1.00  0.00     0.023 A 
ATOM     72  C   UNL A   1      36.748  31.839  31.519  1.00  0.00     0.031 A 
ATOM     73  C   UNL A   1      37.050  32.100  33.888  1.00  0.00     0.131 A 
ATOM     74  C   UNL A   1      35.717  32.787  31.564  1.00  0.00     0.055 A 
ATOM     75  C   UNL A   1      36.007  33.034  33.934  1.00  0.00     0.041 A 
ATOM     76  F   UNL A   1      37.707  31.849  35.031  1.00  0.00    -0.206 F 
ATOM     77  C   UNL A   1      35.346  33.394  32.764  1.00  0.00     0.022 A 
BRANCH  74  78
ATOM     78  S   UNL A   1      34.904  33.323  30.033  1.00  0.00     0.124 S 
ATOM     79  O   UNL A   1      34.586  32.051  29.390  1.00  0.00    -0.237 OA
ATOM     80  O   UNL A   1      33.762  34.069  30.550  1.00  0.00    -0.237 OA
ATOM     81  O   UNL A   1      35.931  34.113  29.361  1.00  0.00    -0.744 OA
ENDBRANCH  74  78
ENDBRANCH  47  71
BRANCH  59  82
ATOM     82  C   UNL A   1      43.487  30.003  33.920  1.00  0.00     0.023 A 
ATOM     83  C   UNL A   1      42.788  28.783  33.917  1.00  0.00     0.031 A 
ATOM     84  C   UNL A   1      44.101  30.399  35.124  1.00  0.00     0.131 A 
ATOM     85  C   UNL A   1      42.668  28.033  35.090  1.00  0.00     0.055 A 
ATOM     86  C   UNL A   1      44.048  29.605  36.273  1.00  0.00     0.041 A 
ATOM     87  F   UNL A   1      44.689  31.595  35.253  1.00  0.00    -0.206 F 
ATOM     88  C   UNL A   1      43.312  28.424  36.266  1.00  0.00     0.022 A 
BRANCH  85  89
ATOM     89  S   UNL A   1      41.526  26.630  35.157  1.00  0.00     0.124 S 
ATOM     90  O   UNL A   1      41.032  26.699  36.529  1.00  0.00    -0.237 OA
ATOM     91  O   UNL A   1      40.552  26.973  34.123  1.00  0.00    -0.237 OA
ATOM     92  O   UNL A   1      42.365  25.474  34.852  1.00  0.00    -0.744 OA
ENDBRANCH  85  89
ENDBRANCH  59  82
ENDBRANCH  33  34
ENDBRANCH  25  28
ENDBRANCH  23  24
ENDBRANCH  22  23
ENDBRANCH   1  22
TORSDOF 17
ENDMDL
