MODEL 1
REMARK VINA RESULT:     -11.0      0.000      0.000
REMARK SMILES COc1ccc(C(=O)Nc2ccccc2C(=O)N[C@@H](C(=O)NCCCCCCNC(=O)c2ccc(-c3c4nc(c(-c5cc(S(=O)(=O)[O-])ccc5F)c5ccc([nH]5)c(-c5cc(S(=O)(=O)[O-])ccc5F)c5nc(c(-c6cc(S(=O)(=O)[O-])ccc6F)c6ccc3[nH]6)C=C5)C=C4)cc2)C(C)C)cc1
REMARK SMILES IDX 24 1 23 2 22 3 20 4 21 5 19 7 18 8 16 9 17 10 15 12 10 13
REMARK SMILES IDX 11 14 12 15 14 16 13 17 9 18 7 19 8 20 6 22 3 23 4 24 99 25
REMARK SMILES IDX 5 26 98 27 2 28 1 29 95 30 96 31 97 32 25 33 26 34 27 35
REMARK SMILES IDX 28 36 29 37 30 38 31 40 32 41 33 42 94 43 34 44 93 45 35 46
REMARK SMILES IDX 36 47 37 48 87 49 38 50 92 51 86 52 88 53 39 54 91 55 85 56
REMARK SMILES IDX 84 57 40 59 72 60 52 61 71 62 53 63 56 64 70 65 89 66 54 67
REMARK SMILES IDX 55 68 69 70 90 71 57 72 41 73 42 74 50 75 43 76 49 77 51 78
REMARK SMILES IDX 48 79 44 80 45 81 46 82 47 83 73 84 74 85 82 86 75 87 81 88
REMARK SMILES IDX 83 89 80 90 76 91 77 92 78 93 79 94 58 95 59 96 67 97 60 98
REMARK SMILES IDX 66 99 68 100 65 101 61 102 62 103 63 104 64 105
REMARK H PARENT 22 6 18 11 9 21 29 39 88 58 56 69
REMARK Flexibility Score: inf
ROOT
ATOM      1  C   UNL A   1      36.748  22.648  24.538  1.00  0.00     0.021 C 
ENDROOT
BRANCH   1   2
ATOM      2  C   UNL A   1      36.119  23.121  25.851  1.00  0.00     0.116 C 
BRANCH   2   3
ATOM      3  N   UNL A   1      35.542  21.993  26.537  1.00  0.00    -0.354 N 
ATOM      4  C   UNL A   1      34.340  21.408  26.310  1.00  0.00     0.242 C 
ATOM      5  O   UNL A   1      33.799  20.898  27.297  1.00  0.00    -0.273 OA
ATOM      6  H   UNL A   1      36.086  21.601  27.257  1.00  0.00     0.163 HD
BRANCH   4   7
ATOM      7  C   UNL A   1      33.687  21.399  24.886  1.00  0.00     0.174 C 
BRANCH   7   8
ATOM      8  N   UNL A   1      32.307  21.895  25.034  1.00  0.00    -0.340 N 
ATOM      9  C   UNL A   1      31.636  23.072  24.743  1.00  0.00     0.254 C 
ATOM     10  O   UNL A   1      30.601  23.245  25.397  1.00  0.00    -0.269 OA
ATOM     11  H   UNL A   1      31.713  21.223  25.440  1.00  0.00     0.164 HD
BRANCH   9  12
ATOM     12  C   UNL A   1      32.023  24.165  23.772  1.00  0.00     0.063 A 
ATOM     13  C   UNL A   1      31.183  24.989  23.010  1.00  0.00     0.054 A 
ATOM     14  C   UNL A   1      31.712  25.818  21.997  1.00  0.00     0.027 A 
ATOM     15  C   UNL A   1      33.086  26.003  21.870  1.00  0.00     0.002 A 
ATOM     16  C   UNL A   1      33.415  24.395  23.637  1.00  0.00     0.016 A 
ATOM     17  C   UNL A   1      33.938  25.325  22.727  1.00  0.00     0.001 A 
BRANCH  13  18
ATOM     18  N   UNL A   1      29.832  25.242  23.285  1.00  0.00    -0.321 N 
ATOM     19  C   UNL A   1      29.357  26.281  24.060  1.00  0.00     0.255 C 
ATOM     20  O   UNL A   1      28.161  26.562  24.036  1.00  0.00    -0.269 OA
ATOM     21  H   UNL A   1      29.169  24.629  22.894  1.00  0.00     0.170 HD
BRANCH  19  22
ATOM     22  C   UNL A   1      30.276  27.121  24.857  1.00  0.00     0.040 A 
ATOM     23  C   UNL A   1      31.945  28.670  26.467  1.00  0.00     0.118 A 
ATOM     24  C   UNL A   1      31.567  27.406  26.887  1.00  0.00     0.047 A 
ATOM     25  C   UNL A   1      31.528  29.148  25.219  1.00  0.00     0.047 A 
ATOM     26  C   UNL A   1      30.711  26.656  26.096  1.00  0.00     0.017 A 
ATOM     27  C   UNL A   1      30.688  28.374  24.408  1.00  0.00     0.017 A 
BRANCH  23  28
ATOM     28  O   UNL A   1      32.747  29.351  27.339  1.00  0.00    -0.497 OA
ATOM     29  C   UNL A   1      33.475  30.411  26.733  1.00  0.00     0.278 C 
ENDBRANCH  23  28
ENDBRANCH  19  22
ENDBRANCH  13  18
ENDBRANCH   9  12
ENDBRANCH   7   8
BRANCH   7  30
ATOM     30  C   UNL A   1      33.809  19.885  24.432  1.00  0.00     0.015 C 
ATOM     31  C   UNL A   1      34.980  19.032  24.901  1.00  0.00     0.010 C 
ATOM     32  C   UNL A   1      32.521  19.133  24.807  1.00  0.00     0.010 C 
ENDBRANCH   7  30
ENDBRANCH   4   7
ENDBRANCH   2   3
ENDBRANCH   1   2
BRANCH   1  33
ATOM     33  C   UNL A   1      37.523  21.331  24.692  1.00  0.00     0.002 C 
BRANCH  33  34
ATOM     34  C   UNL A   1      38.759  21.433  25.592  1.00  0.00     0.002 C 
BRANCH  34  35
ATOM     35  C   UNL A   1      39.494  20.108  25.807  1.00  0.00     0.021 C 
BRANCH  35  36
ATOM     36  C   UNL A   1      40.807  20.239  26.574  1.00  0.00     0.116 C 
BRANCH  36  37
ATOM     37  N   UNL A   1      41.868  19.457  25.957  1.00  0.00    -0.352 N 
ATOM     38  C   UNL A   1      43.063  19.876  25.426  1.00  0.00     0.251 C 
ATOM     39  H   UNL A   1      41.705  18.487  25.914  1.00  0.00     0.163 HD
ATOM     40  O   UNL A   1      43.721  19.118  24.724  1.00  0.00    -0.269 OA
BRANCH  38  41
ATOM     41  C   UNL A   1      43.534  21.251  25.693  1.00  0.00     0.039 A 
ATOM     42  C   UNL A   1      43.470  22.201  24.672  1.00  0.00     0.014 A 
ATOM     43  C   UNL A   1      44.031  21.598  26.953  1.00  0.00     0.014 A 
ATOM     44  C   UNL A   1      43.837  23.522  24.938  1.00  0.00     0.010 A 
ATOM     45  C   UNL A   1      44.337  22.927  27.232  1.00  0.00     0.010 A 
ATOM     46  C   UNL A   1      44.233  23.903  26.230  1.00  0.00    -0.014 A 
BRANCH  46  47
ATOM     47  C   UNL A   1      44.512  25.322  26.562  1.00  0.00     0.031 A 
ATOM     48  C   UNL A   1      45.896  25.882  26.385  1.00  0.00     0.074 A 
ATOM     49  C   UNL A   1      43.534  26.080  27.096  1.00  0.00     0.049 A 
ATOM     50  N   UNL A   1      46.357  27.063  26.709  1.00  0.00    -0.248 NA
ATOM     51  C   UNL A   1      46.897  24.987  25.788  1.00  0.00     0.031 C 
ATOM     52  C   UNL A   1      42.163  25.629  27.352  1.00  0.00     0.029 A 
ATOM     53  N   UNL A   1      43.540  27.380  27.535  1.00  0.00    -0.354 N 
ATOM     54  C   UNL A   1      47.702  27.053  26.358  1.00  0.00     0.074 A 
ATOM     55  C   UNL A   1      47.994  25.727  25.854  1.00  0.00     0.031 C 
ATOM     56  C   UNL A   1      41.462  26.638  27.893  1.00  0.00     0.029 A 
ATOM     57  C   UNL A   1      42.340  27.790  28.067  1.00  0.00     0.049 A 
ATOM     58  H   UNL A   1      44.331  27.963  27.475  1.00  0.00     0.167 HD
ATOM     59  C   UNL A   1      48.604  28.064  26.429  1.00  0.00     0.034 A 
ATOM     60  C   UNL A   1      41.993  28.954  28.651  1.00  0.00     0.034 A 
ATOM     61  C   UNL A   1      48.295  29.380  26.937  1.00  0.00     0.049 A 
ATOM     62  C   UNL A   1      43.022  30.048  28.757  1.00  0.00     0.074 A 
ATOM     63  C   UNL A   1      49.116  30.491  27.009  1.00  0.00     0.029 A 
ATOM     64  N   UNL A   1      47.069  29.759  27.470  1.00  0.00    -0.354 N 
ATOM     65  N   UNL A   1      44.278  30.039  28.374  1.00  0.00    -0.248 NA
ATOM     66  C   UNL A   1      42.588  31.311  29.369  1.00  0.00     0.031 C 
ATOM     67  C   UNL A   1      48.411  31.519  27.644  1.00  0.00     0.029 A 
ATOM     68  C   UNL A   1      47.125  31.075  27.905  1.00  0.00     0.049 A 
ATOM     69  H   UNL A   1      46.277  29.178  27.531  1.00  0.00     0.167 HD
ATOM     70  C   UNL A   1      44.777  31.302  28.680  1.00  0.00     0.074 A 
ATOM     71  C   UNL A   1      43.680  32.052  29.260  1.00  0.00     0.031 C 
ATOM     72  C   UNL A   1      46.028  31.799  28.502  1.00  0.00     0.034 A 
BRANCH  59  73
ATOM     73  C   UNL A   1      50.011  27.774  25.966  1.00  0.00     0.023 A 
ATOM     74  C   UNL A   1      50.365  27.838  24.606  1.00  0.00     0.031 A 
ATOM     75  C   UNL A   1      51.007  27.412  26.889  1.00  0.00     0.131 A 
ATOM     76  C   UNL A   1      51.659  27.479  24.202  1.00  0.00     0.055 A 
ATOM     77  C   UNL A   1      52.316  27.130  26.487  1.00  0.00     0.041 A 
ATOM     78  F   UNL A   1      50.725  27.314  28.198  1.00  0.00    -0.206 F 
ATOM     79  C   UNL A   1      52.644  27.148  25.135  1.00  0.00     0.022 A 
BRANCH  76  80
ATOM     80  S   UNL A   1      51.997  27.321  22.427  1.00  0.00     0.124 S 
ATOM     81  O   UNL A   1      50.674  26.990  21.903  1.00  0.00    -0.237 OA
ATOM     82  O   UNL A   1      52.509  28.642  22.085  1.00  0.00    -0.237 OA
ATOM     83  O   UNL A   1      52.975  26.235  22.360  1.00  0.00    -0.744 OA
ENDBRANCH  76  80
ENDBRANCH  59  73
BRANCH  60  84
ATOM     84  C   UNL A   1      40.622  29.137  29.211  1.00  0.00     0.023 A 
ATOM     85  C   UNL A   1      40.386  29.058  30.592  1.00  0.00     0.031 A 
ATOM     86  C   UNL A   1      39.519  29.352  28.364  1.00  0.00     0.131 A 
ATOM     87  C   UNL A   1      39.074  29.143  31.083  1.00  0.00     0.055 A 
ATOM     88  C   UNL A   1      38.222  29.491  28.862  1.00  0.00     0.041 A 
ATOM     89  F   UNL A   1      39.688  29.442  27.035  1.00  0.00    -0.206 F 
ATOM     90  C   UNL A   1      37.992  29.372  30.229  1.00  0.00     0.022 A 
BRANCH  87  91
ATOM     91  S   UNL A   1      38.789  28.858  32.852  1.00  0.00     0.124 S 
ATOM     92  O   UNL A   1      38.985  30.193  33.403  1.00  0.00    -0.237 OA
ATOM     93  O   UNL A   1      37.419  28.356  32.858  1.00  0.00    -0.237 OA
ATOM     94  O   UNL A   1      39.812  27.878  33.206  1.00  0.00    -0.744 OA
ENDBRANCH  87  91
ENDBRANCH  60  84
BRANCH  72  95
ATOM     95  C   UNL A   1      46.257  33.230  28.921  1.00  0.00     0.023 A 
ATOM     96  C   UNL A   1      46.031  34.300  28.037  1.00  0.00     0.031 A 
ATOM     97  C   UNL A   1      46.719  33.525  30.216  1.00  0.00     0.131 A 
ATOM     98  C   UNL A   1      46.319  35.612  28.442  1.00  0.00     0.055 A 
ATOM     99  C   UNL A   1      46.948  34.837  30.631  1.00  0.00     0.041 A 
ATOM    100  F   UNL A   1      46.954  32.541  31.098  1.00  0.00    -0.206 F 
ATOM    101  C   UNL A   1      46.759  35.888  29.739  1.00  0.00     0.022 A 
BRANCH  98 102
ATOM    102  S   UNL A   1      46.189  36.947  27.221  1.00  0.00     0.124 S 
ATOM    103  O   UNL A   1      44.744  37.104  27.095  1.00  0.00    -0.237 OA
ATOM    104  O   UNL A   1      46.894  38.043  27.879  1.00  0.00    -0.237 OA
ATOM    105  O   UNL A   1      46.859  36.401  26.043  1.00  0.00    -0.744 OA
ENDBRANCH  98 102
ENDBRANCH  72  95
ENDBRANCH  46  47
ENDBRANCH  38  41
ENDBRANCH  36  37
ENDBRANCH  35  36
ENDBRANCH  34  35
ENDBRANCH  33  34
ENDBRANCH   1  33
TORSDOF 22
ENDMDL
MODEL 2
REMARK VINA RESULT:     -10.5      2.975      3.899
REMARK SMILES COc1ccc(C(=O)Nc2ccccc2C(=O)N[C@@H](C(=O)NCCCCCCNC(=O)c2ccc(-c3c4nc(c(-c5cc(S(=O)(=O)[O-])ccc5F)c5ccc([nH]5)c(-c5cc(S(=O)(=O)[O-])ccc5F)c5nc(c(-c6cc(S(=O)(=O)[O-])ccc6F)c6ccc3[nH]6)C=C5)C=C4)cc2)C(C)C)cc1
REMARK SMILES IDX 24 1 23 2 22 3 20 4 21 5 19 7 18 8 16 9 17 10 15 12 10 13
REMARK SMILES IDX 11 14 12 15 14 16 13 17 9 18 7 19 8 20 6 22 3 23 4 24 99 25
REMARK SMILES IDX 5 26 98 27 2 28 1 29 95 30 96 31 97 32 25 33 26 34 27 35
REMARK SMILES IDX 28 36 29 37 30 38 31 40 32 41 33 42 94 43 34 44 93 45 35 46
REMARK SMILES IDX 36 47 37 48 87 49 38 50 92 51 86 52 88 53 39 54 91 55 85 56
REMARK SMILES IDX 84 57 40 59 72 60 52 61 71 62 53 63 56 64 70 65 89 66 54 67
REMARK SMILES IDX 55 68 69 70 90 71 57 72 41 73 42 74 50 75 43 76 49 77 51 78
REMARK SMILES IDX 48 79 44 80 45 81 46 82 47 83 73 84 74 85 82 86 75 87 81 88
REMARK SMILES IDX 83 89 80 90 76 91 77 92 78 93 79 94 58 95 59 96 67 97 60 98
REMARK SMILES IDX 66 99 68 100 65 101 61 102 62 103 63 104 64 105
REMARK H PARENT 22 6 18 11 9 21 29 39 88 58 56 69
REMARK Flexibility Score: inf
ROOT
ATOM      1  C   UNL A   1      36.788  22.343  24.574  1.00  0.00     0.021 C 
ENDROOT
BRANCH   1   2
ATOM      2  C   UNL A   1      35.960  23.030  25.663  1.00  0.00     0.116 C 
BRANCH   2   3
ATOM      3  N   UNL A   1      35.439  22.035  26.565  1.00  0.00    -0.354 N 
ATOM      4  C   UNL A   1      34.220  21.443  26.534  1.00  0.00     0.242 C 
ATOM      5  O   UNL A   1      33.762  21.104  27.631  1.00  0.00    -0.273 OA
ATOM      6  H   UNL A   1      36.040  21.752  27.290  1.00  0.00     0.163 HD
BRANCH   4   7
ATOM      7  C   UNL A   1      33.448  21.220  25.189  1.00  0.00     0.174 C 
BRANCH   7   8
ATOM      8  N   UNL A   1      32.113  21.827  25.345  1.00  0.00    -0.340 N 
ATOM      9  C   UNL A   1      31.525  23.037  25.012  1.00  0.00     0.254 C 
ATOM     10  O   UNL A   1      30.524  23.319  25.681  1.00  0.00    -0.269 OA
ATOM     11  H   UNL A   1      31.482  21.222  25.798  1.00  0.00     0.164 HD
BRANCH   9  12
ATOM     12  C   UNL A   1      31.968  24.049  23.980  1.00  0.00     0.063 A 
ATOM     13  C   UNL A   1      31.170  24.836  23.137  1.00  0.00     0.054 A 
ATOM     14  C   UNL A   1      31.749  25.580  22.085  1.00  0.00     0.027 A 
ATOM     15  C   UNL A   1      33.130  25.725  21.988  1.00  0.00     0.002 A 
ATOM     16  C   UNL A   1      33.368  24.238  23.872  1.00  0.00     0.016 A 
ATOM     17  C   UNL A   1      33.940  25.090  22.916  1.00  0.00     0.001 A 
BRANCH  13  18
ATOM     18  N   UNL A   1      29.819  25.139  23.351  1.00  0.00    -0.321 N 
ATOM     19  C   UNL A   1      29.347  26.228  24.057  1.00  0.00     0.255 C 
ATOM     20  O   UNL A   1      28.162  26.539  23.977  1.00  0.00    -0.269 OA
ATOM     21  H   UNL A   1      29.152  24.525  22.969  1.00  0.00     0.170 HD
BRANCH  19  22
ATOM     22  C   UNL A   1      30.262  27.082  24.843  1.00  0.00     0.040 A 
ATOM     23  C   UNL A   1      31.920  28.666  26.431  1.00  0.00     0.118 A 
ATOM     24  C   UNL A   1      31.486  27.438  26.904  1.00  0.00     0.047 A 
ATOM     25  C   UNL A   1      31.563  29.088  25.145  1.00  0.00     0.047 A 
ATOM     26  C   UNL A   1      30.637  26.672  26.121  1.00  0.00     0.017 A 
ATOM     27  C   UNL A   1      30.729  28.296  24.345  1.00  0.00     0.017 A 
BRANCH  23  28
ATOM     28  O   UNL A   1      32.709  29.369  27.296  1.00  0.00    -0.497 OA
ATOM     29  C   UNL A   1      32.776  30.759  27.005  1.00  0.00     0.278 C 
ENDBRANCH  23  28
ENDBRANCH  19  22
ENDBRANCH  13  18
ENDBRANCH   9  12
ENDBRANCH   7   8
BRANCH   7  30
ATOM     30  C   UNL A   1      33.451  19.644  25.017  1.00  0.00     0.015 C 
ATOM     31  C   UNL A   1      32.799  18.753  26.065  1.00  0.00     0.010 C 
ATOM     32  C   UNL A   1      32.830  19.277  23.659  1.00  0.00     0.010 C 
ENDBRANCH   7  30
ENDBRANCH   4   7
ENDBRANCH   2   3
ENDBRANCH   1   2
BRANCH   1  33
ATOM     33  C   UNL A   1      37.777  21.313  25.140  1.00  0.00     0.002 C 
BRANCH  33  34
ATOM     34  C   UNL A   1      38.968  21.930  25.880  1.00  0.00     0.002 C 
BRANCH  34  35
ATOM     35  C   UNL A   1      40.088  20.941  26.210  1.00  0.00     0.021 C 
BRANCH  35  36
ATOM     36  C   UNL A   1      41.375  21.595  26.705  1.00  0.00     0.116 C 
BRANCH  36  37
ATOM     37  N   UNL A   1      42.386  21.647  25.660  1.00  0.00    -0.352 N 
ATOM     38  C   UNL A   1      43.056  22.732  25.149  1.00  0.00     0.251 C 
ATOM     39  H   UNL A   1      42.624  20.779  25.260  1.00  0.00     0.163 HD
ATOM     40  O   UNL A   1      43.686  22.627  24.104  1.00  0.00    -0.269 OA
BRANCH  38  41
ATOM     41  C   UNL A   1      42.992  24.025  25.861  1.00  0.00     0.039 A 
ATOM     42  C   UNL A   1      43.283  24.063  27.227  1.00  0.00     0.014 A 
ATOM     43  C   UNL A   1      42.652  25.196  25.177  1.00  0.00     0.014 A 
ATOM     44  C   UNL A   1      43.304  25.291  27.891  1.00  0.00     0.010 A 
ATOM     45  C   UNL A   1      42.735  26.424  25.826  1.00  0.00     0.010 A 
ATOM     46  C   UNL A   1      43.072  26.484  27.187  1.00  0.00    -0.014 A 
BRANCH  46  47
ATOM     47  C   UNL A   1      43.207  27.806  27.847  1.00  0.00     0.031 A 
ATOM     48  C   UNL A   1      44.569  28.387  28.107  1.00  0.00     0.074 A 
ATOM     49  C   UNL A   1      42.101  28.444  28.280  1.00  0.00     0.049 A 
ATOM     50  N   UNL A   1      44.894  29.476  28.755  1.00  0.00    -0.248 NA
ATOM     51  C   UNL A   1      45.717  27.627  27.591  1.00  0.00     0.031 C 
ATOM     52  C   UNL A   1      40.729  27.955  28.120  1.00  0.00     0.029 A 
ATOM     53  N   UNL A   1      41.952  29.628  28.956  1.00  0.00    -0.354 N 
ATOM     54  C   UNL A   1      46.282  29.533  28.727  1.00  0.00     0.074 A 
ATOM     55  C   UNL A   1      46.738  28.336  28.052  1.00  0.00     0.031 C 
ATOM     56  C   UNL A   1      39.881  28.836  28.673  1.00  0.00     0.029 A 
ATOM     57  C   UNL A   1      40.647  29.926  29.268  1.00  0.00     0.049 A 
ATOM     58  H   UNL A   1      42.709  30.209  29.196  1.00  0.00     0.167 HD
ATOM     59  C   UNL A   1      47.100  30.506  29.202  1.00  0.00     0.034 A 
ATOM     60  C   UNL A   1      40.126  30.949  29.974  1.00  0.00     0.034 A 
ATOM     61  C   UNL A   1      46.627  31.693  29.874  1.00  0.00     0.049 A 
ATOM     62  C   UNL A   1      41.056  31.997  30.529  1.00  0.00     0.074 A 
ATOM     63  C   UNL A   1      47.362  32.765  30.351  1.00  0.00     0.029 A 
ATOM     64  N   UNL A   1      45.297  31.961  30.175  1.00  0.00    -0.354 N 
ATOM     65  N   UNL A   1      42.365  32.061  30.450  1.00  0.00    -0.248 NA
ATOM     66  C   UNL A   1      40.440  33.111  31.261  1.00  0.00     0.031 C 
ATOM     67  C   UNL A   1      46.488  33.645  30.997  1.00  0.00     0.029 A 
ATOM     68  C   UNL A   1      45.196  33.161  30.862  1.00  0.00     0.049 A 
ATOM     69  H   UNL A   1      44.538  31.381  29.936  1.00  0.00     0.167 HD
ATOM     70  C   UNL A   1      42.726  33.235  31.106  1.00  0.00     0.074 A 
ATOM     71  C   UNL A   1      41.496  33.855  31.554  1.00  0.00     0.031 C 
ATOM     72  C   UNL A   1      43.963  33.753  31.321  1.00  0.00     0.034 A 
BRANCH  59  73
ATOM     73  C   UNL A   1      48.586  30.311  29.027  1.00  0.00     0.023 A 
ATOM     74  C   UNL A   1      49.248  30.719  27.855  1.00  0.00     0.031 A 
ATOM     75  C   UNL A   1      49.350  29.695  30.033  1.00  0.00     0.131 A 
ATOM     76  C   UNL A   1      50.614  30.445  27.690  1.00  0.00     0.055 A 
ATOM     77  C   UNL A   1      50.726  29.494  29.894  1.00  0.00     0.041 A 
ATOM     78  F   UNL A   1      48.772  29.266  31.166  1.00  0.00    -0.206 F 
ATOM     79  C   UNL A   1      51.363  29.857  28.710  1.00  0.00     0.022 A 
BRANCH  76  80
ATOM     80  S   UNL A   1      51.367  30.747  26.067  1.00  0.00     0.124 S 
ATOM     81  O   UNL A   1      50.833  29.636  25.283  1.00  0.00    -0.237 OA
ATOM     82  O   UNL A   1      50.860  32.072  25.727  1.00  0.00    -0.237 OA
ATOM     83  O   UNL A   1      52.802  30.678  26.337  1.00  0.00    -0.744 OA
ENDBRANCH  76  80
ENDBRANCH  59  73
BRANCH  60  84
ATOM     84  C   UNL A   1      38.657  31.020  30.229  1.00  0.00     0.023 A 
ATOM     85  C   UNL A   1      37.826  31.845  29.455  1.00  0.00     0.031 A 
ATOM     86  C   UNL A   1      38.072  30.296  31.283  1.00  0.00     0.131 A 
ATOM     87  C   UNL A   1      36.464  31.962  29.776  1.00  0.00     0.055 A 
ATOM     88  C   UNL A   1      36.706  30.374  31.563  1.00  0.00     0.041 A 
ATOM     89  F   UNL A   1      38.819  29.487  32.051  1.00  0.00    -0.206 F 
ATOM     90  C   UNL A   1      35.896  31.223  30.816  1.00  0.00     0.022 A 
BRANCH  87  91
ATOM     91  S   UNL A   1      35.460  33.171  28.868  1.00  0.00     0.124 S 
ATOM     92  O   UNL A   1      36.115  34.425  29.220  1.00  0.00    -0.237 OA
ATOM     93  O   UNL A   1      35.627  32.724  27.488  1.00  0.00    -0.237 OA
ATOM     94  O   UNL A   1      34.123  32.985  29.424  1.00  0.00    -0.744 OA
ENDBRANCH  87  91
ENDBRANCH  60  84
BRANCH  72  95
ATOM     95  C   UNL A   1      44.029  35.069  32.056  1.00  0.00     0.023 A 
ATOM     96  C   UNL A   1      44.173  35.125  33.453  1.00  0.00     0.031 A 
ATOM     97  C   UNL A   1      43.936  36.282  31.351  1.00  0.00     0.131 A 
ATOM     98  C   UNL A   1      44.165  36.366  34.107  1.00  0.00     0.055 A 
ATOM     99  C   UNL A   1      43.986  37.515  32.001  1.00  0.00     0.041 A 
ATOM    100  F   UNL A   1      43.794  36.287  30.016  1.00  0.00    -0.206 F 
ATOM    101  C   UNL A   1      44.090  37.561  33.389  1.00  0.00     0.022 A 
BRANCH  98 102
ATOM    102  S   UNL A   1      44.169  36.393  35.921  1.00  0.00     0.124 S 
ATOM    103  O   UNL A   1      43.846  35.007  36.246  1.00  0.00    -0.237 OA
ATOM    104  O   UNL A   1      45.531  36.817  36.225  1.00  0.00    -0.237 OA
ATOM    105  O   UNL A   1      43.130  37.366  36.252  1.00  0.00    -0.744 OA
ENDBRANCH  98 102
ENDBRANCH  72  95
ENDBRANCH  46  47
ENDBRANCH  38  41
ENDBRANCH  36  37
ENDBRANCH  35  36
ENDBRANCH  34  35
ENDBRANCH  33  34
ENDBRANCH   1  33
TORSDOF 22
ENDMDL
MODEL 3
REMARK VINA RESULT:     -10.3      4.173      9.531
REMARK SMILES COc1ccc(C(=O)Nc2ccccc2C(=O)N[C@@H](C(=O)NCCCCCCNC(=O)c2ccc(-c3c4nc(c(-c5cc(S(=O)(=O)[O-])ccc5F)c5ccc([nH]5)c(-c5cc(S(=O)(=O)[O-])ccc5F)c5nc(c(-c6cc(S(=O)(=O)[O-])ccc6F)c6ccc3[nH]6)C=C5)C=C4)cc2)C(C)C)cc1
REMARK SMILES IDX 24 1 23 2 22 3 20 4 21 5 19 7 18 8 16 9 17 10 15 12 10 13
REMARK SMILES IDX 11 14 12 15 14 16 13 17 9 18 7 19 8 20 6 22 3 23 4 24 99 25
REMARK SMILES IDX 5 26 98 27 2 28 1 29 95 30 96 31 97 32 25 33 26 34 27 35
REMARK SMILES IDX 28 36 29 37 30 38 31 40 32 41 33 42 94 43 34 44 93 45 35 46
REMARK SMILES IDX 36 47 37 48 87 49 38 50 92 51 86 52 88 53 39 54 91 55 85 56
REMARK SMILES IDX 84 57 40 59 72 60 52 61 71 62 53 63 56 64 70 65 89 66 54 67
REMARK SMILES IDX 55 68 69 70 90 71 57 72 41 73 42 74 50 75 43 76 49 77 51 78
REMARK SMILES IDX 48 79 44 80 45 81 46 82 47 83 73 84 74 85 82 86 75 87 81 88
REMARK SMILES IDX 83 89 80 90 76 91 77 92 78 93 79 94 58 95 59 96 67 97 60 98
REMARK SMILES IDX 66 99 68 100 65 101 61 102 62 103 63 104 64 105
REMARK H PARENT 22 6 18 11 9 21 29 39 88 58 56 69
REMARK Flexibility Score: inf
ROOT
ATOM      1  C   UNL A   1      35.381  29.336  27.201  1.00  0.00     0.021 C 
ENDROOT
BRANCH   1   2
ATOM      2  C   UNL A   1      33.905  29.347  26.795  1.00  0.00     0.116 C 
BRANCH   2   3
ATOM      3  N   UNL A   1      33.805  29.401  25.359  1.00  0.00    -0.354 N 
ATOM      4  C   UNL A   1      33.680  28.364  24.495  1.00  0.00     0.242 C 
ATOM      5  O   UNL A   1      34.179  28.535  23.377  1.00  0.00    -0.273 OA
ATOM      6  H   UNL A   1      33.834  30.299  24.957  1.00  0.00     0.163 HD
BRANCH   4   7
ATOM      7  C   UNL A   1      32.956  27.036  24.905  1.00  0.00     0.174 C 
BRANCH   7   8
ATOM      8  N   UNL A   1      33.017  26.128  23.744  1.00  0.00    -0.340 N 
ATOM      9  C   UNL A   1      33.819  25.069  23.350  1.00  0.00     0.254 C 
ATOM     10  O   UNL A   1      33.813  24.848  22.134  1.00  0.00    -0.269 OA
ATOM     11  H   UNL A   1      32.313  26.322  23.084  1.00  0.00     0.164 HD
BRANCH   9  12
ATOM     12  C   UNL A   1      34.709  24.192  24.201  1.00  0.00     0.063 A 
ATOM     13  C   UNL A   1      34.553  23.845  25.551  1.00  0.00     0.054 A 
ATOM     14  C   UNL A   1      35.588  23.183  26.250  1.00  0.00     0.027 A 
ATOM     15  C   UNL A   1      36.691  22.670  25.574  1.00  0.00     0.002 A 
ATOM     16  C   UNL A   1      35.830  23.634  23.538  1.00  0.00     0.016 A 
ATOM     17  C   UNL A   1      36.787  22.855  24.204  1.00  0.00     0.001 A 
BRANCH  13  18
ATOM     18  N   UNL A   1      33.351  23.906  26.269  1.00  0.00    -0.321 N 
ATOM     19  C   UNL A   1      32.421  22.890  26.356  1.00  0.00     0.255 C 
ATOM     20  O   UNL A   1      31.532  22.949  27.202  1.00  0.00    -0.269 OA
ATOM     21  H   UNL A   1      33.153  24.743  26.749  1.00  0.00     0.170 HD
BRANCH  19  22
ATOM     22  C   UNL A   1      32.524  21.686  25.506  1.00  0.00     0.040 A 
ATOM     23  C   UNL A   1      32.607  19.445  23.847  1.00  0.00     0.118 A 
ATOM     24  C   UNL A   1      32.205  20.667  23.331  1.00  0.00     0.047 A 
ATOM     25  C   UNL A   1      33.013  19.348  25.183  1.00  0.00     0.047 A 
ATOM     26  C   UNL A   1      32.136  21.767  24.171  1.00  0.00     0.017 A 
ATOM     27  C   UNL A   1      32.971  20.470  26.020  1.00  0.00     0.017 A 
BRANCH  23  28
ATOM     28  O   UNL A   1      32.593  18.411  22.954  1.00  0.00    -0.497 OA
ATOM     29  C   UNL A   1      33.358  17.288  23.372  1.00  0.00     0.278 C 
ENDBRANCH  23  28
ENDBRANCH  19  22
ENDBRANCH  13  18
ENDBRANCH   9  12
ENDBRANCH   7   8
BRANCH   7  30
ATOM     30  C   UNL A   1      31.499  27.515  25.304  1.00  0.00     0.015 C 
ATOM     31  C   UNL A   1      30.446  27.756  24.231  1.00  0.00     0.010 C 
ATOM     32  C   UNL A   1      30.896  26.529  26.318  1.00  0.00     0.010 C 
ENDBRANCH   7  30
ENDBRANCH   4   7
ENDBRANCH   2   3
ENDBRANCH   1   2
BRANCH   1  33
ATOM     33  C   UNL A   1      35.785  30.581  28.005  1.00  0.00     0.002 C 
BRANCH  33  34
ATOM     34  C   UNL A   1      34.713  31.675  28.045  1.00  0.00     0.002 C 
BRANCH  34  35
ATOM     35  C   UNL A   1      34.590  32.388  29.393  1.00  0.00     0.021 C 
BRANCH  35  36
ATOM     36  C   UNL A   1      35.872  32.383  30.223  1.00  0.00     0.116 C 
BRANCH  36  37
ATOM     37  N   UNL A   1      35.834  31.363  31.260  1.00  0.00    -0.352 N 
ATOM     38  C   UNL A   1      36.838  30.540  31.708  1.00  0.00     0.251 C 
ATOM     39  H   UNL A   1      34.964  31.246  31.705  1.00  0.00     0.163 HD
ATOM     40  O   UNL A   1      36.569  29.572  32.409  1.00  0.00    -0.269 OA
BRANCH  38  41
ATOM     41  C   UNL A   1      38.236  30.823  31.323  1.00  0.00     0.039 A 
ATOM     42  C   UNL A   1      38.695  30.397  30.074  1.00  0.00     0.014 A 
ATOM     43  C   UNL A   1      39.086  31.514  32.191  1.00  0.00     0.014 A 
ATOM     44  C   UNL A   1      39.989  30.729  29.668  1.00  0.00     0.010 A 
ATOM     45  C   UNL A   1      40.352  31.897  31.759  1.00  0.00     0.010 A 
ATOM     46  C   UNL A   1      40.812  31.517  30.490  1.00  0.00    -0.014 A 
BRANCH  46  47
ATOM     47  C   UNL A   1      42.144  31.981  30.027  1.00  0.00     0.031 A 
ATOM     48  C   UNL A   1      42.351  33.417  29.637  1.00  0.00     0.074 A 
ATOM     49  C   UNL A   1      43.142  31.086  29.887  1.00  0.00     0.049 A 
ATOM     50  N   UNL A   1      43.408  33.989  29.120  1.00  0.00    -0.248 NA
ATOM     51  C   UNL A   1      41.210  34.323  29.832  1.00  0.00     0.031 C 
ATOM     52  C   UNL A   1      43.042  29.656  30.195  1.00  0.00     0.029 A 
ATOM     53  N   UNL A   1      44.429  31.237  29.435  1.00  0.00    -0.354 N 
ATOM     54  C   UNL A   1      43.061  35.321  28.925  1.00  0.00     0.074 A 
ATOM     55  C   UNL A   1      41.675  35.455  29.323  1.00  0.00     0.031 C 
ATOM     56  C   UNL A   1      44.219  29.067  29.932  1.00  0.00     0.029 A 
ATOM     57  C   UNL A   1      45.141  30.061  29.393  1.00  0.00     0.049 A 
ATOM     58  H   UNL A   1      44.805  32.105  29.165  1.00  0.00     0.167 HD
ATOM     59  C   UNL A   1      43.834  36.341  28.476  1.00  0.00     0.034 A 
ATOM     60  C   UNL A   1      46.388  29.808  28.949  1.00  0.00     0.034 A 
ATOM     61  C   UNL A   1      45.215  36.188  28.082  1.00  0.00     0.049 A 
ATOM     62  C   UNL A   1      47.215  30.949  28.416  1.00  0.00     0.074 A 
ATOM     63  C   UNL A   1      46.104  37.161  27.660  1.00  0.00     0.029 A 
ATOM     64  N   UNL A   1      45.904  34.982  28.051  1.00  0.00    -0.354 N 
ATOM     65  N   UNL A   1      46.887  32.214  28.285  1.00  0.00    -0.248 NA
ATOM     66  C   UNL A   1      48.579  30.631  27.975  1.00  0.00     0.031 C 
ATOM     67  C   UNL A   1      47.307  36.536  27.311  1.00  0.00     0.029 A 
ATOM     68  C   UNL A   1      47.194  35.182  27.582  1.00  0.00     0.049 A 
ATOM     69  H   UNL A   1      45.529  34.112  28.320  1.00  0.00     0.167 HD
ATOM     70  C   UNL A   1      48.014  32.845  27.766  1.00  0.00     0.074 A 
ATOM     71  C   UNL A   1      49.035  31.826  27.629  1.00  0.00     0.031 C 
ATOM     72  C   UNL A   1      48.191  34.149  27.431  1.00  0.00     0.034 A 
BRANCH  59  73
ATOM     73  C   UNL A   1      43.194  37.704  28.370  1.00  0.00     0.023 A 
ATOM     74  C   UNL A   1      43.305  38.651  29.403  1.00  0.00     0.031 A 
ATOM     75  C   UNL A   1      42.447  38.057  27.233  1.00  0.00     0.131 A 
ATOM     76  C   UNL A   1      42.626  39.875  29.309  1.00  0.00     0.055 A 
ATOM     77  C   UNL A   1      41.836  39.308  27.111  1.00  0.00     0.041 A 
ATOM     78  F   UNL A   1      42.288  37.188  26.222  1.00  0.00    -0.206 F 
ATOM     79  C   UNL A   1      41.911  40.219  28.160  1.00  0.00     0.022 A 
BRANCH  76  80
ATOM     80  S   UNL A   1      42.580  40.953  30.767  1.00  0.00     0.124 S 
ATOM     81  O   UNL A   1      43.339  42.111  30.301  1.00  0.00    -0.237 OA
ATOM     82  O   UNL A   1      41.149  41.161  30.960  1.00  0.00    -0.237 OA
ATOM     83  O   UNL A   1      43.241  40.159  31.802  1.00  0.00    -0.744 OA
ENDBRANCH  76  80
ENDBRANCH  59  73
BRANCH  60  84
ATOM     84  C   UNL A   1      46.923  28.415  28.955  1.00  0.00     0.023 A 
ATOM     85  C   UNL A   1      47.613  27.908  30.068  1.00  0.00     0.031 A 
ATOM     86  C   UNL A   1      46.789  27.585  27.828  1.00  0.00     0.131 A 
ATOM     87  C   UNL A   1      48.184  26.627  30.011  1.00  0.00     0.055 A 
ATOM     88  C   UNL A   1      47.313  26.291  27.797  1.00  0.00     0.041 A 
ATOM     89  F   UNL A   1      46.134  28.017  26.738  1.00  0.00    -0.206 F 
ATOM     90  C   UNL A   1      48.029  25.811  28.889  1.00  0.00     0.022 A 
BRANCH  87  91
ATOM     91  S   UNL A   1      49.218  26.077  31.397  1.00  0.00     0.124 S 
ATOM     92  O   UNL A   1      49.786  27.336  31.862  1.00  0.00    -0.237 OA
ATOM     93  O   UNL A   1      48.235  25.452  32.276  1.00  0.00    -0.237 OA
ATOM     94  O   UNL A   1      50.164  25.157  30.769  1.00  0.00    -0.744 OA
ENDBRANCH  87  91
ENDBRANCH  60  84
BRANCH  72  95
ATOM     95  C   UNL A   1      49.551  34.537  26.907  1.00  0.00     0.023 A 
ATOM     96  C   UNL A   1      50.677  34.586  27.747  1.00  0.00     0.031 A 
ATOM     97  C   UNL A   1      49.720  34.875  25.552  1.00  0.00     0.131 A 
ATOM     98  C   UNL A   1      51.911  35.015  27.237  1.00  0.00     0.055 A 
ATOM     99  C   UNL A   1      50.963  35.246  25.038  1.00  0.00     0.041 A 
ATOM    100  F   UNL A   1      48.678  34.849  24.707  1.00  0.00    -0.206 F 
ATOM    101  C   UNL A   1      52.065  35.329  25.885  1.00  0.00     0.022 A 
BRANCH  98 102
ATOM    102  S   UNL A   1      53.297  35.240  28.387  1.00  0.00     0.124 S 
ATOM    103  O   UNL A   1      52.935  34.340  29.477  1.00  0.00    -0.237 OA
ATOM    104  O   UNL A   1      54.442  34.834  27.579  1.00  0.00    -0.237 OA
ATOM    105  O   UNL A   1      53.244  36.664  28.713  1.00  0.00    -0.744 OA
ENDBRANCH  98 102
ENDBRANCH  72  95
ENDBRANCH  46  47
ENDBRANCH  38  41
ENDBRANCH  36  37
ENDBRANCH  35  36
ENDBRANCH  34  35
ENDBRANCH  33  34
ENDBRANCH   1  33
TORSDOF 22
ENDMDL
