MODEL 1
REMARK VINA RESULT:     -11.6      0.000      0.000
REMARK SMILES COc1ccc2c(c1)C=C(C(=O)NCCCCCCNC(=O)c1ccc(-c3c4nc(c(-c5cc(S(=O)(=O)[O-])ccc5F)c5ccc([nH]5)c(-c5cc(S(=O)(=O)[O-])ccc5F)c5nc(c(-c6cc(S(=O)(=O)[O-])ccc6F)c6ccc3[nH]6)C=C5)C=C4)cc1)[C@H](C(F)(F)F)O2
REMARK SMILES IDX 17 1 16 2 15 3 14 4 13 5 11 6 12 7 10 9 3 10 4 11 8 12 5 13
REMARK SMILES IDX 7 14 6 15 9 16 91 17 86 18 2 19 1 20 87 21 88 22 89 23 90 24
REMARK SMILES IDX 18 25 19 26 20 27 21 28 22 30 23 31 24 32 85 33 25 34 84 35
REMARK SMILES IDX 26 36 27 37 28 38 78 39 29 40 83 41 77 42 79 43 30 44 82 45
REMARK SMILES IDX 76 46 75 47 31 49 63 50 43 51 62 52 44 53 47 54 61 55 80 56
REMARK SMILES IDX 45 57 46 58 60 60 81 61 48 62 32 63 33 64 41 65 34 66 40 67
REMARK SMILES IDX 42 68 39 69 35 70 36 71 37 72 38 73 64 74 65 75 73 76 66 77
REMARK SMILES IDX 72 78 74 79 71 80 67 81 68 82 69 83 70 84 49 85 50 86 58 87
REMARK SMILES IDX 51 88 57 89 59 90 56 91 52 92 53 93 54 94 55 95
REMARK H PARENT 13 8 20 29 79 48 47 59
REMARK Flexibility Score: inf
ROOT
ATOM      1  C   UNL A   1      37.402  21.110  24.617  1.00  0.00     0.002 C 
ENDROOT
BRANCH   1   2
ATOM      2  C   UNL A   1      37.223  22.123  25.754  1.00  0.00     0.002 C 
BRANCH   2   3
ATOM      3  C   UNL A   1      37.137  23.588  25.298  1.00  0.00     0.021 C 
BRANCH   3   4
ATOM      4  C   UNL A   1      35.702  24.037  24.996  1.00  0.00     0.116 C 
BRANCH   4   5
ATOM      5  N   UNL A   1      34.845  23.691  26.118  1.00  0.00    -0.352 N 
ATOM      6  C   UNL A   1      33.798  22.837  26.251  1.00  0.00     0.251 C 
ATOM      7  O   UNL A   1      33.109  22.929  27.265  1.00  0.00    -0.270 OA
ATOM      8  H   UNL A   1      35.069  24.171  26.947  1.00  0.00     0.163 HD
BRANCH   6   9
ATOM      9  C   UNL A   1      33.512  21.747  25.282  1.00  0.00     0.067 C 
ATOM     10  C   UNL A   1      33.502  17.146  23.828  1.00  0.00     0.119 A 
ATOM     11  C   UNL A   1      32.586  17.453  22.824  1.00  0.00     0.050 A 
ATOM     12  C   UNL A   1      33.987  18.148  24.668  1.00  0.00     0.058 A 
ATOM     13  C   UNL A   1      32.164  18.774  22.656  1.00  0.00     0.051 A 
ATOM     14  C   UNL A   1      33.573  19.472  24.493  1.00  0.00     0.021 A 
ATOM     15  C   UNL A   1      32.654  19.778  23.492  1.00  0.00     0.128 A 
ATOM     16  C   UNL A   1      34.004  20.507  25.419  1.00  0.00     0.025 C 
ATOM     17  O   UNL A   1      32.125  21.022  23.322  1.00  0.00    -0.475 OA
ATOM     18  C   UNL A   1      32.746  22.141  24.021  1.00  0.00     0.314 C 
BRANCH  10  19
ATOM     19  O   UNL A   1      33.880  15.865  24.120  1.00  0.00    -0.497 OA
ATOM     20  C   UNL A   1      33.137  15.304  25.198  1.00  0.00     0.278 C 
ENDBRANCH  10  19
BRANCH  18  21
ATOM     21  C   UNL A   1      31.663  23.236  24.166  1.00  0.00     0.429 C 
ATOM     22  F   UNL A   1      32.184  24.474  24.328  1.00  0.00    -0.167 F 
ATOM     23  F   UNL A   1      30.903  23.318  23.038  1.00  0.00    -0.167 F 
ATOM     24  F   UNL A   1      30.811  22.995  25.188  1.00  0.00    -0.167 F 
ENDBRANCH  18  21
ENDBRANCH   6   9
ENDBRANCH   4   5
ENDBRANCH   3   4
ENDBRANCH   2   3
ENDBRANCH   1   2
BRANCH   1  25
ATOM     25  C   UNL A   1      38.332  19.938  24.941  1.00  0.00     0.021 C 
BRANCH  25  26
ATOM     26  C   UNL A   1      39.259  20.188  26.125  1.00  0.00     0.116 C 
BRANCH  26  27
ATOM     27  N   UNL A   1      40.387  19.271  26.118  1.00  0.00    -0.352 N 
ATOM     28  C   UNL A   1      41.731  19.552  26.080  1.00  0.00     0.251 C 
ATOM     29  H   UNL A   1      40.155  18.314  26.142  1.00  0.00     0.163 HD
ATOM     30  O   UNL A   1      42.531  18.664  25.807  1.00  0.00    -0.269 OA
BRANCH  28  31
ATOM     31  C   UNL A   1      42.201  20.927  26.360  1.00  0.00     0.039 A 
ATOM     32  C   UNL A   1      42.537  21.276  27.669  1.00  0.00     0.014 A 
ATOM     33  C   UNL A   1      42.288  21.873  25.335  1.00  0.00     0.014 A 
ATOM     34  C   UNL A   1      43.001  22.564  27.942  1.00  0.00     0.010 A 
ATOM     35  C   UNL A   1      42.821  23.132  25.596  1.00  0.00     0.010 A 
ATOM     36  C   UNL A   1      43.171  23.496  26.905  1.00  0.00    -0.014 A 
BRANCH  36  37
ATOM     37  C   UNL A   1      43.681  24.865  27.177  1.00  0.00     0.031 A 
ATOM     38  C   UNL A   1      42.751  25.919  27.716  1.00  0.00     0.074 A 
ATOM     39  C   UNL A   1      44.963  25.170  26.896  1.00  0.00     0.049 A 
ATOM     40  N   UNL A   1      42.985  27.182  27.966  1.00  0.00    -0.248 NA
ATOM     41  C   UNL A   1      41.365  25.503  27.977  1.00  0.00     0.031 C 
ATOM     42  C   UNL A   1      45.947  24.242  26.335  1.00  0.00     0.029 A 
ATOM     43  N   UNL A   1      45.658  26.343  27.038  1.00  0.00    -0.354 N 
ATOM     44  C   UNL A   1      41.776  27.713  28.403  1.00  0.00     0.074 A 
ATOM     45  C   UNL A   1      40.797  26.650  28.313  1.00  0.00     0.031 C 
ATOM     46  C   UNL A   1      47.125  24.873  26.210  1.00  0.00     0.029 A 
ATOM     47  C   UNL A   1      46.971  26.261  26.636  1.00  0.00     0.049 A 
ATOM     48  H   UNL A   1      45.256  27.168  27.394  1.00  0.00     0.167 HD
ATOM     49  C   UNL A   1      41.513  28.962  28.863  1.00  0.00     0.034 A 
ATOM     50  C   UNL A   1      47.940  27.198  26.607  1.00  0.00     0.034 A 
ATOM     51  C   UNL A   1      42.506  30.005  28.954  1.00  0.00     0.049 A 
ATOM     52  C   UNL A   1      47.618  28.588  27.097  1.00  0.00     0.074 A 
ATOM     53  C   UNL A   1      42.366  31.290  29.447  1.00  0.00     0.029 A 
ATOM     54  N   UNL A   1      43.826  29.887  28.533  1.00  0.00    -0.354 N 
ATOM     55  N   UNL A   1      46.481  29.062  27.554  1.00  0.00    -0.248 NA
ATOM     56  C   UNL A   1      48.714  29.564  27.078  1.00  0.00     0.031 C 
ATOM     57  C   UNL A   1      43.575  31.968  29.260  1.00  0.00     0.029 A 
ATOM     58  C   UNL A   1      44.498  31.084  28.726  1.00  0.00     0.049 A 
ATOM     59  H   UNL A   1      44.224  29.070  28.153  1.00  0.00     0.167 HD
ATOM     60  C   UNL A   1      46.737  30.384  27.909  1.00  0.00     0.074 A 
ATOM     61  C   UNL A   1      48.137  30.624  27.625  1.00  0.00     0.031 C 
ATOM     62  C   UNL A   1      45.893  31.313  28.427  1.00  0.00     0.034 A 
BRANCH  49  63
ATOM     63  C   UNL A   1      40.089  29.265  29.272  1.00  0.00     0.023 A 
ATOM     64  C   UNL A   1      39.711  29.347  30.624  1.00  0.00     0.031 A 
ATOM     65  C   UNL A   1      39.088  29.436  28.300  1.00  0.00     0.131 A 
ATOM     66  C   UNL A   1      38.359  29.502  30.967  1.00  0.00     0.055 A 
ATOM     67  C   UNL A   1      37.757  29.682  28.648  1.00  0.00     0.041 A 
ATOM     68  F   UNL A   1      39.380  29.347  26.993  1.00  0.00    -0.206 F 
ATOM     69  C   UNL A   1      37.382  29.697  29.989  1.00  0.00     0.022 A 
BRANCH  66  70
ATOM     70  S   UNL A   1      37.876  29.279  32.701  1.00  0.00     0.124 S 
ATOM     71  O   UNL A   1      37.728  27.826  32.780  1.00  0.00    -0.237 OA
ATOM     72  O   UNL A   1      39.010  29.846  33.421  1.00  0.00    -0.237 OA
ATOM     73  O   UNL A   1      36.628  30.030  32.809  1.00  0.00    -0.744 OA
ENDBRANCH  66  70
ENDBRANCH  49  63
BRANCH  50  74
ATOM     74  C   UNL A   1      49.300  26.863  26.098  1.00  0.00     0.023 A 
ATOM     75  C   UNL A   1      49.710  27.261  24.815  1.00  0.00     0.031 A 
ATOM     76  C   UNL A   1      50.198  26.108  26.873  1.00  0.00     0.131 A 
ATOM     77  C   UNL A   1      50.964  26.862  24.327  1.00  0.00     0.055 A 
ATOM     78  C   UNL A   1      51.466  25.760  26.403  1.00  0.00     0.041 A 
ATOM     79  F   UNL A   1      49.859  25.706  28.108  1.00  0.00    -0.206 F 
ATOM     80  C   UNL A   1      51.851  26.127  25.117  1.00  0.00     0.022 A 
BRANCH  77  81
ATOM     81  S   UNL A   1      51.389  27.249  22.607  1.00  0.00     0.124 S 
ATOM     82  O   UNL A   1      52.634  26.510  22.434  1.00  0.00    -0.237 OA
ATOM     83  O   UNL A   1      50.230  26.733  21.886  1.00  0.00    -0.237 OA
ATOM     84  O   UNL A   1      51.521  28.704  22.609  1.00  0.00    -0.744 OA
ENDBRANCH  77  81
ENDBRANCH  50  74
BRANCH  62  85
ATOM     85  C   UNL A   1      46.482  32.662  28.764  1.00  0.00     0.023 A 
ATOM     86  C   UNL A   1      46.476  33.726  27.845  1.00  0.00     0.031 A 
ATOM     87  C   UNL A   1      47.071  32.881  30.023  1.00  0.00     0.131 A 
ATOM     88  C   UNL A   1      47.100  34.938  28.175  1.00  0.00     0.055 A 
ATOM     89  C   UNL A   1      47.632  34.110  30.370  1.00  0.00     0.041 A 
ATOM     90  F   UNL A   1      47.108  31.899  30.939  1.00  0.00    -0.206 F 
ATOM     91  C   UNL A   1      47.661  35.144  29.438  1.00  0.00     0.022 A 
BRANCH  88  92
ATOM     92  S   UNL A   1      47.258  36.214  26.895  1.00  0.00     0.124 S 
ATOM     93  O   UNL A   1      48.000  35.508  25.855  1.00  0.00    -0.237 OA
ATOM     94  O   UNL A   1      45.865  36.521  26.587  1.00  0.00    -0.237 OA
ATOM     95  O   UNL A   1      47.994  37.284  27.565  1.00  0.00    -0.744 OA
ENDBRANCH  88  92
ENDBRANCH  62  85
ENDBRANCH  36  37
ENDBRANCH  28  31
ENDBRANCH  26  27
ENDBRANCH  25  26
ENDBRANCH   1  25
TORSDOF 18
ENDMDL
MODEL 2
REMARK VINA RESULT:     -11.5      5.897     11.584
REMARK SMILES COc1ccc2c(c1)C=C(C(=O)NCCCCCCNC(=O)c1ccc(-c3c4nc(c(-c5cc(S(=O)(=O)[O-])ccc5F)c5ccc([nH]5)c(-c5cc(S(=O)(=O)[O-])ccc5F)c5nc(c(-c6cc(S(=O)(=O)[O-])ccc6F)c6ccc3[nH]6)C=C5)C=C4)cc1)[C@H](C(F)(F)F)O2
REMARK SMILES IDX 17 1 16 2 15 3 14 4 13 5 11 6 12 7 10 9 3 10 4 11 8 12 5 13
REMARK SMILES IDX 7 14 6 15 9 16 91 17 86 18 2 19 1 20 87 21 88 22 89 23 90 24
REMARK SMILES IDX 18 25 19 26 20 27 21 28 22 30 23 31 24 32 85 33 25 34 84 35
REMARK SMILES IDX 26 36 27 37 28 38 78 39 29 40 83 41 77 42 79 43 30 44 82 45
REMARK SMILES IDX 76 46 75 47 31 49 63 50 43 51 62 52 44 53 47 54 61 55 80 56
REMARK SMILES IDX 45 57 46 58 60 60 81 61 48 62 32 63 33 64 41 65 34 66 40 67
REMARK SMILES IDX 42 68 39 69 35 70 36 71 37 72 38 73 64 74 65 75 73 76 66 77
REMARK SMILES IDX 72 78 74 79 71 80 67 81 68 82 69 83 70 84 49 85 50 86 58 87
REMARK SMILES IDX 51 88 57 89 59 90 56 91 52 92 53 93 54 94 55 95
REMARK H PARENT 13 8 20 29 79 48 47 59
REMARK Flexibility Score: inf
ROOT
ATOM      1  C   UNL A   1      31.769  30.625  26.754  1.00  0.00     0.002 C 
ENDROOT
BRANCH   1   2
ATOM      2  C   UNL A   1      31.408  29.999  25.402  1.00  0.00     0.002 C 
BRANCH   2   3
ATOM      3  C   UNL A   1      31.486  28.464  25.367  1.00  0.00     0.021 C 
BRANCH   3   4
ATOM      4  C   UNL A   1      32.103  27.868  26.639  1.00  0.00     0.116 C 
BRANCH   4   5
ATOM      5  N   UNL A   1      31.441  26.610  26.948  1.00  0.00    -0.352 N 
ATOM      6  C   UNL A   1      31.525  25.367  26.410  1.00  0.00     0.251 C 
ATOM      7  O   UNL A   1      30.664  24.547  26.724  1.00  0.00    -0.270 OA
ATOM      8  H   UNL A   1      30.807  26.673  27.697  1.00  0.00     0.163 HD
BRANCH   6   9
ATOM      9  C   UNL A   1      32.652  24.932  25.544  1.00  0.00     0.067 C 
ATOM     10  C   UNL A   1      36.910  22.814  24.727  1.00  0.00     0.119 A 
ATOM     11  C   UNL A   1      36.647  22.786  23.359  1.00  0.00     0.050 A 
ATOM     12  C   UNL A   1      35.994  23.388  25.608  1.00  0.00     0.058 A 
ATOM     13  C   UNL A   1      35.464  23.347  22.873  1.00  0.00     0.051 A 
ATOM     14  C   UNL A   1      34.815  23.959  25.120  1.00  0.00     0.021 A 
ATOM     15  C   UNL A   1      34.550  23.927  23.753  1.00  0.00     0.128 A 
ATOM     16  C   UNL A   1      33.814  24.480  26.038  1.00  0.00     0.025 C 
ATOM     17  O   UNL A   1      33.381  24.369  23.210  1.00  0.00    -0.475 OA
ATOM     18  C   UNL A   1      32.487  25.165  24.044  1.00  0.00     0.314 C 
BRANCH  10  19
ATOM     19  O   UNL A   1      37.993  22.195  25.287  1.00  0.00    -0.497 OA
ATOM     20  C   UNL A   1      37.878  20.775  25.282  1.00  0.00     0.278 C 
ENDBRANCH  10  19
BRANCH  18  21
ATOM     21  C   UNL A   1      31.065  25.007  23.456  1.00  0.00     0.429 C 
ATOM     22  F   UNL A   1      30.194  25.928  23.927  1.00  0.00    -0.167 F 
ATOM     23  F   UNL A   1      31.076  25.189  22.106  1.00  0.00    -0.167 F 
ATOM     24  F   UNL A   1      30.545  23.777  23.674  1.00  0.00    -0.167 F 
ENDBRANCH  18  21
ENDBRANCH   6   9
ENDBRANCH   4   5
ENDBRANCH   3   4
ENDBRANCH   2   3
ENDBRANCH   1   2
BRANCH   1  25
ATOM     25  C   UNL A   1      31.662  32.151  26.804  1.00  0.00     0.021 C 
BRANCH  25  26
ATOM     26  C   UNL A   1      32.958  32.854  27.193  1.00  0.00     0.116 C 
BRANCH  26  27
ATOM     27  N   UNL A   1      32.706  34.201  27.678  1.00  0.00    -0.352 N 
ATOM     28  C   UNL A   1      33.189  34.819  28.805  1.00  0.00     0.251 C 
ATOM     29  H   UNL A   1      32.104  34.746  27.121  1.00  0.00     0.163 HD
ATOM     30  O   UNL A   1      32.665  35.853  29.204  1.00  0.00    -0.269 OA
BRANCH  28  31
ATOM     31  C   UNL A   1      34.331  34.226  29.536  1.00  0.00     0.039 A 
ATOM     32  C   UNL A   1      34.079  33.385  30.621  1.00  0.00     0.014 A 
ATOM     33  C   UNL A   1      35.646  34.518  29.161  1.00  0.00     0.014 A 
ATOM     34  C   UNL A   1      35.148  32.803  31.305  1.00  0.00     0.010 A 
ATOM     35  C   UNL A   1      36.706  33.878  29.796  1.00  0.00     0.010 A 
ATOM     36  C   UNL A   1      36.469  33.024  30.884  1.00  0.00    -0.014 A 
BRANCH  36  37
ATOM     37  C   UNL A   1      37.617  32.397  31.591  1.00  0.00     0.031 A 
ATOM     38  C   UNL A   1      38.369  31.265  30.946  1.00  0.00     0.074 A 
ATOM     39  C   UNL A   1      37.949  32.816  32.828  1.00  0.00     0.049 A 
ATOM     40  N   UNL A   1      39.359  30.550  31.418  1.00  0.00    -0.248 NA
ATOM     41  C   UNL A   1      37.926  30.862  29.603  1.00  0.00     0.031 C 
ATOM     42  C   UNL A   1      37.269  33.879  33.571  1.00  0.00     0.029 A 
ATOM     43  N   UNL A   1      38.938  32.397  33.682  1.00  0.00    -0.354 N 
ATOM     44  C   UNL A   1      39.649  29.609  30.436  1.00  0.00     0.074 A 
ATOM     45  C   UNL A   1      38.682  29.800  29.376  1.00  0.00     0.031 C 
ATOM     46  C   UNL A   1      37.880  34.048  34.754  1.00  0.00     0.029 A 
ATOM     47  C   UNL A   1      38.964  33.078  34.876  1.00  0.00     0.049 A 
ATOM     48  H   UNL A   1      39.570  31.675  33.460  1.00  0.00     0.167 HD
ATOM     49  C   UNL A   1      40.646  28.689  30.410  1.00  0.00     0.034 A 
ATOM     50  C   UNL A   1      39.764  32.933  35.952  1.00  0.00     0.034 A 
ATOM     51  C   UNL A   1      41.606  28.522  31.474  1.00  0.00     0.049 A 
ATOM     52  C   UNL A   1      40.848  31.886  35.912  1.00  0.00     0.074 A 
ATOM     53  C   UNL A   1      42.686  27.657  31.534  1.00  0.00     0.029 A 
ATOM     54  N   UNL A   1      41.598  29.226  32.672  1.00  0.00    -0.354 N 
ATOM     55  N   UNL A   1      41.143  31.034  34.955  1.00  0.00    -0.248 NA
ATOM     56  C   UNL A   1      41.716  31.788  37.092  1.00  0.00     0.031 C 
ATOM     57  C   UNL A   1      43.284  27.788  32.791  1.00  0.00     0.029 A 
ATOM     58  C   UNL A   1      42.633  28.793  33.488  1.00  0.00     0.049 A 
ATOM     59  H   UNL A   1      40.952  29.931  32.906  1.00  0.00     0.167 HD
ATOM     60  C   UNL A   1      42.252  30.325  35.407  1.00  0.00     0.074 A 
ATOM     61  C   UNL A   1      42.580  30.858  36.713  1.00  0.00     0.031 C 
ATOM     62  C   UNL A   1      42.941  29.327  34.795  1.00  0.00     0.034 A 
BRANCH  49  63
ATOM     63  C   UNL A   1      40.722  27.783  29.201  1.00  0.00     0.023 A 
ATOM     64  C   UNL A   1      41.665  27.992  28.179  1.00  0.00     0.031 A 
ATOM     65  C   UNL A   1      39.815  26.719  29.048  1.00  0.00     0.131 A 
ATOM     66  C   UNL A   1      41.622  27.211  27.014  1.00  0.00     0.055 A 
ATOM     67  C   UNL A   1      39.838  25.887  27.926  1.00  0.00     0.041 A 
ATOM     68  F   UNL A   1      38.876  26.481  29.978  1.00  0.00    -0.206 F 
ATOM     69  C   UNL A   1      40.733  26.142  26.892  1.00  0.00     0.022 A 
BRANCH  66  70
ATOM     70  S   UNL A   1      42.634  27.719  25.596  1.00  0.00     0.124 S 
ATOM     71  O   UNL A   1      41.878  28.863  25.091  1.00  0.00    -0.237 OA
ATOM     72  O   UNL A   1      43.918  28.023  26.217  1.00  0.00    -0.237 OA
ATOM     73  O   UNL A   1      42.622  26.543  24.729  1.00  0.00    -0.744 OA
ENDBRANCH  66  70
ENDBRANCH  49  63
BRANCH  50  74
ATOM     74  C   UNL A   1      39.575  33.792  37.155  1.00  0.00     0.023 A 
ATOM     75  C   UNL A   1      38.895  33.312  38.286  1.00  0.00     0.031 A 
ATOM     76  C   UNL A   1      40.041  35.118  37.179  1.00  0.00     0.131 A 
ATOM     77  C   UNL A   1      38.657  34.167  39.374  1.00  0.00     0.055 A 
ATOM     78  C   UNL A   1      39.850  35.948  38.286  1.00  0.00     0.041 A 
ATOM     79  F   UNL A   1      40.703  35.625  36.127  1.00  0.00    -0.206 F 
ATOM     80  C   UNL A   1      39.142  35.476  39.388  1.00  0.00     0.022 A 
BRANCH  77  81
ATOM     81  S   UNL A   1      37.629  33.566  40.741  1.00  0.00     0.124 S 
ATOM     82  O   UNL A   1      37.329  34.803  41.454  1.00  0.00    -0.237 OA
ATOM     83  O   UNL A   1      36.514  32.947  40.032  1.00  0.00    -0.237 OA
ATOM     84  O   UNL A   1      38.510  32.637  41.445  1.00  0.00    -0.744 OA
ENDBRANCH  77  81
ENDBRANCH  50  74
BRANCH  62  85
ATOM     85  C   UNL A   1      44.149  28.783  35.520  1.00  0.00     0.023 A 
ATOM     86  C   UNL A   1      44.051  27.713  36.426  1.00  0.00     0.031 A 
ATOM     87  C   UNL A   1      45.416  29.356  35.309  1.00  0.00     0.131 A 
ATOM     88  C   UNL A   1      45.188  27.289  37.132  1.00  0.00     0.055 A 
ATOM     89  C   UNL A   1      46.555  28.887  35.964  1.00  0.00     0.041 A 
ATOM     90  F   UNL A   1      45.568  30.383  34.456  1.00  0.00    -0.206 F 
ATOM     91  C   UNL A   1      46.442  27.857  36.893  1.00  0.00     0.022 A 
BRANCH  88  92
ATOM     92  S   UNL A   1      44.988  26.051  38.442  1.00  0.00     0.124 S 
ATOM     93  O   UNL A   1      44.575  24.873  37.685  1.00  0.00    -0.237 OA
ATOM     94  O   UNL A   1      46.324  25.996  39.027  1.00  0.00    -0.237 OA
ATOM     95  O   UNL A   1      43.958  26.627  39.305  1.00  0.00    -0.744 OA
ENDBRANCH  88  92
ENDBRANCH  62  85
ENDBRANCH  36  37
ENDBRANCH  28  31
ENDBRANCH  26  27
ENDBRANCH  25  26
ENDBRANCH   1  25
TORSDOF 18
ENDMDL
MODEL 3
REMARK VINA RESULT:     -11.4      6.234     10.357
REMARK SMILES COc1ccc2c(c1)C=C(C(=O)NCCCCCCNC(=O)c1ccc(-c3c4nc(c(-c5cc(S(=O)(=O)[O-])ccc5F)c5ccc([nH]5)c(-c5cc(S(=O)(=O)[O-])ccc5F)c5nc(c(-c6cc(S(=O)(=O)[O-])ccc6F)c6ccc3[nH]6)C=C5)C=C4)cc1)[C@H](C(F)(F)F)O2
REMARK SMILES IDX 17 1 16 2 15 3 14 4 13 5 11 6 12 7 10 9 3 10 4 11 8 12 5 13
REMARK SMILES IDX 7 14 6 15 9 16 91 17 86 18 2 19 1 20 87 21 88 22 89 23 90 24
REMARK SMILES IDX 18 25 19 26 20 27 21 28 22 30 23 31 24 32 85 33 25 34 84 35
REMARK SMILES IDX 26 36 27 37 28 38 78 39 29 40 83 41 77 42 79 43 30 44 82 45
REMARK SMILES IDX 76 46 75 47 31 49 63 50 43 51 62 52 44 53 47 54 61 55 80 56
REMARK SMILES IDX 45 57 46 58 60 60 81 61 48 62 32 63 33 64 41 65 34 66 40 67
REMARK SMILES IDX 42 68 39 69 35 70 36 71 37 72 38 73 64 74 65 75 73 76 66 77
REMARK SMILES IDX 72 78 74 79 71 80 67 81 68 82 69 83 70 84 49 85 50 86 58 87
REMARK SMILES IDX 51 88 57 89 59 90 56 91 52 92 53 93 54 94 55 95
REMARK H PARENT 13 8 20 29 79 48 47 59
REMARK Flexibility Score: inf
ROOT
ATOM      1  C   UNL A   1      32.052  30.483  26.892  1.00  0.00     0.002 C 
ENDROOT
BRANCH   1   2
ATOM      2  C   UNL A   1      33.499  30.066  26.603  1.00  0.00     0.002 C 
BRANCH   2   3
ATOM      3  C   UNL A   1      33.924  28.741  27.254  1.00  0.00     0.021 C 
BRANCH   3   4
ATOM      4  C   UNL A   1      33.399  27.510  26.505  1.00  0.00     0.116 C 
BRANCH   4   5
ATOM      5  N   UNL A   1      33.846  27.564  25.122  1.00  0.00    -0.352 N 
ATOM      6  C   UNL A   1      33.184  27.573  23.937  1.00  0.00     0.251 C 
ATOM      7  O   UNL A   1      33.837  27.382  22.913  1.00  0.00    -0.270 OA
ATOM      8  H   UNL A   1      34.824  27.604  25.026  1.00  0.00     0.163 HD
BRANCH   6   9
ATOM      9  C   UNL A   1      31.737  27.894  23.819  1.00  0.00     0.067 C 
ATOM     10  C   UNL A   1      28.017  30.864  23.032  1.00  0.00     0.119 A 
ATOM     11  C   UNL A   1      27.166  29.773  22.865  1.00  0.00     0.050 A 
ATOM     12  C   UNL A   1      29.361  30.666  23.346  1.00  0.00     0.058 A 
ATOM     13  C   UNL A   1      27.665  28.479  23.026  1.00  0.00     0.051 A 
ATOM     14  C   UNL A   1      29.858  29.371  23.517  1.00  0.00     0.021 A 
ATOM     15  C   UNL A   1      29.009  28.280  23.346  1.00  0.00     0.128 A 
ATOM     16  C   UNL A   1      31.275  29.151  23.757  1.00  0.00     0.025 C 
ATOM     17  O   UNL A   1      29.437  26.988  23.395  1.00  0.00    -0.475 OA
ATOM     18  C   UNL A   1      30.768  26.718  23.926  1.00  0.00     0.314 C 
BRANCH  10  19
ATOM     19  O   UNL A   1      27.628  32.152  22.789  1.00  0.00    -0.497 OA
ATOM     20  C   UNL A   1      28.077  32.633  21.526  1.00  0.00     0.278 C 
ENDBRANCH  10  19
BRANCH  18  21
ATOM     21  C   UNL A   1      31.226  25.369  23.324  1.00  0.00     0.429 C 
ATOM     22  F   UNL A   1      30.248  24.435  23.317  1.00  0.00    -0.167 F 
ATOM     23  F   UNL A   1      31.581  25.516  22.017  1.00  0.00    -0.167 F 
ATOM     24  F   UNL A   1      32.303  24.854  23.959  1.00  0.00    -0.167 F 
ENDBRANCH  18  21
ENDBRANCH   6   9
ENDBRANCH   4   5
ENDBRANCH   3   4
ENDBRANCH   2   3
ENDBRANCH   1   2
BRANCH   1  25
ATOM     25  C   UNL A   1      31.854  31.980  27.146  1.00  0.00     0.021 C 
BRANCH  25  26
ATOM     26  C   UNL A   1      33.152  32.753  27.356  1.00  0.00     0.116 C 
BRANCH  26  27
ATOM     27  N   UNL A   1      32.910  34.027  28.013  1.00  0.00    -0.352 N 
ATOM     28  C   UNL A   1      33.429  34.506  29.190  1.00  0.00     0.251 C 
ATOM     29  H   UNL A   1      32.285  34.631  27.548  1.00  0.00     0.163 HD
ATOM     30  O   UNL A   1      32.914  35.478  29.732  1.00  0.00    -0.269 OA
BRANCH  28  31
ATOM     31  C   UNL A   1      34.599  33.838  29.802  1.00  0.00     0.039 A 
ATOM     32  C   UNL A   1      34.390  32.866  30.782  1.00  0.00     0.014 A 
ATOM     33  C   UNL A   1      35.898  34.186  29.421  1.00  0.00     0.014 A 
ATOM     34  C   UNL A   1      35.486  32.214  31.352  1.00  0.00     0.010 A 
ATOM     35  C   UNL A   1      36.984  33.483  29.935  1.00  0.00     0.010 A 
ATOM     36  C   UNL A   1      36.791  32.499  30.916  1.00  0.00    -0.014 A 
BRANCH  36  37
ATOM     37  C   UNL A   1      37.966  31.801  31.500  1.00  0.00     0.031 A 
ATOM     38  C   UNL A   1      38.485  32.208  32.853  1.00  0.00     0.074 A 
ATOM     39  C   UNL A   1      38.590  30.837  30.795  1.00  0.00     0.049 A 
ATOM     40  N   UNL A   1      39.526  31.763  33.510  1.00  0.00    -0.248 NA
ATOM     41  C   UNL A   1      37.753  33.280  33.544  1.00  0.00     0.031 C 
ATOM     42  C   UNL A   1      38.201  30.384  29.458  1.00  0.00     0.029 A 
ATOM     43  N   UNL A   1      39.684  30.068  31.100  1.00  0.00    -0.354 N 
ATOM     44  C   UNL A   1      39.580  32.508  34.684  1.00  0.00     0.074 A 
ATOM     45  C   UNL A   1      38.509  33.479  34.611  1.00  0.00     0.031 C 
ATOM     46  C   UNL A   1      39.024  29.397  29.072  1.00  0.00     0.029 A 
ATOM     47  C   UNL A   1      40.026  29.177  30.110  1.00  0.00     0.049 A 
ATOM     48  H   UNL A   1      40.178  30.146  31.947  1.00  0.00     0.167 HD
ATOM     49  C   UNL A   1      40.426  32.375  35.736  1.00  0.00     0.034 A 
ATOM     50  C   UNL A   1      41.039  28.288  30.042  1.00  0.00     0.034 A 
ATOM     51  C   UNL A   1      41.482  31.393  35.792  1.00  0.00     0.049 A 
ATOM     52  C   UNL A   1      41.984  28.176  31.211  1.00  0.00     0.074 A 
ATOM     53  C   UNL A   1      42.367  31.136  36.825  1.00  0.00     0.029 A 
ATOM     54  N   UNL A   1      41.804  30.510  34.769  1.00  0.00    -0.354 N 
ATOM     55  N   UNL A   1      41.993  28.854  32.337  1.00  0.00    -0.248 NA
ATOM     56  C   UNL A   1      43.049  27.171  31.105  1.00  0.00     0.031 C 
ATOM     57  C   UNL A   1      43.265  30.151  36.399  1.00  0.00     0.029 A 
ATOM     58  C   UNL A   1      42.892  29.731  35.133  1.00  0.00     0.049 A 
ATOM     59  H   UNL A   1      41.326  30.446  33.909  1.00  0.00     0.167 HD
ATOM     60  C   UNL A   1      43.044  28.331  33.086  1.00  0.00     0.074 A 
ATOM     61  C   UNL A   1      43.634  27.275  32.290  1.00  0.00     0.031 C 
ATOM     62  C   UNL A   1      43.478  28.688  34.323  1.00  0.00     0.034 A 
BRANCH  49  63
ATOM     63  C   UNL A   1      40.254  33.336  36.891  1.00  0.00     0.023 A 
ATOM     64  C   UNL A   1      39.589  32.960  38.071  1.00  0.00     0.031 A 
ATOM     65  C   UNL A   1      40.725  34.658  36.796  1.00  0.00     0.131 A 
ATOM     66  C   UNL A   1      39.335  33.914  39.068  1.00  0.00     0.055 A 
ATOM     67  C   UNL A   1      40.549  35.579  37.833  1.00  0.00     0.041 A 
ATOM     68  F   UNL A   1      41.348  35.085  35.687  1.00  0.00    -0.206 F 
ATOM     69  C   UNL A   1      39.833  35.214  38.970  1.00  0.00     0.022 A 
BRANCH  66  70
ATOM     70  S   UNL A   1      38.203  33.475  40.416  1.00  0.00     0.124 S 
ATOM     71  O   UNL A   1      39.043  32.599  41.232  1.00  0.00    -0.237 OA
ATOM     72  O   UNL A   1      37.881  34.774  40.995  1.00  0.00    -0.237 OA
ATOM     73  O   UNL A   1      37.099  32.804  39.732  1.00  0.00    -0.744 OA
ENDBRANCH  66  70
ENDBRANCH  49  63
BRANCH  50  74
ATOM     74  C   UNL A   1      41.216  27.436  28.831  1.00  0.00     0.023 A 
ATOM     75  C   UNL A   1      42.218  27.718  27.889  1.00  0.00     0.031 A 
ATOM     76  C   UNL A   1      40.362  26.348  28.580  1.00  0.00     0.131 A 
ATOM     77  C   UNL A   1      42.311  26.952  26.716  1.00  0.00     0.055 A 
ATOM     78  C   UNL A   1      40.494  25.555  27.438  1.00  0.00     0.041 A 
ATOM     79  F   UNL A   1      39.390  26.031  29.450  1.00  0.00    -0.206 F 
ATOM     80  C   UNL A   1      41.466  25.864  26.492  1.00  0.00     0.022 A 
BRANCH  77  81
ATOM     81  S   UNL A   1      43.505  27.452  25.446  1.00  0.00     0.124 S 
ATOM     82  O   UNL A   1      42.626  27.835  24.347  1.00  0.00    -0.237 OA
ATOM     83  O   UNL A   1      44.216  28.540  26.110  1.00  0.00    -0.237 OA
ATOM     84  O   UNL A   1      44.291  26.241  25.224  1.00  0.00    -0.744 OA
ENDBRANCH  77  81
ENDBRANCH  50  74
BRANCH  62  85
ATOM     85  C   UNL A   1      44.621  27.890  34.904  1.00  0.00     0.023 A 
ATOM     86  C   UNL A   1      44.411  26.673  35.575  1.00  0.00     0.031 A 
ATOM     87  C   UNL A   1      45.940  28.366  34.795  1.00  0.00     0.131 A 
ATOM     88  C   UNL A   1      45.495  26.004  36.163  1.00  0.00     0.055 A 
ATOM     89  C   UNL A   1      47.022  27.662  35.325  1.00  0.00     0.041 A 
ATOM     90  F   UNL A   1      46.199  29.525  34.168  1.00  0.00    -0.206 F 
ATOM     91  C   UNL A   1      46.801  26.481  36.026  1.00  0.00     0.022 A 
BRANCH  88  92
ATOM     92  S   UNL A   1      45.164  24.550  37.197  1.00  0.00     0.124 S 
ATOM     93  O   UNL A   1      44.500  23.654  36.256  1.00  0.00    -0.237 OA
ATOM     94  O   UNL A   1      46.505  24.153  37.617  1.00  0.00    -0.237 OA
ATOM     95  O   UNL A   1      44.312  25.073  38.263  1.00  0.00    -0.744 OA
ENDBRANCH  88  92
ENDBRANCH  62  85
ENDBRANCH  36  37
ENDBRANCH  28  31
ENDBRANCH  26  27
ENDBRANCH  25  26
ENDBRANCH   1  25
TORSDOF 18
ENDMDL
