MODEL 1
REMARK VINA RESULT:     -12.4      0.000      0.000
REMARK SMILES CCn1ccc2cc(S(=O)(=O)N3CCC[C@@H](C(=O)NCCCCCCNC(=O)c4ccc(-c5c6nc(c(-c7cc(S(=O)(=O)[O-])ccc7F)c7ccc([nH]7)c(-c7cc(S(=O)(=O)[O-])ccc7F)c7nc(c(-c8cc(S(=O)(=O)[O-])ccc8F)c8ccc5[nH]8)C=C7)C=C6)cc4)C3)ccc21
REMARK SMILES IDX 22 1 21 2 20 3 19 4 17 5 18 6 16 8 12 9 13 10 92 11 14 12
REMARK SMILES IDX 15 13 9 14 10 15 11 16 8 17 3 18 4 19 95 20 5 21 6 22 94 23
REMARK SMILES IDX 7 24 93 25 2 26 1 27 23 28 24 29 25 30 26 31 27 32 28 34
REMARK SMILES IDX 29 35 30 36 91 37 31 38 90 39 32 40 33 41 34 42 84 43 35 44
REMARK SMILES IDX 89 45 83 46 85 47 36 48 88 49 82 50 81 51 37 53 69 54 49 55
REMARK SMILES IDX 68 56 50 57 53 58 67 59 86 60 51 61 52 62 66 64 87 65 54 66
REMARK SMILES IDX 38 67 39 68 47 69 40 70 46 71 48 72 45 73 41 74 42 75 43 76
REMARK SMILES IDX 44 77 70 78 71 79 79 80 72 81 78 82 80 83 77 84 73 85 74 86
REMARK SMILES IDX 75 87 76 88 55 89 56 90 64 91 57 92 63 93 65 94 62 95 58 96
REMARK SMILES IDX 59 97 60 98 61 99
REMARK H PARENT 19 7 26 33 85 52 53 63
REMARK Flexibility Score: inf
ROOT
ATOM      1  C   UNL A   1      32.838  28.561  25.080  1.00  0.00     0.002 C 
ENDROOT
BRANCH   1   2
ATOM      2  C   UNL A   1      33.626  28.773  23.785  1.00  0.00     0.021 C 
BRANCH   2   3
ATOM      3  C   UNL A   1      32.789  28.687  22.519  1.00  0.00     0.116 C 
BRANCH   3   4
ATOM      4  N   UNL A   1      33.182  27.561  21.690  1.00  0.00    -0.356 N 
ATOM      5  C   UNL A   1      32.655  26.306  21.635  1.00  0.00     0.224 C 
ATOM      6  O   UNL A   1      33.164  25.487  20.870  1.00  0.00    -0.275 OA
ATOM      7  H   UNL A   1      33.939  27.729  21.082  1.00  0.00     0.163 HD
BRANCH   5   8
ATOM      8  C   UNL A   1      31.446  25.977  22.498  1.00  0.00     0.093 C 
ATOM      9  N   UNL A   1      30.823  25.387  24.842  1.00  0.00    -0.197 NA
ATOM     10  C   UNL A   1      29.773  26.426  24.897  1.00  0.00     0.102 C 
ATOM     11  C   UNL A   1      31.941  25.594  23.888  1.00  0.00     0.116 C 
ATOM     12  C   UNL A   1      29.320  26.831  23.499  1.00  0.00     0.018 C 
ATOM     13  C   UNL A   1      30.500  27.178  22.602  1.00  0.00     0.016 C 
BRANCH   9  14
ATOM     14  S   UNL A   1      31.256  24.640  26.323  1.00  0.00     0.243 S 
ATOM     15  O   UNL A   1      30.162  23.776  26.685  1.00  0.00    -0.207 OA
ATOM     16  O   UNL A   1      31.719  25.692  27.214  1.00  0.00    -0.207 OA
BRANCH  14  17
ATOM     17  C   UNL A   1      32.663  23.591  25.997  1.00  0.00     0.083 A 
ATOM     18  N   UNL A   1      36.194  21.540  25.315  1.00  0.00    -0.348 N 
ATOM     19  C   UNL A   1      37.129  22.524  25.506  1.00  0.00     0.087 A 
ATOM     20  C   UNL A   1      34.928  22.053  25.516  1.00  0.00     0.048 A 
ATOM     21  C   UNL A   1      36.471  23.672  25.887  1.00  0.00     0.028 A 
ATOM     22  C   UNL A   1      35.078  23.396  25.879  1.00  0.00     0.001 A 
ATOM     23  C   UNL A   1      33.667  21.457  25.403  1.00  0.00     0.028 A 
ATOM     24  C   UNL A   1      33.932  24.173  26.143  1.00  0.00     0.032 A 
ATOM     25  C   UNL A   1      32.544  22.253  25.628  1.00  0.00     0.024 A 
BRANCH  18  26
ATOM     26  C   UNL A   1      36.502  20.190  24.874  1.00  0.00     0.119 C 
ATOM     27  C   UNL A   1      37.969  19.819  25.007  1.00  0.00     0.027 C 
ENDBRANCH  18  26
ENDBRANCH  14  17
ENDBRANCH   9  14
ENDBRANCH   5   8
ENDBRANCH   3   4
ENDBRANCH   2   3
ENDBRANCH   1   2
BRANCH   1  28
ATOM     28  C   UNL A   1      31.764  29.613  25.375  1.00  0.00     0.002 C 
BRANCH  28  29
ATOM     29  C   UNL A   1      32.064  30.557  26.546  1.00  0.00     0.021 C 
BRANCH  29  30
ATOM     30  C   UNL A   1      33.480  30.443  27.116  1.00  0.00     0.116 C 
BRANCH  30  31
ATOM     31  N   UNL A   1      33.774  31.403  28.155  1.00  0.00    -0.352 N 
ATOM     32  C   UNL A   1      34.910  31.800  28.799  1.00  0.00     0.251 C 
ATOM     33  H   UNL A   1      32.973  31.880  28.470  1.00  0.00     0.163 HD
ATOM     34  O   UNL A   1      34.790  32.771  29.552  1.00  0.00    -0.269 OA
BRANCH  32  35
ATOM     35  C   UNL A   1      36.223  31.105  28.713  1.00  0.00     0.039 A 
ATOM     36  C   UNL A   1      36.427  29.817  28.219  1.00  0.00     0.014 A 
ATOM     37  C   UNL A   1      37.319  31.800  29.261  1.00  0.00     0.014 A 
ATOM     38  C   UNL A   1      37.651  29.187  28.390  1.00  0.00     0.010 A 
ATOM     39  C   UNL A   1      38.554  31.184  29.410  1.00  0.00     0.010 A 
ATOM     40  C   UNL A   1      38.695  29.854  29.032  1.00  0.00    -0.014 A 
BRANCH  40  41
ATOM     41  C   UNL A   1      39.934  29.116  29.234  1.00  0.00     0.031 A 
ATOM     42  C   UNL A   1      40.223  28.764  30.651  1.00  0.00     0.074 A 
ATOM     43  C   UNL A   1      40.728  28.729  28.218  1.00  0.00     0.049 A 
ATOM     44  N   UNL A   1      41.164  29.214  31.415  1.00  0.00    -0.248 NA
ATOM     45  C   UNL A   1      39.242  27.918  31.345  1.00  0.00     0.031 C 
ATOM     46  C   UNL A   1      40.422  28.737  26.784  1.00  0.00     0.029 A 
ATOM     47  N   UNL A   1      41.956  28.143  28.268  1.00  0.00    -0.354 N 
ATOM     48  C   UNL A   1      41.012  28.560  32.639  1.00  0.00     0.074 A 
ATOM     49  C   UNL A   1      39.728  27.909  32.585  1.00  0.00     0.031 C 
ATOM     50  C   UNL A   1      41.324  27.967  26.132  1.00  0.00     0.029 A 
ATOM     51  C   UNL A   1      42.352  27.560  27.073  1.00  0.00     0.049 A 
ATOM     52  H   UNL A   1      42.513  28.134  29.079  1.00  0.00     0.167 HD
ATOM     53  C   UNL A   1      42.043  28.433  33.523  1.00  0.00     0.034 A 
ATOM     54  C   UNL A   1      43.415  26.742  26.889  1.00  0.00     0.034 A 
ATOM     55  C   UNL A   1      43.134  29.299  33.170  1.00  0.00     0.049 A 
ATOM     56  C   UNL A   1      44.347  26.936  28.021  1.00  0.00     0.074 A 
ATOM     57  C   UNL A   1      43.386  30.650  33.215  1.00  0.00     0.029 A 
ATOM     58  N   UNL A   1      44.085  28.739  32.357  1.00  0.00    -0.354 N 
ATOM     59  N   UNL A   1      45.039  28.022  28.223  1.00  0.00    -0.248 NA
ATOM     60  C   UNL A   1      44.248  26.038  29.162  1.00  0.00     0.031 C 
ATOM     61  C   UNL A   1      44.287  30.902  32.143  1.00  0.00     0.029 A 
ATOM     62  C   UNL A   1      44.578  29.691  31.509  1.00  0.00     0.049 A 
ATOM     63  H   UNL A   1      44.369  27.795  32.381  1.00  0.00     0.167 HD
ATOM     64  C   UNL A   1      45.071  28.157  29.600  1.00  0.00     0.074 A 
ATOM     65  C   UNL A   1      44.725  26.838  30.117  1.00  0.00     0.031 C 
ATOM     66  C   UNL A   1      45.089  29.391  30.183  1.00  0.00     0.034 A 
BRANCH  53  67
ATOM     67  C   UNL A   1      42.243  27.255  34.455  1.00  0.00     0.023 A 
ATOM     68  C   UNL A   1      42.995  26.118  34.109  1.00  0.00     0.031 A 
ATOM     69  C   UNL A   1      41.891  27.359  35.820  1.00  0.00     0.131 A 
ATOM     70  C   UNL A   1      43.376  25.165  35.063  1.00  0.00     0.055 A 
ATOM     71  C   UNL A   1      42.325  26.440  36.786  1.00  0.00     0.041 A 
ATOM     72  F   UNL A   1      41.167  28.394  36.273  1.00  0.00    -0.206 F 
ATOM     73  C   UNL A   1      43.078  25.336  36.410  1.00  0.00     0.022 A 
BRANCH  70  74
ATOM     74  S   UNL A   1      44.301  23.687  34.559  1.00  0.00     0.124 S 
ATOM     75  O   UNL A   1      45.515  24.268  33.997  1.00  0.00    -0.237 OA
ATOM     76  O   UNL A   1      44.461  22.992  35.834  1.00  0.00    -0.237 OA
ATOM     77  O   UNL A   1      43.407  23.033  33.608  1.00  0.00    -0.744 OA
ENDBRANCH  70  74
ENDBRANCH  53  67
BRANCH  54  78
ATOM     78  C   UNL A   1      43.441  25.507  26.074  1.00  0.00     0.023 A 
ATOM     79  C   UNL A   1      42.593  24.438  26.418  1.00  0.00     0.031 A 
ATOM     80  C   UNL A   1      44.503  25.239  25.195  1.00  0.00     0.131 A 
ATOM     81  C   UNL A   1      42.853  23.147  25.941  1.00  0.00     0.055 A 
ATOM     82  C   UNL A   1      44.748  23.952  24.703  1.00  0.00     0.041 A 
ATOM     83  F   UNL A   1      45.366  26.209  24.856  1.00  0.00    -0.206 F 
ATOM     84  C   UNL A   1      43.930  22.894  25.091  1.00  0.00     0.022 A 
BRANCH  81  85
ATOM     85  S   UNL A   1      41.853  21.742  26.503  1.00  0.00     0.124 S 
ATOM     86  O   UNL A   1      42.206  21.662  27.919  1.00  0.00    -0.237 OA
ATOM     87  O   UNL A   1      40.500  22.208  26.218  1.00  0.00    -0.237 OA
ATOM     88  O   UNL A   1      42.331  20.632  25.685  1.00  0.00    -0.744 OA
ENDBRANCH  81  85
ENDBRANCH  54  78
BRANCH  66  89
ATOM     89  C   UNL A   1      45.459  30.584  29.333  1.00  0.00     0.023 A 
ATOM     90  C   UNL A   1      46.788  31.033  29.423  1.00  0.00     0.031 A 
ATOM     91  C   UNL A   1      44.542  31.390  28.635  1.00  0.00     0.131 A 
ATOM     92  C   UNL A   1      47.155  32.270  28.885  1.00  0.00     0.055 A 
ATOM     93  C   UNL A   1      44.931  32.590  28.030  1.00  0.00     0.041 A 
ATOM     94  F   UNL A   1      43.238  31.089  28.587  1.00  0.00    -0.206 F 
ATOM     95  C   UNL A   1      46.238  33.046  28.171  1.00  0.00     0.022 A 
BRANCH  92  96
ATOM     96  S   UNL A   1      48.783  32.971  29.252  1.00  0.00     0.124 S 
ATOM     97  O   UNL A   1      49.003  32.541  30.630  1.00  0.00    -0.237 OA
ATOM     98  O   UNL A   1      49.631  32.324  28.252  1.00  0.00    -0.237 OA
ATOM     99  O   UNL A   1      48.600  34.408  29.066  1.00  0.00    -0.744 OA
ENDBRANCH  92  96
ENDBRANCH  66  89
ENDBRANCH  40  41
ENDBRANCH  32  35
ENDBRANCH  30  31
ENDBRANCH  29  30
ENDBRANCH  28  29
ENDBRANCH   1  28
TORSDOF 19
ENDMDL
MODEL 2
REMARK VINA RESULT:     -12.3      3.286      8.919
REMARK SMILES CCn1ccc2cc(S(=O)(=O)N3CCC[C@@H](C(=O)NCCCCCCNC(=O)c4ccc(-c5c6nc(c(-c7cc(S(=O)(=O)[O-])ccc7F)c7ccc([nH]7)c(-c7cc(S(=O)(=O)[O-])ccc7F)c7nc(c(-c8cc(S(=O)(=O)[O-])ccc8F)c8ccc5[nH]8)C=C7)C=C6)cc4)C3)ccc21
REMARK SMILES IDX 22 1 21 2 20 3 19 4 17 5 18 6 16 8 12 9 13 10 92 11 14 12
REMARK SMILES IDX 15 13 9 14 10 15 11 16 8 17 3 18 4 19 95 20 5 21 6 22 94 23
REMARK SMILES IDX 7 24 93 25 2 26 1 27 23 28 24 29 25 30 26 31 27 32 28 34
REMARK SMILES IDX 29 35 30 36 91 37 31 38 90 39 32 40 33 41 34 42 84 43 35 44
REMARK SMILES IDX 89 45 83 46 85 47 36 48 88 49 82 50 81 51 37 53 69 54 49 55
REMARK SMILES IDX 68 56 50 57 53 58 67 59 86 60 51 61 52 62 66 64 87 65 54 66
REMARK SMILES IDX 38 67 39 68 47 69 40 70 46 71 48 72 45 73 41 74 42 75 43 76
REMARK SMILES IDX 44 77 70 78 71 79 79 80 72 81 78 82 80 83 77 84 73 85 74 86
REMARK SMILES IDX 75 87 76 88 55 89 56 90 64 91 57 92 63 93 65 94 62 95 58 96
REMARK SMILES IDX 59 97 60 98 61 99
REMARK H PARENT 19 7 26 33 85 52 53 63
REMARK Flexibility Score: inf
ROOT
ATOM      1  C   UNL A   1      36.674  23.080  24.893  1.00  0.00     0.002 C 
ENDROOT
BRANCH   1   2
ATOM      2  C   UNL A   1      35.827  21.822  24.690  1.00  0.00     0.021 C 
BRANCH   2   3
ATOM      3  C   UNL A   1      34.876  21.512  25.835  1.00  0.00     0.116 C 
BRANCH   3   4
ATOM      4  N   UNL A   1      34.376  20.150  25.765  1.00  0.00    -0.356 N 
ATOM      5  C   UNL A   1      33.163  19.700  25.338  1.00  0.00     0.224 C 
ATOM      6  O   UNL A   1      32.934  18.491  25.388  1.00  0.00    -0.275 OA
ATOM      7  H   UNL A   1      35.002  19.454  26.070  1.00  0.00     0.163 HD
BRANCH   5   8
ATOM      8  C   UNL A   1      32.155  20.700  24.793  1.00  0.00     0.093 C 
ATOM      9  N   UNL A   1      31.170  22.940  25.283  1.00  0.00    -0.197 NA
ATOM     10  C   UNL A   1      31.429  23.430  23.912  1.00  0.00     0.102 C 
ATOM     11  C   UNL A   1      32.031  21.845  25.793  1.00  0.00     0.116 C 
ATOM     12  C   UNL A   1      31.595  22.274  22.933  1.00  0.00     0.018 C 
ATOM     13  C   UNL A   1      32.604  21.250  23.435  1.00  0.00     0.016 C 
BRANCH   9  14
ATOM     14  S   UNL A   1      30.705  24.107  26.450  1.00  0.00     0.243 S 
ATOM     15  O   UNL A   1      31.820  24.256  27.351  1.00  0.00    -0.207 OA
ATOM     16  O   UNL A   1      29.385  23.730  26.931  1.00  0.00    -0.207 OA
BRANCH  14  17
ATOM     17  C   UNL A   1      30.512  25.663  25.598  1.00  0.00     0.083 A 
ATOM     18  N   UNL A   1      30.383  29.447  23.923  1.00  0.00    -0.348 N 
ATOM     19  C   UNL A   1      31.293  30.124  24.693  1.00  0.00     0.087 A 
ATOM     20  C   UNL A   1      30.301  28.134  24.342  1.00  0.00     0.048 A 
ATOM     21  C   UNL A   1      31.846  29.232  25.584  1.00  0.00     0.028 A 
ATOM     22  C   UNL A   1      31.215  27.976  25.388  1.00  0.00     0.001 A 
ATOM     23  C   UNL A   1      29.498  27.077  23.899  1.00  0.00     0.028 A 
ATOM     24  C   UNL A   1      31.339  26.718  26.014  1.00  0.00     0.032 A 
ATOM     25  C   UNL A   1      29.606  25.852  24.557  1.00  0.00     0.024 A 
BRANCH  18  26
ATOM     26  C   UNL A   1      29.567  30.059  22.888  1.00  0.00     0.119 C 
ATOM     27  C   UNL A   1      28.198  30.509  23.369  1.00  0.00     0.027 C 
ENDBRANCH  18  26
ENDBRANCH  14  17
ENDBRANCH   9  14
ENDBRANCH   5   8
ENDBRANCH   3   4
ENDBRANCH   2   3
ENDBRANCH   1   2
BRANCH   1  28
ATOM     28  C   UNL A   1      37.912  22.902  25.777  1.00  0.00     0.002 C 
BRANCH  28  29
ATOM     29  C   UNL A   1      38.652  21.567  25.621  1.00  0.00     0.021 C 
BRANCH  29  30
ATOM     30  C   UNL A   1      39.884  21.408  26.514  1.00  0.00     0.116 C 
BRANCH  30  31
ATOM     31  N   UNL A   1      41.114  21.860  25.906  1.00  0.00    -0.352 N 
ATOM     32  C   UNL A   1      41.897  22.971  26.037  1.00  0.00     0.251 C 
ATOM     33  H   UNL A   1      41.469  21.221  25.246  1.00  0.00     0.163 HD
ATOM     34  O   UNL A   1      42.975  22.942  25.436  1.00  0.00    -0.269 OA
BRANCH  32  35
ATOM     35  C   UNL A   1      41.505  24.205  26.769  1.00  0.00     0.039 A 
ATOM     36  C   UNL A   1      40.580  25.151  26.326  1.00  0.00     0.014 A 
ATOM     37  C   UNL A   1      42.204  24.454  27.965  1.00  0.00     0.014 A 
ATOM     38  C   UNL A   1      40.455  26.368  26.980  1.00  0.00     0.010 A 
ATOM     39  C   UNL A   1      42.064  25.660  28.640  1.00  0.00     0.010 A 
ATOM     40  C   UNL A   1      41.236  26.639  28.104  1.00  0.00    -0.014 A 
BRANCH  40  41
ATOM     41  C   UNL A   1      41.102  27.959  28.707  1.00  0.00     0.031 A 
ATOM     42  C   UNL A   1      42.050  28.979  28.184  1.00  0.00     0.074 A 
ATOM     43  C   UNL A   1      40.159  28.251  29.622  1.00  0.00     0.049 A 
ATOM     44  N   UNL A   1      43.036  29.548  28.797  1.00  0.00    -0.248 NA
ATOM     45  C   UNL A   1      41.980  29.287  26.749  1.00  0.00     0.031 C 
ATOM     46  C   UNL A   1      38.990  27.449  29.997  1.00  0.00     0.029 A 
ATOM     47  N   UNL A   1      39.993  29.393  30.345  1.00  0.00    -0.354 N 
ATOM     48  C   UNL A   1      43.600  30.437  27.879  1.00  0.00     0.074 A 
ATOM     49  C   UNL A   1      43.017  30.111  26.603  1.00  0.00     0.031 C 
ATOM     50  C   UNL A   1      38.119  28.225  30.683  1.00  0.00     0.029 A 
ATOM     51  C   UNL A   1      38.744  29.511  30.936  1.00  0.00     0.049 A 
ATOM     52  H   UNL A   1      40.697  30.073  30.439  1.00  0.00     0.167 HD
ATOM     53  C   UNL A   1      44.347  31.507  28.274  1.00  0.00     0.034 A 
ATOM     54  C   UNL A   1      38.235  30.615  31.531  1.00  0.00     0.034 A 
ATOM     55  C   UNL A   1      44.713  31.397  29.659  1.00  0.00     0.049 A 
ATOM     56  C   UNL A   1      39.359  31.514  31.873  1.00  0.00     0.074 A 
ATOM     57  C   UNL A   1      45.585  30.634  30.399  1.00  0.00     0.029 A 
ATOM     58  N   UNL A   1      43.845  31.988  30.541  1.00  0.00    -0.354 N 
ATOM     59  N   UNL A   1      40.250  31.258  32.789  1.00  0.00    -0.248 NA
ATOM     60  C   UNL A   1      39.717  32.565  30.931  1.00  0.00     0.031 C 
ATOM     61  C   UNL A   1      44.991  30.525  31.688  1.00  0.00     0.029 A 
ATOM     62  C   UNL A   1      43.799  31.256  31.695  1.00  0.00     0.049 A 
ATOM     63  H   UNL A   1      43.335  32.813  30.370  1.00  0.00     0.167 HD
ATOM     64  C   UNL A   1      41.427  31.777  32.279  1.00  0.00     0.074 A 
ATOM     65  C   UNL A   1      41.009  32.704  31.234  1.00  0.00     0.031 C 
ATOM     66  C   UNL A   1      42.628  31.189  32.552  1.00  0.00     0.034 A 
BRANCH  53  67
ATOM     67  C   UNL A   1      44.407  32.836  27.547  1.00  0.00     0.023 A 
ATOM     68  C   UNL A   1      43.592  33.932  27.880  1.00  0.00     0.031 A 
ATOM     69  C   UNL A   1      45.472  33.116  26.661  1.00  0.00     0.131 A 
ATOM     70  C   UNL A   1      43.835  35.216  27.372  1.00  0.00     0.055 A 
ATOM     71  C   UNL A   1      45.755  34.410  26.203  1.00  0.00     0.041 A 
ATOM     72  F   UNL A   1      46.315  32.151  26.263  1.00  0.00    -0.206 F 
ATOM     73  C   UNL A   1      44.936  35.472  26.563  1.00  0.00     0.022 A 
BRANCH  70  74
ATOM     74  S   UNL A   1      42.725  36.589  27.787  1.00  0.00     0.124 S 
ATOM     75  O   UNL A   1      41.510  35.885  28.183  1.00  0.00    -0.237 OA
ATOM     76  O   UNL A   1      43.459  37.244  28.867  1.00  0.00    -0.237 OA
ATOM     77  O   UNL A   1      42.645  37.350  26.544  1.00  0.00    -0.744 OA
ENDBRANCH  70  74
ENDBRANCH  53  67
BRANCH  54  78
ATOM     78  C   UNL A   1      36.855  31.129  31.392  1.00  0.00     0.023 A 
ATOM     79  C   UNL A   1      36.327  31.346  30.106  1.00  0.00     0.031 A 
ATOM     80  C   UNL A   1      36.186  31.719  32.478  1.00  0.00     0.131 A 
ATOM     81  C   UNL A   1      35.212  32.175  29.928  1.00  0.00     0.055 A 
ATOM     82  C   UNL A   1      35.060  32.530  32.300  1.00  0.00     0.041 A 
ATOM     83  F   UNL A   1      36.660  31.577  33.726  1.00  0.00    -0.206 F 
ATOM     84  C   UNL A   1      34.579  32.776  31.017  1.00  0.00     0.022 A 
BRANCH  81  85
ATOM     85  S   UNL A   1      34.623  32.578  28.261  1.00  0.00     0.124 S 
ATOM     86  O   UNL A   1      33.681  33.664  28.523  1.00  0.00    -0.237 OA
ATOM     87  O   UNL A   1      35.862  32.968  27.596  1.00  0.00    -0.237 OA
ATOM     88  O   UNL A   1      34.017  31.332  27.802  1.00  0.00    -0.744 OA
ENDBRANCH  81  85
ENDBRANCH  54  78
BRANCH  66  89
ATOM     89  C   UNL A   1      42.710  30.219  33.707  1.00  0.00     0.023 A 
ATOM     90  C   UNL A   1      43.291  30.700  34.893  1.00  0.00     0.031 A 
ATOM     91  C   UNL A   1      42.445  28.841  33.620  1.00  0.00     0.131 A 
ATOM     92  C   UNL A   1      43.646  29.815  35.915  1.00  0.00     0.055 A 
ATOM     93  C   UNL A   1      42.729  27.970  34.677  1.00  0.00     0.041 A 
ATOM     94  F   UNL A   1      41.987  28.284  32.491  1.00  0.00    -0.206 F 
ATOM     95  C   UNL A   1      43.352  28.453  35.824  1.00  0.00     0.022 A 
BRANCH  92  96
ATOM     96  S   UNL A   1      44.650  30.393  37.307  1.00  0.00     0.124 S 
ATOM     97  O   UNL A   1      44.406  29.364  38.313  1.00  0.00    -0.237 OA
ATOM     98  O   UNL A   1      45.995  30.403  36.735  1.00  0.00    -0.237 OA
ATOM     99  O   UNL A   1      44.103  31.712  37.615  1.00  0.00    -0.744 OA
ENDBRANCH  92  96
ENDBRANCH  66  89
ENDBRANCH  40  41
ENDBRANCH  32  35
ENDBRANCH  30  31
ENDBRANCH  29  30
ENDBRANCH  28  29
ENDBRANCH   1  28
TORSDOF 19
ENDMDL
MODEL 3
REMARK VINA RESULT:     -12.1      2.288      2.811
REMARK SMILES CCn1ccc2cc(S(=O)(=O)N3CCC[C@@H](C(=O)NCCCCCCNC(=O)c4ccc(-c5c6nc(c(-c7cc(S(=O)(=O)[O-])ccc7F)c7ccc([nH]7)c(-c7cc(S(=O)(=O)[O-])ccc7F)c7nc(c(-c8cc(S(=O)(=O)[O-])ccc8F)c8ccc5[nH]8)C=C7)C=C6)cc4)C3)ccc21
REMARK SMILES IDX 22 1 21 2 20 3 19 4 17 5 18 6 16 8 12 9 13 10 92 11 14 12
REMARK SMILES IDX 15 13 9 14 10 15 11 16 8 17 3 18 4 19 95 20 5 21 6 22 94 23
REMARK SMILES IDX 7 24 93 25 2 26 1 27 23 28 24 29 25 30 26 31 27 32 28 34
REMARK SMILES IDX 29 35 30 36 91 37 31 38 90 39 32 40 33 41 34 42 84 43 35 44
REMARK SMILES IDX 89 45 83 46 85 47 36 48 88 49 82 50 81 51 37 53 69 54 49 55
REMARK SMILES IDX 68 56 50 57 53 58 67 59 86 60 51 61 52 62 66 64 87 65 54 66
REMARK SMILES IDX 38 67 39 68 47 69 40 70 46 71 48 72 45 73 41 74 42 75 43 76
REMARK SMILES IDX 44 77 70 78 71 79 79 80 72 81 78 82 80 83 77 84 73 85 74 86
REMARK SMILES IDX 75 87 76 88 55 89 56 90 64 91 57 92 63 93 65 94 62 95 58 96
REMARK SMILES IDX 59 97 60 98 61 99
REMARK H PARENT 19 7 26 33 85 52 53 63
REMARK Flexibility Score: inf
ROOT
ATOM      1  C   UNL A   1      32.717  29.061  27.527  1.00  0.00     0.002 C 
ENDROOT
BRANCH   1   2
ATOM      2  C   UNL A   1      31.854  30.059  26.752  1.00  0.00     0.021 C 
BRANCH   2   3
ATOM      3  C   UNL A   1      32.057  30.029  25.247  1.00  0.00     0.116 C 
BRANCH   3   4
ATOM      4  N   UNL A   1      30.798  29.884  24.537  1.00  0.00    -0.356 N 
ATOM      5  C   UNL A   1      30.394  28.891  23.696  1.00  0.00     0.224 C 
ATOM      6  O   UNL A   1      29.282  28.979  23.174  1.00  0.00    -0.275 OA
ATOM      7  H   UNL A   1      30.144  30.606  24.684  1.00  0.00     0.163 HD
BRANCH   5   8
ATOM      8  C   UNL A   1      31.317  27.706  23.457  1.00  0.00     0.093 C 
ATOM      9  N   UNL A   1      31.790  25.402  24.293  1.00  0.00    -0.197 NA
ATOM     10  C   UNL A   1      31.755  24.827  22.931  1.00  0.00     0.102 C 
ATOM     11  C   UNL A   1      31.032  26.656  24.526  1.00  0.00     0.116 C 
ATOM     12  C   UNL A   1      31.995  25.895  21.871  1.00  0.00     0.018 C 
ATOM     13  C   UNL A   1      31.085  27.100  22.068  1.00  0.00     0.016 C 
BRANCH   9  14
ATOM     14  S   UNL A   1      31.795  24.297  25.604  1.00  0.00     0.243 S 
ATOM     15  O   UNL A   1      30.675  23.413  25.402  1.00  0.00    -0.207 OA
ATOM     16  O   UNL A   1      31.934  25.079  26.823  1.00  0.00    -0.207 OA
BRANCH  14  17
ATOM     17  C   UNL A   1      33.273  23.309  25.460  1.00  0.00     0.083 A 
ATOM     18  N   UNL A   1      36.944  21.406  25.238  1.00  0.00    -0.348 N 
ATOM     19  C   UNL A   1      37.805  22.424  25.557  1.00  0.00     0.087 A 
ATOM     20  C   UNL A   1      35.642  21.866  25.273  1.00  0.00     0.048 A 
ATOM     21  C   UNL A   1      37.056  23.540  25.854  1.00  0.00     0.028 A 
ATOM     22  C   UNL A   1      35.689  23.210  25.661  1.00  0.00     0.001 A 
ATOM     23  C   UNL A   1      34.432  21.223  24.991  1.00  0.00     0.028 A 
ATOM     24  C   UNL A   1      34.487  23.938  25.776  1.00  0.00     0.032 A 
ATOM     25  C   UNL A   1      33.258  21.971  25.071  1.00  0.00     0.024 A 
BRANCH  18  26
ATOM     26  C   UNL A   1      37.361  20.074  24.833  1.00  0.00     0.119 C 
ATOM     27  C   UNL A   1      38.712  19.657  25.390  1.00  0.00     0.027 C 
ENDBRANCH  18  26
ENDBRANCH  14  17
ENDBRANCH   9  14
ENDBRANCH   5   8
ENDBRANCH   3   4
ENDBRANCH   2   3
ENDBRANCH   1   2
BRANCH   1  28
ATOM     28  C   UNL A   1      34.054  28.702  26.873  1.00  0.00     0.002 C 
BRANCH  28  29
ATOM     29  C   UNL A   1      35.299  29.311  27.529  1.00  0.00     0.021 C 
BRANCH  29  30
ATOM     30  C   UNL A   1      35.278  30.837  27.652  1.00  0.00     0.116 C 
BRANCH  30  31
ATOM     31  N   UNL A   1      34.973  31.316  28.981  1.00  0.00    -0.352 N 
ATOM     32  C   UNL A   1      35.669  31.404  30.151  1.00  0.00     0.251 C 
ATOM     33  H   UNL A   1      34.052  31.657  29.060  1.00  0.00     0.163 HD
ATOM     34  O   UNL A   1      35.108  32.014  31.066  1.00  0.00    -0.269 OA
BRANCH  32  35
ATOM     35  C   UNL A   1      36.986  30.761  30.407  1.00  0.00     0.039 A 
ATOM     36  C   UNL A   1      38.229  31.298  30.073  1.00  0.00     0.014 A 
ATOM     37  C   UNL A   1      36.936  29.466  30.957  1.00  0.00     0.014 A 
ATOM     38  C   UNL A   1      39.374  30.519  30.156  1.00  0.00     0.010 A 
ATOM     39  C   UNL A   1      38.083  28.690  31.068  1.00  0.00     0.010 A 
ATOM     40  C   UNL A   1      39.289  29.201  30.603  1.00  0.00    -0.014 A 
BRANCH  40  41
ATOM     41  C   UNL A   1      40.518  28.417  30.608  1.00  0.00     0.031 A 
ATOM     42  C   UNL A   1      41.215  28.364  31.921  1.00  0.00     0.074 A 
ATOM     43  C   UNL A   1      40.958  27.745  29.528  1.00  0.00     0.049 A 
ATOM     44  N   UNL A   1      42.352  28.886  32.248  1.00  0.00    -0.248 NA
ATOM     45  C   UNL A   1      40.476  27.784  33.050  1.00  0.00     0.031 C 
ATOM     46  C   UNL A   1      40.232  27.462  28.285  1.00  0.00     0.029 A 
ATOM     47  N   UNL A   1      42.133  27.077  29.357  1.00  0.00    -0.354 N 
ATOM     48  C   UNL A   1      42.567  28.536  33.583  1.00  0.00     0.074 A 
ATOM     49  C   UNL A   1      41.315  28.008  34.061  1.00  0.00     0.031 C 
ATOM     50  C   UNL A   1      40.879  26.489  27.603  1.00  0.00     0.029 A 
ATOM     51  C   UNL A   1      42.137  26.211  28.274  1.00  0.00     0.049 A 
ATOM     52  H   UNL A   1      42.908  27.198  29.949  1.00  0.00     0.167 HD
ATOM     53  C   UNL A   1      43.814  28.516  34.133  1.00  0.00     0.034 A 
ATOM     54  C   UNL A   1      43.078  25.280  27.990  1.00  0.00     0.034 A 
ATOM     55  C   UNL A   1      44.763  29.181  33.283  1.00  0.00     0.049 A 
ATOM     56  C   UNL A   1      44.313  25.636  28.722  1.00  0.00     0.074 A 
ATOM     57  C   UNL A   1      45.042  30.481  32.929  1.00  0.00     0.029 A 
ATOM     58  N   UNL A   1      45.412  28.372  32.387  1.00  0.00    -0.354 N 
ATOM     59  N   UNL A   1      45.054  26.673  28.449  1.00  0.00    -0.248 NA
ATOM     60  C   UNL A   1      44.548  25.026  30.022  1.00  0.00     0.031 C 
ATOM     61  C   UNL A   1      45.580  30.407  31.613  1.00  0.00     0.029 A 
ATOM     62  C   UNL A   1      45.643  29.064  31.230  1.00  0.00     0.049 A 
ATOM     63  H   UNL A   1      45.672  27.436  32.551  1.00  0.00     0.167 HD
ATOM     64  C   UNL A   1      45.505  27.107  29.684  1.00  0.00     0.074 A 
ATOM     65  C   UNL A   1      45.307  25.972  30.578  1.00  0.00     0.031 C 
ATOM     66  C   UNL A   1      45.722  28.433  29.924  1.00  0.00     0.034 A 
BRANCH  53  67
ATOM     67  C   UNL A   1      44.266  27.562  35.220  1.00  0.00     0.023 A 
ATOM     68  C   UNL A   1      44.610  27.980  36.517  1.00  0.00     0.031 A 
ATOM     69  C   UNL A   1      44.116  26.166  35.050  1.00  0.00     0.131 A 
ATOM     70  C   UNL A   1      44.778  27.068  37.568  1.00  0.00     0.055 A 
ATOM     71  C   UNL A   1      44.221  25.259  36.113  1.00  0.00     0.041 A 
ATOM     72  F   UNL A   1      43.797  25.643  33.856  1.00  0.00    -0.206 F 
ATOM     73  C   UNL A   1      44.550  25.709  37.385  1.00  0.00     0.022 A 
BRANCH  70  74
ATOM     74  S   UNL A   1      45.275  27.651  39.213  1.00  0.00     0.124 S 
ATOM     75  O   UNL A   1      45.051  29.088  39.104  1.00  0.00    -0.237 OA
ATOM     76  O   UNL A   1      44.345  26.926  40.075  1.00  0.00    -0.237 OA
ATOM     77  O   UNL A   1      46.669  27.228  39.318  1.00  0.00    -0.744 OA
ENDBRANCH  70  74
ENDBRANCH  53  67
BRANCH  54  78
ATOM     78  C   UNL A   1      42.833  23.898  27.522  1.00  0.00     0.023 A 
ATOM     79  C   UNL A   1      43.781  23.274  26.690  1.00  0.00     0.031 A 
ATOM     80  C   UNL A   1      41.553  23.322  27.596  1.00  0.00     0.131 A 
ATOM     81  C   UNL A   1      43.425  22.158  25.923  1.00  0.00     0.055 A 
ATOM     82  C   UNL A   1      41.206  22.194  26.845  1.00  0.00     0.041 A 
ATOM     83  F   UNL A   1      40.595  23.890  28.345  1.00  0.00    -0.206 F 
ATOM     84  C   UNL A   1      42.139  21.617  25.989  1.00  0.00     0.022 A 
BRANCH  81  85
ATOM     85  S   UNL A   1      44.598  21.445  24.738  1.00  0.00     0.124 S 
ATOM     86  O   UNL A   1      44.100  20.078  24.598  1.00  0.00    -0.237 OA
ATOM     87  O   UNL A   1      44.406  22.306  23.576  1.00  0.00    -0.237 OA
ATOM     88  O   UNL A   1      45.885  21.566  25.416  1.00  0.00    -0.744 OA
ENDBRANCH  81  85
ENDBRANCH  54  78
BRANCH  66  89
ATOM     89  C   UNL A   1      45.839  29.369  28.745  1.00  0.00     0.023 A 
ATOM     90  C   UNL A   1      47.141  29.714  28.341  1.00  0.00     0.031 A 
ATOM     91  C   UNL A   1      44.767  30.072  28.166  1.00  0.00     0.131 A 
ATOM     92  C   UNL A   1      47.348  30.764  27.442  1.00  0.00     0.055 A 
ATOM     93  C   UNL A   1      44.975  31.069  27.207  1.00  0.00     0.041 A 
ATOM     94  F   UNL A   1      43.504  29.880  28.566  1.00  0.00    -0.206 F 
ATOM     95  C   UNL A   1      46.271  31.434  26.856  1.00  0.00     0.022 A 
BRANCH  92  96
ATOM     96  S   UNL A   1      49.021  31.390  27.149  1.00  0.00     0.124 S 
ATOM     97  O   UNL A   1      48.767  32.601  26.373  1.00  0.00    -0.237 OA
ATOM     98  O   UNL A   1      49.511  31.610  28.509  1.00  0.00    -0.237 OA
ATOM     99  O   UNL A   1      49.683  30.309  26.424  1.00  0.00    -0.744 OA
ENDBRANCH  92  96
ENDBRANCH  66  89
ENDBRANCH  40  41
ENDBRANCH  32  35
ENDBRANCH  30  31
ENDBRANCH  29  30
ENDBRANCH  28  29
ENDBRANCH   1  28
TORSDOF 19
ENDMDL
