MODEL 1
REMARK VINA RESULT:     -10.0      0.000      0.000
REMARK SMILES CC(C)N(CC(=O)NCCCCCCNC(=O)c1ccc(-c2c3nc(c(-c4cc(S(=O)(=O)[O-])ccc4F)c4ccc([nH]4)c(-c4cc(S(=O)(=O)[O-])ccc4F)c4nc(c(-c5cc(S(=O)(=O)[O-])ccc5F)c5ccc2[nH]5)C=C4)C=C3)cc1)C(=O)NC1C(C)(C)C1(C)C
REMARK SMILES IDX 11 1 10 2 9 3 8 4 6 5 7 6 5 8 4 9 2 10 1 11 3 12 81 13 82 14
REMARK SMILES IDX 83 15 84 17 85 18 88 19 86 20 87 21 89 22 90 23 12 24 13 25
REMARK SMILES IDX 14 26 15 27 16 28 17 30 18 31 19 32 80 33 20 34 79 35 21 36
REMARK SMILES IDX 22 37 23 38 73 39 24 40 78 41 72 42 74 43 25 44 77 45 71 46
REMARK SMILES IDX 70 47 26 49 58 50 38 51 57 52 39 53 42 54 56 55 75 56 40 57
REMARK SMILES IDX 41 58 55 60 76 61 43 62 27 63 28 64 36 65 29 66 35 67 37 68
REMARK SMILES IDX 34 69 30 70 31 71 32 72 33 73 59 74 60 75 68 76 61 77 67 78
REMARK SMILES IDX 69 79 66 80 62 81 63 82 64 83 65 84 44 85 45 86 53 87 46 88
REMARK SMILES IDX 52 89 54 90 51 91 47 92 48 93 49 94 50 95
REMARK H PARENT 8 7 83 16 15 29 74 48 42 59
REMARK Flexibility Score: inf
ROOT
ATOM      1  C   UNL A   1      39.948  22.628  26.415  1.00  0.00     0.002 C 
ENDROOT
BRANCH   1   2
ATOM      2  C   UNL A   1      38.915  23.726  26.685  1.00  0.00     0.021 C 
BRANCH   2   3
ATOM      3  C   UNL A   1      37.621  23.641  25.894  1.00  0.00     0.116 C 
BRANCH   3   4
ATOM      4  N   UNL A   1      36.863  22.452  26.146  1.00  0.00    -0.355 N 
ATOM      5  C   UNL A   1      36.411  21.705  25.098  1.00  0.00     0.239 C 
ATOM      6  O   UNL A   1      36.785  20.535  25.003  1.00  0.00    -0.273 OA
ATOM      7  H   UNL A   1      36.670  22.174  27.071  1.00  0.00     0.163 HD
BRANCH   5   8
ATOM      8  C   UNL A   1      35.334  22.268  24.167  1.00  0.00     0.221 C 
BRANCH   8   9
ATOM      9  N   UNL A   1      33.983  22.644  24.568  1.00  0.00    -0.313 N 
BRANCH   9  10
ATOM     10  C   UNL A   1      32.930  21.650  24.284  1.00  0.00     0.081 C 
ATOM     11  C   UNL A   1      32.398  21.764  22.856  1.00  0.00     0.031 C 
ATOM     12  C   UNL A   1      33.302  20.200  24.595  1.00  0.00     0.031 C 
ENDBRANCH   9  10
BRANCH   9  13
ATOM     13  C   UNL A   1      33.772  23.732  25.418  1.00  0.00     0.318 C 
ATOM     14  O   UNL A   1      33.985  23.701  26.628  1.00  0.00    -0.249 OA
ATOM     15  N   UNL A   1      33.054  24.777  24.876  1.00  0.00    -0.334 N 
ATOM     16  H   UNL A   1      32.099  24.598  24.719  1.00  0.00     0.165 HD
BRANCH  15  17
ATOM     17  C   UNL A   1      33.513  26.116  24.504  1.00  0.00     0.096 C 
ATOM     18  C   UNL A   1      32.832  27.395  23.984  1.00  0.00    -0.007 C 
ATOM     19  C   UNL A   1      32.984  27.177  25.496  1.00  0.00    -0.007 C 
ATOM     20  C   UNL A   1      33.666  28.526  23.400  1.00  0.00     0.014 C 
ATOM     21  C   UNL A   1      31.540  27.301  23.201  1.00  0.00     0.014 C 
ATOM     22  C   UNL A   1      31.772  26.873  26.353  1.00  0.00     0.014 C 
ATOM     23  C   UNL A   1      34.026  27.917  26.305  1.00  0.00     0.014 C 
ENDBRANCH  15  17
ENDBRANCH   9  13
ENDBRANCH   8   9
ENDBRANCH   5   8
ENDBRANCH   3   4
ENDBRANCH   2   3
ENDBRANCH   1   2
BRANCH   1  24
ATOM     24  C   UNL A   1      40.461  21.839  27.625  1.00  0.00     0.002 C 
BRANCH  24  25
ATOM     25  C   UNL A   1      41.023  20.443  27.357  1.00  0.00     0.021 C 
BRANCH  25  26
ATOM     26  C   UNL A   1      41.053  20.021  25.898  1.00  0.00     0.116 C 
BRANCH  26  27
ATOM     27  N   UNL A   1      42.334  19.461  25.525  1.00  0.00    -0.352 N 
ATOM     28  C   UNL A   1      43.527  20.122  25.346  1.00  0.00     0.251 C 
ATOM     29  H   UNL A   1      42.355  18.488  25.382  1.00  0.00     0.163 HD
ATOM     30  O   UNL A   1      44.472  19.550  24.820  1.00  0.00    -0.269 OA
BRANCH  28  31
ATOM     31  C   UNL A   1      43.637  21.538  25.769  1.00  0.00     0.039 A 
ATOM     32  C   UNL A   1      44.054  21.823  27.070  1.00  0.00     0.014 A 
ATOM     33  C   UNL A   1      43.355  22.576  24.876  1.00  0.00     0.014 A 
ATOM     34  C   UNL A   1      44.229  23.152  27.462  1.00  0.00     0.010 A 
ATOM     35  C   UNL A   1      43.608  23.896  25.244  1.00  0.00     0.010 A 
ATOM     36  C   UNL A   1      44.034  24.198  26.545  1.00  0.00    -0.014 A 
BRANCH  36  37
ATOM     37  C   UNL A   1      44.245  25.616  26.943  1.00  0.00     0.031 A 
ATOM     38  C   UNL A   1      45.616  26.228  26.834  1.00  0.00     0.074 A 
ATOM     39  C   UNL A   1      43.217  26.333  27.437  1.00  0.00     0.049 A 
ATOM     40  N   UNL A   1      46.015  27.429  27.168  1.00  0.00    -0.248 NA
ATOM     41  C   UNL A   1      46.684  25.365  26.310  1.00  0.00     0.031 C 
ATOM     42  C   UNL A   1      41.851  25.837  27.620  1.00  0.00     0.029 A 
ATOM     43  N   UNL A   1      43.158  27.632  27.876  1.00  0.00    -0.354 N 
ATOM     44  C   UNL A   1      47.381  27.459  26.908  1.00  0.00     0.074 A 
ATOM     45  C   UNL A   1      47.750  26.138  26.450  1.00  0.00     0.031 C 
ATOM     46  C   UNL A   1      41.084  26.829  28.099  1.00  0.00     0.029 A 
ATOM     47  C   UNL A   1      41.908  28.016  28.305  1.00  0.00     0.049 A 
ATOM     48  H   UNL A   1      43.938  28.233  27.886  1.00  0.00     0.167 HD
ATOM     49  C   UNL A   1      48.243  28.501  27.019  1.00  0.00     0.034 A 
ATOM     50  C   UNL A   1      41.477  29.189  28.811  1.00  0.00     0.034 A 
ATOM     51  C   UNL A   1      47.852  29.818  27.462  1.00  0.00     0.049 A 
ATOM     52  C   UNL A   1      42.461  30.323  28.955  1.00  0.00     0.074 A 
ATOM     53  C   UNL A   1      48.626  30.962  27.548  1.00  0.00     0.029 A 
ATOM     54  N   UNL A   1      46.582  30.164  27.904  1.00  0.00    -0.354 N 
ATOM     55  N   UNL A   1      43.738  30.354  28.649  1.00  0.00    -0.248 NA
ATOM     56  C   UNL A   1      41.943  31.583  29.503  1.00  0.00     0.031 C 
ATOM     57  C   UNL A   1      47.847  31.977  28.115  1.00  0.00     0.029 A 
ATOM     58  C   UNL A   1      46.562  31.493  28.302  1.00  0.00     0.049 A 
ATOM     59  H   UNL A   1      45.809  29.555  27.931  1.00  0.00     0.167 HD
ATOM     60  C   UNL A   1      44.166  31.648  28.935  1.00  0.00     0.074 A 
ATOM     61  C   UNL A   1      43.008  32.368  29.424  1.00  0.00     0.031 C 
ATOM     62  C   UNL A   1      45.401  32.195  28.800  1.00  0.00     0.034 A 
BRANCH  49  63
ATOM     63  C   UNL A   1      49.696  28.243  26.687  1.00  0.00     0.023 A 
ATOM     64  C   UNL A   1      50.223  28.501  25.409  1.00  0.00     0.031 A 
ATOM     65  C   UNL A   1      50.561  27.706  27.657  1.00  0.00     0.131 A 
ATOM     66  C   UNL A   1      51.547  28.146  25.112  1.00  0.00     0.055 A 
ATOM     67  C   UNL A   1      51.902  27.435  27.381  1.00  0.00     0.041 A 
ATOM     68  F   UNL A   1      50.112  27.417  28.889  1.00  0.00    -0.206 F 
ATOM     69  C   UNL A   1      52.400  27.641  26.097  1.00  0.00     0.022 A 
BRANCH  66  70
ATOM     70  S   UNL A   1      52.096  28.212  23.385  1.00  0.00     0.124 S 
ATOM     71  O   UNL A   1      51.605  29.524  22.970  1.00  0.00    -0.237 OA
ATOM     72  O   UNL A   1      53.543  28.081  23.508  1.00  0.00    -0.237 OA
ATOM     73  O   UNL A   1      51.416  27.077  22.765  1.00  0.00    -0.744 OA
ENDBRANCH  66  70
ENDBRANCH  49  63
BRANCH  50  74
ATOM     74  C   UNL A   1      40.054  29.361  29.224  1.00  0.00     0.023 A 
ATOM     75  C   UNL A   1      39.694  29.373  30.581  1.00  0.00     0.031 A 
ATOM     76  C   UNL A   1      39.027  29.467  28.269  1.00  0.00     0.131 A 
ATOM     77  C   UNL A   1      38.340  29.440  30.946  1.00  0.00     0.055 A 
ATOM     78  C   UNL A   1      37.686  29.591  28.639  1.00  0.00     0.041 A 
ATOM     79  F   UNL A   1      39.315  29.464  26.958  1.00  0.00    -0.206 F 
ATOM     80  C   UNL A   1      37.336  29.563  29.985  1.00  0.00     0.022 A 
BRANCH  77  81
ATOM     81  S   UNL A   1      37.905  29.270  32.699  1.00  0.00     0.124 S 
ATOM     82  O   UNL A   1      39.057  29.881  33.351  1.00  0.00    -0.237 OA
ATOM     83  O   UNL A   1      36.653  30.017  32.773  1.00  0.00    -0.237 OA
ATOM     84  O   UNL A   1      37.778  27.825  32.878  1.00  0.00    -0.744 OA
ENDBRANCH  77  81
ENDBRANCH  50  74
BRANCH  62  85
ATOM     85  C   UNL A   1      45.546  33.659  29.143  1.00  0.00     0.023 A 
ATOM     86  C   UNL A   1      45.441  34.664  28.166  1.00  0.00     0.031 A 
ATOM     87  C   UNL A   1      45.805  34.049  30.469  1.00  0.00     0.131 A 
ATOM     88  C   UNL A   1      45.653  36.006  28.519  1.00  0.00     0.055 A 
ATOM     89  C   UNL A   1      45.948  35.391  30.826  1.00  0.00     0.041 A 
ATOM     90  F   UNL A   1      45.919  33.132  31.443  1.00  0.00    -0.206 F 
ATOM     91  C   UNL A   1      45.885  36.377  29.846  1.00  0.00     0.022 A 
BRANCH  88  92
ATOM     92  S   UNL A   1      45.715  37.253  27.204  1.00  0.00     0.124 S 
ATOM     93  O   UNL A   1      46.613  38.251  27.776  1.00  0.00    -0.237 OA
ATOM     94  O   UNL A   1      46.244  36.492  26.077  1.00  0.00    -0.237 OA
ATOM     95  O   UNL A   1      44.323  37.677  27.066  1.00  0.00    -0.744 OA
ENDBRANCH  88  92
ENDBRANCH  62  85
ENDBRANCH  36  37
ENDBRANCH  28  31
ENDBRANCH  26  27
ENDBRANCH  25  26
ENDBRANCH  24  25
ENDBRANCH   1  24
TORSDOF 20
ENDMDL
MODEL 2
REMARK VINA RESULT:      -9.8      1.909      2.521
REMARK SMILES CC(C)N(CC(=O)NCCCCCCNC(=O)c1ccc(-c2c3nc(c(-c4cc(S(=O)(=O)[O-])ccc4F)c4ccc([nH]4)c(-c4cc(S(=O)(=O)[O-])ccc4F)c4nc(c(-c5cc(S(=O)(=O)[O-])ccc5F)c5ccc2[nH]5)C=C4)C=C3)cc1)C(=O)NC1C(C)(C)C1(C)C
REMARK SMILES IDX 11 1 10 2 9 3 8 4 6 5 7 6 5 8 4 9 2 10 1 11 3 12 81 13 82 14
REMARK SMILES IDX 83 15 84 17 85 18 88 19 86 20 87 21 89 22 90 23 12 24 13 25
REMARK SMILES IDX 14 26 15 27 16 28 17 30 18 31 19 32 80 33 20 34 79 35 21 36
REMARK SMILES IDX 22 37 23 38 73 39 24 40 78 41 72 42 74 43 25 44 77 45 71 46
REMARK SMILES IDX 70 47 26 49 58 50 38 51 57 52 39 53 42 54 56 55 75 56 40 57
REMARK SMILES IDX 41 58 55 60 76 61 43 62 27 63 28 64 36 65 29 66 35 67 37 68
REMARK SMILES IDX 34 69 30 70 31 71 32 72 33 73 59 74 60 75 68 76 61 77 67 78
REMARK SMILES IDX 69 79 66 80 62 81 63 82 64 83 65 84 44 85 45 86 53 87 46 88
REMARK SMILES IDX 52 89 54 90 51 91 47 92 48 93 49 94 50 95
REMARK H PARENT 8 7 83 16 15 29 74 48 42 59
REMARK Flexibility Score: inf
ROOT
ATOM      1  C   UNL A   1      37.095  21.384  24.671  1.00  0.00     0.002 C 
ENDROOT
BRANCH   1   2
ATOM      2  C   UNL A   1      35.850  21.149  25.530  1.00  0.00     0.021 C 
BRANCH   2   3
ATOM      3  C   UNL A   1      34.843  20.147  24.995  1.00  0.00     0.116 C 
BRANCH   3   4
ATOM      4  N   UNL A   1      33.633  20.073  25.761  1.00  0.00    -0.355 N 
ATOM      5  C   UNL A   1      32.749  21.111  25.725  1.00  0.00     0.239 C 
ATOM      6  O   UNL A   1      31.606  20.897  25.316  1.00  0.00    -0.273 OA
ATOM      7  H   UNL A   1      33.442  19.278  26.309  1.00  0.00     0.163 HD
BRANCH   5   8
ATOM      8  C   UNL A   1      33.128  22.460  26.340  1.00  0.00     0.221 C 
BRANCH   8   9
ATOM      9  N   UNL A   1      32.760  23.766  25.805  1.00  0.00    -0.313 N 
BRANCH   9  10
ATOM     10  C   UNL A   1      33.546  24.228  24.644  1.00  0.00     0.081 C 
ATOM     11  C   UNL A   1      35.006  24.493  25.004  1.00  0.00     0.031 C 
ATOM     12  C   UNL A   1      33.460  23.338  23.404  1.00  0.00     0.031 C 
ENDBRANCH   9  10
BRANCH   9  13
ATOM     13  C   UNL A   1      31.563  24.378  26.186  1.00  0.00     0.318 C 
ATOM     14  O   UNL A   1      30.885  24.009  27.142  1.00  0.00    -0.249 OA
ATOM     15  N   UNL A   1      31.032  25.262  25.271  1.00  0.00    -0.334 N 
ATOM     16  H   UNL A   1      30.669  24.856  24.451  1.00  0.00     0.165 HD
BRANCH  15  17
ATOM     17  C   UNL A   1      30.931  26.720  25.349  1.00  0.00     0.096 C 
ATOM     18  C   UNL A   1      31.885  27.894  25.063  1.00  0.00    -0.007 C 
ATOM     19  C   UNL A   1      30.989  27.354  23.940  1.00  0.00    -0.007 C 
ATOM     20  C   UNL A   1      31.546  29.295  25.552  1.00  0.00     0.014 C 
ATOM     21  C   UNL A   1      33.382  27.699  25.173  1.00  0.00     0.014 C 
ATOM     22  C   UNL A   1      31.589  26.578  22.786  1.00  0.00     0.014 C 
ATOM     23  C   UNL A   1      29.749  28.094  23.487  1.00  0.00     0.014 C 
ENDBRANCH  15  17
ENDBRANCH   9  13
ENDBRANCH   8   9
ENDBRANCH   5   8
ENDBRANCH   3   4
ENDBRANCH   2   3
ENDBRANCH   1   2
BRANCH   1  24
ATOM     24  C   UNL A   1      38.448  21.401  25.391  1.00  0.00     0.002 C 
BRANCH  24  25
ATOM     25  C   UNL A   1      39.245  20.096  25.403  1.00  0.00     0.021 C 
BRANCH  25  26
ATOM     26  C   UNL A   1      40.168  19.906  26.593  1.00  0.00     0.116 C 
BRANCH  26  27
ATOM     27  N   UNL A   1      41.453  19.368  26.197  1.00  0.00    -0.352 N 
ATOM     28  C   UNL A   1      42.627  20.051  25.980  1.00  0.00     0.251 C 
ATOM     29  H   UNL A   1      41.491  18.394  26.068  1.00  0.00     0.163 HD
ATOM     30  O   UNL A   1      43.571  19.492  25.440  1.00  0.00    -0.269 OA
BRANCH  28  31
ATOM     31  C   UNL A   1      42.716  21.476  26.380  1.00  0.00     0.039 A 
ATOM     32  C   UNL A   1      42.915  21.787  27.725  1.00  0.00     0.014 A 
ATOM     33  C   UNL A   1      42.629  22.494  25.425  1.00  0.00     0.014 A 
ATOM     34  C   UNL A   1      43.071  23.122  28.108  1.00  0.00     0.010 A 
ATOM     35  C   UNL A   1      42.865  23.816  25.798  1.00  0.00     0.010 A 
ATOM     36  C   UNL A   1      43.074  24.145  27.145  1.00  0.00    -0.014 A 
BRANCH  36  37
ATOM     37  C   UNL A   1      43.267  25.566  27.537  1.00  0.00     0.031 A 
ATOM     38  C   UNL A   1      44.621  26.206  27.391  1.00  0.00     0.074 A 
ATOM     39  C   UNL A   1      42.238  26.263  28.058  1.00  0.00     0.049 A 
ATOM     40  N   UNL A   1      45.005  27.415  27.714  1.00  0.00    -0.248 NA
ATOM     41  C   UNL A   1      45.693  25.365  26.838  1.00  0.00     0.031 C 
ATOM     42  C   UNL A   1      40.888  25.740  28.279  1.00  0.00     0.029 A 
ATOM     43  N   UNL A   1      42.165  27.561  28.500  1.00  0.00    -0.354 N 
ATOM     44  C   UNL A   1      46.363  27.473  27.417  1.00  0.00     0.074 A 
ATOM     45  C   UNL A   1      46.746  26.159  26.949  1.00  0.00     0.031 C 
ATOM     46  C   UNL A   1      40.114  26.716  28.779  1.00  0.00     0.029 A 
ATOM     47  C   UNL A   1      40.920  27.920  28.962  1.00  0.00     0.049 A 
ATOM     48  H   UNL A   1      42.933  28.178  28.488  1.00  0.00     0.167 HD
ATOM     49  C   UNL A   1      47.207  28.532  27.505  1.00  0.00     0.034 A 
ATOM     50  C   UNL A   1      40.479  29.084  29.479  1.00  0.00     0.034 A 
ATOM     51  C   UNL A   1      46.802  29.840  27.958  1.00  0.00     0.049 A 
ATOM     52  C   UNL A   1      41.444  30.238  29.596  1.00  0.00     0.074 A 
ATOM     53  C   UNL A   1      47.554  31.000  28.024  1.00  0.00     0.029 A 
ATOM     54  N   UNL A   1      45.537  30.161  28.435  1.00  0.00    -0.354 N 
ATOM     55  N   UNL A   1      42.711  30.294  29.257  1.00  0.00    -0.248 NA
ATOM     56  C   UNL A   1      40.915  31.487  30.159  1.00  0.00     0.031 C 
ATOM     57  C   UNL A   1      46.770  31.999  28.611  1.00  0.00     0.029 A 
ATOM     58  C   UNL A   1      45.501  31.489  28.833  1.00  0.00     0.049 A 
ATOM     59  H   UNL A   1      44.777  29.537  28.483  1.00  0.00     0.167 HD
ATOM     60  C   UNL A   1      43.120  31.597  29.531  1.00  0.00     0.074 A 
ATOM     61  C   UNL A   1      41.961  32.293  30.051  1.00  0.00     0.031 C 
ATOM     62  C   UNL A   1      44.340  32.168  29.362  1.00  0.00     0.034 A 
BRANCH  49  63
ATOM     63  C   UNL A   1      48.655  28.303  27.134  1.00  0.00     0.023 A 
ATOM     64  C   UNL A   1      49.110  28.421  25.809  1.00  0.00     0.031 A 
ATOM     65  C   UNL A   1      49.589  27.934  28.117  1.00  0.00     0.131 A 
ATOM     66  C   UNL A   1      50.436  28.095  25.491  1.00  0.00     0.055 A 
ATOM     67  C   UNL A   1      50.930  27.695  27.809  1.00  0.00     0.041 A 
ATOM     68  F   UNL A   1      49.212  27.783  29.397  1.00  0.00    -0.206 F 
ATOM     69  C   UNL A   1      51.358  27.759  26.486  1.00  0.00     0.022 A 
BRANCH  66  70
ATOM     70  S   UNL A   1      50.903  27.967  23.743  1.00  0.00     0.124 S 
ATOM     71  O   UNL A   1      51.703  29.177  23.563  1.00  0.00    -0.237 OA
ATOM     72  O   UNL A   1      51.633  26.706  23.702  1.00  0.00    -0.237 OA
ATOM     73  O   UNL A   1      49.620  27.970  23.044  1.00  0.00    -0.744 OA
ENDBRANCH  66  70
ENDBRANCH  49  63
BRANCH  50  74
ATOM     74  C   UNL A   1      39.065  29.227  29.930  1.00  0.00     0.023 A 
ATOM     75  C   UNL A   1      38.097  29.808  29.095  1.00  0.00     0.031 A 
ATOM     76  C   UNL A   1      38.668  28.830  31.219  1.00  0.00     0.131 A 
ATOM     77  C   UNL A   1      36.794  30.020  29.574  1.00  0.00     0.055 A 
ATOM     78  C   UNL A   1      37.357  28.991  31.671  1.00  0.00     0.041 A 
ATOM     79  F   UNL A   1      39.552  28.266  32.059  1.00  0.00    -0.206 F 
ATOM     80  C   UNL A   1      36.414  29.603  30.851  1.00  0.00     0.022 A 
BRANCH  77  81
ATOM     81  S   UNL A   1      35.626  30.936  28.532  1.00  0.00     0.124 S 
ATOM     82  O   UNL A   1      36.523  31.766  27.737  1.00  0.00    -0.237 OA
ATOM     83  O   UNL A   1      34.947  29.858  27.819  1.00  0.00    -0.237 OA
ATOM     84  O   UNL A   1      34.800  31.656  29.500  1.00  0.00    -0.744 OA
ENDBRANCH  77  81
ENDBRANCH  50  74
BRANCH  62  85
ATOM     85  C   UNL A   1      44.465  33.635  29.702  1.00  0.00     0.023 A 
ATOM     86  C   UNL A   1      44.088  34.641  28.795  1.00  0.00     0.031 A 
ATOM     87  C   UNL A   1      44.981  34.028  30.949  1.00  0.00     0.131 A 
ATOM     88  C   UNL A   1      44.287  35.990  29.126  1.00  0.00     0.055 A 
ATOM     89  C   UNL A   1      45.114  35.373  31.299  1.00  0.00     0.041 A 
ATOM     90  F   UNL A   1      45.360  33.111  31.853  1.00  0.00    -0.206 F 
ATOM     91  C   UNL A   1      44.779  36.362  30.380  1.00  0.00     0.022 A 
BRANCH  88  92
ATOM     92  S   UNL A   1      43.984  37.253  27.859  1.00  0.00     0.124 S 
ATOM     93  O   UNL A   1      43.203  36.512  26.875  1.00  0.00    -0.237 OA
ATOM     94  O   UNL A   1      43.261  38.277  28.607  1.00  0.00    -0.237 OA
ATOM     95  O   UNL A   1      45.327  37.633  27.427  1.00  0.00    -0.744 OA
ENDBRANCH  88  92
ENDBRANCH  62  85
ENDBRANCH  36  37
ENDBRANCH  28  31
ENDBRANCH  26  27
ENDBRANCH  25  26
ENDBRANCH  24  25
ENDBRANCH   1  24
TORSDOF 20
ENDMDL
MODEL 3
REMARK VINA RESULT:      -9.7      1.385      2.104
REMARK SMILES CC(C)N(CC(=O)NCCCCCCNC(=O)c1ccc(-c2c3nc(c(-c4cc(S(=O)(=O)[O-])ccc4F)c4ccc([nH]4)c(-c4cc(S(=O)(=O)[O-])ccc4F)c4nc(c(-c5cc(S(=O)(=O)[O-])ccc5F)c5ccc2[nH]5)C=C4)C=C3)cc1)C(=O)NC1C(C)(C)C1(C)C
REMARK SMILES IDX 11 1 10 2 9 3 8 4 6 5 7 6 5 8 4 9 2 10 1 11 3 12 81 13 82 14
REMARK SMILES IDX 83 15 84 17 85 18 88 19 86 20 87 21 89 22 90 23 12 24 13 25
REMARK SMILES IDX 14 26 15 27 16 28 17 30 18 31 19 32 80 33 20 34 79 35 21 36
REMARK SMILES IDX 22 37 23 38 73 39 24 40 78 41 72 42 74 43 25 44 77 45 71 46
REMARK SMILES IDX 70 47 26 49 58 50 38 51 57 52 39 53 42 54 56 55 75 56 40 57
REMARK SMILES IDX 41 58 55 60 76 61 43 62 27 63 28 64 36 65 29 66 35 67 37 68
REMARK SMILES IDX 34 69 30 70 31 71 32 72 33 73 59 74 60 75 68 76 61 77 67 78
REMARK SMILES IDX 69 79 66 80 62 81 63 82 64 83 65 84 44 85 45 86 53 87 46 88
REMARK SMILES IDX 52 89 54 90 51 91 47 92 48 93 49 94 50 95
REMARK H PARENT 8 7 83 16 15 29 74 48 42 59
REMARK Flexibility Score: inf
ROOT
ATOM      1  C   UNL A   1      36.844  21.328  24.641  1.00  0.00     0.002 C 
ENDROOT
BRANCH   1   2
ATOM      2  C   UNL A   1      35.694  20.765  25.481  1.00  0.00     0.021 C 
BRANCH   2   3
ATOM      3  C   UNL A   1      34.500  21.681  25.685  1.00  0.00     0.116 C 
BRANCH   3   4
ATOM      4  N   UNL A   1      34.844  22.985  26.171  1.00  0.00    -0.355 N 
ATOM      5  C   UNL A   1      34.333  24.090  25.556  1.00  0.00     0.239 C 
ATOM      6  O   UNL A   1      33.632  24.860  26.215  1.00  0.00    -0.273 OA
ATOM      7  H   UNL A   1      35.445  23.082  26.944  1.00  0.00     0.163 HD
BRANCH   5   8
ATOM      8  C   UNL A   1      34.765  24.440  24.130  1.00  0.00     0.221 C 
BRANCH   8   9
ATOM      9  N   UNL A   1      33.877  24.536  22.977  1.00  0.00    -0.313 N 
BRANCH   9  10
ATOM     10  C   UNL A   1      33.324  23.258  22.486  1.00  0.00     0.081 C 
ATOM     11  C   UNL A   1      32.030  22.876  23.202  1.00  0.00     0.031 C 
ATOM     12  C   UNL A   1      33.135  23.170  20.971  1.00  0.00     0.031 C 
ENDBRANCH   9  10
BRANCH   9  13
ATOM     13  C   UNL A   1      33.369  25.772  22.573  1.00  0.00     0.318 C 
ATOM     14  O   UNL A   1      33.789  26.396  21.601  1.00  0.00    -0.249 OA
ATOM     15  N   UNL A   1      32.541  26.398  23.481  1.00  0.00    -0.334 N 
ATOM     16  H   UNL A   1      32.983  26.741  24.291  1.00  0.00     0.165 HD
BRANCH  15  17
ATOM     17  C   UNL A   1      31.097  26.624  23.408  1.00  0.00     0.096 C 
ATOM     18  C   UNL A   1      29.937  26.594  24.421  1.00  0.00    -0.007 C 
ATOM     19  C   UNL A   1      30.698  27.904  24.178  1.00  0.00    -0.007 C 
ATOM     20  C   UNL A   1      28.495  26.577  23.936  1.00  0.00     0.014 C 
ATOM     21  C   UNL A   1      30.036  25.729  25.659  1.00  0.00     0.014 C 
ATOM     22  C   UNL A   1      31.621  28.464  25.242  1.00  0.00     0.014 C 
ATOM     23  C   UNL A   1      30.107  29.027  23.353  1.00  0.00     0.014 C 
ENDBRANCH  15  17
ENDBRANCH   9  13
ENDBRANCH   8   9
ENDBRANCH   5   8
ENDBRANCH   3   4
ENDBRANCH   2   3
ENDBRANCH   1   2
BRANCH   1  24
ATOM     24  C   UNL A   1      38.214  21.440  25.319  1.00  0.00     0.002 C 
BRANCH  24  25
ATOM     25  C   UNL A   1      39.149  20.236  25.200  1.00  0.00     0.021 C 
BRANCH  25  26
ATOM     26  C   UNL A   1      39.899  19.865  26.467  1.00  0.00     0.116 C 
BRANCH  26  27
ATOM     27  N   UNL A   1      41.122  19.146  26.179  1.00  0.00    -0.352 N 
ATOM     28  C   UNL A   1      42.386  19.660  26.008  1.00  0.00     0.251 C 
ATOM     29  H   UNL A   1      41.038  18.169  26.095  1.00  0.00     0.163 HD
ATOM     30  O   UNL A   1      43.278  18.956  25.554  1.00  0.00    -0.269 OA
BRANCH  28  31
ATOM     31  C   UNL A   1      42.639  21.079  26.349  1.00  0.00     0.039 A 
ATOM     32  C   UNL A   1      42.791  21.433  27.690  1.00  0.00     0.014 A 
ATOM     33  C   UNL A   1      42.752  22.048  25.347  1.00  0.00     0.014 A 
ATOM     34  C   UNL A   1      43.099  22.755  28.024  1.00  0.00     0.010 A 
ATOM     35  C   UNL A   1      43.138  23.345  25.676  1.00  0.00     0.010 A 
ATOM     36  C   UNL A   1      43.302  23.715  27.020  1.00  0.00    -0.014 A 
BRANCH  36  37
ATOM     37  C   UNL A   1      43.658  25.118  27.361  1.00  0.00     0.031 A 
ATOM     38  C   UNL A   1      45.092  25.568  27.280  1.00  0.00     0.074 A 
ATOM     39  C   UNL A   1      42.701  25.969  27.780  1.00  0.00     0.049 A 
ATOM     40  N   UNL A   1      45.612  26.732  27.574  1.00  0.00    -0.248 NA
ATOM     41  C   UNL A   1      46.073  24.567  26.838  1.00  0.00     0.031 C 
ATOM     42  C   UNL A   1      41.282  25.638  27.931  1.00  0.00     0.029 A 
ATOM     43  N   UNL A   1      42.774  27.287  28.158  1.00  0.00    -0.354 N 
ATOM     44  C   UNL A   1      46.982  26.597  27.368  1.00  0.00     0.074 A 
ATOM     45  C   UNL A   1      47.215  25.222  26.985  1.00  0.00     0.031 C 
ATOM     46  C   UNL A   1      40.616  26.732  28.334  1.00  0.00     0.029 A 
ATOM     47  C   UNL A   1      41.562  27.829  28.519  1.00  0.00     0.049 A 
ATOM     48  H   UNL A   1      43.616  27.797  28.171  1.00  0.00     0.167 HD
ATOM     49  C   UNL A   1      47.952  27.540  27.466  1.00  0.00     0.034 A 
ATOM     50  C   UNL A   1      41.249  29.066  28.953  1.00  0.00     0.034 A 
ATOM     51  C   UNL A   1      47.698  28.913  27.833  1.00  0.00     0.049 A 
ATOM     52  C   UNL A   1      42.350  30.089  29.085  1.00  0.00     0.074 A 
ATOM     53  C   UNL A   1      48.592  29.967  27.899  1.00  0.00     0.029 A 
ATOM     54  N   UNL A   1      46.460  29.420  28.208  1.00  0.00    -0.354 N 
ATOM     55  N   UNL A   1      43.632  29.962  28.830  1.00  0.00    -0.248 NA
ATOM     56  C   UNL A   1      41.959  31.424  29.555  1.00  0.00     0.031 C 
ATOM     57  C   UNL A   1      47.914  31.088  28.387  1.00  0.00     0.029 A 
ATOM     58  C   UNL A   1      46.576  30.760  28.545  1.00  0.00     0.049 A 
ATOM     59  H   UNL A   1      45.622  28.903  28.232  1.00  0.00     0.167 HD
ATOM     60  C   UNL A   1      44.193  31.213  29.074  1.00  0.00     0.074 A 
ATOM     61  C   UNL A   1      43.108  32.080  29.484  1.00  0.00     0.031 C 
ATOM     62  C   UNL A   1      45.487  31.611  28.964  1.00  0.00     0.034 A 
BRANCH  49  63
ATOM     63  C   UNL A   1      49.377  27.106  27.205  1.00  0.00     0.023 A 
ATOM     64  C   UNL A   1      50.031  27.396  25.994  1.00  0.00     0.031 A 
ATOM     65  C   UNL A   1      50.082  26.367  28.171  1.00  0.00     0.131 A 
ATOM     66  C   UNL A   1      51.313  26.881  25.750  1.00  0.00     0.055 A 
ATOM     67  C   UNL A   1      51.391  25.932  27.956  1.00  0.00     0.041 A 
ATOM     68  F   UNL A   1      49.504  26.040  29.338  1.00  0.00    -0.206 F 
ATOM     69  C   UNL A   1      52.009  26.174  26.733  1.00  0.00     0.022 A 
BRANCH  66  70
ATOM     70  S   UNL A   1      51.997  27.018  24.076  1.00  0.00     0.124 S 
ATOM     71  O   UNL A   1      52.617  28.341  24.119  1.00  0.00    -0.237 OA
ATOM     72  O   UNL A   1      52.913  25.885  24.015  1.00  0.00    -0.237 OA
ATOM     73  O   UNL A   1      50.821  26.919  23.215  1.00  0.00    -0.744 OA
ENDBRANCH  66  70
ENDBRANCH  49  63
BRANCH  50  74
ATOM     74  C   UNL A   1      39.842  29.415  29.301  1.00  0.00     0.023 A 
ATOM     75  C   UNL A   1      39.429  29.497  30.640  1.00  0.00     0.031 A 
ATOM     76  C   UNL A   1      38.876  29.626  28.301  1.00  0.00     0.131 A 
ATOM     77  C   UNL A   1      38.079  29.732  30.946  1.00  0.00     0.055 A 
ATOM     78  C   UNL A   1      37.545  29.917  28.609  1.00  0.00     0.041 A 
ATOM     79  F   UNL A   1      39.216  29.563  27.004  1.00  0.00    -0.206 F 
ATOM     80  C   UNL A   1      37.138  29.957  29.939  1.00  0.00     0.022 A 
BRANCH  77  81
ATOM     81  S   UNL A   1      37.554  29.650  32.680  1.00  0.00     0.124 S 
ATOM     82  O   UNL A   1      36.271  30.340  32.634  1.00  0.00    -0.237 OA
ATOM     83  O   UNL A   1      37.502  28.210  32.912  1.00  0.00    -0.237 OA
ATOM     84  O   UNL A   1      38.619  30.355  33.390  1.00  0.00    -0.744 OA
ENDBRANCH  77  81
ENDBRANCH  50  74
BRANCH  62  85
ATOM     85  C   UNL A   1      45.784  33.065  29.246  1.00  0.00     0.023 A 
ATOM     86  C   UNL A   1      45.649  34.056  28.258  1.00  0.00     0.031 A 
ATOM     87  C   UNL A   1      46.221  33.460  30.523  1.00  0.00     0.131 A 
ATOM     88  C   UNL A   1      46.004  35.383  28.546  1.00  0.00     0.055 A 
ATOM     89  C   UNL A   1      46.509  34.792  30.823  1.00  0.00     0.041 A 
ATOM     90  F   UNL A   1      46.372  32.556  31.505  1.00  0.00    -0.206 F 
ATOM     91  C   UNL A   1      46.414  35.760  29.828  1.00  0.00     0.022 A 
BRANCH  88  92
ATOM     92  S   UNL A   1      46.016  36.594  27.196  1.00  0.00     0.124 S 
ATOM     93  O   UNL A   1      46.746  35.880  26.154  1.00  0.00    -0.237 OA
ATOM     94  O   UNL A   1      44.592  36.800  26.950  1.00  0.00    -0.237 OA
ATOM     95  O   UNL A   1      46.718  37.741  27.771  1.00  0.00    -0.744 OA
ENDBRANCH  88  92
ENDBRANCH  62  85
ENDBRANCH  36  37
ENDBRANCH  28  31
ENDBRANCH  26  27
ENDBRANCH  25  26
ENDBRANCH  24  25
ENDBRANCH   1  24
TORSDOF 20
ENDMDL
