MODEL 1
REMARK VINA RESULT:     -12.2      0.000      0.000
REMARK SMILES Cc1cc(C)cc(N(C)S(=O)(=O)c2ccc(F)c(C(=O)NCCCCCCNC(=O)c3ccc(-c4c5nc(c(-c6cc(S(=O)(=O)[O-])ccc6F)c6ccc([nH]6)c(-c6cc(S(=O)(=O)[O-])ccc6F)c6nc(c(-c7cc(S(=O)(=O)[O-])ccc7F)c7ccc4[nH]7)C=C6)C=C5)cc3)c2)c1
REMARK SMILES IDX 24 1 23 2 22 3 21 4 19 5 20 6 18 8 13 9 14 10 94 11 15 12
REMARK SMILES IDX 16 13 17 14 10 15 11 16 12 17 8 18 9 19 7 20 1 21 2 22 3 23
REMARK SMILES IDX 95 24 4 25 5 26 6 27 25 28 26 29 27 30 28 31 29 32 30 34
REMARK SMILES IDX 31 35 32 36 93 37 33 38 92 39 34 40 35 41 36 42 86 43 37 44
REMARK SMILES IDX 91 45 85 46 87 47 38 48 90 49 84 50 83 51 39 53 71 54 51 55
REMARK SMILES IDX 70 56 52 57 55 58 69 59 88 60 53 61 54 62 68 64 89 65 56 66
REMARK SMILES IDX 40 67 41 68 49 69 42 70 48 71 50 72 47 73 43 74 44 75 45 76
REMARK SMILES IDX 46 77 72 78 73 79 81 80 74 81 80 82 82 83 79 84 75 85 76 86
REMARK SMILES IDX 77 87 78 88 57 89 58 90 66 91 59 92 65 93 67 94 64 95 60 96
REMARK SMILES IDX 61 97 62 98 63 99
REMARK H PARENT 21 7 28 33 87 52 55 63
REMARK Flexibility Score: inf
ROOT
ATOM      1  C   UNL A   1      29.925  27.784  24.349  1.00  0.00     0.002 C 
ENDROOT
BRANCH   1   2
ATOM      2  C   UNL A   1      30.063  27.067  23.005  1.00  0.00     0.021 C 
BRANCH   2   3
ATOM      3  C   UNL A   1      31.051  27.661  22.008  1.00  0.00     0.116 C 
BRANCH   3   4
ATOM      4  N   UNL A   1      31.805  26.657  21.288  1.00  0.00    -0.352 N 
ATOM      5  C   UNL A   1      32.707  25.730  21.727  1.00  0.00     0.254 C 
ATOM      6  O   UNL A   1      33.230  24.990  20.891  1.00  0.00    -0.269 OA
ATOM      7  H   UNL A   1      31.640  26.641  20.317  1.00  0.00     0.163 HD
BRANCH   5   8
ATOM      8  C   UNL A   1      33.145  25.599  23.140  1.00  0.00     0.076 A 
ATOM      9  C   UNL A   1      32.826  24.331  25.201  1.00  0.00     0.089 A 
ATOM     10  C   UNL A   1      33.652  25.252  25.870  1.00  0.00     0.025 A 
ATOM     11  C   UNL A   1      32.646  24.473  23.829  1.00  0.00     0.039 A 
ATOM     12  C   UNL A   1      34.178  26.354  25.193  1.00  0.00     0.041 A 
ATOM     13  C   UNL A   1      33.867  26.555  23.850  1.00  0.00     0.136 A 
ATOM     14  F   UNL A   1      34.234  27.718  23.297  1.00  0.00    -0.206 F 
BRANCH   9  15
ATOM     15  S   UNL A   1      31.898  23.227  26.265  1.00  0.00     0.264 S 
ATOM     16  O   UNL A   1      31.065  22.474  25.348  1.00  0.00    -0.201 OA
ATOM     17  O   UNL A   1      31.293  24.106  27.252  1.00  0.00    -0.201 OA
BRANCH  15  18
ATOM     18  N   UNL A   1      32.865  22.071  27.134  1.00  0.00    -0.269 N 
ATOM     19  C   UNL A   1      33.505  22.579  28.376  1.00  0.00     0.164 C 
BRANCH  18  20
ATOM     20  C   UNL A   1      33.771  21.248  26.275  1.00  0.00     0.052 A 
ATOM     21  C   UNL A   1      37.369  21.180  24.945  1.00  0.00     0.044 C 
ATOM     22  C   UNL A   1      35.944  20.785  25.207  1.00  0.00    -0.049 A 
ATOM     23  C   UNL A   1      35.428  19.627  24.625  1.00  0.00     0.007 A 
ATOM     24  C   UNL A   1      35.111  21.582  26.015  1.00  0.00     0.030 A 
ATOM     25  C   UNL A   1      34.089  19.287  24.811  1.00  0.00    -0.049 A 
ATOM     26  C   UNL A   1      33.540  18.041  24.181  1.00  0.00     0.044 C 
ATOM     27  C   UNL A   1      33.268  20.130  25.582  1.00  0.00     0.030 A 
ENDBRANCH  18  20
ENDBRANCH  15  18
ENDBRANCH   9  15
ENDBRANCH   5   8
ENDBRANCH   3   4
ENDBRANCH   2   3
ENDBRANCH   1   2
BRANCH   1  28
ATOM     28  C   UNL A   1      31.217  28.265  25.013  1.00  0.00     0.002 C 
BRANCH  28  29
ATOM     29  C   UNL A   1      31.387  29.778  25.162  1.00  0.00     0.021 C 
BRANCH  29  30
ATOM     30  C   UNL A   1      32.362  30.234  26.240  1.00  0.00     0.116 C 
BRANCH  30  31
ATOM     31  N   UNL A   1      32.250  31.652  26.531  1.00  0.00    -0.352 N 
ATOM     32  C   UNL A   1      33.021  32.430  27.359  1.00  0.00     0.251 C 
ATOM     33  H   UNL A   1      31.519  32.121  26.068  1.00  0.00     0.163 HD
ATOM     34  O   UNL A   1      32.673  33.580  27.609  1.00  0.00    -0.269 OA
BRANCH  32  35
ATOM     35  C   UNL A   1      34.251  31.873  27.968  1.00  0.00     0.039 A 
ATOM     36  C   UNL A   1      35.293  32.744  28.296  1.00  0.00     0.014 A 
ATOM     37  C   UNL A   1      34.381  30.502  28.212  1.00  0.00     0.014 A 
ATOM     38  C   UNL A   1      36.439  32.248  28.921  1.00  0.00     0.010 A 
ATOM     39  C   UNL A   1      35.495  30.020  28.897  1.00  0.00     0.010 A 
ATOM     40  C   UNL A   1      36.537  30.887  29.258  1.00  0.00    -0.014 A 
BRANCH  40  41
ATOM     41  C   UNL A   1      37.723  30.357  29.981  1.00  0.00     0.031 A 
ATOM     42  C   UNL A   1      37.968  30.742  31.415  1.00  0.00     0.074 A 
ATOM     43  C   UNL A   1      38.598  29.559  29.334  1.00  0.00     0.049 A 
ATOM     44  N   UNL A   1      38.983  30.447  32.185  1.00  0.00    -0.248 NA
ATOM     45  C   UNL A   1      36.951  31.587  32.062  1.00  0.00     0.031 C 
ATOM     46  C   UNL A   1      38.478  29.130  27.939  1.00  0.00     0.029 A 
ATOM     47  N   UNL A   1      39.759  28.964  29.763  1.00  0.00    -0.354 N 
ATOM     48  C   UNL A   1      38.731  31.070  33.402  1.00  0.00     0.074 A 
ATOM     49  C   UNL A   1      37.493  31.801  33.253  1.00  0.00     0.031 C 
ATOM     50  C   UNL A   1      39.502  28.315  27.640  1.00  0.00     0.029 A 
ATOM     51  C   UNL A   1      40.380  28.201  28.800  1.00  0.00     0.049 A 
ATOM     52  H   UNL A   1      40.115  29.074  30.674  1.00  0.00     0.167 HD
ATOM     53  C   UNL A   1      39.455  31.016  34.545  1.00  0.00     0.034 A 
ATOM     54  C   UNL A   1      41.529  27.498  28.841  1.00  0.00     0.034 A 
ATOM     55  C   UNL A   1      40.673  30.262  34.694  1.00  0.00     0.049 A 
ATOM     56  C   UNL A   1      42.335  27.486  30.114  1.00  0.00     0.074 A 
ATOM     57  C   UNL A   1      41.457  30.114  35.825  1.00  0.00     0.029 A 
ATOM     58  N   UNL A   1      41.282  29.526  33.687  1.00  0.00    -0.354 N 
ATOM     59  N   UNL A   1      42.078  28.085  31.254  1.00  0.00    -0.248 NA
ATOM     60  C   UNL A   1      43.581  26.708  30.109  1.00  0.00     0.031 C 
ATOM     61  C   UNL A   1      42.569  29.338  35.487  1.00  0.00     0.029 A 
ATOM     62  C   UNL A   1      42.444  28.945  34.165  1.00  0.00     0.049 A 
ATOM     63  H   UNL A   1      40.939  29.433  32.769  1.00  0.00     0.167 HD
ATOM     64  C   UNL A   1      43.120  27.735  32.108  1.00  0.00     0.074 A 
ATOM     65  C   UNL A   1      44.005  26.871  31.355  1.00  0.00     0.031 C 
ATOM     66  C   UNL A   1      43.321  28.091  33.400  1.00  0.00     0.034 A 
BRANCH  53  67
ATOM     67  C   UNL A   1      38.958  31.797  35.733  1.00  0.00     0.023 A 
ATOM     68  C   UNL A   1      38.203  31.185  36.748  1.00  0.00     0.031 A 
ATOM     69  C   UNL A   1      39.286  33.156  35.877  1.00  0.00     0.131 A 
ATOM     70  C   UNL A   1      37.778  31.939  37.850  1.00  0.00     0.055 A 
ATOM     71  C   UNL A   1      38.911  33.886  37.005  1.00  0.00     0.041 A 
ATOM     72  F   UNL A   1      39.992  33.791  34.928  1.00  0.00    -0.206 F 
ATOM     73  C   UNL A   1      38.148  33.279  37.999  1.00  0.00     0.022 A 
BRANCH  70  74
ATOM     74  S   UNL A   1      36.684  31.161  39.069  1.00  0.00     0.124 S 
ATOM     75  O   UNL A   1      37.526  31.162  40.262  1.00  0.00    -0.237 OA
ATOM     76  O   UNL A   1      35.540  32.066  39.094  1.00  0.00    -0.237 OA
ATOM     77  O   UNL A   1      36.420  29.841  38.499  1.00  0.00    -0.744 OA
ENDBRANCH  70  74
ENDBRANCH  53  67
BRANCH  54  78
ATOM     78  C   UNL A   1      41.998  26.756  27.637  1.00  0.00     0.023 A 
ATOM     79  C   UNL A   1      41.787  25.374  27.514  1.00  0.00     0.031 A 
ATOM     80  C   UNL A   1      42.674  27.417  26.597  1.00  0.00     0.131 A 
ATOM     81  C   UNL A   1      42.273  24.690  26.388  1.00  0.00     0.055 A 
ATOM     82  C   UNL A   1      43.118  26.741  25.460  1.00  0.00     0.041 A 
ATOM     83  F   UNL A   1      42.895  28.740  26.664  1.00  0.00    -0.206 F 
ATOM     84  C   UNL A   1      42.926  25.367  25.354  1.00  0.00     0.022 A 
BRANCH  81  85
ATOM     85  S   UNL A   1      42.080  22.889  26.313  1.00  0.00     0.124 S 
ATOM     86  O   UNL A   1      40.635  22.739  26.444  1.00  0.00    -0.237 OA
ATOM     87  O   UNL A   1      42.642  22.577  25.002  1.00  0.00    -0.237 OA
ATOM     88  O   UNL A   1      42.864  22.414  27.451  1.00  0.00    -0.744 OA
ENDBRANCH  81  85
ENDBRANCH  54  78
BRANCH  66  89
ATOM     89  C   UNL A   1      44.524  27.523  34.101  1.00  0.00     0.023 A 
ATOM     90  C   UNL A   1      44.474  26.284  34.759  1.00  0.00     0.031 A 
ATOM     91  C   UNL A   1      45.753  28.207  34.058  1.00  0.00     0.131 A 
ATOM     92  C   UNL A   1      45.629  25.775  35.372  1.00  0.00     0.055 A 
ATOM     93  C   UNL A   1      46.908  27.674  34.628  1.00  0.00     0.041 A 
ATOM     94  F   UNL A   1      45.851  29.394  33.437  1.00  0.00    -0.206 F 
ATOM     95  C   UNL A   1      46.849  26.453  35.294  1.00  0.00     0.022 A 
BRANCH  92  96
ATOM     96  S   UNL A   1      45.513  24.221  36.298  1.00  0.00     0.124 S 
ATOM     97  O   UNL A   1      46.717  23.519  35.862  1.00  0.00    -0.237 OA
ATOM     98  O   UNL A   1      45.509  24.677  37.684  1.00  0.00    -0.237 OA
ATOM     99  O   UNL A   1      44.254  23.638  35.836  1.00  0.00    -0.744 OA
ENDBRANCH  92  96
ENDBRANCH  66  89
ENDBRANCH  40  41
ENDBRANCH  32  35
ENDBRANCH  30  31
ENDBRANCH  29  30
ENDBRANCH  28  29
ENDBRANCH   1  28
TORSDOF 19
ENDMDL
MODEL 2
REMARK VINA RESULT:     -12.1      2.222      7.862
REMARK SMILES Cc1cc(C)cc(N(C)S(=O)(=O)c2ccc(F)c(C(=O)NCCCCCCNC(=O)c3ccc(-c4c5nc(c(-c6cc(S(=O)(=O)[O-])ccc6F)c6ccc([nH]6)c(-c6cc(S(=O)(=O)[O-])ccc6F)c6nc(c(-c7cc(S(=O)(=O)[O-])ccc7F)c7ccc4[nH]7)C=C6)C=C5)cc3)c2)c1
REMARK SMILES IDX 24 1 23 2 22 3 21 4 19 5 20 6 18 8 13 9 14 10 94 11 15 12
REMARK SMILES IDX 16 13 17 14 10 15 11 16 12 17 8 18 9 19 7 20 1 21 2 22 3 23
REMARK SMILES IDX 95 24 4 25 5 26 6 27 25 28 26 29 27 30 28 31 29 32 30 34
REMARK SMILES IDX 31 35 32 36 93 37 33 38 92 39 34 40 35 41 36 42 86 43 37 44
REMARK SMILES IDX 91 45 85 46 87 47 38 48 90 49 84 50 83 51 39 53 71 54 51 55
REMARK SMILES IDX 70 56 52 57 55 58 69 59 88 60 53 61 54 62 68 64 89 65 56 66
REMARK SMILES IDX 40 67 41 68 49 69 42 70 48 71 50 72 47 73 43 74 44 75 45 76
REMARK SMILES IDX 46 77 72 78 73 79 81 80 74 81 80 82 82 83 79 84 75 85 76 86
REMARK SMILES IDX 77 87 78 88 57 89 58 90 66 91 59 92 65 93 67 94 64 95 60 96
REMARK SMILES IDX 61 97 62 98 63 99
REMARK H PARENT 21 7 28 33 87 52 55 63
REMARK Flexibility Score: inf
ROOT
ATOM      1  C   UNL A   1      32.417  29.628  27.308  1.00  0.00     0.002 C 
ENDROOT
BRANCH   1   2
ATOM      2  C   UNL A   1      33.881  29.618  26.862  1.00  0.00     0.021 C 
BRANCH   2   3
ATOM      3  C   UNL A   1      34.282  28.555  25.847  1.00  0.00     0.116 C 
BRANCH   3   4
ATOM      4  N   UNL A   1      34.167  29.007  24.477  1.00  0.00    -0.352 N 
ATOM      5  C   UNL A   1      33.217  28.754  23.528  1.00  0.00     0.254 C 
ATOM      6  O   UNL A   1      33.366  29.257  22.411  1.00  0.00    -0.269 OA
ATOM      7  H   UNL A   1      34.898  29.595  24.178  1.00  0.00     0.163 HD
BRANCH   5   8
ATOM      8  C   UNL A   1      32.050  27.861  23.736  1.00  0.00     0.076 A 
ATOM      9  C   UNL A   1      31.349  25.530  23.913  1.00  0.00     0.089 A 
ATOM     10  C   UNL A   1      30.008  25.956  23.924  1.00  0.00     0.025 A 
ATOM     11  C   UNL A   1      32.353  26.492  23.897  1.00  0.00     0.039 A 
ATOM     12  C   UNL A   1      29.695  27.310  23.797  1.00  0.00     0.041 A 
ATOM     13  C   UNL A   1      30.715  28.246  23.638  1.00  0.00     0.136 A 
ATOM     14  F   UNL A   1      30.362  29.500  23.330  1.00  0.00    -0.206 F 
BRANCH   9  15
ATOM     15  S   UNL A   1      31.587  23.771  23.663  1.00  0.00     0.264 S 
ATOM     16  O   UNL A   1      32.819  23.688  22.903  1.00  0.00    -0.201 OA
ATOM     17  O   UNL A   1      30.334  23.320  23.081  1.00  0.00    -0.201 OA
BRANCH  15  18
ATOM     18  N   UNL A   1      31.833  22.856  25.123  1.00  0.00    -0.269 N 
ATOM     19  C   UNL A   1      32.136  23.658  26.336  1.00  0.00     0.164 C 
BRANCH  18  20
ATOM     20  C   UNL A   1      32.698  21.647  24.959  1.00  0.00     0.052 A 
ATOM     21  C   UNL A   1      32.472  17.903  24.155  1.00  0.00     0.044 C 
ATOM     22  C   UNL A   1      33.042  19.253  24.487  1.00  0.00    -0.049 A 
ATOM     23  C   UNL A   1      34.417  19.398  24.667  1.00  0.00     0.007 A 
ATOM     24  C   UNL A   1      32.202  20.372  24.641  1.00  0.00     0.030 A 
ATOM     25  C   UNL A   1      34.947  20.633  25.038  1.00  0.00    -0.049 A 
ATOM     26  C   UNL A   1      36.427  20.783  25.232  1.00  0.00     0.044 C 
ATOM     27  C   UNL A   1      34.078  21.722  25.234  1.00  0.00     0.030 A 
ENDBRANCH  18  20
ENDBRANCH  15  18
ENDBRANCH   9  15
ENDBRANCH   5   8
ENDBRANCH   3   4
ENDBRANCH   2   3
ENDBRANCH   1   2
BRANCH   1  28
ATOM     28  C   UNL A   1      31.429  30.391  26.421  1.00  0.00     0.002 C 
BRANCH  28  29
ATOM     29  C   UNL A   1      31.562  31.915  26.406  1.00  0.00     0.021 C 
BRANCH  29  30
ATOM     30  C   UNL A   1      32.646  32.496  27.306  1.00  0.00     0.116 C 
BRANCH  30  31
ATOM     31  N   UNL A   1      32.434  33.902  27.597  1.00  0.00    -0.352 N 
ATOM     32  C   UNL A   1      33.059  34.698  28.526  1.00  0.00     0.251 C 
ATOM     33  H   UNL A   1      31.747  34.348  27.052  1.00  0.00     0.163 HD
ATOM     34  O   UNL A   1      32.632  35.828  28.745  1.00  0.00    -0.269 OA
BRANCH  32  35
ATOM     35  C   UNL A   1      34.226  34.183  29.279  1.00  0.00     0.039 A 
ATOM     36  C   UNL A   1      34.002  33.380  30.400  1.00  0.00     0.014 A 
ATOM     37  C   UNL A   1      35.534  34.490  28.887  1.00  0.00     0.014 A 
ATOM     38  C   UNL A   1      35.088  32.839  31.092  1.00  0.00     0.010 A 
ATOM     39  C   UNL A   1      36.613  33.893  29.537  1.00  0.00     0.010 A 
ATOM     40  C   UNL A   1      36.402  33.062  30.647  1.00  0.00    -0.014 A 
BRANCH  40  41
ATOM     41  C   UNL A   1      37.563  32.440  31.336  1.00  0.00     0.031 A 
ATOM     42  C   UNL A   1      38.291  31.288  30.698  1.00  0.00     0.074 A 
ATOM     43  C   UNL A   1      37.938  32.889  32.552  1.00  0.00     0.049 A 
ATOM     44  N   UNL A   1      39.272  30.567  31.177  1.00  0.00    -0.248 NA
ATOM     45  C   UNL A   1      37.846  30.879  29.356  1.00  0.00     0.031 C 
ATOM     46  C   UNL A   1      37.299  33.987  33.281  1.00  0.00     0.029 A 
ATOM     47  N   UNL A   1      38.947  32.481  33.390  1.00  0.00    -0.354 N 
ATOM     48  C   UNL A   1      39.559  29.619  30.201  1.00  0.00     0.074 A 
ATOM     49  C   UNL A   1      38.615  29.824  29.124  1.00  0.00     0.031 C 
ATOM     50  C   UNL A   1      37.953  34.188  34.436  1.00  0.00     0.029 A 
ATOM     51  C   UNL A   1      39.024  33.203  34.559  1.00  0.00     0.049 A 
ATOM     52  H   UNL A   1      39.558  31.740  33.174  1.00  0.00     0.167 HD
ATOM     53  C   UNL A   1      40.534  28.680  30.195  1.00  0.00     0.034 A 
ATOM     54  C   UNL A   1      39.852  33.082  35.615  1.00  0.00     0.034 A 
ATOM     55  C   UNL A   1      41.488  28.502  31.259  1.00  0.00     0.049 A 
ATOM     56  C   UNL A   1      40.905  32.004  35.598  1.00  0.00     0.074 A 
ATOM     57  C   UNL A   1      42.539  27.603  31.326  1.00  0.00     0.029 A 
ATOM     58  N   UNL A   1      41.513  29.234  32.437  1.00  0.00    -0.354 N 
ATOM     59  N   UNL A   1      41.158  31.116  34.665  1.00  0.00    -0.248 NA
ATOM     60  C   UNL A   1      41.783  31.910  36.772  1.00  0.00     0.031 C 
ATOM     61  C   UNL A   1      43.163  27.753  32.568  1.00  0.00     0.029 A 
ATOM     62  C   UNL A   1      42.545  28.790  33.247  1.00  0.00     0.049 A 
ATOM     63  H   UNL A   1      40.889  29.961  32.664  1.00  0.00     0.167 HD
ATOM     64  C   UNL A   1      42.238  30.374  35.131  1.00  0.00     0.074 A 
ATOM     65  C   UNL A   1      42.594  30.920  36.424  1.00  0.00     0.031 C 
ATOM     66  C   UNL A   1      42.883  29.339  34.537  1.00  0.00     0.034 A 
BRANCH  53  67
ATOM     67  C   UNL A   1      40.625  27.764  29.003  1.00  0.00     0.023 A 
ATOM     68  C   UNL A   1      41.536  28.005  27.961  1.00  0.00     0.031 A 
ATOM     69  C   UNL A   1      39.828  26.608  28.934  1.00  0.00     0.131 A 
ATOM     70  C   UNL A   1      41.608  27.116  26.879  1.00  0.00     0.055 A 
ATOM     71  C   UNL A   1      39.946  25.696  27.885  1.00  0.00     0.041 A 
ATOM     72  F   UNL A   1      38.931  26.341  29.897  1.00  0.00    -0.206 F 
ATOM     73  C   UNL A   1      40.838  25.951  26.847  1.00  0.00     0.022 A 
BRANCH  70  74
ATOM     74  S   UNL A   1      42.686  27.531  25.481  1.00  0.00     0.124 S 
ATOM     75  O   UNL A   1      42.678  26.281  24.725  1.00  0.00    -0.237 OA
ATOM     76  O   UNL A   1      41.989  28.654  24.864  1.00  0.00    -0.237 OA
ATOM     77  O   UNL A   1      43.959  27.862  26.117  1.00  0.00    -0.744 OA
ENDBRANCH  70  74
ENDBRANCH  53  67
BRANCH  54  78
ATOM     78  C   UNL A   1      39.717  33.995  36.784  1.00  0.00     0.023 A 
ATOM     79  C   UNL A   1      39.122  33.557  37.978  1.00  0.00     0.031 A 
ATOM     80  C   UNL A   1      40.171  35.324  36.720  1.00  0.00     0.131 A 
ATOM     81  C   UNL A   1      38.971  34.448  39.051  1.00  0.00     0.055 A 
ATOM     82  C   UNL A   1      40.056  36.194  37.805  1.00  0.00     0.041 A 
ATOM     83  F   UNL A   1      40.752  35.790  35.604  1.00  0.00    -0.206 F 
ATOM     84  C   UNL A   1      39.445  35.760  38.978  1.00  0.00     0.022 A 
BRANCH  81  85
ATOM     85  S   UNL A   1      38.100  33.881  40.538  1.00  0.00     0.124 S 
ATOM     86  O   UNL A   1      36.995  33.122  39.963  1.00  0.00    -0.237 OA
ATOM     87  O   UNL A   1      39.131  33.102  41.216  1.00  0.00    -0.237 OA
ATOM     88  O   UNL A   1      37.723  35.125  41.206  1.00  0.00    -0.744 OA
ENDBRANCH  81  85
ENDBRANCH  54  78
BRANCH  66  89
ATOM     89  C   UNL A   1      44.062  28.746  35.259  1.00  0.00     0.023 A 
ATOM     90  C   UNL A   1      43.913  27.666  36.145  1.00  0.00     0.031 A 
ATOM     91  C   UNL A   1      45.358  29.232  35.010  1.00  0.00     0.131 A 
ATOM     92  C   UNL A   1      45.044  27.121  36.771  1.00  0.00     0.055 A 
ATOM     93  C   UNL A   1      46.482  28.656  35.601  1.00  0.00     0.041 A 
ATOM     94  F   UNL A   1      45.550  30.260  34.168  1.00  0.00    -0.206 F 
ATOM     95  C   UNL A   1      46.328  27.597  36.490  1.00  0.00     0.022 A 
BRANCH  92  96
ATOM     96  S   UNL A   1      44.814  25.793  37.984  1.00  0.00     0.124 S 
ATOM     97  O   UNL A   1      43.941  24.873  37.262  1.00  0.00    -0.237 OA
ATOM     98  O   UNL A   1      46.180  25.331  38.210  1.00  0.00    -0.237 OA
ATOM     99  O   UNL A   1      44.196  26.470  39.123  1.00  0.00    -0.744 OA
ENDBRANCH  92  96
ENDBRANCH  66  89
ENDBRANCH  40  41
ENDBRANCH  32  35
ENDBRANCH  30  31
ENDBRANCH  29  30
ENDBRANCH  28  29
ENDBRANCH   1  28
TORSDOF 19
ENDMDL
MODEL 3
REMARK VINA RESULT:     -11.9      1.535      1.969
REMARK SMILES Cc1cc(C)cc(N(C)S(=O)(=O)c2ccc(F)c(C(=O)NCCCCCCNC(=O)c3ccc(-c4c5nc(c(-c6cc(S(=O)(=O)[O-])ccc6F)c6ccc([nH]6)c(-c6cc(S(=O)(=O)[O-])ccc6F)c6nc(c(-c7cc(S(=O)(=O)[O-])ccc7F)c7ccc4[nH]7)C=C6)C=C5)cc3)c2)c1
REMARK SMILES IDX 24 1 23 2 22 3 21 4 19 5 20 6 18 8 13 9 14 10 94 11 15 12
REMARK SMILES IDX 16 13 17 14 10 15 11 16 12 17 8 18 9 19 7 20 1 21 2 22 3 23
REMARK SMILES IDX 95 24 4 25 5 26 6 27 25 28 26 29 27 30 28 31 29 32 30 34
REMARK SMILES IDX 31 35 32 36 93 37 33 38 92 39 34 40 35 41 36 42 86 43 37 44
REMARK SMILES IDX 91 45 85 46 87 47 38 48 90 49 84 50 83 51 39 53 71 54 51 55
REMARK SMILES IDX 70 56 52 57 55 58 69 59 88 60 53 61 54 62 68 64 89 65 56 66
REMARK SMILES IDX 40 67 41 68 49 69 42 70 48 71 50 72 47 73 43 74 44 75 45 76
REMARK SMILES IDX 46 77 72 78 73 79 81 80 74 81 80 82 82 83 79 84 75 85 76 86
REMARK SMILES IDX 77 87 78 88 57 89 58 90 66 91 59 92 65 93 67 94 64 95 60 96
REMARK SMILES IDX 61 97 62 98 63 99
REMARK H PARENT 21 7 28 33 87 52 55 63
REMARK Flexibility Score: inf
ROOT
ATOM      1  C   UNL A   1      30.998  28.174  25.167  1.00  0.00     0.002 C 
ENDROOT
BRANCH   1   2
ATOM      2  C   UNL A   1      30.464  27.529  23.886  1.00  0.00     0.021 C 
BRANCH   2   3
ATOM      3  C   UNL A   1      30.992  28.080  22.567  1.00  0.00     0.116 C 
BRANCH   3   4
ATOM      4  N   UNL A   1      31.475  27.049  21.674  1.00  0.00    -0.352 N 
ATOM      5  C   UNL A   1      32.286  25.974  21.905  1.00  0.00     0.254 C 
ATOM      6  O   UNL A   1      32.565  25.244  20.950  1.00  0.00    -0.269 OA
ATOM      7  H   UNL A   1      31.169  27.138  20.743  1.00  0.00     0.163 HD
BRANCH   5   8
ATOM      8  C   UNL A   1      32.903  25.663  23.219  1.00  0.00     0.076 A 
ATOM      9  C   UNL A   1      32.736  24.246  25.199  1.00  0.00     0.089 A 
ATOM     10  C   UNL A   1      33.752  25.007  25.804  1.00  0.00     0.025 A 
ATOM     11  C   UNL A   1      32.379  24.536  23.886  1.00  0.00     0.039 A 
ATOM     12  C   UNL A   1      34.302  26.107  25.143  1.00  0.00     0.041 A 
ATOM     13  C   UNL A   1      33.827  26.466  23.883  1.00  0.00     0.136 A 
ATOM     14  F   UNL A   1      34.247  27.631  23.374  1.00  0.00    -0.206 F 
BRANCH   9  15
ATOM     15  S   UNL A   1      31.846  23.149  26.302  1.00  0.00     0.264 S 
ATOM     16  O   UNL A   1      30.972  22.398  25.422  1.00  0.00    -0.201 OA
ATOM     17  O   UNL A   1      31.287  24.034  27.311  1.00  0.00    -0.201 OA
BRANCH  15  18
ATOM     18  N   UNL A   1      32.841  21.989  27.134  1.00  0.00    -0.269 N 
ATOM     19  C   UNL A   1      33.531  22.495  28.349  1.00  0.00     0.164 C 
BRANCH  18  20
ATOM     20  C   UNL A   1      33.710  21.162  26.240  1.00  0.00     0.052 A 
ATOM     21  C   UNL A   1      33.605  17.992  24.082  1.00  0.00     0.044 C 
ATOM     22  C   UNL A   1      34.109  19.240  24.751  1.00  0.00    -0.049 A 
ATOM     23  C   UNL A   1      35.428  19.645  24.555  1.00  0.00     0.007 A 
ATOM     24  C   UNL A   1      33.271  19.995  25.592  1.00  0.00     0.030 A 
ATOM     25  C   UNL A   1      35.922  20.765  25.223  1.00  0.00    -0.049 A 
ATOM     26  C   UNL A   1      37.344  21.195  25.010  1.00  0.00     0.044 C 
ATOM     27  C   UNL A   1      35.076  21.471  26.097  1.00  0.00     0.030 A 
ENDBRANCH  18  20
ENDBRANCH  15  18
ENDBRANCH   9  15
ENDBRANCH   5   8
ENDBRANCH   3   4
ENDBRANCH   2   3
ENDBRANCH   1   2
BRANCH   1  28
ATOM     28  C   UNL A   1      31.868  29.423  25.001  1.00  0.00     0.002 C 
BRANCH  28  29
ATOM     29  C   UNL A   1      31.385  30.690  25.708  1.00  0.00     0.021 C 
BRANCH  29  30
ATOM     30  C   UNL A   1      32.213  31.139  26.906  1.00  0.00     0.116 C 
BRANCH  30  31
ATOM     31  N   UNL A   1      32.369  32.580  26.969  1.00  0.00    -0.352 N 
ATOM     32  C   UNL A   1      33.347  33.320  27.589  1.00  0.00     0.251 C 
ATOM     33  H   UNL A   1      31.677  33.101  26.500  1.00  0.00     0.163 HD
ATOM     34  O   UNL A   1      33.223  34.538  27.676  1.00  0.00    -0.269 OA
BRANCH  32  35
ATOM     35  C   UNL A   1      34.529  32.646  28.172  1.00  0.00     0.039 A 
ATOM     36  C   UNL A   1      35.782  33.247  28.035  1.00  0.00     0.014 A 
ATOM     37  C   UNL A   1      34.407  31.428  28.849  1.00  0.00     0.014 A 
ATOM     38  C   UNL A   1      36.902  32.657  28.625  1.00  0.00     0.010 A 
ATOM     39  C   UNL A   1      35.514  30.877  29.494  1.00  0.00     0.010 A 
ATOM     40  C   UNL A   1      36.773  31.485  29.388  1.00  0.00    -0.014 A 
BRANCH  40  41
ATOM     41  C   UNL A   1      37.945  30.881  30.074  1.00  0.00     0.031 A 
ATOM     42  C   UNL A   1      38.286  31.284  31.484  1.00  0.00     0.074 A 
ATOM     43  C   UNL A   1      38.724  29.998  29.415  1.00  0.00     0.049 A 
ATOM     44  N   UNL A   1      39.309  30.929  32.218  1.00  0.00    -0.248 NA
ATOM     45  C   UNL A   1      37.369  32.225  32.148  1.00  0.00     0.031 C 
ATOM     46  C   UNL A   1      38.507  29.542  28.040  1.00  0.00     0.029 A 
ATOM     47  N   UNL A   1      39.853  29.323  29.811  1.00  0.00    -0.354 N 
ATOM     48  C   UNL A   1      39.162  31.603  33.425  1.00  0.00     0.074 A 
ATOM     49  C   UNL A   1      37.980  32.427  33.307  1.00  0.00     0.031 C 
ATOM     50  C   UNL A   1      39.448  28.639  27.722  1.00  0.00     0.029 A 
ATOM     51  C   UNL A   1      40.366  28.486  28.846  1.00  0.00     0.049 A 
ATOM     52  H   UNL A   1      40.257  29.428  30.702  1.00  0.00     0.167 HD
ATOM     53  C   UNL A   1      39.932  31.523  34.537  1.00  0.00     0.034 A 
ATOM     54  C   UNL A   1      41.457  27.695  28.859  1.00  0.00     0.034 A 
ATOM     55  C   UNL A   1      41.091  30.677  34.655  1.00  0.00     0.049 A 
ATOM     56  C   UNL A   1      42.316  27.653  30.096  1.00  0.00     0.074 A 
ATOM     57  C   UNL A   1      41.912  30.497  35.755  1.00  0.00     0.029 A 
ATOM     58  N   UNL A   1      41.594  29.868  33.646  1.00  0.00    -0.354 N 
ATOM     59  N   UNL A   1      42.161  28.301  31.227  1.00  0.00    -0.248 NA
ATOM     60  C   UNL A   1      43.495  26.777  30.061  1.00  0.00     0.031 C 
ATOM     61  C   UNL A   1      42.943  29.626  35.393  1.00  0.00     0.029 A 
ATOM     62  C   UNL A   1      42.727  29.207  34.091  1.00  0.00     0.049 A 
ATOM     63  H   UNL A   1      41.203  29.778  32.747  1.00  0.00     0.167 HD
ATOM     64  C   UNL A   1      43.209  27.891  32.044  1.00  0.00     0.074 A 
ATOM     65  C   UNL A   1      43.988  26.939  31.281  1.00  0.00     0.031 C 
ATOM     66  C   UNL A   1      43.497  28.266  33.316  1.00  0.00     0.034 A 
BRANCH  53  67
ATOM     67  C   UNL A   1      39.553  32.373  35.720  1.00  0.00     0.023 A 
ATOM     68  C   UNL A   1      39.963  33.712  35.823  1.00  0.00     0.031 A 
ATOM     69  C   UNL A   1      38.727  31.852  36.733  1.00  0.00     0.131 A 
ATOM     70  C   UNL A   1      39.569  34.479  36.928  1.00  0.00     0.055 A 
ATOM     71  C   UNL A   1      38.290  32.637  37.800  1.00  0.00     0.041 A 
ATOM     72  F   UNL A   1      38.321  30.573  36.689  1.00  0.00    -0.206 F 
ATOM     73  C   UNL A   1      38.715  33.958  37.904  1.00  0.00     0.022 A 
BRANCH  70  74
ATOM     74  S   UNL A   1      40.234  36.157  37.106  1.00  0.00     0.124 S 
ATOM     75  O   UNL A   1      39.450  36.664  38.229  1.00  0.00    -0.237 OA
ATOM     76  O   UNL A   1      41.647  35.913  37.373  1.00  0.00    -0.237 OA
ATOM     77  O   UNL A   1      39.943  36.779  35.817  1.00  0.00    -0.744 OA
ENDBRANCH  70  74
ENDBRANCH  53  67
BRANCH  54  78
ATOM     78  C   UNL A   1      41.810  26.884  27.659  1.00  0.00     0.023 A 
ATOM     79  C   UNL A   1      41.547  25.506  27.617  1.00  0.00     0.031 A 
ATOM     80  C   UNL A   1      42.425  27.476  26.542  1.00  0.00     0.131 A 
ATOM     81  C   UNL A   1      41.925  24.758  26.491  1.00  0.00     0.055 A 
ATOM     82  C   UNL A   1      42.760  26.735  25.408  1.00  0.00     0.041 A 
ATOM     83  F   UNL A   1      42.691  28.791  26.531  1.00  0.00    -0.206 F 
ATOM     84  C   UNL A   1      42.518  25.365  25.381  1.00  0.00     0.022 A 
BRANCH  81  85
ATOM     85  S   UNL A   1      41.672  22.962  26.514  1.00  0.00     0.124 S 
ATOM     86  O   UNL A   1      40.217  22.868  26.485  1.00  0.00    -0.237 OA
ATOM     87  O   UNL A   1      42.367  22.541  25.301  1.00  0.00    -0.237 OA
ATOM     88  O   UNL A   1      42.301  22.545  27.765  1.00  0.00    -0.744 OA
ENDBRANCH  81  85
ENDBRANCH  54  78
BRANCH  66  89
ATOM     89  C   UNL A   1      44.683  27.622  33.981  1.00  0.00     0.023 A 
ATOM     90  C   UNL A   1      44.558  26.428  34.709  1.00  0.00     0.031 A 
ATOM     91  C   UNL A   1      45.964  28.182  33.832  1.00  0.00     0.131 A 
ATOM     92  C   UNL A   1      45.695  25.843  35.285  1.00  0.00     0.055 A 
ATOM     93  C   UNL A   1      47.098  27.572  34.368  1.00  0.00     0.041 A 
ATOM     94  F   UNL A   1      46.134  29.322  33.141  1.00  0.00    -0.206 F 
ATOM     95  C   UNL A   1      46.966  26.398  35.103  1.00  0.00     0.022 A 
BRANCH  92  96
ATOM     96  S   UNL A   1      45.492  24.356  36.302  1.00  0.00     0.124 S 
ATOM     97  O   UNL A   1      44.468  24.778  37.253  1.00  0.00    -0.237 OA
ATOM     98  O   UNL A   1      45.077  23.357  35.322  1.00  0.00    -0.237 OA
ATOM     99  O   UNL A   1      46.821  24.145  36.873  1.00  0.00    -0.744 OA
ENDBRANCH  92  96
ENDBRANCH  66  89
ENDBRANCH  40  41
ENDBRANCH  32  35
ENDBRANCH  30  31
ENDBRANCH  29  30
ENDBRANCH  28  29
ENDBRANCH   1  28
TORSDOF 19
ENDMDL
