MODEL 1
REMARK VINA RESULT:     -11.1      0.000      0.000
REMARK SMILES COc1ccc(Br)cc1S(=O)(=O)N(C)CC(=O)NCCCCCCNC(=O)c1ccc(-c2c3nc(c(-c4cc(S(=O)(=O)[O-])ccc4F)c4ccc([nH]4)c(-c4cc(S(=O)(=O)[O-])ccc4F)c4nc(c(-c5cc(S(=O)(=O)[O-])ccc5F)c5ccc2[nH]5)C=C4)C=C3)cc1
REMARK SMILES IDX 21 1 20 2 19 3 18 4 16 5 17 6 15 8 13 9 14 10 10 11 11 12
REMARK SMILES IDX 12 13 9 14 3 15 4 16 5 17 8 18 6 19 7 20 2 21 1 22 22 23
REMARK SMILES IDX 23 24 24 25 25 26 26 27 27 29 28 30 29 31 90 32 30 33 89 34
REMARK SMILES IDX 31 35 32 36 33 37 83 38 34 39 88 40 82 41 84 42 35 43 87 44
REMARK SMILES IDX 81 45 80 46 36 48 68 49 48 50 67 51 49 52 52 53 66 54 85 55
REMARK SMILES IDX 50 56 51 57 65 59 86 60 53 61 37 62 38 63 46 64 39 65 45 66
REMARK SMILES IDX 47 67 44 68 40 69 41 70 42 71 43 72 69 73 70 74 78 75 71 76
REMARK SMILES IDX 77 77 79 78 76 79 72 80 73 81 74 82 75 83 54 84 55 85 63 86
REMARK SMILES IDX 56 87 62 88 64 89 61 90 57 91 58 92 59 93 60 94
REMARK H PARENT 18 7 25 28 84 47 52 58
REMARK Flexibility Score: inf
ROOT
ATOM      1  C   UNL A   1      31.946  29.137  27.001  1.00  0.00     0.002 C 
ENDROOT
BRANCH   1   2
ATOM      2  C   UNL A   1      32.161  27.752  26.393  1.00  0.00     0.021 C 
BRANCH   2   3
ATOM      3  C   UNL A   1      30.934  27.164  25.683  1.00  0.00     0.116 C 
BRANCH   3   4
ATOM      4  N   UNL A   1      30.428  25.991  26.375  1.00  0.00    -0.355 N 
ATOM      5  C   UNL A   1      30.839  24.686  26.371  1.00  0.00     0.235 C 
ATOM      6  O   UNL A   1      30.233  23.908  27.113  1.00  0.00    -0.274 OA
ATOM      7  H   UNL A   1      29.648  26.166  26.949  1.00  0.00     0.163 HD
BRANCH   5   8
ATOM      8  C   UNL A   1      32.030  24.211  25.535  1.00  0.00     0.202 C 
BRANCH   8   9
ATOM      9  N   UNL A   1      31.970  24.381  24.047  1.00  0.00    -0.191 NA
ATOM     10  C   UNL A   1      30.817  23.713  23.446  1.00  0.00     0.125 C 
BRANCH   9  11
ATOM     11  S   UNL A   1      33.476  24.251  23.280  1.00  0.00     0.247 S 
ATOM     12  O   UNL A   1      34.139  25.524  23.506  1.00  0.00    -0.207 OA
ATOM     13  O   UNL A   1      33.249  23.757  21.940  1.00  0.00    -0.207 OA
BRANCH  11  14
ATOM     14  C   UNL A   1      34.523  23.050  24.085  1.00  0.00     0.125 A 
ATOM     15  C   UNL A   1      34.234  21.694  24.280  1.00  0.00     0.138 A 
ATOM     16  C   UNL A   1      35.114  20.926  25.063  1.00  0.00     0.049 A 
ATOM     17  C   UNL A   1      36.254  21.491  25.643  1.00  0.00     0.019 A 
ATOM     18  C   UNL A   1      35.694  23.605  24.646  1.00  0.00     0.041 A 
ATOM     19  C   UNL A   1      36.547  22.827  25.418  1.00  0.00     0.019 A 
ATOM     20  Br  UNL A   1      38.101  23.594  26.170  1.00  0.00    -0.051 Br
BRANCH  15  21
ATOM     21  O   UNL A   1      33.150  21.124  23.673  1.00  0.00    -0.495 OA
ATOM     22  C   UNL A   1      32.101  20.707  24.551  1.00  0.00     0.278 C 
ENDBRANCH  15  21
ENDBRANCH  11  14
ENDBRANCH   9  11
ENDBRANCH   8   9
ENDBRANCH   5   8
ENDBRANCH   3   4
ENDBRANCH   2   3
ENDBRANCH   1   2
BRANCH   1  23
ATOM     23  C   UNL A   1      31.574  30.234  25.995  1.00  0.00     0.002 C 
BRANCH  23  24
ATOM     24  C   UNL A   1      31.484  31.663  26.549  1.00  0.00     0.021 C 
BRANCH  24  25
ATOM     25  C   UNL A   1      32.779  32.236  27.128  1.00  0.00     0.116 C 
BRANCH  25  26
ATOM     26  N   UNL A   1      32.635  33.625  27.523  1.00  0.00    -0.352 N 
ATOM     27  C   UNL A   1      33.271  34.331  28.515  1.00  0.00     0.251 C 
ATOM     28  H   UNL A   1      31.980  34.142  26.999  1.00  0.00     0.163 HD
ATOM     29  O   UNL A   1      32.851  35.441  28.830  1.00  0.00    -0.269 OA
BRANCH  27  30
ATOM     30  C   UNL A   1      34.447  33.761  29.212  1.00  0.00     0.039 A 
ATOM     31  C   UNL A   1      35.715  34.281  28.933  1.00  0.00     0.014 A 
ATOM     32  C   UNL A   1      34.314  32.688  30.098  1.00  0.00     0.014 A 
ATOM     33  C   UNL A   1      36.841  33.764  29.582  1.00  0.00     0.010 A 
ATOM     34  C   UNL A   1      35.430  32.206  30.782  1.00  0.00     0.010 A 
ATOM     35  C   UNL A   1      36.705  32.738  30.530  1.00  0.00    -0.014 A 
BRANCH  35  36
ATOM     36  C   UNL A   1      37.883  32.192  31.255  1.00  0.00     0.031 A 
ATOM     37  C   UNL A   1      38.701  31.090  30.639  1.00  0.00     0.074 A 
ATOM     38  C   UNL A   1      38.171  32.634  32.495  1.00  0.00     0.049 A 
ATOM     39  N   UNL A   1      39.683  30.396  31.156  1.00  0.00    -0.248 NA
ATOM     40  C   UNL A   1      38.343  30.698  29.269  1.00  0.00     0.031 C 
ATOM     41  C   UNL A   1      37.436  33.678  33.212  1.00  0.00     0.029 A 
ATOM     42  N   UNL A   1      39.146  32.249  33.380  1.00  0.00    -0.354 N 
ATOM     43  C   UNL A   1      40.048  29.470  30.185  1.00  0.00     0.074 A 
ATOM     44  C   UNL A   1      39.148  29.666  29.065  1.00  0.00     0.031 C 
ATOM     45  C   UNL A   1      37.989  33.852  34.424  1.00  0.00     0.029 A 
ATOM     46  C   UNL A   1      39.091  32.908  34.586  1.00  0.00     0.049 A 
ATOM     47  H   UNL A   1      39.823  31.564  33.172  1.00  0.00     0.167 HD
ATOM     48  C   UNL A   1      41.048  28.554  30.216  1.00  0.00     0.034 A 
ATOM     49  C   UNL A   1      39.832  32.758  35.701  1.00  0.00     0.034 A 
ATOM     50  C   UNL A   1      41.951  28.386  31.329  1.00  0.00     0.049 A 
ATOM     51  C   UNL A   1      40.938  31.736  35.715  1.00  0.00     0.074 A 
ATOM     52  C   UNL A   1      43.029  27.524  31.445  1.00  0.00     0.029 A 
ATOM     53  N   UNL A   1      41.881  29.093  32.522  1.00  0.00    -0.354 N 
ATOM     54  N   UNL A   1      41.289  30.887  34.776  1.00  0.00    -0.248 NA
ATOM     55  C   UNL A   1      41.755  31.658  36.933  1.00  0.00     0.031 C 
ATOM     56  C   UNL A   1      43.578  27.675  32.724  1.00  0.00     0.029 A 
ATOM     57  C   UNL A   1      42.882  28.673  33.385  1.00  0.00     0.049 A 
ATOM     58  H   UNL A   1      41.218  29.792  32.726  1.00  0.00     0.167 HD
ATOM     59  C   UNL A   1      42.385  30.195  35.282  1.00  0.00     0.074 A 
ATOM     60  C   UNL A   1      42.642  30.730  36.603  1.00  0.00     0.031 C 
ATOM     61  C   UNL A   1      43.119  29.211  34.703  1.00  0.00     0.034 A 
BRANCH  48  62
ATOM     62  C   UNL A   1      41.189  27.645  29.020  1.00  0.00     0.023 A 
ATOM     63  C   UNL A   1      42.168  27.867  28.036  1.00  0.00     0.031 A 
ATOM     64  C   UNL A   1      40.308  26.563  28.839  1.00  0.00     0.131 A 
ATOM     65  C   UNL A   1      42.192  27.074  26.879  1.00  0.00     0.055 A 
ATOM     66  C   UNL A   1      40.389  25.727  27.724  1.00  0.00     0.041 A 
ATOM     67  F   UNL A   1      39.341  26.313  29.735  1.00  0.00    -0.206 F 
ATOM     68  C   UNL A   1      41.324  25.990  26.726  1.00  0.00     0.022 A 
BRANCH  65  69
ATOM     69  S   UNL A   1      43.274  27.572  25.511  1.00  0.00     0.124 S 
ATOM     70  O   UNL A   1      44.261  28.397  26.203  1.00  0.00    -0.237 OA
ATOM     71  O   UNL A   1      43.752  26.290  25.006  1.00  0.00    -0.237 OA
ATOM     72  O   UNL A   1      42.379  28.302  24.615  1.00  0.00    -0.744 OA
ENDBRANCH  65  69
ENDBRANCH  48  62
BRANCH  49  73
ATOM     73  C   UNL A   1      39.547  33.583  36.908  1.00  0.00     0.023 A 
ATOM     74  C   UNL A   1      38.851  33.045  38.001  1.00  0.00     0.031 A 
ATOM     75  C   UNL A   1      39.940  34.931  36.970  1.00  0.00     0.131 A 
ATOM     76  C   UNL A   1      38.533  33.863  39.096  1.00  0.00     0.055 A 
ATOM     77  C   UNL A   1      39.658  35.729  38.080  1.00  0.00     0.041 A 
ATOM     78  F   UNL A   1      40.617  35.489  35.954  1.00  0.00    -0.206 F 
ATOM     79  C   UNL A   1      38.941  35.199  39.148  1.00  0.00     0.022 A 
BRANCH  76  80
ATOM     80  S   UNL A   1      37.518  33.170  40.430  1.00  0.00     0.124 S 
ATOM     81  O   UNL A   1      37.374  34.316  41.320  1.00  0.00    -0.237 OA
ATOM     82  O   UNL A   1      36.316  32.760  39.712  1.00  0.00    -0.237 OA
ATOM     83  O   UNL A   1      38.336  32.075  40.946  1.00  0.00    -0.744 OA
ENDBRANCH  76  80
ENDBRANCH  49  73
BRANCH  61  84
ATOM     84  C   UNL A   1      44.297  28.690  35.484  1.00  0.00     0.023 A 
ATOM     85  C   UNL A   1      44.164  27.641  36.409  1.00  0.00     0.031 A 
ATOM     86  C   UNL A   1      45.568  29.262  35.305  1.00  0.00     0.131 A 
ATOM     87  C   UNL A   1      45.277  27.225  37.156  1.00  0.00     0.055 A 
ATOM     88  C   UNL A   1      46.682  28.812  36.016  1.00  0.00     0.041 A 
ATOM     89  F   UNL A   1      45.747  30.268  34.434  1.00  0.00    -0.206 F 
ATOM     90  C   UNL A   1      46.538  27.795  36.956  1.00  0.00     0.022 A 
BRANCH  87  91
ATOM     91  S   UNL A   1      45.042  25.971  38.446  1.00  0.00     0.124 S 
ATOM     92  O   UNL A   1      44.149  26.655  39.375  1.00  0.00    -0.237 OA
ATOM     93  O   UNL A   1      44.459  24.860  37.700  1.00  0.00    -0.237 OA
ATOM     94  O   UNL A   1      46.396  25.736  38.946  1.00  0.00    -0.744 OA
ENDBRANCH  87  91
ENDBRANCH  61  84
ENDBRANCH  35  36
ENDBRANCH  27  30
ENDBRANCH  25  26
ENDBRANCH  24  25
ENDBRANCH  23  24
ENDBRANCH   1  23
TORSDOF 20
ENDMDL
MODEL 2
REMARK VINA RESULT:     -10.8      3.551      8.332
REMARK SMILES COc1ccc(Br)cc1S(=O)(=O)N(C)CC(=O)NCCCCCCNC(=O)c1ccc(-c2c3nc(c(-c4cc(S(=O)(=O)[O-])ccc4F)c4ccc([nH]4)c(-c4cc(S(=O)(=O)[O-])ccc4F)c4nc(c(-c5cc(S(=O)(=O)[O-])ccc5F)c5ccc2[nH]5)C=C4)C=C3)cc1
REMARK SMILES IDX 21 1 20 2 19 3 18 4 16 5 17 6 15 8 13 9 14 10 10 11 11 12
REMARK SMILES IDX 12 13 9 14 3 15 4 16 5 17 8 18 6 19 7 20 2 21 1 22 22 23
REMARK SMILES IDX 23 24 24 25 25 26 26 27 27 29 28 30 29 31 90 32 30 33 89 34
REMARK SMILES IDX 31 35 32 36 33 37 83 38 34 39 88 40 82 41 84 42 35 43 87 44
REMARK SMILES IDX 81 45 80 46 36 48 68 49 48 50 67 51 49 52 52 53 66 54 85 55
REMARK SMILES IDX 50 56 51 57 65 59 86 60 53 61 37 62 38 63 46 64 39 65 45 66
REMARK SMILES IDX 47 67 44 68 40 69 41 70 42 71 43 72 69 73 70 74 78 75 71 76
REMARK SMILES IDX 77 77 79 78 76 79 72 80 73 81 74 82 75 83 54 84 55 85 63 86
REMARK SMILES IDX 56 87 62 88 64 89 61 90 57 91 58 92 59 93 60 94
REMARK H PARENT 18 7 25 28 84 47 52 58
REMARK Flexibility Score: inf
ROOT
ATOM      1  C   UNL A   1      34.242  26.510  24.880  1.00  0.00     0.002 C 
ENDROOT
BRANCH   1   2
ATOM      2  C   UNL A   1      33.540  25.569  25.860  1.00  0.00     0.021 C 
BRANCH   2   3
ATOM      3  C   UNL A   1      32.029  25.798  26.000  1.00  0.00     0.116 C 
BRANCH   3   4
ATOM      4  N   UNL A   1      31.419  24.808  26.873  1.00  0.00    -0.355 N 
ATOM      5  C   UNL A   1      30.817  23.609  26.606  1.00  0.00     0.235 C 
ATOM      6  O   UNL A   1      30.430  22.951  27.575  1.00  0.00    -0.274 OA
ATOM      7  H   UNL A   1      31.442  25.044  27.828  1.00  0.00     0.163 HD
BRANCH   5   8
ATOM      8  C   UNL A   1      30.676  23.070  25.180  1.00  0.00     0.202 C 
BRANCH   8   9
ATOM      9  N   UNL A   1      31.923  22.809  24.389  1.00  0.00    -0.191 NA
ATOM     10  C   UNL A   1      32.005  23.621  23.176  1.00  0.00     0.125 C 
BRANCH   9  11
ATOM     11  S   UNL A   1      32.351  21.172  24.302  1.00  0.00     0.247 S 
ATOM     12  O   UNL A   1      32.147  20.790  22.914  1.00  0.00    -0.207 OA
ATOM     13  O   UNL A   1      31.671  20.479  25.373  1.00  0.00    -0.207 OA
BRANCH  11  14
ATOM     14  C   UNL A   1      34.098  20.933  24.581  1.00  0.00     0.125 A 
ATOM     15  C   UNL A   1      34.772  19.707  24.627  1.00  0.00     0.138 A 
ATOM     16  C   UNL A   1      36.128  19.701  25.001  1.00  0.00     0.049 A 
ATOM     17  C   UNL A   1      36.799  20.884  25.326  1.00  0.00     0.019 A 
ATOM     18  C   UNL A   1      34.792  22.127  24.877  1.00  0.00     0.041 A 
ATOM     19  C   UNL A   1      36.130  22.095  25.247  1.00  0.00     0.019 A 
ATOM     20  Br  UNL A   1      37.035  23.703  25.653  1.00  0.00    -0.051 Br
BRANCH  15  21
ATOM     21  O   UNL A   1      34.137  18.554  24.260  1.00  0.00    -0.495 OA
ATOM     22  C   UNL A   1      34.841  17.343  24.552  1.00  0.00     0.278 C 
ENDBRANCH  15  21
ENDBRANCH  11  14
ENDBRANCH   9  11
ENDBRANCH   8   9
ENDBRANCH   5   8
ENDBRANCH   3   4
ENDBRANCH   2   3
ENDBRANCH   1   2
BRANCH   1  23
ATOM     23  C   UNL A   1      33.319  27.510  24.172  1.00  0.00     0.002 C 
BRANCH  23  24
ATOM     24  C   UNL A   1      33.258  28.922  24.773  1.00  0.00     0.021 C 
BRANCH  24  25
ATOM     25  C   UNL A   1      34.023  29.122  26.082  1.00  0.00     0.116 C 
BRANCH  25  26
ATOM     26  N   UNL A   1      33.847  30.459  26.620  1.00  0.00    -0.352 N 
ATOM     27  C   UNL A   1      34.520  31.098  27.634  1.00  0.00     0.251 C 
ATOM     28  H   UNL A   1      33.136  30.990  26.193  1.00  0.00     0.163 HD
ATOM     29  O   UNL A   1      34.076  32.151  28.082  1.00  0.00    -0.269 OA
BRANCH  27  30
ATOM     30  C   UNL A   1      35.764  30.522  28.194  1.00  0.00     0.039 A 
ATOM     31  C   UNL A   1      35.682  29.726  29.342  1.00  0.00     0.014 A 
ATOM     32  C   UNL A   1      37.011  30.802  27.629  1.00  0.00     0.014 A 
ATOM     33  C   UNL A   1      36.841  29.166  29.888  1.00  0.00     0.010 A 
ATOM     34  C   UNL A   1      38.160  30.202  28.144  1.00  0.00     0.010 A 
ATOM     35  C   UNL A   1      38.087  29.380  29.280  1.00  0.00    -0.014 A 
BRANCH  35  36
ATOM     36  C   UNL A   1      39.330  28.770  29.825  1.00  0.00     0.031 A 
ATOM     37  C   UNL A   1      39.972  29.346  31.057  1.00  0.00     0.074 A 
ATOM     38  C   UNL A   1      39.920  27.751  29.170  1.00  0.00     0.049 A 
ATOM     39  N   UNL A   1      41.116  29.043  31.617  1.00  0.00    -0.248 NA
ATOM     40  C   UNL A   1      39.241  30.429  31.731  1.00  0.00     0.031 C 
ATOM     41  C   UNL A   1      39.410  27.124  27.949  1.00  0.00     0.029 A 
ATOM     42  N   UNL A   1      41.085  27.074  29.428  1.00  0.00    -0.354 N 
ATOM     43  C   UNL A   1      41.255  29.911  32.695  1.00  0.00     0.074 A 
ATOM     44  C   UNL A   1      40.095  30.780  32.680  1.00  0.00     0.031 C 
ATOM     45  C   UNL A   1      40.257  26.153  27.567  1.00  0.00     0.029 A 
ATOM     46  C   UNL A   1      41.386  26.113  28.492  1.00  0.00     0.049 A 
ATOM     47  H   UNL A   1      41.653  27.260  30.212  1.00  0.00     0.167 HD
ATOM     48  C   UNL A   1      42.246  29.967  33.619  1.00  0.00     0.034 A 
ATOM     49  C   UNL A   1      42.457  25.303  28.381  1.00  0.00     0.034 A 
ATOM     50  C   UNL A   1      43.384  29.080  33.634  1.00  0.00     0.049 A 
ATOM     51  C   UNL A   1      43.547  25.381  29.418  1.00  0.00     0.074 A 
ATOM     52  C   UNL A   1      44.419  29.016  34.553  1.00  0.00     0.029 A 
ATOM     53  N   UNL A   1      43.638  28.099  32.685  1.00  0.00    -0.354 N 
ATOM     54  N   UNL A   1      43.648  26.189  30.449  1.00  0.00    -0.248 NA
ATOM     55  C   UNL A   1      44.661  24.433  29.284  1.00  0.00     0.031 C 
ATOM     56  C   UNL A   1      45.322  28.034  34.131  1.00  0.00     0.029 A 
ATOM     57  C   UNL A   1      44.822  27.441  32.984  1.00  0.00     0.049 A 
ATOM     58  H   UNL A   1      43.062  27.899  31.912  1.00  0.00     0.167 HD
ATOM     59  C   UNL A   1      44.823  25.825  31.100  1.00  0.00     0.074 A 
ATOM     60  C   UNL A   1      45.390  24.722  30.352  1.00  0.00     0.031 C 
ATOM     61  C   UNL A   1      45.379  26.349  32.222  1.00  0.00     0.034 A 
BRANCH  48  62
ATOM     62  C   UNL A   1      42.152  31.049  34.667  1.00  0.00     0.023 A 
ATOM     63  C   UNL A   1      42.710  32.323  34.465  1.00  0.00     0.031 A 
ATOM     64  C   UNL A   1      41.528  30.792  35.902  1.00  0.00     0.131 A 
ATOM     65  C   UNL A   1      42.707  33.263  35.507  1.00  0.00     0.055 A 
ATOM     66  C   UNL A   1      41.457  31.760  36.906  1.00  0.00     0.041 A 
ATOM     67  F   UNL A   1      40.993  29.588  36.159  1.00  0.00    -0.206 F 
ATOM     68  C   UNL A   1      42.064  32.999  36.718  1.00  0.00     0.022 A 
BRANCH  65  69
ATOM     69  S   UNL A   1      43.686  34.777  35.308  1.00  0.00     0.124 S 
ATOM     70  O   UNL A   1      43.896  34.803  33.863  1.00  0.00    -0.237 OA
ATOM     71  O   UNL A   1      42.795  35.800  35.843  1.00  0.00    -0.237 OA
ATOM     72  O   UNL A   1      44.886  34.515  36.101  1.00  0.00    -0.744 OA
ENDBRANCH  65  69
ENDBRANCH  48  62
BRANCH  49  73
ATOM     73  C   UNL A   1      42.567  24.356  27.236  1.00  0.00     0.023 A 
ATOM     74  C   UNL A   1      41.995  23.076  27.302  1.00  0.00     0.031 A 
ATOM     75  C   UNL A   1      43.273  24.709  26.073  1.00  0.00     0.131 A 
ATOM     76  C   UNL A   1      42.173  22.178  26.239  1.00  0.00     0.055 A 
ATOM     77  C   UNL A   1      43.410  23.826  25.000  1.00  0.00     0.041 A 
ATOM     78  F   UNL A   1      43.828  25.925  25.958  1.00  0.00    -0.206 F 
ATOM     79  C   UNL A   1      42.869  22.547  25.084  1.00  0.00     0.022 A 
BRANCH  76  80
ATOM     80  S   UNL A   1      41.536  20.489  26.415  1.00  0.00     0.124 S 
ATOM     81  O   UNL A   1      40.113  20.679  26.161  1.00  0.00    -0.237 OA
ATOM     82  O   UNL A   1      42.283  19.777  25.384  1.00  0.00    -0.237 OA
ATOM     83  O   UNL A   1      41.885  20.136  27.790  1.00  0.00    -0.744 OA
ENDBRANCH  76  80
ENDBRANCH  49  73
BRANCH  61  84
ATOM     84  C   UNL A   1      46.640  25.698  32.726  1.00  0.00     0.023 A 
ATOM     85  C   UNL A   1      46.606  24.644  33.655  1.00  0.00     0.031 A 
ATOM     86  C   UNL A   1      47.893  26.148  32.276  1.00  0.00     0.131 A 
ATOM     87  C   UNL A   1      47.808  24.104  34.140  1.00  0.00     0.055 A 
ATOM     88  C   UNL A   1      49.083  25.576  32.726  1.00  0.00     0.041 A 
ATOM     89  F   UNL A   1      47.978  27.154  31.389  1.00  0.00    -0.206 F 
ATOM     90  C   UNL A   1      49.045  24.555  33.671  1.00  0.00     0.022 A 
BRANCH  87  91
ATOM     91  S   UNL A   1      47.734  22.848  35.447  1.00  0.00     0.124 S 
ATOM     92  O   UNL A   1      49.129  22.763  35.866  1.00  0.00    -0.237 OA
ATOM     93  O   UNL A   1      46.815  23.450  36.408  1.00  0.00    -0.237 OA
ATOM     94  O   UNL A   1      47.221  21.666  34.757  1.00  0.00    -0.744 OA
ENDBRANCH  87  91
ENDBRANCH  61  84
ENDBRANCH  35  36
ENDBRANCH  27  30
ENDBRANCH  25  26
ENDBRANCH  24  25
ENDBRANCH  23  24
ENDBRANCH   1  23
TORSDOF 20
ENDMDL
MODEL 3
REMARK VINA RESULT:     -10.8      1.432      2.163
REMARK SMILES COc1ccc(Br)cc1S(=O)(=O)N(C)CC(=O)NCCCCCCNC(=O)c1ccc(-c2c3nc(c(-c4cc(S(=O)(=O)[O-])ccc4F)c4ccc([nH]4)c(-c4cc(S(=O)(=O)[O-])ccc4F)c4nc(c(-c5cc(S(=O)(=O)[O-])ccc5F)c5ccc2[nH]5)C=C4)C=C3)cc1
REMARK SMILES IDX 21 1 20 2 19 3 18 4 16 5 17 6 15 8 13 9 14 10 10 11 11 12
REMARK SMILES IDX 12 13 9 14 3 15 4 16 5 17 8 18 6 19 7 20 2 21 1 22 22 23
REMARK SMILES IDX 23 24 24 25 25 26 26 27 27 29 28 30 29 31 90 32 30 33 89 34
REMARK SMILES IDX 31 35 32 36 33 37 83 38 34 39 88 40 82 41 84 42 35 43 87 44
REMARK SMILES IDX 81 45 80 46 36 48 68 49 48 50 67 51 49 52 52 53 66 54 85 55
REMARK SMILES IDX 50 56 51 57 65 59 86 60 53 61 37 62 38 63 46 64 39 65 45 66
REMARK SMILES IDX 47 67 44 68 40 69 41 70 42 71 43 72 69 73 70 74 78 75 71 76
REMARK SMILES IDX 77 77 79 78 76 79 72 80 73 81 74 82 75 83 54 84 55 85 63 86
REMARK SMILES IDX 56 87 62 88 64 89 61 90 57 91 58 92 59 93 60 94
REMARK H PARENT 18 7 25 28 84 47 52 58
REMARK Flexibility Score: inf
ROOT
ATOM      1  C   UNL A   1      32.966  29.705  25.888  1.00  0.00     0.002 C 
ENDROOT
BRANCH   1   2
ATOM      2  C   UNL A   1      33.258  28.816  24.680  1.00  0.00     0.021 C 
BRANCH   2   3
ATOM      3  C   UNL A   1      33.628  27.366  25.024  1.00  0.00     0.116 C 
BRANCH   3   4
ATOM      4  N   UNL A   1      33.725  26.543  23.830  1.00  0.00    -0.355 N 
ATOM      5  C   UNL A   1      34.214  25.281  23.634  1.00  0.00     0.235 C 
ATOM      6  O   UNL A   1      34.114  24.815  22.495  1.00  0.00    -0.274 OA
ATOM      7  H   UNL A   1      33.376  26.971  23.015  1.00  0.00     0.163 HD
BRANCH   5   8
ATOM      8  C   UNL A   1      34.806  24.451  24.776  1.00  0.00     0.202 C 
BRANCH   8   9
ATOM      9  N   UNL A   1      34.061  23.235  25.236  1.00  0.00    -0.191 NA
ATOM     10  C   UNL A   1      33.207  23.497  26.393  1.00  0.00     0.125 C 
BRANCH   9  11
ATOM     11  S   UNL A   1      34.984  21.814  25.211  1.00  0.00     0.247 S 
ATOM     12  O   UNL A   1      35.232  21.487  26.605  1.00  0.00    -0.207 OA
ATOM     13  O   UNL A   1      36.078  22.013  24.287  1.00  0.00    -0.207 OA
BRANCH  11  14
ATOM     14  C   UNL A   1      34.045  20.431  24.585  1.00  0.00     0.125 A 
ATOM     15  C   UNL A   1      32.776  20.487  23.996  1.00  0.00     0.138 A 
ATOM     16  C   UNL A   1      32.124  19.279  23.690  1.00  0.00     0.049 A 
ATOM     17  C   UNL A   1      32.717  18.043  23.964  1.00  0.00     0.019 A 
ATOM     18  C   UNL A   1      34.651  19.179  24.827  1.00  0.00     0.041 A 
ATOM     19  C   UNL A   1      33.987  17.999  24.518  1.00  0.00     0.019 A 
ATOM     20  Br  UNL A   1      34.811  16.335  24.865  1.00  0.00    -0.051 Br
BRANCH  15  21
ATOM     21  O   UNL A   1      32.214  21.691  23.678  1.00  0.00    -0.495 OA
ATOM     22  C   UNL A   1      32.223  22.027  22.287  1.00  0.00     0.278 C 
ENDBRANCH  15  21
ENDBRANCH  11  14
ENDBRANCH   9  11
ENDBRANCH   8   9
ENDBRANCH   5   8
ENDBRANCH   3   4
ENDBRANCH   2   3
ENDBRANCH   1   2
BRANCH   1  23
ATOM     23  C   UNL A   1      31.554  30.303  25.924  1.00  0.00     0.002 C 
BRANCH  23  24
ATOM     24  C   UNL A   1      31.430  31.718  26.508  1.00  0.00     0.021 C 
BRANCH  24  25
ATOM     25  C   UNL A   1      32.688  32.276  27.175  1.00  0.00     0.116 C 
BRANCH  25  26
ATOM     26  N   UNL A   1      32.558  33.686  27.495  1.00  0.00    -0.352 N 
ATOM     27  C   UNL A   1      33.207  34.439  28.444  1.00  0.00     0.251 C 
ATOM     28  H   UNL A   1      31.905  34.180  26.948  1.00  0.00     0.163 HD
ATOM     29  O   UNL A   1      32.799  35.568  28.701  1.00  0.00    -0.269 OA
BRANCH  27  30
ATOM     30  C   UNL A   1      34.381  33.896  29.165  1.00  0.00     0.039 A 
ATOM     31  C   UNL A   1      34.173  32.981  30.203  1.00  0.00     0.014 A 
ATOM     32  C   UNL A   1      35.678  34.319  28.860  1.00  0.00     0.014 A 
ATOM     33  C   UNL A   1      35.264  32.450  30.896  1.00  0.00     0.010 A 
ATOM     34  C   UNL A   1      36.769  33.751  29.517  1.00  0.00     0.010 A 
ATOM     35  C   UNL A   1      36.573  32.811  30.544  1.00  0.00    -0.014 A 
BRANCH  35  36
ATOM     36  C   UNL A   1      37.752  32.237  31.246  1.00  0.00     0.031 A 
ATOM     37  C   UNL A   1      38.527  31.112  30.617  1.00  0.00     0.074 A 
ATOM     38  C   UNL A   1      38.077  32.674  32.478  1.00  0.00     0.049 A 
ATOM     39  N   UNL A   1      39.501  30.393  31.116  1.00  0.00    -0.248 NA
ATOM     40  C   UNL A   1      38.130  30.724  29.256  1.00  0.00     0.031 C 
ATOM     41  C   UNL A   1      37.386  33.740  33.206  1.00  0.00     0.029 A 
ATOM     42  N   UNL A   1      39.061  32.266  33.343  1.00  0.00    -0.354 N 
ATOM     43  C   UNL A   1      39.820  29.455  30.140  1.00  0.00     0.074 A 
ATOM     44  C   UNL A   1      38.902  29.671  29.039  1.00  0.00     0.031 C 
ATOM     45  C   UNL A   1      37.969  33.903  34.406  1.00  0.00     0.029 A 
ATOM     46  C   UNL A   1      39.049  32.931  34.548  1.00  0.00     0.049 A 
ATOM     47  H   UNL A   1      39.714  31.563  33.123  1.00  0.00     0.167 HD
ATOM     48  C   UNL A   1      40.796  28.512  30.153  1.00  0.00     0.034 A 
ATOM     49  C   UNL A   1      39.810  32.765  35.647  1.00  0.00     0.034 A 
ATOM     50  C   UNL A   1      41.718  28.324  31.248  1.00  0.00     0.049 A 
ATOM     51  C   UNL A   1      40.888  31.714  35.641  1.00  0.00     0.074 A 
ATOM     52  C   UNL A   1      42.776  27.435  31.344  1.00  0.00     0.029 A 
ATOM     53  N   UNL A   1      41.692  29.037  32.439  1.00  0.00    -0.354 N 
ATOM     54  N   UNL A   1      41.196  30.853  34.698  1.00  0.00    -0.248 NA
ATOM     55  C   UNL A   1      41.729  31.618  36.843  1.00  0.00     0.031 C 
ATOM     56  C   UNL A   1      43.355  27.575  32.611  1.00  0.00     0.029 A 
ATOM     57  C   UNL A   1      42.700  28.594  33.282  1.00  0.00     0.049 A 
ATOM     58  H   UNL A   1      41.052  29.754  32.654  1.00  0.00     0.167 HD
ATOM     59  C   UNL A   1      42.284  30.133  35.184  1.00  0.00     0.074 A 
ATOM     60  C   UNL A   1      42.583  30.666  36.497  1.00  0.00     0.031 C 
ATOM     61  C   UNL A   1      42.980  29.129  34.593  1.00  0.00     0.034 A 
BRANCH  48  62
ATOM     62  C   UNL A   1      40.888  27.597  28.958  1.00  0.00     0.023 A 
ATOM     63  C   UNL A   1      41.845  27.795  27.947  1.00  0.00     0.031 A 
ATOM     64  C   UNL A   1      39.981  26.532  28.804  1.00  0.00     0.131 A 
ATOM     65  C   UNL A   1      41.823  26.997  26.794  1.00  0.00     0.055 A 
ATOM     66  C   UNL A   1      40.016  25.690  27.691  1.00  0.00     0.041 A 
ATOM     67  F   UNL A   1      39.033  26.305  29.727  1.00  0.00    -0.206 F 
ATOM     68  C   UNL A   1      40.929  25.930  26.669  1.00  0.00     0.022 A 
BRANCH  65  69
ATOM     69  S   UNL A   1      42.878  27.468  25.396  1.00  0.00     0.124 S 
ATOM     70  O   UNL A   1      43.026  26.194  24.697  1.00  0.00    -0.237 OA
ATOM     71  O   UNL A   1      42.072  28.479  24.721  1.00  0.00    -0.237 OA
ATOM     72  O   UNL A   1      44.095  27.964  26.037  1.00  0.00    -0.744 OA
ENDBRANCH  65  69
ENDBRANCH  48  62
BRANCH  49  73
ATOM     73  C   UNL A   1      39.572  33.601  36.857  1.00  0.00     0.023 A 
ATOM     74  C   UNL A   1      38.984  33.054  38.008  1.00  0.00     0.031 A 
ATOM     75  C   UNL A   1      39.901  34.967  36.866  1.00  0.00     0.131 A 
ATOM     76  C   UNL A   1      38.706  33.878  39.108  1.00  0.00     0.055 A 
ATOM     77  C   UNL A   1      39.662  35.774  37.980  1.00  0.00     0.041 A 
ATOM     78  F   UNL A   1      40.475  35.535  35.793  1.00  0.00    -0.206 F 
ATOM     79  C   UNL A   1      39.050  35.233  39.106  1.00  0.00     0.022 A 
BRANCH  76  80
ATOM     80  S   UNL A   1      37.825  33.167  40.525  1.00  0.00     0.124 S 
ATOM     81  O   UNL A   1      38.037  34.184  41.548  1.00  0.00    -0.237 OA
ATOM     82  O   UNL A   1      36.467  33.050  40.007  1.00  0.00    -0.237 OA
ATOM     83  O   UNL A   1      38.515  31.898  40.751  1.00  0.00    -0.744 OA
ENDBRANCH  76  80
ENDBRANCH  49  73
BRANCH  61  84
ATOM     84  C   UNL A   1      44.160  28.580  35.351  1.00  0.00     0.023 A 
ATOM     85  C   UNL A   1      44.019  27.537  36.282  1.00  0.00     0.031 A 
ATOM     86  C   UNL A   1      45.441  29.117  35.143  1.00  0.00     0.131 A 
ATOM     87  C   UNL A   1      45.136  27.094  37.007  1.00  0.00     0.055 A 
ATOM     88  C   UNL A   1      46.557  28.641  35.832  1.00  0.00     0.041 A 
ATOM     89  F   UNL A   1      45.628  30.116  34.265  1.00  0.00    -0.206 F 
ATOM     90  C   UNL A   1      46.407  27.630  36.778  1.00  0.00     0.022 A 
BRANCH  87  91
ATOM     91  S   UNL A   1      44.896  25.850  38.305  1.00  0.00     0.124 S 
ATOM     92  O   UNL A   1      46.258  25.378  38.529  1.00  0.00    -0.237 OA
ATOM     93  O   UNL A   1      44.307  26.636  39.385  1.00  0.00    -0.237 OA
ATOM     94  O   UNL A   1      43.996  24.878  37.686  1.00  0.00    -0.744 OA
ENDBRANCH  87  91
ENDBRANCH  61  84
ENDBRANCH  35  36
ENDBRANCH  27  30
ENDBRANCH  25  26
ENDBRANCH  24  25
ENDBRANCH  23  24
ENDBRANCH   1  23
TORSDOF 20
ENDMDL
