MODEL 1
REMARK VINA RESULT:     -11.2      0.000      0.000
REMARK SMILES CC(C)=CC(=O)Nc1ccc(C(=O)NCCCCCCNC(=O)c2ccc(-c3c4nc(c(-c5cc(S(=O)(=O)[O-])ccc5F)c5ccc([nH]5)c(-c5cc(S(=O)(=O)[O-])ccc5F)c5nc(c(-c6cc(S(=O)(=O)[O-])ccc6F)c6ccc3[nH]6)C=C5)C=C4)cc2)cc1
REMARK SMILES IDX 18 1 17 2 16 3 15 4 14 5 12 6 13 7 11 9 8 10 9 11 88 12
REMARK SMILES IDX 10 13 87 14 7 15 5 16 6 17 4 19 1 20 2 21 3 22 19 23 20 24
REMARK SMILES IDX 21 25 22 26 23 28 24 29 25 30 86 31 26 32 85 33 27 34 28 35
REMARK SMILES IDX 29 36 79 37 30 38 84 39 78 40 80 41 31 42 83 43 77 44 76 45
REMARK SMILES IDX 32 47 64 48 44 49 63 50 45 51 48 52 62 53 81 54 46 55 47 56
REMARK SMILES IDX 61 58 82 59 49 60 33 61 34 62 42 63 35 64 41 65 43 66 40 67
REMARK SMILES IDX 36 68 37 69 38 70 39 71 65 72 66 73 74 74 67 75 73 76 75 77
REMARK SMILES IDX 72 78 68 79 69 80 70 81 71 82 50 83 51 84 59 85 52 86 58 87
REMARK SMILES IDX 60 88 57 89 53 90 54 91 55 92 56 93
REMARK H PARENT 14 8 7 18 21 27 80 46 48 57
REMARK Flexibility Score: inf
ROOT
ATOM      1  C   UNL A   1      31.897  27.356  26.525  1.00  0.00     0.002 C 
ENDROOT
BRANCH   1   2
ATOM      2  C   UNL A   1      30.756  26.690  25.748  1.00  0.00     0.002 C 
BRANCH   2   3
ATOM      3  C   UNL A   1      30.606  27.166  24.297  1.00  0.00     0.021 C 
BRANCH   3   4
ATOM      4  C   UNL A   1      30.664  26.023  23.283  1.00  0.00     0.116 C 
BRANCH   4   5
ATOM      5  N   UNL A   1      31.618  26.346  22.234  1.00  0.00    -0.352 N 
ATOM      6  C   UNL A   1      32.972  26.152  22.129  1.00  0.00     0.251 C 
ATOM      7  O   UNL A   1      33.546  26.574  21.126  1.00  0.00    -0.269 OA
ATOM      8  H   UNL A   1      31.217  26.789  21.452  1.00  0.00     0.163 HD
BRANCH   6   9
ATOM      9  C   UNL A   1      33.736  25.344  23.117  1.00  0.00     0.039 A 
ATOM     10  C   UNL A   1      34.599  23.560  25.073  1.00  0.00     0.041 A 
ATOM     11  C   UNL A   1      34.411  23.106  23.768  1.00  0.00     0.027 A 
ATOM     12  C   UNL A   1      34.566  24.926  25.348  1.00  0.00     0.027 A 
ATOM     13  C   UNL A   1      33.937  23.992  22.802  1.00  0.00     0.016 A 
ATOM     14  C   UNL A   1      34.180  25.824  24.351  1.00  0.00     0.016 A 
BRANCH  10  15
ATOM     15  N   UNL A   1      34.738  22.596  26.072  1.00  0.00    -0.323 N 
ATOM     16  C   UNL A   1      33.921  22.311  27.127  1.00  0.00     0.248 C 
ATOM     17  O   UNL A   1      34.311  21.529  27.996  1.00  0.00    -0.270 OA
ATOM     18  H   UNL A   1      35.546  22.037  26.006  1.00  0.00     0.170 HD
BRANCH  16  19
ATOM     19  C   UNL A   1      32.541  22.866  27.248  1.00  0.00     0.070 C 
ATOM     20  C   UNL A   1      31.357  21.786  25.260  1.00  0.00     0.039 C 
ATOM     21  C   UNL A   1      31.442  22.639  26.495  1.00  0.00    -0.071 C 
ATOM     22  C   UNL A   1      30.111  23.217  26.909  1.00  0.00     0.039 C 
ENDBRANCH  16  19
ENDBRANCH  10  15
ENDBRANCH   6   9
ENDBRANCH   4   5
ENDBRANCH   3   4
ENDBRANCH   2   3
ENDBRANCH   1   2
BRANCH   1  23
ATOM     23  C   UNL A   1      31.715  28.854  26.783  1.00  0.00     0.021 C 
BRANCH  23  24
ATOM     24  C   UNL A   1      32.799  29.735  26.167  1.00  0.00     0.116 C 
BRANCH  24  25
ATOM     25  N   UNL A   1      32.583  31.143  26.464  1.00  0.00    -0.352 N 
ATOM     26  C   UNL A   1      33.280  31.973  27.308  1.00  0.00     0.251 C 
ATOM     27  H   UNL A   1      31.827  31.561  25.991  1.00  0.00     0.163 HD
ATOM     28  O   UNL A   1      32.812  33.062  27.619  1.00  0.00    -0.269 OA
BRANCH  26  29
ATOM     29  C   UNL A   1      34.583  31.534  27.853  1.00  0.00     0.039 A 
ATOM     30  C   UNL A   1      35.626  32.457  27.950  1.00  0.00     0.014 A 
ATOM     31  C   UNL A   1      34.771  30.214  28.277  1.00  0.00     0.014 A 
ATOM     32  C   UNL A   1      36.831  32.078  28.546  1.00  0.00     0.010 A 
ATOM     33  C   UNL A   1      35.946  29.859  28.933  1.00  0.00     0.010 A 
ATOM     34  C   UNL A   1      36.984  30.791  29.085  1.00  0.00    -0.014 A 
BRANCH  34  35
ATOM     35  C   UNL A   1      38.206  30.408  29.841  1.00  0.00     0.031 A 
ATOM     36  C   UNL A   1      39.164  29.397  29.276  1.00  0.00     0.074 A 
ATOM     37  C   UNL A   1      38.410  30.922  31.071  1.00  0.00     0.049 A 
ATOM     38  N   UNL A   1      40.223  28.865  29.827  1.00  0.00    -0.248 NA
ATOM     39  C   UNL A   1      38.874  28.901  27.923  1.00  0.00     0.031 C 
ATOM     40  C   UNL A   1      37.537  31.893  31.735  1.00  0.00     0.029 A 
ATOM     41  N   UNL A   1      39.407  30.694  31.987  1.00  0.00    -0.354 N 
ATOM     42  C   UNL A   1      40.726  27.966  28.891  1.00  0.00     0.074 A 
ATOM     43  C   UNL A   1      39.817  27.985  27.764  1.00  0.00     0.031 C 
ATOM     44  C   UNL A   1      38.046  32.191  32.941  1.00  0.00     0.029 A 
ATOM     45  C   UNL A   1      39.247  31.392  33.164  1.00  0.00     0.049 A 
ATOM     46  H   UNL A   1      40.164  30.088  31.821  1.00  0.00     0.167 HD
ATOM     47  C   UNL A   1      41.851  27.211  28.962  1.00  0.00     0.034 A 
ATOM     48  C   UNL A   1      39.969  31.372  34.302  1.00  0.00     0.034 A 
ATOM     49  C   UNL A   1      42.745  27.205  30.095  1.00  0.00     0.049 A 
ATOM     50  C   UNL A   1      41.177  30.473  34.380  1.00  0.00     0.074 A 
ATOM     51  C   UNL A   1      43.939  26.522  30.247  1.00  0.00     0.029 A 
ATOM     52  N   UNL A   1      42.535  27.902  31.279  1.00  0.00    -0.354 N 
ATOM     53  N   UNL A   1      41.669  29.670  33.465  1.00  0.00    -0.248 NA
ATOM     54  C   UNL A   1      41.927  30.479  35.643  1.00  0.00     0.031 C 
ATOM     55  C   UNL A   1      44.405  26.737  31.547  1.00  0.00     0.029 A 
ATOM     56  C   UNL A   1      43.551  27.625  32.181  1.00  0.00     0.049 A 
ATOM     57  H   UNL A   1      41.776  28.505  31.452  1.00  0.00     0.167 HD
ATOM     58  C   UNL A   1      42.800  29.092  34.037  1.00  0.00     0.074 A 
ATOM     59  C   UNL A   1      42.928  29.657  35.364  1.00  0.00     0.031 C 
ATOM     60  C   UNL A   1      43.655  28.178  33.513  1.00  0.00     0.034 A 
BRANCH  47  61
ATOM     61  C   UNL A   1      42.158  26.304  27.792  1.00  0.00     0.023 A 
ATOM     62  C   UNL A   1      41.691  24.979  27.741  1.00  0.00     0.031 A 
ATOM     63  C   UNL A   1      42.941  26.765  26.719  1.00  0.00     0.131 A 
ATOM     64  C   UNL A   1      42.071  24.141  26.681  1.00  0.00     0.055 A 
ATOM     65  C   UNL A   1      43.246  25.953  25.625  1.00  0.00     0.041 A 
ATOM     66  F   UNL A   1      43.436  28.014  26.721  1.00  0.00    -0.206 F 
ATOM     67  C   UNL A   1      42.822  24.627  25.609  1.00  0.00     0.022 A 
BRANCH  64  68
ATOM     68  S   UNL A   1      41.695  22.371  26.801  1.00  0.00     0.124 S 
ATOM     69  O   UNL A   1      42.605  21.948  27.862  1.00  0.00    -0.237 OA
ATOM     70  O   UNL A   1      40.276  22.373  27.137  1.00  0.00    -0.237 OA
ATOM     71  O   UNL A   1      42.022  21.862  25.470  1.00  0.00    -0.744 OA
ENDBRANCH  64  68
ENDBRANCH  47  61
BRANCH  48  72
ATOM     72  C   UNL A   1      39.558  32.199  35.474  1.00  0.00     0.023 A 
ATOM     73  C   UNL A   1      38.807  31.643  36.522  1.00  0.00     0.031 A 
ATOM     74  C   UNL A   1      39.868  33.569  35.542  1.00  0.00     0.131 A 
ATOM     75  C   UNL A   1      38.350  32.463  37.566  1.00  0.00     0.055 A 
ATOM     76  C   UNL A   1      39.463  34.367  36.613  1.00  0.00     0.041 A 
ATOM     77  F   UNL A   1      40.584  34.154  34.567  1.00  0.00    -0.206 F 
ATOM     78  C   UNL A   1      38.687  33.816  37.628  1.00  0.00     0.022 A 
BRANCH  75  79
ATOM     79  S   UNL A   1      37.224  31.752  38.797  1.00  0.00     0.124 S 
ATOM     80  O   UNL A   1      38.019  31.848  40.017  1.00  0.00    -0.237 OA
ATOM     81  O   UNL A   1      36.075  32.646  38.707  1.00  0.00    -0.237 OA
ATOM     82  O   UNL A   1      36.996  30.395  38.306  1.00  0.00    -0.744 OA
ENDBRANCH  75  79
ENDBRANCH  48  72
BRANCH  60  83
ATOM     83  C   UNL A   1      44.820  27.753  34.374  1.00  0.00     0.023 A 
ATOM     84  C   UNL A   1      44.698  26.720  35.321  1.00  0.00     0.031 A 
ATOM     85  C   UNL A   1      46.068  28.389  34.248  1.00  0.00     0.131 A 
ATOM     86  C   UNL A   1      45.787  26.390  36.140  1.00  0.00     0.055 A 
ATOM     87  C   UNL A   1      47.167  28.011  35.020  1.00  0.00     0.041 A 
ATOM     88  F   UNL A   1      46.242  29.384  33.364  1.00  0.00    -0.206 F 
ATOM     89  C   UNL A   1      47.028  27.014  35.982  1.00  0.00     0.022 A 
BRANCH  86  90
ATOM     90  S   UNL A   1      45.538  25.193  37.481  1.00  0.00     0.124 S 
ATOM     91  O   UNL A   1      46.729  25.402  38.296  1.00  0.00    -0.237 OA
ATOM     92  O   UNL A   1      44.277  25.638  38.066  1.00  0.00    -0.237 OA
ATOM     93  O   UNL A   1      45.479  23.908  36.787  1.00  0.00    -0.744 OA
ENDBRANCH  86  90
ENDBRANCH  60  83
ENDBRANCH  34  35
ENDBRANCH  26  29
ENDBRANCH  24  25
ENDBRANCH  23  24
ENDBRANCH   1  23
TORSDOF 18
ENDMDL
MODEL 2
REMARK VINA RESULT:     -11.2      1.336      1.608
REMARK SMILES CC(C)=CC(=O)Nc1ccc(C(=O)NCCCCCCNC(=O)c2ccc(-c3c4nc(c(-c5cc(S(=O)(=O)[O-])ccc5F)c5ccc([nH]5)c(-c5cc(S(=O)(=O)[O-])ccc5F)c5nc(c(-c6cc(S(=O)(=O)[O-])ccc6F)c6ccc3[nH]6)C=C5)C=C4)cc2)cc1
REMARK SMILES IDX 18 1 17 2 16 3 15 4 14 5 12 6 13 7 11 9 8 10 9 11 88 12
REMARK SMILES IDX 10 13 87 14 7 15 5 16 6 17 4 19 1 20 2 21 3 22 19 23 20 24
REMARK SMILES IDX 21 25 22 26 23 28 24 29 25 30 86 31 26 32 85 33 27 34 28 35
REMARK SMILES IDX 29 36 79 37 30 38 84 39 78 40 80 41 31 42 83 43 77 44 76 45
REMARK SMILES IDX 32 47 64 48 44 49 63 50 45 51 48 52 62 53 81 54 46 55 47 56
REMARK SMILES IDX 61 58 82 59 49 60 33 61 34 62 42 63 35 64 41 65 43 66 40 67
REMARK SMILES IDX 36 68 37 69 38 70 39 71 65 72 66 73 74 74 67 75 73 76 75 77
REMARK SMILES IDX 72 78 68 79 69 80 70 81 71 82 50 83 51 84 59 85 52 86 58 87
REMARK SMILES IDX 60 88 57 89 53 90 54 91 55 92 56 93
REMARK H PARENT 14 8 7 18 21 27 80 46 48 57
REMARK Flexibility Score: inf
ROOT
ATOM      1  C   UNL A   1      31.321  27.539  26.483  1.00  0.00     0.002 C 
ENDROOT
BRANCH   1   2
ATOM      2  C   UNL A   1      30.674  26.373  25.727  1.00  0.00     0.002 C 
BRANCH   2   3
ATOM      3  C   UNL A   1      29.968  26.769  24.423  1.00  0.00     0.021 C 
BRANCH   3   4
ATOM      4  C   UNL A   1      30.474  25.990  23.208  1.00  0.00     0.116 C 
BRANCH   4   5
ATOM      5  N   UNL A   1      31.452  26.788  22.486  1.00  0.00    -0.352 N 
ATOM      6  C   UNL A   1      32.816  26.890  22.589  1.00  0.00     0.251 C 
ATOM      7  O   UNL A   1      33.397  27.697  21.866  1.00  0.00    -0.269 OA
ATOM      8  H   UNL A   1      31.060  27.367  21.792  1.00  0.00     0.163 HD
BRANCH   6   9
ATOM      9  C   UNL A   1      33.615  25.975  23.447  1.00  0.00     0.039 A 
ATOM     10  C   UNL A   1      34.560  23.948  25.106  1.00  0.00     0.041 A 
ATOM     11  C   UNL A   1      34.406  23.700  23.742  1.00  0.00     0.027 A 
ATOM     12  C   UNL A   1      34.452  25.247  25.595  1.00  0.00     0.027 A 
ATOM     13  C   UNL A   1      33.892  24.704  22.923  1.00  0.00     0.016 A 
ATOM     14  C   UNL A   1      34.025  26.273  24.749  1.00  0.00     0.016 A 
BRANCH  10  15
ATOM     15  N   UNL A   1      34.744  22.844  25.940  1.00  0.00    -0.323 N 
ATOM     16  C   UNL A   1      33.948  22.366  26.940  1.00  0.00     0.248 C 
ATOM     17  O   UNL A   1      34.376  21.473  27.673  1.00  0.00    -0.270 OA
ATOM     18  H   UNL A   1      35.571  22.333  25.783  1.00  0.00     0.170 HD
BRANCH  16  19
ATOM     19  C   UNL A   1      32.550  22.844  27.153  1.00  0.00     0.070 C 
ATOM     20  C   UNL A   1      31.397  22.083  25.006  1.00  0.00     0.039 C 
ATOM     21  C   UNL A   1      31.457  22.711  26.371  1.00  0.00    -0.071 C 
ATOM     22  C   UNL A   1      30.108  23.162  26.876  1.00  0.00     0.039 C 
ENDBRANCH  16  19
ENDBRANCH  10  15
ENDBRANCH   6   9
ENDBRANCH   4   5
ENDBRANCH   3   4
ENDBRANCH   2   3
ENDBRANCH   1   2
BRANCH   1  23
ATOM     23  C   UNL A   1      31.496  28.822  25.665  1.00  0.00     0.021 C 
BRANCH  23  24
ATOM     24  C   UNL A   1      32.777  29.594  25.972  1.00  0.00     0.116 C 
BRANCH  24  25
ATOM     25  N   UNL A   1      32.501  30.982  26.310  1.00  0.00    -0.352 N 
ATOM     26  C   UNL A   1      33.138  31.804  27.208  1.00  0.00     0.251 C 
ATOM     27  H   UNL A   1      31.749  31.391  25.824  1.00  0.00     0.163 HD
ATOM     28  O   UNL A   1      32.621  32.864  27.540  1.00  0.00    -0.269 OA
BRANCH  26  29
ATOM     29  C   UNL A   1      34.434  31.389  27.787  1.00  0.00     0.039 A 
ATOM     30  C   UNL A   1      35.431  32.347  27.979  1.00  0.00     0.014 A 
ATOM     31  C   UNL A   1      34.661  30.056  28.148  1.00  0.00     0.014 A 
ATOM     32  C   UNL A   1      36.625  31.986  28.607  1.00  0.00     0.010 A 
ATOM     33  C   UNL A   1      35.821  29.714  28.835  1.00  0.00     0.010 A 
ATOM     34  C   UNL A   1      36.811  30.678  29.082  1.00  0.00    -0.014 A 
BRANCH  34  35
ATOM     35  C   UNL A   1      38.016  30.305  29.871  1.00  0.00     0.031 A 
ATOM     36  C   UNL A   1      38.999  29.306  29.328  1.00  0.00     0.074 A 
ATOM     37  C   UNL A   1      38.180  30.815  31.108  1.00  0.00     0.049 A 
ATOM     38  N   UNL A   1      40.049  28.782  29.906  1.00  0.00    -0.248 NA
ATOM     39  C   UNL A   1      38.752  28.813  27.965  1.00  0.00     0.031 C 
ATOM     40  C   UNL A   1      37.278  31.774  31.752  1.00  0.00     0.029 A 
ATOM     41  N   UNL A   1      39.153  30.593  32.051  1.00  0.00    -0.354 N 
ATOM     42  C   UNL A   1      40.586  27.893  28.981  1.00  0.00     0.074 A 
ATOM     43  C   UNL A   1      39.709  27.908  27.829  1.00  0.00     0.031 C 
ATOM     44  C   UNL A   1      37.751  32.071  32.972  1.00  0.00     0.029 A 
ATOM     45  C   UNL A   1      38.954  31.284  33.225  1.00  0.00     0.049 A 
ATOM     46  H   UNL A   1      39.921  29.996  31.903  1.00  0.00     0.167 HD
ATOM     47  C   UNL A   1      41.717  27.149  29.079  1.00  0.00     0.034 A 
ATOM     48  C   UNL A   1      39.644  31.266  34.383  1.00  0.00     0.034 A 
ATOM     49  C   UNL A   1      42.579  27.148  30.237  1.00  0.00     0.049 A 
ATOM     50  C   UNL A   1      40.858  30.380  34.491  1.00  0.00     0.074 A 
ATOM     51  C   UNL A   1      43.775  26.476  30.419  1.00  0.00     0.029 A 
ATOM     52  N   UNL A   1      42.329  27.837  31.417  1.00  0.00    -0.354 N 
ATOM     53  N   UNL A   1      41.384  29.585  33.586  1.00  0.00    -0.248 NA
ATOM     54  C   UNL A   1      41.574  30.387  35.774  1.00  0.00     0.031 C 
ATOM     55  C   UNL A   1      44.203  26.690  31.733  1.00  0.00     0.029 A 
ATOM     56  C   UNL A   1      43.322  27.566  32.347  1.00  0.00     0.049 A 
ATOM     57  H   UNL A   1      41.560  28.431  31.572  1.00  0.00     0.167 HD
ATOM     58  C   UNL A   1      42.505  29.017  34.187  1.00  0.00     0.074 A 
ATOM     59  C   UNL A   1      42.590  29.578  35.519  1.00  0.00     0.031 C 
ATOM     60  C   UNL A   1      43.384  28.114  33.683  1.00  0.00     0.034 A 
BRANCH  47  61
ATOM     61  C   UNL A   1      42.066  26.252  27.914  1.00  0.00     0.023 A 
ATOM     62  C   UNL A   1      41.614  24.922  27.844  1.00  0.00     0.031 A 
ATOM     63  C   UNL A   1      42.873  26.726  26.866  1.00  0.00     0.131 A 
ATOM     64  C   UNL A   1      42.033  24.093  26.793  1.00  0.00     0.055 A 
ATOM     65  C   UNL A   1      43.217  25.922  25.777  1.00  0.00     0.041 A 
ATOM     66  F   UNL A   1      43.355  27.979  26.887  1.00  0.00    -0.206 F 
ATOM     67  C   UNL A   1      42.808  24.592  25.744  1.00  0.00     0.022 A 
BRANCH  64  68
ATOM     68  S   UNL A   1      41.672  22.319  26.894  1.00  0.00     0.124 S 
ATOM     69  O   UNL A   1      41.983  21.877  25.537  1.00  0.00    -0.237 OA
ATOM     70  O   UNL A   1      42.587  21.871  27.938  1.00  0.00    -0.237 OA
ATOM     71  O   UNL A   1      40.254  22.277  27.245  1.00  0.00    -0.744 OA
ENDBRANCH  64  68
ENDBRANCH  47  61
BRANCH  48  72
ATOM     72  C   UNL A   1      39.192  32.083  35.547  1.00  0.00     0.023 A 
ATOM     73  C   UNL A   1      39.614  33.412  35.704  1.00  0.00     0.031 A 
ATOM     74  C   UNL A   1      38.367  31.532  36.545  1.00  0.00     0.131 A 
ATOM     75  C   UNL A   1      39.254  34.130  36.856  1.00  0.00     0.055 A 
ATOM     76  C   UNL A   1      37.961  32.270  37.658  1.00  0.00     0.041 A 
ATOM     77  F   UNL A   1      37.933  30.265  36.446  1.00  0.00    -0.206 F 
ATOM     78  C   UNL A   1      38.416  33.573  37.825  1.00  0.00     0.022 A 
BRANCH  75  79
ATOM     79  S   UNL A   1      39.976  35.772  37.117  1.00  0.00     0.124 S 
ATOM     80  O   UNL A   1      41.380  35.446  37.340  1.00  0.00    -0.237 OA
ATOM     81  O   UNL A   1      39.664  36.443  35.859  1.00  0.00    -0.237 OA
ATOM     82  O   UNL A   1      39.258  36.277  38.285  1.00  0.00    -0.744 OA
ENDBRANCH  75  79
ENDBRANCH  48  72
BRANCH  60  83
ATOM     83  C   UNL A   1      44.529  27.697  34.574  1.00  0.00     0.023 A 
ATOM     84  C   UNL A   1      44.443  26.563  35.402  1.00  0.00     0.031 A 
ATOM     85  C   UNL A   1      45.721  28.443  34.598  1.00  0.00     0.131 A 
ATOM     86  C   UNL A   1      45.507  26.239  36.256  1.00  0.00     0.055 A 
ATOM     87  C   UNL A   1      46.802  28.077  35.401  1.00  0.00     0.041 A 
ATOM     88  F   UNL A   1      45.858  29.538  33.833  1.00  0.00    -0.206 F 
ATOM     89  C   UNL A   1      46.694  26.976  36.246  1.00  0.00     0.022 A 
BRANCH  86  90
ATOM     90  S   UNL A   1      45.286  24.890  37.449  1.00  0.00     0.124 S 
ATOM     91  O   UNL A   1      44.395  25.500  38.431  1.00  0.00    -0.237 OA
ATOM     92  O   UNL A   1      44.702  23.837  36.625  1.00  0.00    -0.237 OA
ATOM     93  O   UNL A   1      46.643  24.625  37.923  1.00  0.00    -0.744 OA
ENDBRANCH  86  90
ENDBRANCH  60  83
ENDBRANCH  34  35
ENDBRANCH  26  29
ENDBRANCH  24  25
ENDBRANCH  23  24
ENDBRANCH   1  23
TORSDOF 18
ENDMDL
MODEL 3
REMARK VINA RESULT:     -11.0      2.179      3.547
REMARK SMILES CC(C)=CC(=O)Nc1ccc(C(=O)NCCCCCCNC(=O)c2ccc(-c3c4nc(c(-c5cc(S(=O)(=O)[O-])ccc5F)c5ccc([nH]5)c(-c5cc(S(=O)(=O)[O-])ccc5F)c5nc(c(-c6cc(S(=O)(=O)[O-])ccc6F)c6ccc3[nH]6)C=C5)C=C4)cc2)cc1
REMARK SMILES IDX 18 1 17 2 16 3 15 4 14 5 12 6 13 7 11 9 8 10 9 11 88 12
REMARK SMILES IDX 10 13 87 14 7 15 5 16 6 17 4 19 1 20 2 21 3 22 19 23 20 24
REMARK SMILES IDX 21 25 22 26 23 28 24 29 25 30 86 31 26 32 85 33 27 34 28 35
REMARK SMILES IDX 29 36 79 37 30 38 84 39 78 40 80 41 31 42 83 43 77 44 76 45
REMARK SMILES IDX 32 47 64 48 44 49 63 50 45 51 48 52 62 53 81 54 46 55 47 56
REMARK SMILES IDX 61 58 82 59 49 60 33 61 34 62 42 63 35 64 41 65 43 66 40 67
REMARK SMILES IDX 36 68 37 69 38 70 39 71 65 72 66 73 74 74 67 75 73 76 75 77
REMARK SMILES IDX 72 78 68 79 69 80 70 81 71 82 50 83 51 84 59 85 52 86 58 87
REMARK SMILES IDX 60 88 57 89 53 90 54 91 55 92 56 93
REMARK H PARENT 14 8 7 18 21 27 80 46 48 57
REMARK Flexibility Score: inf
ROOT
ATOM      1  C   UNL A   1      31.830  29.784  26.899  1.00  0.00     0.002 C 
ENDROOT
BRANCH   1   2
ATOM      2  C   UNL A   1      33.151  29.098  26.534  1.00  0.00     0.002 C 
BRANCH   2   3
ATOM      3  C   UNL A   1      33.129  27.568  26.645  1.00  0.00     0.021 C 
BRANCH   3   4
ATOM      4  C   UNL A   1      31.723  26.978  26.520  1.00  0.00     0.116 C 
BRANCH   4   5
ATOM      5  N   UNL A   1      31.660  25.709  27.227  1.00  0.00    -0.352 N 
ATOM      6  C   UNL A   1      31.637  24.410  26.788  1.00  0.00     0.251 C 
ATOM      7  O   UNL A   1      31.533  23.513  27.624  1.00  0.00    -0.269 OA
ATOM      8  H   UNL A   1      31.626  25.800  28.208  1.00  0.00     0.163 HD
BRANCH   6   9
ATOM      9  C   UNL A   1      31.858  24.052  25.362  1.00  0.00     0.039 A 
ATOM     10  C   UNL A   1      32.369  24.008  22.625  1.00  0.00     0.041 A 
ATOM     11  C   UNL A   1      33.436  24.087  23.519  1.00  0.00     0.027 A 
ATOM     12  C   UNL A   1      31.085  23.737  23.093  1.00  0.00     0.027 A 
ATOM     13  C   UNL A   1      33.174  24.152  24.887  1.00  0.00     0.016 A 
ATOM     14  C   UNL A   1      30.841  23.711  24.468  1.00  0.00     0.016 A 
BRANCH  10  15
ATOM     15  N   UNL A   1      32.636  24.288  21.283  1.00  0.00    -0.323 N 
ATOM     16  C   UNL A   1      32.928  25.477  20.684  1.00  0.00     0.248 C 
ATOM     17  O   UNL A   1      32.965  25.537  19.453  1.00  0.00    -0.270 OA
ATOM     18  H   UNL A   1      32.610  23.510  20.680  1.00  0.00     0.170 HD
BRANCH  16  19
ATOM     19  C   UNL A   1      33.265  26.708  21.459  1.00  0.00     0.070 C 
ATOM     20  C   UNL A   1      31.012  27.316  22.494  1.00  0.00     0.039 C 
ATOM     21  C   UNL A   1      32.486  27.479  22.248  1.00  0.00    -0.071 C 
ATOM     22  C   UNL A   1      33.100  28.603  23.046  1.00  0.00     0.039 C 
ENDBRANCH  16  19
ENDBRANCH  10  15
ENDBRANCH   6   9
ENDBRANCH   4   5
ENDBRANCH   3   4
ENDBRANCH   2   3
ENDBRANCH   1   2
BRANCH   1  23
ATOM     23  C   UNL A   1      31.801  31.297  26.664  1.00  0.00     0.021 C 
BRANCH  23  24
ATOM     24  C   UNL A   1      32.986  32.049  27.264  1.00  0.00     0.116 C 
BRANCH  24  25
ATOM     25  N   UNL A   1      32.678  33.455  27.481  1.00  0.00    -0.352 N 
ATOM     26  C   UNL A   1      33.171  34.319  28.429  1.00  0.00     0.251 C 
ATOM     27  H   UNL A   1      32.022  33.842  26.858  1.00  0.00     0.163 HD
ATOM     28  O   UNL A   1      32.621  35.398  28.616  1.00  0.00    -0.269 OA
BRANCH  26  29
ATOM     29  C   UNL A   1      34.349  33.928  29.233  1.00  0.00     0.039 A 
ATOM     30  C   UNL A   1      34.162  33.147  30.376  1.00  0.00     0.014 A 
ATOM     31  C   UNL A   1      35.635  34.323  28.854  1.00  0.00     0.014 A 
ATOM     32  C   UNL A   1      35.273  32.696  31.093  1.00  0.00     0.010 A 
ATOM     33  C   UNL A   1      36.742  33.815  29.528  1.00  0.00     0.010 A 
ATOM     34  C   UNL A   1      36.573  32.987  30.648  1.00  0.00    -0.014 A 
BRANCH  34  35
ATOM     35  C   UNL A   1      37.767  32.407  31.317  1.00  0.00     0.031 A 
ATOM     36  C   UNL A   1      38.495  31.246  30.698  1.00  0.00     0.074 A 
ATOM     37  C   UNL A   1      38.149  32.883  32.519  1.00  0.00     0.049 A 
ATOM     38  N   UNL A   1      39.490  30.545  31.176  1.00  0.00    -0.248 NA
ATOM     39  C   UNL A   1      38.023  30.802  29.379  1.00  0.00     0.031 C 
ATOM     40  C   UNL A   1      37.504  33.989  33.232  1.00  0.00     0.029 A 
ATOM     41  N   UNL A   1      39.160  32.493  33.362  1.00  0.00    -0.354 N 
ATOM     42  C   UNL A   1      39.761  29.571  30.220  1.00  0.00     0.074 A 
ATOM     43  C   UNL A   1      38.785  29.740  29.164  1.00  0.00     0.031 C 
ATOM     44  C   UNL A   1      38.147  34.201  34.391  1.00  0.00     0.029 A 
ATOM     45  C   UNL A   1      39.211  33.212  34.536  1.00  0.00     0.049 A 
ATOM     46  H   UNL A   1      39.790  31.768  33.149  1.00  0.00     0.167 HD
ATOM     47  C   UNL A   1      40.746  28.638  30.218  1.00  0.00     0.034 A 
ATOM     48  C   UNL A   1      40.004  33.075  35.617  1.00  0.00     0.034 A 
ATOM     49  C   UNL A   1      41.710  28.486  31.281  1.00  0.00     0.049 A 
ATOM     50  C   UNL A   1      41.047  31.985  35.618  1.00  0.00     0.074 A 
ATOM     51  C   UNL A   1      42.781  27.611  31.354  1.00  0.00     0.029 A 
ATOM     52  N   UNL A   1      41.712  29.212  32.466  1.00  0.00    -0.354 N 
ATOM     53  N   UNL A   1      41.325  31.107  34.682  1.00  0.00    -0.248 NA
ATOM     54  C   UNL A   1      41.882  31.869  36.821  1.00  0.00     0.031 C 
ATOM     55  C   UNL A   1      43.375  27.749  32.612  1.00  0.00     0.029 A 
ATOM     56  C   UNL A   1      42.733  28.770  33.294  1.00  0.00     0.049 A 
ATOM     57  H   UNL A   1      41.081  29.934  32.686  1.00  0.00     0.167 HD
ATOM     58  C   UNL A   1      42.384  30.349  35.176  1.00  0.00     0.074 A 
ATOM     59  C   UNL A   1      42.706  30.890  36.481  1.00  0.00     0.031 C 
ATOM     60  C   UNL A   1      43.031  29.302  34.605  1.00  0.00     0.034 A 
BRANCH  47  61
ATOM     61  C   UNL A   1      40.806  27.689  29.043  1.00  0.00     0.023 A 
ATOM     62  C   UNL A   1      41.756  27.840  28.018  1.00  0.00     0.031 A 
ATOM     63  C   UNL A   1      39.891  26.627  28.938  1.00  0.00     0.131 A 
ATOM     64  C   UNL A   1      41.722  26.994  26.899  1.00  0.00     0.055 A 
ATOM     65  C   UNL A   1      39.916  25.734  27.864  1.00  0.00     0.041 A 
ATOM     66  F   UNL A   1      38.945  26.443  29.874  1.00  0.00    -0.206 F 
ATOM     67  C   UNL A   1      40.827  25.925  26.829  1.00  0.00     0.022 A 
BRANCH  64  68
ATOM     68  S   UNL A   1      42.765  27.403  25.473  1.00  0.00     0.124 S 
ATOM     69  O   UNL A   1      42.738  26.152  24.720  1.00  0.00    -0.237 OA
ATOM     70  O   UNL A   1      42.053  28.526  24.875  1.00  0.00    -0.237 OA
ATOM     71  O   UNL A   1      44.055  27.731  26.077  1.00  0.00    -0.744 OA
ENDBRANCH  64  68
ENDBRANCH  47  61
BRANCH  48  72
ATOM     72  C   UNL A   1      39.829  33.963  36.803  1.00  0.00     0.023 A 
ATOM     73  C   UNL A   1      39.270  33.474  37.995  1.00  0.00     0.031 A 
ATOM     74  C   UNL A   1      40.172  35.326  36.747  1.00  0.00     0.131 A 
ATOM     75  C   UNL A   1      39.026  34.351  39.064  1.00  0.00     0.055 A 
ATOM     76  C   UNL A   1      39.984  36.180  37.835  1.00  0.00     0.041 A 
ATOM     77  F   UNL A   1      40.710  35.847  35.632  1.00  0.00    -0.206 F 
ATOM     78  C   UNL A   1      39.395  35.696  38.998  1.00  0.00     0.022 A 
BRANCH  75  79
ATOM     79  S   UNL A   1      38.129  33.726  40.510  1.00  0.00     0.124 S 
ATOM     80  O   UNL A   1      39.196  33.077  41.263  1.00  0.00    -0.237 OA
ATOM     81  O   UNL A   1      37.591  34.953  41.085  1.00  0.00    -0.237 OA
ATOM     82  O   UNL A   1      37.136  32.824  39.930  1.00  0.00    -0.744 OA
ENDBRANCH  75  79
ENDBRANCH  48  72
BRANCH  60  83
ATOM     83  C   UNL A   1      44.171  28.690  35.383  1.00  0.00     0.023 A 
ATOM     84  C   UNL A   1      43.962  27.634  36.287  1.00  0.00     0.031 A 
ATOM     85  C   UNL A   1      45.483  29.169  35.219  1.00  0.00     0.131 A 
ATOM     86  C   UNL A   1      45.036  27.127  37.032  1.00  0.00     0.055 A 
ATOM     87  C   UNL A   1      46.559  28.616  35.913  1.00  0.00     0.041 A 
ATOM     88  F   UNL A   1      45.742  30.179  34.373  1.00  0.00    -0.206 F 
ATOM     89  C   UNL A   1      46.338  27.597  36.836  1.00  0.00     0.022 A 
BRANCH  86  90
ATOM     90  S   UNL A   1      44.698  25.905  38.329  1.00  0.00     0.124 S 
ATOM     91  O   UNL A   1      46.036  25.400  38.623  1.00  0.00    -0.237 OA
ATOM     92  O   UNL A   1      44.079  26.717  39.371  1.00  0.00    -0.237 OA
ATOM     93  O   UNL A   1      43.805  24.950  37.676  1.00  0.00    -0.744 OA
ENDBRANCH  86  90
ENDBRANCH  60  83
ENDBRANCH  34  35
ENDBRANCH  26  29
ENDBRANCH  24  25
ENDBRANCH  23  24
ENDBRANCH   1  23
TORSDOF 18
ENDMDL
