MODEL 1
REMARK VINA RESULT:     -11.7      0.000      0.000
REMARK SMILES CCC[C@]1(C(=O)NCCCCCCNC(=O)c2ccc(-c3c4nc(c(-c5cc(S(=O)(=O)[O-])ccc5F)c5ccc([nH]5)c(-c5cc(S(=O)(=O)[O-])ccc5F)c5nc(c(-c6cc(S(=O)(=O)[O-])ccc6F)c6ccc3[nH]6)C=C5)C=C4)cc2)CCN(C(=O)N[C@H]2CCOC2)C1
REMARK SMILES IDX 11 1 10 2 9 3 8 4 7 5 5 6 6 7 4 9 80 10 91 11 81 12 82 13
REMARK SMILES IDX 3 14 2 15 1 16 83 17 84 18 85 19 86 21 87 22 90 23 88 24
REMARK SMILES IDX 89 25 12 26 13 27 14 28 15 29 16 31 17 32 18 33 79 34 19 35
REMARK SMILES IDX 78 36 20 37 21 38 22 39 72 40 23 41 77 42 71 43 73 44 24 45
REMARK SMILES IDX 76 46 70 47 69 48 25 50 57 51 37 52 56 53 38 54 41 55 55 56
REMARK SMILES IDX 74 57 39 58 40 59 54 61 75 62 42 63 26 64 27 65 35 66 28 67
REMARK SMILES IDX 34 68 36 69 33 70 29 71 30 72 31 73 32 74 58 75 59 76 67 77
REMARK SMILES IDX 60 78 66 79 68 80 65 81 61 82 62 83 63 84 64 85 43 86 44 87
REMARK SMILES IDX 52 88 45 89 51 90 53 91 50 92 46 93 47 94 48 95 49 96
REMARK H PARENT 7 8 85 20 14 30 73 49 41 60
REMARK Flexibility Score: inf
ROOT
ATOM      1  C   UNL A   1      35.147  23.136  23.486  1.00  0.00     0.002 C 
ENDROOT
BRANCH   1   2
ATOM      2  C   UNL A   1      33.895  22.259  23.566  1.00  0.00     0.002 C 
BRANCH   2   3
ATOM      3  C   UNL A   1      32.699  22.752  22.741  1.00  0.00     0.021 C 
BRANCH   3   4
ATOM      4  C   UNL A   1      32.898  24.131  22.104  1.00  0.00     0.116 C 
BRANCH   4   5
ATOM      5  N   UNL A   1      31.693  24.926  22.248  1.00  0.00    -0.356 N 
ATOM      6  C   UNL A   1      31.232  25.557  23.359  1.00  0.00     0.228 C 
ATOM      7  O   UNL A   1      30.028  25.424  23.591  1.00  0.00    -0.274 OA
ATOM      8  H   UNL A   1      31.140  25.020  21.439  1.00  0.00     0.163 HD
BRANCH   6   9
ATOM      9  C   UNL A   1      32.149  26.323  24.316  1.00  0.00     0.068 C 
ATOM     10  C   UNL A   1      33.207  27.071  23.475  1.00  0.00     0.040 C 
ATOM     11  C   UNL A   1      31.468  27.448  25.136  1.00  0.00     0.138 C 
ATOM     12  C   UNL A   1      33.465  28.341  24.251  1.00  0.00     0.122 C 
ATOM     13  N   UNL A   1      32.174  28.686  24.785  1.00  0.00    -0.324 N 
BRANCH   9  14
ATOM     14  C   UNL A   1      32.892  25.331  25.262  1.00  0.00     0.018 C 
BRANCH  14  15
ATOM     15  C   UNL A   1      32.140  24.851  26.515  1.00  0.00    -0.002 C 
ATOM     16  C   UNL A   1      32.320  23.372  26.838  1.00  0.00     0.004 C 
ENDBRANCH  14  15
ENDBRANCH   9  14
BRANCH  13  17
ATOM     17  C   UNL A   1      31.659  29.886  25.143  1.00  0.00     0.317 C 
ATOM     18  O   UNL A   1      32.106  30.495  26.121  1.00  0.00    -0.249 OA
ATOM     19  N   UNL A   1      30.625  30.475  24.515  1.00  0.00    -0.333 N 
ATOM     20  H   UNL A   1      30.549  31.420  24.778  1.00  0.00     0.165 HD
BRANCH  19  21
ATOM     21  C   UNL A   1      29.580  30.116  23.552  1.00  0.00     0.112 C 
ATOM     22  C   UNL A   1      28.734  31.265  23.050  1.00  0.00     0.056 C 
ATOM     23  C   UNL A   1      30.023  29.340  22.317  1.00  0.00     0.185 C 
ATOM     24  C   UNL A   1      28.495  30.936  21.589  1.00  0.00     0.162 C 
ATOM     25  O   UNL A   1      29.523  30.034  21.164  1.00  0.00    -0.379 OA
ENDBRANCH  19  21
ENDBRANCH  13  17
ENDBRANCH   6   9
ENDBRANCH   4   5
ENDBRANCH   3   4
ENDBRANCH   2   3
ENDBRANCH   1   2
BRANCH   1  26
ATOM     26  C   UNL A   1      36.461  22.402  23.749  1.00  0.00     0.021 C 
BRANCH  26  27
ATOM     27  C   UNL A   1      36.698  22.045  25.210  1.00  0.00     0.116 C 
BRANCH  27  28
ATOM     28  N   UNL A   1      37.518  20.853  25.354  1.00  0.00    -0.352 N 
ATOM     29  C   UNL A   1      38.816  20.763  25.804  1.00  0.00     0.251 C 
ATOM     30  H   UNL A   1      37.092  20.004  25.097  1.00  0.00     0.163 HD
ATOM     31  O   UNL A   1      39.445  19.722  25.688  1.00  0.00    -0.269 OA
BRANCH  29  32
ATOM     32  C   UNL A   1      39.440  21.962  26.406  1.00  0.00     0.039 A 
ATOM     33  C   UNL A   1      40.498  21.807  27.304  1.00  0.00     0.014 A 
ATOM     34  C   UNL A   1      39.006  23.237  26.032  1.00  0.00     0.014 A 
ATOM     35  C   UNL A   1      41.170  22.936  27.778  1.00  0.00     0.010 A 
ATOM     36  C   UNL A   1      39.720  24.354  26.450  1.00  0.00     0.010 A 
ATOM     37  C   UNL A   1      40.811  24.217  27.325  1.00  0.00    -0.014 A 
BRANCH  37  38
ATOM     38  C   UNL A   1      41.534  25.441  27.757  1.00  0.00     0.031 A 
ATOM     39  C   UNL A   1      40.789  26.508  28.510  1.00  0.00     0.074 A 
ATOM     40  C   UNL A   1      42.814  25.637  27.387  1.00  0.00     0.049 A 
ATOM     41  N   UNL A   1      41.159  27.725  28.808  1.00  0.00    -0.248 NA
ATOM     42  C   UNL A   1      39.429  26.163  28.951  1.00  0.00     0.031 C 
ATOM     43  C   UNL A   1      43.639  24.682  26.647  1.00  0.00     0.029 A 
ATOM     44  N   UNL A   1      43.641  26.720  27.564  1.00  0.00    -0.354 N 
ATOM     45  C   UNL A   1      40.069  28.303  29.452  1.00  0.00     0.074 A 
ATOM     46  C   UNL A   1      39.008  27.317  29.445  1.00  0.00     0.031 C 
ATOM     47  C   UNL A   1      44.855  25.216  26.441  1.00  0.00     0.029 A 
ATOM     48  C   UNL A   1      44.878  26.573  26.982  1.00  0.00     0.049 A 
ATOM     49  H   UNL A   1      43.372  27.527  28.062  1.00  0.00     0.167 HD
ATOM     50  C   UNL A   1      39.969  29.535  30.011  1.00  0.00     0.034 A 
ATOM     51  C   UNL A   1      45.904  27.440  26.873  1.00  0.00     0.034 A 
ATOM     52  C   UNL A   1      41.042  30.498  30.018  1.00  0.00     0.049 A 
ATOM     53  C   UNL A   1      45.758  28.822  27.462  1.00  0.00     0.074 A 
ATOM     54  C   UNL A   1      41.066  31.760  30.585  1.00  0.00     0.029 A 
ATOM     55  N   UNL A   1      42.285  30.306  29.427  1.00  0.00    -0.354 N 
ATOM     56  N   UNL A   1      44.726  29.352  28.076  1.00  0.00    -0.248 NA
ATOM     57  C   UNL A   1      46.914  29.721  27.343  1.00  0.00     0.031 C 
ATOM     58  C   UNL A   1      42.295  32.356  30.281  1.00  0.00     0.029 A 
ATOM     59  C   UNL A   1      43.071  31.436  29.593  1.00  0.00     0.049 A 
ATOM     60  H   UNL A   1      42.567  29.488  28.957  1.00  0.00     0.167 HD
ATOM     61  C   UNL A   1      45.126  30.630  28.458  1.00  0.00     0.074 A 
ATOM     62  C   UNL A   1      46.491  30.791  28.002  1.00  0.00     0.031 C 
ATOM     63  C   UNL A   1      44.433  31.580  29.136  1.00  0.00     0.034 A 
BRANCH  50  64
ATOM     64  C   UNL A   1      38.642  29.909  30.628  1.00  0.00     0.023 A 
ATOM     65  C   UNL A   1      37.656  30.595  29.898  1.00  0.00     0.031 A 
ATOM     66  C   UNL A   1      38.375  29.614  31.977  1.00  0.00     0.131 A 
ATOM     67  C   UNL A   1      36.490  31.040  30.541  1.00  0.00     0.055 A 
ATOM     68  C   UNL A   1      37.173  29.980  32.587  1.00  0.00     0.041 A 
ATOM     69  F   UNL A   1      39.285  28.979  32.733  1.00  0.00    -0.206 F 
ATOM     70  C   UNL A   1      36.230  30.713  31.873  1.00  0.00     0.022 A 
BRANCH  67  71
ATOM     71  S   UNL A   1      35.402  32.188  29.655  1.00  0.00     0.124 S 
ATOM     72  O   UNL A   1      36.337  33.244  29.274  1.00  0.00    -0.237 OA
ATOM     73  O   UNL A   1      34.891  31.364  28.567  1.00  0.00    -0.237 OA
ATOM     74  O   UNL A   1      34.417  32.573  30.663  1.00  0.00    -0.744 OA
ENDBRANCH  67  71
ENDBRANCH  50  64
BRANCH  51  75
ATOM     75  C   UNL A   1      47.156  27.046  26.164  1.00  0.00     0.023 A 
ATOM     76  C   UNL A   1      48.177  26.356  26.837  1.00  0.00     0.031 A 
ATOM     77  C   UNL A   1      47.369  27.387  24.816  1.00  0.00     0.131 A 
ATOM     78  C   UNL A   1      49.383  26.072  26.176  1.00  0.00     0.055 A 
ATOM     79  C   UNL A   1      48.548  27.053  24.147  1.00  0.00     0.041 A 
ATOM     80  F   UNL A   1      46.424  28.045  24.124  1.00  0.00    -0.206 F 
ATOM     81  C   UNL A   1      49.569  26.402  24.833  1.00  0.00     0.022 A 
BRANCH  78  82
ATOM     82  S   UNL A   1      50.739  25.337  27.129  1.00  0.00     0.124 S 
ATOM     83  O   UNL A   1      50.055  24.258  27.834  1.00  0.00    -0.237 OA
ATOM     84  O   UNL A   1      51.664  24.931  26.078  1.00  0.00    -0.237 OA
ATOM     85  O   UNL A   1      51.199  26.440  27.971  1.00  0.00    -0.744 OA
ENDBRANCH  78  82
ENDBRANCH  51  75
BRANCH  63  86
ATOM     86  C   UNL A   1      45.164  32.851  29.489  1.00  0.00     0.023 A 
ATOM     87  C   UNL A   1      45.140  33.983  28.658  1.00  0.00     0.031 A 
ATOM     88  C   UNL A   1      45.883  32.929  30.697  1.00  0.00     0.131 A 
ATOM     89  C   UNL A   1      45.855  35.134  29.026  1.00  0.00     0.055 A 
ATOM     90  C   UNL A   1      46.546  34.093  31.083  1.00  0.00     0.041 A 
ATOM     91  F   UNL A   1      45.940  31.875  31.527  1.00  0.00    -0.206 F 
ATOM     92  C   UNL A   1      46.543  35.201  30.241  1.00  0.00     0.022 A 
BRANCH  89  93
ATOM     93  S   UNL A   1      45.928  36.526  27.866  1.00  0.00     0.124 S 
ATOM     94  O   UNL A   1      44.595  36.495  27.271  1.00  0.00    -0.237 OA
ATOM     95  O   UNL A   1      46.206  37.654  28.748  1.00  0.00    -0.237 OA
ATOM     96  O   UNL A   1      47.019  36.163  26.963  1.00  0.00    -0.744 OA
ENDBRANCH  89  93
ENDBRANCH  63  86
ENDBRANCH  37  38
ENDBRANCH  29  32
ENDBRANCH  27  28
ENDBRANCH  26  27
ENDBRANCH   1  26
TORSDOF 20
ENDMDL
MODEL 2
REMARK VINA RESULT:     -11.5      1.899      2.128
REMARK SMILES CCC[C@]1(C(=O)NCCCCCCNC(=O)c2ccc(-c3c4nc(c(-c5cc(S(=O)(=O)[O-])ccc5F)c5ccc([nH]5)c(-c5cc(S(=O)(=O)[O-])ccc5F)c5nc(c(-c6cc(S(=O)(=O)[O-])ccc6F)c6ccc3[nH]6)C=C5)C=C4)cc2)CCN(C(=O)N[C@H]2CCOC2)C1
REMARK SMILES IDX 11 1 10 2 9 3 8 4 7 5 5 6 6 7 4 9 80 10 91 11 81 12 82 13
REMARK SMILES IDX 3 14 2 15 1 16 83 17 84 18 85 19 86 21 87 22 90 23 88 24
REMARK SMILES IDX 89 25 12 26 13 27 14 28 15 29 16 31 17 32 18 33 79 34 19 35
REMARK SMILES IDX 78 36 20 37 21 38 22 39 72 40 23 41 77 42 71 43 73 44 24 45
REMARK SMILES IDX 76 46 70 47 69 48 25 50 57 51 37 52 56 53 38 54 41 55 55 56
REMARK SMILES IDX 74 57 39 58 40 59 54 61 75 62 42 63 26 64 27 65 35 66 28 67
REMARK SMILES IDX 34 68 36 69 33 70 29 71 30 72 31 73 32 74 58 75 59 76 67 77
REMARK SMILES IDX 60 78 66 79 68 80 65 81 61 82 62 83 63 84 64 85 43 86 44 87
REMARK SMILES IDX 52 88 45 89 51 90 53 91 50 92 46 93 47 94 48 95 49 96
REMARK H PARENT 7 8 85 20 14 30 73 49 41 60
REMARK Flexibility Score: inf
ROOT
ATOM      1  C   UNL A   1      35.009  23.448  23.794  1.00  0.00     0.002 C 
ENDROOT
BRANCH   1   2
ATOM      2  C   UNL A   1      33.883  22.457  23.493  1.00  0.00     0.002 C 
BRANCH   2   3
ATOM      3  C   UNL A   1      32.866  22.925  22.443  1.00  0.00     0.021 C 
BRANCH   3   4
ATOM      4  C   UNL A   1      33.000  24.398  22.047  1.00  0.00     0.116 C 
BRANCH   4   5
ATOM      5  N   UNL A   1      31.730  25.079  22.216  1.00  0.00    -0.356 N 
ATOM      6  C   UNL A   1      31.215  25.624  23.348  1.00  0.00     0.228 C 
ATOM      7  O   UNL A   1      30.026  25.377  23.569  1.00  0.00    -0.274 OA
ATOM      8  H   UNL A   1      31.172  25.154  21.409  1.00  0.00     0.163 HD
BRANCH   6   9
ATOM      9  C   UNL A   1      32.060  26.430  24.337  1.00  0.00     0.068 C 
ATOM     10  C   UNL A   1      33.142  27.191  23.539  1.00  0.00     0.040 C 
ATOM     11  C   UNL A   1      31.308  27.551  25.099  1.00  0.00     0.138 C 
ATOM     12  C   UNL A   1      33.327  28.481  24.304  1.00  0.00     0.122 C 
ATOM     13  N   UNL A   1      32.001  28.801  24.763  1.00  0.00    -0.324 N 
BRANCH   9  14
ATOM     14  C   UNL A   1      32.776  25.474  25.340  1.00  0.00     0.018 C 
BRANCH  14  15
ATOM     15  C   UNL A   1      31.940  24.917  26.505  1.00  0.00    -0.002 C 
ATOM     16  C   UNL A   1      31.358  23.529  26.263  1.00  0.00     0.004 C 
ENDBRANCH  14  15
ENDBRANCH   9  14
BRANCH  13  17
ATOM     17  C   UNL A   1      31.438  29.993  25.070  1.00  0.00     0.317 C 
ATOM     18  O   UNL A   1      31.836  30.644  26.043  1.00  0.00    -0.249 OA
ATOM     19  N   UNL A   1      30.405  30.530  24.396  1.00  0.00    -0.333 N 
ATOM     20  H   UNL A   1      30.290  31.479  24.629  1.00  0.00     0.165 HD
BRANCH  19  21
ATOM     21  C   UNL A   1      29.401  30.110  23.414  1.00  0.00     0.112 C 
ATOM     22  C   UNL A   1      28.284  31.099  23.160  1.00  0.00     0.056 C 
ATOM     23  C   UNL A   1      29.916  29.687  22.044  1.00  0.00     0.185 C 
ATOM     24  C   UNL A   1      28.021  30.983  21.671  1.00  0.00     0.162 C 
ATOM     25  O   UNL A   1      29.192  30.434  21.056  1.00  0.00    -0.379 OA
ENDBRANCH  19  21
ENDBRANCH  13  17
ENDBRANCH   6   9
ENDBRANCH   4   5
ENDBRANCH   3   4
ENDBRANCH   2   3
ENDBRANCH   1   2
BRANCH   1  26
ATOM     26  C   UNL A   1      36.382  22.812  24.007  1.00  0.00     0.021 C 
BRANCH  26  27
ATOM     27  C   UNL A   1      36.663  22.393  25.444  1.00  0.00     0.116 C 
BRANCH  27  28
ATOM     28  N   UNL A   1      37.535  21.232  25.513  1.00  0.00    -0.352 N 
ATOM     29  C   UNL A   1      38.860  21.185  25.887  1.00  0.00     0.251 C 
ATOM     30  H   UNL A   1      37.128  20.372  25.260  1.00  0.00     0.163 HD
ATOM     31  O   UNL A   1      39.520  20.172  25.711  1.00  0.00    -0.269 OA
BRANCH  29  32
ATOM     32  C   UNL A   1      39.470  22.394  26.482  1.00  0.00     0.039 A 
ATOM     33  C   UNL A   1      40.454  22.254  27.462  1.00  0.00     0.014 A 
ATOM     34  C   UNL A   1      39.100  23.661  26.022  1.00  0.00     0.014 A 
ATOM     35  C   UNL A   1      41.120  23.387  27.935  1.00  0.00     0.010 A 
ATOM     36  C   UNL A   1      39.811  24.778  26.443  1.00  0.00     0.010 A 
ATOM     37  C   UNL A   1      40.830  24.654  27.402  1.00  0.00    -0.014 A 
BRANCH  37  38
ATOM     38  C   UNL A   1      41.553  25.879  27.833  1.00  0.00     0.031 A 
ATOM     39  C   UNL A   1      40.811  26.939  28.599  1.00  0.00     0.074 A 
ATOM     40  C   UNL A   1      42.828  26.082  27.452  1.00  0.00     0.049 A 
ATOM     41  N   UNL A   1      41.179  28.156  28.900  1.00  0.00    -0.248 NA
ATOM     42  C   UNL A   1      39.457  26.586  29.051  1.00  0.00     0.031 C 
ATOM     43  C   UNL A   1      43.650  25.134  26.699  1.00  0.00     0.029 A 
ATOM     44  N   UNL A   1      43.653  27.167  27.627  1.00  0.00    -0.354 N 
ATOM     45  C   UNL A   1      40.093  28.726  29.557  1.00  0.00     0.074 A 
ATOM     46  C   UNL A   1      39.036  27.736  29.555  1.00  0.00     0.031 C 
ATOM     47  C   UNL A   1      44.862  25.674  26.484  1.00  0.00     0.029 A 
ATOM     48  C   UNL A   1      44.885  27.028  27.032  1.00  0.00     0.049 A 
ATOM     49  H   UNL A   1      43.386  27.970  28.131  1.00  0.00     0.167 HD
ATOM     50  C   UNL A   1      39.994  29.955  30.124  1.00  0.00     0.034 A 
ATOM     51  C   UNL A   1      45.907  27.900  26.917  1.00  0.00     0.034 A 
ATOM     52  C   UNL A   1      41.063  30.922  30.125  1.00  0.00     0.049 A 
ATOM     53  C   UNL A   1      45.760  29.278  27.515  1.00  0.00     0.074 A 
ATOM     54  C   UNL A   1      41.087  32.181  30.699  1.00  0.00     0.029 A 
ATOM     55  N   UNL A   1      42.302  30.739  29.522  1.00  0.00    -0.354 N 
ATOM     56  N   UNL A   1      44.733  29.801  28.142  1.00  0.00    -0.248 NA
ATOM     57  C   UNL A   1      46.912  30.183  27.390  1.00  0.00     0.031 C 
ATOM     58  C   UNL A   1      42.311  32.783  30.386  1.00  0.00     0.029 A 
ATOM     59  C   UNL A   1      43.085  31.871  29.686  1.00  0.00     0.049 A 
ATOM     60  H   UNL A   1      42.582  29.924  29.045  1.00  0.00     0.167 HD
ATOM     61  C   UNL A   1      45.132  31.078  28.527  1.00  0.00     0.074 A 
ATOM     62  C   UNL A   1      46.492  31.248  28.058  1.00  0.00     0.031 C 
ATOM     63  C   UNL A   1      44.441  32.022  29.217  1.00  0.00     0.034 A 
BRANCH  50  64
ATOM     64  C   UNL A   1      38.672  30.321  30.755  1.00  0.00     0.023 A 
ATOM     65  C   UNL A   1      37.707  31.074  30.065  1.00  0.00     0.031 A 
ATOM     66  C   UNL A   1      38.387  29.947  32.081  1.00  0.00     0.131 A 
ATOM     67  C   UNL A   1      36.547  31.505  30.727  1.00  0.00     0.055 A 
ATOM     68  C   UNL A   1      37.190  30.303  32.707  1.00  0.00     0.041 A 
ATOM     69  F   UNL A   1      39.277  29.245  32.801  1.00  0.00    -0.206 F 
ATOM     70  C   UNL A   1      36.270  31.101  32.035  1.00  0.00     0.022 A 
BRANCH  67  71
ATOM     71  S   UNL A   1      35.492  32.733  29.909  1.00  0.00     0.124 S 
ATOM     72  O   UNL A   1      36.152  33.982  30.283  1.00  0.00    -0.237 OA
ATOM     73  O   UNL A   1      35.593  32.351  28.506  1.00  0.00    -0.237 OA
ATOM     74  O   UNL A   1      34.183  32.521  30.523  1.00  0.00    -0.744 OA
ENDBRANCH  67  71
ENDBRANCH  50  64
BRANCH  51  75
ATOM     75  C   UNL A   1      47.153  27.514  26.195  1.00  0.00     0.023 A 
ATOM     76  C   UNL A   1      47.307  27.791  24.827  1.00  0.00     0.031 A 
ATOM     77  C   UNL A   1      48.193  26.828  26.849  1.00  0.00     0.131 A 
ATOM     78  C   UNL A   1      48.450  27.342  24.147  1.00  0.00     0.055 A 
ATOM     79  C   UNL A   1      49.352  26.433  26.180  1.00  0.00     0.041 A 
ATOM     80  F   UNL A   1      48.099  26.540  28.158  1.00  0.00    -0.206 F 
ATOM     81  C   UNL A   1      49.479  26.679  24.816  1.00  0.00     0.022 A 
BRANCH  78  82
ATOM     82  S   UNL A   1      48.530  27.566  22.348  1.00  0.00     0.124 S 
ATOM     83  O   UNL A   1      47.301  28.309  22.088  1.00  0.00    -0.237 OA
ATOM     84  O   UNL A   1      49.775  28.308  22.190  1.00  0.00    -0.237 OA
ATOM     85  O   UNL A   1      48.552  26.197  21.837  1.00  0.00    -0.744 OA
ENDBRANCH  78  82
ENDBRANCH  51  75
BRANCH  63  86
ATOM     86  C   UNL A   1      45.171  33.294  29.569  1.00  0.00     0.023 A 
ATOM     87  C   UNL A   1      45.913  33.427  30.755  1.00  0.00     0.031 A 
ATOM     88  C   UNL A   1      45.134  34.387  28.684  1.00  0.00     0.131 A 
ATOM     89  C   UNL A   1      46.556  34.640  31.042  1.00  0.00     0.055 A 
ATOM     90  C   UNL A   1      45.819  35.572  28.949  1.00  0.00     0.041 A 
ATOM     91  F   UNL A   1      44.438  34.314  27.537  1.00  0.00    -0.206 F 
ATOM     92  C   UNL A   1      46.528  35.707  30.139  1.00  0.00     0.022 A 
BRANCH  89  93
ATOM     93  S   UNL A   1      47.382  34.833  32.646  1.00  0.00     0.124 S 
ATOM     94  O   UNL A   1      46.869  36.122  33.098  1.00  0.00    -0.237 OA
ATOM     95  O   UNL A   1      46.911  33.665  33.383  1.00  0.00    -0.237 OA
ATOM     96  O   UNL A   1      48.803  34.817  32.304  1.00  0.00    -0.744 OA
ENDBRANCH  89  93
ENDBRANCH  63  86
ENDBRANCH  37  38
ENDBRANCH  29  32
ENDBRANCH  27  28
ENDBRANCH  26  27
ENDBRANCH   1  26
TORSDOF 20
ENDMDL
MODEL 3
REMARK VINA RESULT:     -11.4      4.271      8.231
REMARK SMILES CCC[C@]1(C(=O)NCCCCCCNC(=O)c2ccc(-c3c4nc(c(-c5cc(S(=O)(=O)[O-])ccc5F)c5ccc([nH]5)c(-c5cc(S(=O)(=O)[O-])ccc5F)c5nc(c(-c6cc(S(=O)(=O)[O-])ccc6F)c6ccc3[nH]6)C=C5)C=C4)cc2)CCN(C(=O)N[C@H]2CCOC2)C1
REMARK SMILES IDX 11 1 10 2 9 3 8 4 7 5 5 6 6 7 4 9 80 10 91 11 81 12 82 13
REMARK SMILES IDX 3 14 2 15 1 16 83 17 84 18 85 19 86 21 87 22 90 23 88 24
REMARK SMILES IDX 89 25 12 26 13 27 14 28 15 29 16 31 17 32 18 33 79 34 19 35
REMARK SMILES IDX 78 36 20 37 21 38 22 39 72 40 23 41 77 42 71 43 73 44 24 45
REMARK SMILES IDX 76 46 70 47 69 48 25 50 57 51 37 52 56 53 38 54 41 55 55 56
REMARK SMILES IDX 74 57 39 58 40 59 54 61 75 62 42 63 26 64 27 65 35 66 28 67
REMARK SMILES IDX 34 68 36 69 33 70 29 71 30 72 31 73 32 74 58 75 59 76 67 77
REMARK SMILES IDX 60 78 66 79 68 80 65 81 61 82 62 83 63 84 64 85 43 86 44 87
REMARK SMILES IDX 52 88 45 89 51 90 53 91 50 92 46 93 47 94 48 95 49 96
REMARK H PARENT 7 8 85 20 14 30 73 49 41 60
REMARK Flexibility Score: inf
ROOT
ATOM      1  C   UNL A   1      31.524  27.978  25.825  1.00  0.00     0.002 C 
ENDROOT
BRANCH   1   2
ATOM      2  C   UNL A   1      30.707  27.501  24.621  1.00  0.00     0.002 C 
BRANCH   2   3
ATOM      3  C   UNL A   1      29.783  26.307  24.893  1.00  0.00     0.021 C 
BRANCH   3   4
ATOM      4  C   UNL A   1      30.344  25.287  25.889  1.00  0.00     0.116 C 
BRANCH   4   5
ATOM      5  N   UNL A   1      30.446  23.982  25.264  1.00  0.00    -0.356 N 
ATOM      6  C   UNL A   1      31.564  23.345  24.830  1.00  0.00     0.228 C 
ATOM      7  O   UNL A   1      31.481  22.815  23.718  1.00  0.00    -0.274 OA
ATOM      8  H   UNL A   1      29.598  23.498  25.138  1.00  0.00     0.163 HD
BRANCH   6   9
ATOM      9  C   UNL A   1      32.875  23.343  25.619  1.00  0.00     0.068 C 
ATOM     10  C   UNL A   1      32.665  22.503  26.899  1.00  0.00     0.040 C 
ATOM     11  C   UNL A   1      34.075  22.655  24.921  1.00  0.00     0.138 C 
ATOM     12  C   UNL A   1      34.008  21.854  27.139  1.00  0.00     0.122 C 
ATOM     13  N   UNL A   1      34.494  21.570  25.816  1.00  0.00    -0.324 N 
BRANCH   9  14
ATOM     14  C   UNL A   1      33.251  24.795  26.046  1.00  0.00     0.018 C 
BRANCH  14  15
ATOM     15  C   UNL A   1      34.321  25.521  25.215  1.00  0.00    -0.002 C 
ATOM     16  C   UNL A   1      33.857  25.969  23.833  1.00  0.00     0.004 C 
ENDBRANCH  14  15
ENDBRANCH   9  14
BRANCH  13  17
ATOM     17  C   UNL A   1      35.359  20.625  25.377  1.00  0.00     0.317 C 
ATOM     18  O   UNL A   1      36.566  20.874  25.280  1.00  0.00    -0.249 OA
ATOM     19  N   UNL A   1      34.986  19.394  24.982  1.00  0.00    -0.333 N 
ATOM     20  H   UNL A   1      35.766  18.797  24.914  1.00  0.00     0.165 HD
BRANCH  19  21
ATOM     21  C   UNL A   1      33.755  18.685  24.622  1.00  0.00     0.112 C 
ATOM     22  C   UNL A   1      32.804  19.446  23.724  1.00  0.00     0.056 C 
ATOM     23  C   UNL A   1      33.916  17.303  24.000  1.00  0.00     0.185 C 
ATOM     24  C   UNL A   1      32.244  18.384  22.796  1.00  0.00     0.162 C 
ATOM     25  O   UNL A   1      33.160  17.284  22.780  1.00  0.00    -0.379 OA
ENDBRANCH  19  21
ENDBRANCH  13  17
ENDBRANCH   6   9
ENDBRANCH   4   5
ENDBRANCH   3   4
ENDBRANCH   2   3
ENDBRANCH   1   2
BRANCH   1  26
ATOM     26  C   UNL A   1      32.454  29.157  25.540  1.00  0.00     0.021 C 
BRANCH  26  27
ATOM     27  C   UNL A   1      33.521  29.384  26.603  1.00  0.00     0.116 C 
BRANCH  27  28
ATOM     28  N   UNL A   1      33.551  30.764  27.059  1.00  0.00    -0.352 N 
ATOM     29  C   UNL A   1      34.438  31.352  27.932  1.00  0.00     0.251 C 
ATOM     30  H   UNL A   1      32.849  31.352  26.698  1.00  0.00     0.163 HD
ATOM     31  O   UNL A   1      34.226  32.471  28.376  1.00  0.00    -0.269 OA
BRANCH  29  32
ATOM     32  C   UNL A   1      35.638  30.589  28.341  1.00  0.00     0.039 A 
ATOM     33  C   UNL A   1      36.825  30.742  27.621  1.00  0.00     0.014 A 
ATOM     34  C   UNL A   1      35.592  29.769  29.471  1.00  0.00     0.014 A 
ATOM     35  C   UNL A   1      37.990  30.121  28.078  1.00  0.00     0.010 A 
ATOM     36  C   UNL A   1      36.766  29.210  29.961  1.00  0.00     0.010 A 
ATOM     37  C   UNL A   1      37.979  29.381  29.272  1.00  0.00    -0.014 A 
BRANCH  37  38
ATOM     38  C   UNL A   1      39.206  28.752  29.825  1.00  0.00     0.031 A 
ATOM     39  C   UNL A   1      39.840  29.336  31.058  1.00  0.00     0.074 A 
ATOM     40  C   UNL A   1      39.801  27.736  29.171  1.00  0.00     0.049 A 
ATOM     41  N   UNL A   1      41.003  29.079  31.594  1.00  0.00    -0.248 NA
ATOM     42  C   UNL A   1      39.068  30.377  31.754  1.00  0.00     0.031 C 
ATOM     43  C   UNL A   1      39.289  27.091  27.961  1.00  0.00     0.029 A 
ATOM     44  N   UNL A   1      40.982  27.081  29.420  1.00  0.00    -0.354 N 
ATOM     45  C   UNL A   1      41.117  29.943  32.679  1.00  0.00     0.074 A 
ATOM     46  C   UNL A   1      39.927  30.769  32.683  1.00  0.00     0.031 C 
ATOM     47  C   UNL A   1      40.145  26.129  27.579  1.00  0.00     0.029 A 
ATOM     48  C   UNL A   1      41.294  26.126  28.480  1.00  0.00     0.049 A 
ATOM     49  H   UNL A   1      41.553  27.276  30.200  1.00  0.00     0.167 HD
ATOM     50  C   UNL A   1      42.114  30.028  33.595  1.00  0.00     0.034 A 
ATOM     51  C   UNL A   1      42.393  25.356  28.345  1.00  0.00     0.034 A 
ATOM     52  C   UNL A   1      43.286  29.188  33.580  1.00  0.00     0.049 A 
ATOM     53  C   UNL A   1      43.511  25.497  29.348  1.00  0.00     0.074 A 
ATOM     54  C   UNL A   1      44.340  29.161  34.476  1.00  0.00     0.029 A 
ATOM     55  N   UNL A   1      43.560  28.224  32.617  1.00  0.00    -0.354 N 
ATOM     56  N   UNL A   1      43.602  26.310  30.375  1.00  0.00    -0.248 NA
ATOM     57  C   UNL A   1      44.674  24.615  29.176  1.00  0.00     0.031 C 
ATOM     58  C   UNL A   1      45.281  28.231  34.019  1.00  0.00     0.029 A 
ATOM     59  C   UNL A   1      44.778  27.618  32.883  1.00  0.00     0.049 A 
ATOM     60  H   UNL A   1      42.976  28.005  31.855  1.00  0.00     0.167 HD
ATOM     61  C   UNL A   1      44.810  26.005  30.996  1.00  0.00     0.074 A 
ATOM     62  C   UNL A   1      45.414  24.936  30.227  1.00  0.00     0.031 C 
ATOM     63  C   UNL A   1      45.365  26.549  32.109  1.00  0.00     0.034 A 
BRANCH  50  64
ATOM     64  C   UNL A   1      41.984  31.087  34.663  1.00  0.00     0.023 A 
ATOM     65  C   UNL A   1      42.458  32.396  34.466  1.00  0.00     0.031 A 
ATOM     66  C   UNL A   1      41.415  30.776  35.911  1.00  0.00     0.131 A 
ATOM     67  C   UNL A   1      42.437  33.316  35.526  1.00  0.00     0.055 A 
ATOM     68  C   UNL A   1      41.315  31.723  36.933  1.00  0.00     0.041 A 
ATOM     69  F   UNL A   1      40.963  29.538  36.168  1.00  0.00    -0.206 F 
ATOM     70  C   UNL A   1      41.844  32.997  36.749  1.00  0.00     0.022 A 
BRANCH  67  71
ATOM     71  S   UNL A   1      43.343  34.875  35.332  1.00  0.00     0.124 S 
ATOM     72  O   UNL A   1      43.151  35.491  36.643  1.00  0.00    -0.237 OA
ATOM     73  O   UNL A   1      44.695  34.420  35.032  1.00  0.00    -0.237 OA
ATOM     74  O   UNL A   1      42.649  35.540  34.232  1.00  0.00    -0.744 OA
ENDBRANCH  67  71
ENDBRANCH  50  64
BRANCH  51  75
ATOM     75  C   UNL A   1      42.507  24.395  27.210  1.00  0.00     0.023 A 
ATOM     76  C   UNL A   1      41.903  23.130  27.276  1.00  0.00     0.031 A 
ATOM     77  C   UNL A   1      43.255  24.710  26.061  1.00  0.00     0.131 A 
ATOM     78  C   UNL A   1      42.096  22.207  26.235  1.00  0.00     0.055 A 
ATOM     79  C   UNL A   1      43.397  23.809  25.004  1.00  0.00     0.041 A 
ATOM     80  F   UNL A   1      43.852  25.908  25.945  1.00  0.00    -0.206 F 
ATOM     81  C   UNL A   1      42.826  22.544  25.093  1.00  0.00     0.022 A 
BRANCH  78  82
ATOM     82  S   UNL A   1      41.446  20.526  26.436  1.00  0.00     0.124 S 
ATOM     83  O   UNL A   1      42.174  19.802  25.399  1.00  0.00    -0.237 OA
ATOM     84  O   UNL A   1      41.816  20.221  27.813  1.00  0.00    -0.237 OA
ATOM     85  O   UNL A   1      40.013  20.686  26.198  1.00  0.00    -0.744 OA
ENDBRANCH  78  82
ENDBRANCH  51  75
BRANCH  63  86
ATOM     86  C   UNL A   1      46.656  25.949  32.604  1.00  0.00     0.023 A 
ATOM     87  C   UNL A   1      46.685  24.912  33.551  1.00  0.00     0.031 A 
ATOM     88  C   UNL A   1      47.883  26.417  32.095  1.00  0.00     0.131 A 
ATOM     89  C   UNL A   1      47.917  24.404  33.991  1.00  0.00     0.055 A 
ATOM     90  C   UNL A   1      49.101  25.871  32.496  1.00  0.00     0.041 A 
ATOM     91  F   UNL A   1      47.913  27.408  31.189  1.00  0.00    -0.206 F 
ATOM     92  C   UNL A   1      49.124  24.865  33.456  1.00  0.00     0.022 A 
BRANCH  89  93
ATOM     93  S   UNL A   1      47.928  23.171  35.322  1.00  0.00     0.124 S 
ATOM     94  O   UNL A   1      46.508  23.052  35.637  1.00  0.00    -0.237 OA
ATOM     95  O   UNL A   1      48.536  22.014  34.672  1.00  0.00    -0.237 OA
ATOM     96  O   UNL A   1      48.744  23.795  36.362  1.00  0.00    -0.744 OA
ENDBRANCH  89  93
ENDBRANCH  63  86
ENDBRANCH  37  38
ENDBRANCH  29  32
ENDBRANCH  27  28
ENDBRANCH  26  27
ENDBRANCH   1  26
TORSDOF 20
ENDMDL
