MODEL 1
REMARK VINA RESULT:     -10.8      0.000      0.000
REMARK SMILES Cc1c[nH]c(C[N@@H+](C)[C@@H](C(=O)NCCCCCCNC(=O)c2ccc(-c3c4nc(c(-c5cc(S(=O)(=O)[O-])ccc5F)c5ccc([nH]5)c(-c5cc(S(=O)(=O)[O-])ccc5F)c5nc(c(-c6cc(S(=O)(=O)[O-])ccc6F)c6ccc3[nH]6)C=C5)C=C4)cc2)c2ccc(NC(=O)N3CCCC3)cc2)n1
REMARK SMILES IDX 15 1 14 2 13 3 12 4 10 5 11 6 9 8 7 9 8 10 6 12 5 13 1 14
REMARK SMILES IDX 2 15 3 16 99 17 4 18 85 20 86 21 98 22 87 23 97 24 88 25
REMARK SMILES IDX 89 26 90 27 91 29 92 30 93 31 96 32 94 33 95 34 16 35 17 36
REMARK SMILES IDX 18 37 19 38 20 39 21 41 22 42 23 43 84 44 24 45 83 46 25 47
REMARK SMILES IDX 26 48 27 49 77 50 28 51 82 52 76 53 78 54 29 55 81 56 75 57
REMARK SMILES IDX 74 58 30 60 62 61 42 62 61 63 43 64 46 65 60 66 79 67 44 68
REMARK SMILES IDX 45 69 59 71 80 72 47 73 31 74 32 75 40 76 33 77 39 78 41 79
REMARK SMILES IDX 38 80 34 81 35 82 36 83 37 84 63 85 64 86 72 87 65 88 71 89
REMARK SMILES IDX 73 90 70 91 66 92 67 93 68 94 69 95 48 96 49 97 57 98 50 99
REMARK SMILES IDX 56 100 58 101 55 102 51 103 52 104 53 105 54 106
REMARK H PARENT 12 7 7 11 4 19 89 28 19 40 78 59 46 70
REMARK Flexibility Score: inf
ROOT
ATOM      1  C   UNL A   1      35.127  31.603  28.369  1.00  0.00     0.002 C 
ENDROOT
BRANCH   1   2
ATOM      2  C   UNL A   1      34.416  30.830  27.254  1.00  0.00     0.021 C 
BRANCH   2   3
ATOM      3  C   UNL A   1      34.751  29.336  27.232  1.00  0.00     0.116 C 
BRANCH   3   4
ATOM      4  N   UNL A   1      33.589  28.587  27.656  1.00  0.00    -0.351 N 
ATOM      5  C   UNL A   1      32.526  28.197  26.890  1.00  0.00     0.283 C 
ATOM      6  O   UNL A   1      31.442  28.066  27.473  1.00  0.00    -0.268 OA
ATOM      7  H   UNL A   1      33.560  28.327  28.605  1.00  0.00     0.163 HD
BRANCH   5   8
ATOM      8  C   UNL A   1      32.725  27.884  25.368  1.00  0.00     0.305 C 
BRANCH   8   9
ATOM      9  N   UNL A   1      31.503  28.197  24.575  1.00  0.00    -0.317 N 
ATOM     10  C   UNL A   1      30.537  27.121  24.462  1.00  0.00     0.334 C 
ATOM     11  H   UNL A   1      31.091  28.895  25.194  1.00  0.00     0.349 HD
BRANCH   9  12
ATOM     12  C   UNL A   1      31.679  28.912  23.302  1.00  0.00     0.339 C 
BRANCH  12  13
ATOM     13  C   UNL A   1      30.476  29.707  22.901  1.00  0.00     0.161 A 
ATOM     14  C   UNL A   1      27.536  31.609  23.489  1.00  0.00     0.068 C 
ATOM     15  C   UNL A   1      28.661  30.862  22.890  1.00  0.00     0.056 A 
ATOM     16  C   UNL A   1      29.096  30.830  21.584  1.00  0.00     0.107 A 
ATOM     17  N   UNL A   1      29.482  30.096  23.679  1.00  0.00    -0.233 NA
ATOM     18  N   UNL A   1      30.269  30.126  21.612  1.00  0.00    -0.344 N 
ATOM     19  H   UNL A   1      30.860  29.952  20.843  1.00  0.00     0.167 HD
ENDBRANCH  12  13
ENDBRANCH   9  12
ENDBRANCH   8   9
BRANCH   8  20
ATOM     20  C   UNL A   1      33.203  26.437  25.143  1.00  0.00     0.019 A 
ATOM     21  C   UNL A   1      33.789  26.024  23.940  1.00  0.00     0.012 A 
ATOM     22  C   UNL A   1      33.085  25.480  26.161  1.00  0.00     0.012 A 
ATOM     23  C   UNL A   1      34.489  24.820  23.873  1.00  0.00     0.027 A 
ATOM     24  C   UNL A   1      33.805  24.283  26.100  1.00  0.00     0.027 A 
ATOM     25  C   UNL A   1      34.635  24.033  25.010  1.00  0.00     0.042 A 
BRANCH  25  26
ATOM     26  N   UNL A   1      35.606  23.024  25.130  1.00  0.00    -0.308 N 
ATOM     27  C   UNL A   1      35.479  21.672  25.234  1.00  0.00     0.321 C 
ATOM     28  H   UNL A   1      36.535  23.350  25.140  1.00  0.00     0.171 HD
ATOM     29  O   UNL A   1      36.400  21.030  25.746  1.00  0.00    -0.248 OA
ATOM     30  N   UNL A   1      34.353  21.049  24.772  1.00  0.00    -0.325 N 
ATOM     31  C   UNL A   1      33.657  21.294  23.522  1.00  0.00     0.121 C 
ATOM     32  C   UNL A   1      33.914  19.791  25.327  1.00  0.00     0.121 C 
ATOM     33  C   UNL A   1      32.274  20.729  23.783  1.00  0.00     0.023 C 
ATOM     34  C   UNL A   1      32.531  19.549  24.723  1.00  0.00     0.023 C 
ENDBRANCH  25  26
ENDBRANCH   8  20
ENDBRANCH   5   8
ENDBRANCH   3   4
ENDBRANCH   2   3
ENDBRANCH   1   2
BRANCH   1  35
ATOM     35  C   UNL A   1      35.728  32.941  27.931  1.00  0.00     0.002 C 
BRANCH  35  36
ATOM     36  C   UNL A   1      34.767  34.130  28.014  1.00  0.00     0.021 C 
BRANCH  36  37
ATOM     37  C   UNL A   1      33.425  33.807  28.662  1.00  0.00     0.116 C 
BRANCH  37  38
ATOM     38  N   UNL A   1      33.081  34.773  29.692  1.00  0.00    -0.352 N 
ATOM     39  C   UNL A   1      33.568  34.880  30.968  1.00  0.00     0.251 C 
ATOM     40  H   UNL A   1      32.407  35.443  29.437  1.00  0.00     0.163 HD
ATOM     41  O   UNL A   1      32.981  35.587  31.790  1.00  0.00    -0.269 OA
BRANCH  39  42
ATOM     42  C   UNL A   1      34.782  34.134  31.355  1.00  0.00     0.039 A 
ATOM     43  C   UNL A   1      34.654  32.850  31.884  1.00  0.00     0.014 A 
ATOM     44  C   UNL A   1      36.048  34.708  31.190  1.00  0.00     0.014 A 
ATOM     45  C   UNL A   1      35.801  32.117  32.197  1.00  0.00     0.010 A 
ATOM     46  C   UNL A   1      37.189  33.947  31.430  1.00  0.00     0.010 A 
ATOM     47  C   UNL A   1      37.077  32.645  31.940  1.00  0.00    -0.014 A 
BRANCH  47  48
ATOM     48  C   UNL A   1      38.305  31.851  32.210  1.00  0.00     0.031 A 
ATOM     49  C   UNL A   1      39.090  32.082  33.473  1.00  0.00     0.074 A 
ATOM     50  C   UNL A   1      38.738  30.962  31.294  1.00  0.00     0.049 A 
ATOM     51  N   UNL A   1      40.214  31.537  33.859  1.00  0.00    -0.248 NA
ATOM     52  C   UNL A   1      38.552  33.078  34.412  1.00  0.00     0.031 C 
ATOM     53  C   UNL A   1      38.080  30.679  30.016  1.00  0.00     0.029 A 
ATOM     54  N   UNL A   1      39.833  30.136  31.290  1.00  0.00    -0.354 N 
ATOM     55  C   UNL A   1      40.524  32.127  35.080  1.00  0.00     0.074 A 
ATOM     56  C   UNL A   1      39.501  33.120  35.335  1.00  0.00     0.031 C 
ATOM     57  C   UNL A   1      38.769  29.727  29.368  1.00  0.00     0.029 A 
ATOM     58  C   UNL A   1      39.944  29.367  30.154  1.00  0.00     0.049 A 
ATOM     59  H   UNL A   1      40.481  30.099  32.030  1.00  0.00     0.167 HD
ATOM     60  C   UNL A   1      41.551  31.850  35.921  1.00  0.00     0.034 A 
ATOM     61  C   UNL A   1      40.891  28.483  29.782  1.00  0.00     0.034 A 
ATOM     62  C   UNL A   1      42.557  30.851  35.653  1.00  0.00     0.049 A 
ATOM     63  C   UNL A   1      42.047  28.222  30.717  1.00  0.00     0.074 A 
ATOM     64  C   UNL A   1      43.609  30.451  36.459  1.00  0.00     0.029 A 
ATOM     65  N   UNL A   1      42.645  30.101  34.486  1.00  0.00    -0.354 N 
ATOM     66  N   UNL A   1      42.294  28.750  31.893  1.00  0.00    -0.248 NA
ATOM     67  C   UNL A   1      43.047  27.240  30.276  1.00  0.00     0.031 C 
ATOM     68  C   UNL A   1      44.374  29.520  35.750  1.00  0.00     0.029 A 
ATOM     69  C   UNL A   1      43.755  29.272  34.535  1.00  0.00     0.049 A 
ATOM     70  H   UNL A   1      42.011  30.152  33.734  1.00  0.00     0.167 HD
ATOM     71  C   UNL A   1      43.461  28.140  32.345  1.00  0.00     0.074 A 
ATOM     72  C   UNL A   1      43.857  27.193  31.324  1.00  0.00     0.031 C 
ATOM     73  C   UNL A   1      44.144  28.341  33.501  1.00  0.00     0.034 A 
BRANCH  60  74
ATOM     74  C   UNL A   1      41.646  32.656  37.195  1.00  0.00     0.023 A 
ATOM     75  C   UNL A   1      40.979  32.267  38.369  1.00  0.00     0.031 A 
ATOM     76  C   UNL A   1      42.401  33.843  37.232  1.00  0.00     0.131 A 
ATOM     77  C   UNL A   1      41.018  33.090  39.505  1.00  0.00     0.055 A 
ATOM     78  C   UNL A   1      42.505  34.614  38.391  1.00  0.00     0.041 A 
ATOM     79  F   UNL A   1      43.042  34.280  36.137  1.00  0.00    -0.206 F 
ATOM     80  C   UNL A   1      41.798  34.247  39.533  1.00  0.00     0.022 A 
BRANCH  77  81
ATOM     81  S   UNL A   1      39.915  32.703  40.892  1.00  0.00     0.124 S 
ATOM     82  O   UNL A   1      38.669  32.383  40.198  1.00  0.00    -0.237 OA
ATOM     83  O   UNL A   1      40.595  31.584  41.532  1.00  0.00    -0.237 OA
ATOM     84  O   UNL A   1      39.887  33.943  41.664  1.00  0.00    -0.744 OA
ENDBRANCH  77  81
ENDBRANCH  60  74
BRANCH  61  85
ATOM     85  C   UNL A   1      40.807  27.790  28.464  1.00  0.00     0.023 A 
ATOM     86  C   UNL A   1      40.117  26.574  28.327  1.00  0.00     0.031 A 
ATOM     87  C   UNL A   1      41.460  28.306  27.329  1.00  0.00     0.131 A 
ATOM     88  C   UNL A   1      40.140  25.890  27.102  1.00  0.00     0.055 A 
ATOM     89  C   UNL A   1      41.429  27.652  26.097  1.00  0.00     0.041 A 
ATOM     90  F   UNL A   1      42.132  29.466  27.402  1.00  0.00    -0.206 F 
ATOM     91  C   UNL A   1      40.779  26.428  25.982  1.00  0.00     0.022 A 
BRANCH  88  92
ATOM     92  S   UNL A   1      39.408  24.233  27.020  1.00  0.00     0.124 S 
ATOM     93  O   UNL A   1      40.567  23.412  26.692  1.00  0.00    -0.237 OA
ATOM     94  O   UNL A   1      38.868  24.074  28.367  1.00  0.00    -0.237 OA
ATOM     95  O   UNL A   1      38.408  24.355  25.961  1.00  0.00    -0.744 OA
ENDBRANCH  88  92
ENDBRANCH  61  85
BRANCH  73  96
ATOM     96  C   UNL A   1      45.368  27.489  33.734  1.00  0.00     0.023 A 
ATOM     97  C   UNL A   1      46.650  27.911  33.343  1.00  0.00     0.031 A 
ATOM     98  C   UNL A   1      45.247  26.230  34.352  1.00  0.00     0.131 A 
ATOM     99  C   UNL A   1      47.752  27.060  33.522  1.00  0.00     0.055 A 
ATOM    100  C   UNL A   1      46.355  25.417  34.589  1.00  0.00     0.041 A 
ATOM    101  F   UNL A   1      44.046  25.774  34.744  1.00  0.00    -0.206 F 
ATOM    102  C   UNL A   1      47.615  25.825  34.161  1.00  0.00     0.022 A 
BRANCH  99 103
ATOM    103  S   UNL A   1      49.352  27.549  32.824  1.00  0.00     0.124 S 
ATOM    104  O   UNL A   1      49.540  26.554  31.772  1.00  0.00    -0.237 OA
ATOM    105  O   UNL A   1      49.094  28.913  32.373  1.00  0.00    -0.237 OA
ATOM    106  O   UNL A   1      50.270  27.436  33.956  1.00  0.00    -0.744 OA
ENDBRANCH  99 103
ENDBRANCH  73  96
ENDBRANCH  47  48
ENDBRANCH  39  42
ENDBRANCH  37  38
ENDBRANCH  36  37
ENDBRANCH  35  36
ENDBRANCH   1  35
TORSDOF 21
ENDMDL
MODEL 2
REMARK VINA RESULT:     -10.5      2.519      7.720
REMARK SMILES Cc1c[nH]c(C[N@@H+](C)[C@@H](C(=O)NCCCCCCNC(=O)c2ccc(-c3c4nc(c(-c5cc(S(=O)(=O)[O-])ccc5F)c5ccc([nH]5)c(-c5cc(S(=O)(=O)[O-])ccc5F)c5nc(c(-c6cc(S(=O)(=O)[O-])ccc6F)c6ccc3[nH]6)C=C5)C=C4)cc2)c2ccc(NC(=O)N3CCCC3)cc2)n1
REMARK SMILES IDX 15 1 14 2 13 3 12 4 10 5 11 6 9 8 7 9 8 10 6 12 5 13 1 14
REMARK SMILES IDX 2 15 3 16 99 17 4 18 85 20 86 21 98 22 87 23 97 24 88 25
REMARK SMILES IDX 89 26 90 27 91 29 92 30 93 31 96 32 94 33 95 34 16 35 17 36
REMARK SMILES IDX 18 37 19 38 20 39 21 41 22 42 23 43 84 44 24 45 83 46 25 47
REMARK SMILES IDX 26 48 27 49 77 50 28 51 82 52 76 53 78 54 29 55 81 56 75 57
REMARK SMILES IDX 74 58 30 60 62 61 42 62 61 63 43 64 46 65 60 66 79 67 44 68
REMARK SMILES IDX 45 69 59 71 80 72 47 73 31 74 32 75 40 76 33 77 39 78 41 79
REMARK SMILES IDX 38 80 34 81 35 82 36 83 37 84 63 85 64 86 72 87 65 88 71 89
REMARK SMILES IDX 73 90 70 91 66 92 67 93 68 94 69 95 48 96 49 97 57 98 50 99
REMARK SMILES IDX 56 100 58 101 55 102 51 103 52 104 53 105 54 106
REMARK H PARENT 12 7 7 11 4 19 89 28 19 40 78 59 46 70
REMARK Flexibility Score: inf
ROOT
ATOM      1  C   UNL A   1      33.810  29.786  27.320  1.00  0.00     0.002 C 
ENDROOT
BRANCH   1   2
ATOM      2  C   UNL A   1      32.283  29.677  27.258  1.00  0.00     0.021 C 
BRANCH   2   3
ATOM      3  C   UNL A   1      31.763  29.082  25.946  1.00  0.00     0.116 C 
BRANCH   3   4
ATOM      4  N   UNL A   1      32.557  29.592  24.851  1.00  0.00    -0.351 N 
ATOM      5  C   UNL A   1      33.090  28.883  23.810  1.00  0.00     0.283 C 
ATOM      6  O   UNL A   1      34.128  29.333  23.307  1.00  0.00    -0.268 OA
ATOM      7  H   UNL A   1      32.735  30.560  24.854  1.00  0.00     0.163 HD
BRANCH   5   8
ATOM      8  C   UNL A   1      32.362  27.604  23.273  1.00  0.00     0.305 C 
BRANCH   8   9
ATOM      9  N   UNL A   1      30.886  27.689  23.461  1.00  0.00    -0.317 N 
ATOM     10  C   UNL A   1      30.288  26.607  24.220  1.00  0.00     0.334 C 
ATOM     11  H   UNL A   1      30.853  28.516  24.056  1.00  0.00     0.349 HD
BRANCH   9  12
ATOM     12  C   UNL A   1      30.068  28.058  22.296  1.00  0.00     0.339 C 
BRANCH  12  13
ATOM     13  C   UNL A   1      29.541  29.457  22.366  1.00  0.00     0.161 A 
ATOM     14  C   UNL A   1      28.056  32.402  21.055  1.00  0.00     0.068 C 
ATOM     15  C   UNL A   1      28.699  31.382  21.908  1.00  0.00     0.056 A 
ATOM     16  C   UNL A   1      28.858  31.355  23.275  1.00  0.00     0.107 A 
ATOM     17  N   UNL A   1      29.200  30.232  21.353  1.00  0.00    -0.233 NA
ATOM     18  N   UNL A   1      29.357  30.113  23.555  1.00  0.00    -0.344 N 
ATOM     19  H   UNL A   1      29.549  29.754  24.453  1.00  0.00     0.167 HD
ENDBRANCH  12  13
ENDBRANCH   9  12
ENDBRANCH   8   9
BRANCH   8  20
ATOM     20  C   UNL A   1      32.948  26.317  23.885  1.00  0.00     0.019 A 
ATOM     21  C   UNL A   1      33.425  26.267  25.201  1.00  0.00     0.012 A 
ATOM     22  C   UNL A   1      33.000  25.131  23.139  1.00  0.00     0.012 A 
ATOM     23  C   UNL A   1      33.651  25.041  25.823  1.00  0.00     0.027 A 
ATOM     24  C   UNL A   1      33.205  23.901  23.770  1.00  0.00     0.027 A 
ATOM     25  C   UNL A   1      33.376  23.855  25.151  1.00  0.00     0.042 A 
BRANCH  25  26
ATOM     26  N   UNL A   1      33.219  22.619  25.801  1.00  0.00    -0.308 N 
ATOM     27  C   UNL A   1      34.026  21.521  25.834  1.00  0.00     0.321 C 
ATOM     28  H   UNL A   1      32.387  22.531  26.319  1.00  0.00     0.171 HD
ATOM     29  O   UNL A   1      33.522  20.426  26.097  1.00  0.00    -0.248 OA
ATOM     30  N   UNL A   1      35.365  21.644  25.587  1.00  0.00    -0.325 N 
ATOM     31  C   UNL A   1      36.267  22.662  26.091  1.00  0.00     0.121 C 
ATOM     32  C   UNL A   1      36.133  20.538  25.066  1.00  0.00     0.121 C 
ATOM     33  C   UNL A   1      37.428  22.604  25.117  1.00  0.00     0.023 C 
ATOM     34  C   UNL A   1      37.498  21.129  24.716  1.00  0.00     0.023 C 
ENDBRANCH  25  26
ENDBRANCH   8  20
ENDBRANCH   5   8
ENDBRANCH   3   4
ENDBRANCH   2   3
ENDBRANCH   1   2
BRANCH   1  35
ATOM     35  C   UNL A   1      34.337  31.194  27.610  1.00  0.00     0.002 C 
BRANCH  35  36
ATOM     36  C   UNL A   1      33.261  32.282  27.646  1.00  0.00     0.021 C 
BRANCH  36  37
ATOM     37  C   UNL A   1      33.802  33.703  27.532  1.00  0.00     0.116 C 
BRANCH  37  38
ATOM     38  N   UNL A   1      33.126  34.609  28.446  1.00  0.00    -0.352 N 
ATOM     39  C   UNL A   1      33.312  34.768  29.794  1.00  0.00     0.251 C 
ATOM     40  H   UNL A   1      32.441  35.188  28.040  1.00  0.00     0.163 HD
ATOM     41  O   UNL A   1      32.478  35.387  30.458  1.00  0.00    -0.269 OA
BRANCH  39  42
ATOM     42  C   UNL A   1      34.501  34.183  30.444  1.00  0.00     0.039 A 
ATOM     43  C   UNL A   1      34.331  33.204  31.423  1.00  0.00     0.014 A 
ATOM     44  C   UNL A   1      35.785  34.604  30.082  1.00  0.00     0.014 A 
ATOM     45  C   UNL A   1      35.452  32.605  32.000  1.00  0.00     0.010 A 
ATOM     46  C   UNL A   1      36.900  33.952  30.602  1.00  0.00     0.010 A 
ATOM     47  C   UNL A   1      36.745  32.948  31.571  1.00  0.00    -0.014 A 
BRANCH  47  48
ATOM     48  C   UNL A   1      37.945  32.274  32.132  1.00  0.00     0.031 A 
ATOM     49  C   UNL A   1      38.613  31.163  31.368  1.00  0.00     0.074 A 
ATOM     50  C   UNL A   1      38.399  32.628  33.352  1.00  0.00     0.049 A 
ATOM     51  N   UNL A   1      39.628  30.415  31.714  1.00  0.00    -0.248 NA
ATOM     52  C   UNL A   1      38.046  30.835  30.050  1.00  0.00     0.031 C 
ATOM     53  C   UNL A   1      37.810  33.666  34.202  1.00  0.00     0.029 A 
ATOM     54  N   UNL A   1      39.452  32.154  34.091  1.00  0.00    -0.354 N 
ATOM     55  C   UNL A   1      39.817  29.522  30.665  1.00  0.00     0.074 A 
ATOM     56  C   UNL A   1      38.769  29.781  29.701  1.00  0.00     0.031 C 
ATOM     57  C   UNL A   1      38.529  33.768  35.332  1.00  0.00     0.029 A 
ATOM     58  C   UNL A   1      39.595  32.772  35.313  1.00  0.00     0.049 A 
ATOM     59  H   UNL A   1      40.050  31.437  33.778  1.00  0.00     0.167 HD
ATOM     60  C   UNL A   1      40.790  28.589  30.508  1.00  0.00     0.034 A 
ATOM     61  C   UNL A   1      40.474  32.551  36.310  1.00  0.00     0.034 A 
ATOM     62  C   UNL A   1      41.832  28.350  31.477  1.00  0.00     0.049 A 
ATOM     63  C   UNL A   1      41.521  31.479  36.130  1.00  0.00     0.074 A 
ATOM     64  C   UNL A   1      42.897  27.469  31.397  1.00  0.00     0.029 A 
ATOM     65  N   UNL A   1      41.935  28.985  32.710  1.00  0.00    -0.354 N 
ATOM     66  N   UNL A   1      41.720  30.681  35.107  1.00  0.00    -0.248 NA
ATOM     67  C   UNL A   1      42.467  31.284  37.237  1.00  0.00     0.031 C 
ATOM     68  C   UNL A   1      43.595  27.515  32.607  1.00  0.00     0.029 A 
ATOM     69  C   UNL A   1      43.021  28.486  33.412  1.00  0.00     0.049 A 
ATOM     70  H   UNL A   1      41.326  29.686  33.035  1.00  0.00     0.167 HD
ATOM     71  C   UNL A   1      42.833  29.912  35.436  1.00  0.00     0.074 A 
ATOM     72  C   UNL A   1      43.272  30.355  36.742  1.00  0.00     0.031 C 
ATOM     73  C   UNL A   1      43.439  28.930  34.721  1.00  0.00     0.034 A 
BRANCH  60  74
ATOM     74  C   UNL A   1      40.753  27.746  29.255  1.00  0.00     0.023 A 
ATOM     75  C   UNL A   1      41.663  27.945  28.203  1.00  0.00     0.031 A 
ATOM     76  C   UNL A   1      39.781  26.740  29.102  1.00  0.00     0.131 A 
ATOM     77  C   UNL A   1      41.538  27.203  27.018  1.00  0.00     0.055 A 
ATOM     78  C   UNL A   1      39.716  25.947  27.954  1.00  0.00     0.041 A 
ATOM     79  F   UNL A   1      38.870  26.517  30.062  1.00  0.00    -0.206 F 
ATOM     80  C   UNL A   1      40.589  26.187  26.896  1.00  0.00     0.022 A 
BRANCH  77  81
ATOM     81  S   UNL A   1      42.539  27.689  25.585  1.00  0.00     0.124 S 
ATOM     82  O   UNL A   1      42.406  26.517  24.722  1.00  0.00    -0.237 OA
ATOM     83  O   UNL A   1      41.868  28.899  25.127  1.00  0.00    -0.237 OA
ATOM     84  O   UNL A   1      43.872  27.888  26.149  1.00  0.00    -0.744 OA
ENDBRANCH  77  81
ENDBRANCH  60  74
BRANCH  61  85
ATOM     85  C   UNL A   1      40.403  33.340  37.575  1.00  0.00     0.023 A 
ATOM     86  C   UNL A   1      41.324  34.365  37.842  1.00  0.00     0.031 A 
ATOM     87  C   UNL A   1      39.441  33.047  38.559  1.00  0.00     0.131 A 
ATOM     88  C   UNL A   1      41.300  35.022  39.082  1.00  0.00     0.055 A 
ATOM     89  C   UNL A   1      39.383  33.745  39.767  1.00  0.00     0.041 A 
ATOM     90  F   UNL A   1      38.533  32.079  38.355  1.00  0.00    -0.206 F 
ATOM     91  C   UNL A   1      40.327  34.729  40.040  1.00  0.00     0.022 A 
BRANCH  88  92
ATOM     92  S   UNL A   1      42.626  36.198  39.466  1.00  0.00     0.124 S 
ATOM     93  O   UNL A   1      43.798  35.504  38.944  1.00  0.00    -0.237 OA
ATOM     94  O   UNL A   1      42.201  37.384  38.730  1.00  0.00    -0.237 OA
ATOM     95  O   UNL A   1      42.566  36.315  40.922  1.00  0.00    -0.744 OA
ENDBRANCH  88  92
ENDBRANCH  61  85
BRANCH  73  96
ATOM     96  C   UNL A   1      44.669  28.298  35.329  1.00  0.00     0.023 A 
ATOM     97  C   UNL A   1      44.588  27.166  36.158  1.00  0.00     0.031 A 
ATOM     98  C   UNL A   1      45.942  28.844  35.078  1.00  0.00     0.131 A 
ATOM     99  C   UNL A   1      45.750  26.649  36.751  1.00  0.00     0.055 A 
ATOM    100  C   UNL A   1      47.101  28.285  35.617  1.00  0.00     0.041 A 
ATOM    101  F   UNL A   1      46.079  29.927  34.297  1.00  0.00    -0.206 F 
ATOM    102  C   UNL A   1      47.007  27.189  36.470  1.00  0.00     0.022 A 
BRANCH  99 103
ATOM    103  S   UNL A   1      45.586  25.318  37.972  1.00  0.00     0.124 S 
ATOM    104  O   UNL A   1      44.199  24.902  37.781  1.00  0.00    -0.237 OA
ATOM    105  O   UNL A   1      46.603  24.366  37.536  1.00  0.00    -0.237 OA
ATOM    106  O   UNL A   1      45.864  25.981  39.244  1.00  0.00    -0.744 OA
ENDBRANCH  99 103
ENDBRANCH  73  96
ENDBRANCH  47  48
ENDBRANCH  39  42
ENDBRANCH  37  38
ENDBRANCH  36  37
ENDBRANCH  35  36
ENDBRANCH   1  35
TORSDOF 21
ENDMDL
MODEL 3
REMARK VINA RESULT:     -10.5      1.915      2.414
REMARK SMILES Cc1c[nH]c(C[N@@H+](C)[C@@H](C(=O)NCCCCCCNC(=O)c2ccc(-c3c4nc(c(-c5cc(S(=O)(=O)[O-])ccc5F)c5ccc([nH]5)c(-c5cc(S(=O)(=O)[O-])ccc5F)c5nc(c(-c6cc(S(=O)(=O)[O-])ccc6F)c6ccc3[nH]6)C=C5)C=C4)cc2)c2ccc(NC(=O)N3CCCC3)cc2)n1
REMARK SMILES IDX 15 1 14 2 13 3 12 4 10 5 11 6 9 8 7 9 8 10 6 12 5 13 1 14
REMARK SMILES IDX 2 15 3 16 99 17 4 18 85 20 86 21 98 22 87 23 97 24 88 25
REMARK SMILES IDX 89 26 90 27 91 29 92 30 93 31 96 32 94 33 95 34 16 35 17 36
REMARK SMILES IDX 18 37 19 38 20 39 21 41 22 42 23 43 84 44 24 45 83 46 25 47
REMARK SMILES IDX 26 48 27 49 77 50 28 51 82 52 76 53 78 54 29 55 81 56 75 57
REMARK SMILES IDX 74 58 30 60 62 61 42 62 61 63 43 64 46 65 60 66 79 67 44 68
REMARK SMILES IDX 45 69 59 71 80 72 47 73 31 74 32 75 40 76 33 77 39 78 41 79
REMARK SMILES IDX 38 80 34 81 35 82 36 83 37 84 63 85 64 86 72 87 65 88 71 89
REMARK SMILES IDX 73 90 70 91 66 92 67 93 68 94 69 95 48 96 49 97 57 98 50 99
REMARK SMILES IDX 56 100 58 101 55 102 51 103 52 104 53 105 54 106
REMARK H PARENT 12 7 7 11 4 19 89 28 19 40 78 59 46 70
REMARK Flexibility Score: inf
ROOT
ATOM      1  C   UNL A   1      34.112  29.399  27.617  1.00  0.00     0.002 C 
ENDROOT
BRANCH   1   2
ATOM      2  C   UNL A   1      34.239  28.727  26.246  1.00  0.00     0.021 C 
BRANCH   2   3
ATOM      3  C   UNL A   1      33.096  29.070  25.286  1.00  0.00     0.116 C 
BRANCH   3   4
ATOM      4  N   UNL A   1      33.641  29.298  23.967  1.00  0.00    -0.351 N 
ATOM      5  C   UNL A   1      33.729  28.402  22.937  1.00  0.00     0.283 C 
ATOM      6  O   UNL A   1      34.655  28.572  22.133  1.00  0.00    -0.268 OA
ATOM      7  H   UNL A   1      33.989  30.201  23.789  1.00  0.00     0.163 HD
BRANCH   5   8
ATOM      8  C   UNL A   1      32.658  27.270  22.785  1.00  0.00     0.305 C 
BRANCH   8   9
ATOM      9  N   UNL A   1      31.335  27.682  23.334  1.00  0.00    -0.317 N 
ATOM     10  C   UNL A   1      30.860  26.910  24.466  1.00  0.00     0.334 C 
ATOM     11  H   UNL A   1      31.596  28.599  23.694  1.00  0.00     0.349 HD
BRANCH   9  12
ATOM     12  C   UNL A   1      30.258  27.971  22.376  1.00  0.00     0.339 C 
BRANCH  12  13
ATOM     13  C   UNL A   1      29.760  29.380  22.456  1.00  0.00     0.161 A 
ATOM     14  C   UNL A   1      28.019  32.246  21.294  1.00  0.00     0.068 C 
ATOM     15  C   UNL A   1      28.837  31.280  22.055  1.00  0.00     0.056 A 
ATOM     16  C   UNL A   1      29.301  31.352  23.349  1.00  0.00     0.107 A 
ATOM     17  N   UNL A   1      29.199  30.084  21.490  1.00  0.00    -0.233 NA
ATOM     18  N   UNL A   1      29.850  30.125  23.603  1.00  0.00    -0.344 N 
ATOM     19  H   UNL A   1      30.241  29.830  24.459  1.00  0.00     0.167 HD
ENDBRANCH  12  13
ENDBRANCH   9  12
ENDBRANCH   8   9
BRANCH   8  20
ATOM     20  C   UNL A   1      33.146  25.941  23.393  1.00  0.00     0.019 A 
ATOM     21  C   UNL A   1      33.808  25.885  24.626  1.00  0.00     0.012 A 
ATOM     22  C   UNL A   1      32.916  24.726  22.733  1.00  0.00     0.012 A 
ATOM     23  C   UNL A   1      33.954  24.669  25.294  1.00  0.00     0.027 A 
ATOM     24  C   UNL A   1      33.043  23.511  23.412  1.00  0.00     0.027 A 
ATOM     25  C   UNL A   1      33.416  23.507  24.753  1.00  0.00     0.042 A 
BRANCH  25  26
ATOM     26  N   UNL A   1      33.191  22.340  25.504  1.00  0.00    -0.308 N 
ATOM     27  C   UNL A   1      33.943  21.213  25.646  1.00  0.00     0.321 C 
ATOM     28  H   UNL A   1      32.348  22.337  26.014  1.00  0.00     0.171 HD
ATOM     29  O   UNL A   1      33.382  20.170  25.993  1.00  0.00    -0.248 OA
ATOM     30  N   UNL A   1      35.289  21.249  25.412  1.00  0.00    -0.325 N 
ATOM     31  C   UNL A   1      36.233  22.264  25.843  1.00  0.00     0.121 C 
ATOM     32  C   UNL A   1      36.009  20.067  25.002  1.00  0.00     0.121 C 
ATOM     33  C   UNL A   1      37.403  22.066  24.898  1.00  0.00     0.023 C 
ATOM     34  C   UNL A   1      37.406  20.560  24.626  1.00  0.00     0.023 C 
ENDBRANCH  25  26
ENDBRANCH   8  20
ENDBRANCH   5   8
ENDBRANCH   3   4
ENDBRANCH   2   3
ENDBRANCH   1   2
BRANCH   1  35
ATOM     35  C   UNL A   1      34.463  30.888  27.630  1.00  0.00     0.002 C 
BRANCH  35  36
ATOM     36  C   UNL A   1      33.257  31.827  27.713  1.00  0.00     0.021 C 
BRANCH  36  37
ATOM     37  C   UNL A   1      33.509  33.222  27.151  1.00  0.00     0.116 C 
BRANCH  37  38
ATOM     38  N   UNL A   1      33.031  34.258  28.052  1.00  0.00    -0.352 N 
ATOM     39  C   UNL A   1      33.380  34.491  29.357  1.00  0.00     0.251 C 
ATOM     40  H   UNL A   1      32.365  34.876  27.674  1.00  0.00     0.163 HD
ATOM     41  O   UNL A   1      32.690  35.240  30.050  1.00  0.00    -0.269 OA
BRANCH  39  42
ATOM     42  C   UNL A   1      34.571  33.830  29.926  1.00  0.00     0.039 A 
ATOM     43  C   UNL A   1      34.403  32.833  30.888  1.00  0.00     0.014 A 
ATOM     44  C   UNL A   1      35.854  34.197  29.506  1.00  0.00     0.014 A 
ATOM     45  C   UNL A   1      35.522  32.164  31.387  1.00  0.00     0.010 A 
ATOM     46  C   UNL A   1      36.960  33.477  29.948  1.00  0.00     0.010 A 
ATOM     47  C   UNL A   1      36.806  32.455  30.898  1.00  0.00    -0.014 A 
BRANCH  47  48
ATOM     48  C   UNL A   1      37.998  31.707  31.376  1.00  0.00     0.031 A 
ATOM     49  C   UNL A   1      38.616  32.042  32.706  1.00  0.00     0.074 A 
ATOM     50  C   UNL A   1      38.553  30.764  30.587  1.00  0.00     0.049 A 
ATOM     51  N   UNL A   1      39.688  31.548  33.268  1.00  0.00    -0.248 NA
ATOM     52  C   UNL A   1      37.953  33.091  33.496  1.00  0.00     0.031 C 
ATOM     53  C   UNL A   1      38.063  30.378  29.261  1.00  0.00     0.029 A 
ATOM     54  N   UNL A   1      39.649  29.962  30.780  1.00  0.00    -0.354 N 
ATOM     55  C   UNL A   1      39.835  32.229  34.472  1.00  0.00     0.074 A 
ATOM     56  C   UNL A   1      38.778  33.217  34.524  1.00  0.00     0.031 C 
ATOM     57  C   UNL A   1      38.839  29.396  28.775  1.00  0.00     0.029 A 
ATOM     58  C   UNL A   1      39.910  29.116  29.726  1.00  0.00     0.049 A 
ATOM     59  H   UNL A   1      40.199  29.990  31.596  1.00  0.00     0.167 HD
ATOM     60  C   UNL A   1      40.751  32.033  35.453  1.00  0.00     0.034 A 
ATOM     61  C   UNL A   1      40.905  28.227  29.541  1.00  0.00     0.034 A 
ATOM     62  C   UNL A   1      41.793  31.038  35.386  1.00  0.00     0.049 A 
ATOM     63  C   UNL A   1      41.937  28.056  30.628  1.00  0.00     0.074 A 
ATOM     64  C   UNL A   1      42.740  30.716  36.343  1.00  0.00     0.029 A 
ATOM     65  N   UNL A   1      42.035  30.209  34.296  1.00  0.00    -0.354 N 
ATOM     66  N   UNL A   1      42.028  28.670  31.785  1.00  0.00    -0.248 NA
ATOM     67  C   UNL A   1      42.995  27.066  30.389  1.00  0.00     0.031 C 
ATOM     68  C   UNL A   1      43.598  29.753  35.805  1.00  0.00     0.029 A 
ATOM     69  C   UNL A   1      43.139  29.407  34.544  1.00  0.00     0.049 A 
ATOM     70  H   UNL A   1      41.501  30.194  33.469  1.00  0.00     0.167 HD
ATOM     71  C   UNL A   1      43.136  28.117  32.423  1.00  0.00     0.074 A 
ATOM     72  C   UNL A   1      43.667  27.109  31.530  1.00  0.00     0.031 C 
ATOM     73  C   UNL A   1      43.665  28.414  33.637  1.00  0.00     0.034 A 
BRANCH  60  74
ATOM     74  C   UNL A   1      40.677  32.929  36.666  1.00  0.00     0.023 A 
ATOM     75  C   UNL A   1      39.883  32.603  37.780  1.00  0.00     0.031 A 
ATOM     76  C   UNL A   1      41.395  34.138  36.705  1.00  0.00     0.131 A 
ATOM     77  C   UNL A   1      39.769  33.505  38.849  1.00  0.00     0.055 A 
ATOM     78  C   UNL A   1      41.344  34.991  37.808  1.00  0.00     0.041 A 
ATOM     79  F   UNL A   1      42.153  34.516  35.663  1.00  0.00    -0.206 F 
ATOM     80  C   UNL A   1      40.515  34.684  38.884  1.00  0.00     0.022 A 
BRANCH  77  81
ATOM     81  S   UNL A   1      38.518  33.182  40.122  1.00  0.00     0.124 S 
ATOM     82  O   UNL A   1      37.302  33.068  39.318  1.00  0.00    -0.237 OA
ATOM     83  O   UNL A   1      38.998  31.949  40.732  1.00  0.00    -0.237 OA
ATOM     84  O   UNL A   1      38.581  34.368  40.973  1.00  0.00    -0.744 OA
ENDBRANCH  77  81
ENDBRANCH  60  74
BRANCH  61  85
ATOM     85  C   UNL A   1      40.996  27.441  28.276  1.00  0.00     0.023 A 
ATOM     86  C   UNL A   1      40.715  26.065  28.257  1.00  0.00     0.031 A 
ATOM     87  C   UNL A   1      41.414  28.043  27.075  1.00  0.00     0.131 A 
ATOM     88  C   UNL A   1      40.908  25.327  27.078  1.00  0.00     0.055 A 
ATOM     89  C   UNL A   1      41.545  27.316  25.890  1.00  0.00     0.041 A 
ATOM     90  F   UNL A   1      41.692  29.356  27.034  1.00  0.00    -0.206 F 
ATOM     91  C   UNL A   1      41.306  25.946  25.892  1.00  0.00     0.022 A 
BRANCH  88  92
ATOM     92  S   UNL A   1      40.726  23.524  27.145  1.00  0.00     0.124 S 
ATOM     93  O   UNL A   1      39.282  23.376  27.284  1.00  0.00    -0.237 OA
ATOM     94  O   UNL A   1      41.294  23.116  25.864  1.00  0.00    -0.237 OA
ATOM     95  O   UNL A   1      41.510  23.146  28.320  1.00  0.00    -0.744 OA
ENDBRANCH  88  92
ENDBRANCH  61  85
BRANCH  73  96
ATOM     96  C   UNL A   1      44.860  27.604  34.082  1.00  0.00     0.023 A 
ATOM     97  C   UNL A   1      44.715  26.375  34.750  1.00  0.00     0.031 A 
ATOM     98  C   UNL A   1      46.164  28.074  33.840  1.00  0.00     0.131 A 
ATOM     99  C   UNL A   1      45.850  25.686  35.201  1.00  0.00     0.055 A 
ATOM    100  C   UNL A   1      47.291  27.352  34.232  1.00  0.00     0.041 A 
ATOM    101  F   UNL A   1      46.362  29.244  33.210  1.00  0.00    -0.206 F 
ATOM    102  C   UNL A   1      47.137  26.157  34.929  1.00  0.00     0.022 A 
BRANCH  99 103
ATOM    103  S   UNL A   1      45.622  24.213  36.233  1.00  0.00     0.124 S 
ATOM    104  O   UNL A   1      46.731  23.367  35.802  1.00  0.00    -0.237 OA
ATOM    105  O   UNL A   1      45.723  24.757  37.583  1.00  0.00    -0.237 OA
ATOM    106  O   UNL A   1      44.294  23.732  35.857  1.00  0.00    -0.744 OA
ENDBRANCH  99 103
ENDBRANCH  73  96
ENDBRANCH  47  48
ENDBRANCH  39  42
ENDBRANCH  37  38
ENDBRANCH  36  37
ENDBRANCH  35  36
ENDBRANCH   1  35
TORSDOF 21
ENDMDL
