MODEL 1
REMARK VINA RESULT:     -11.8      0.000      0.000
REMARK SMILES CNC(=O)c1cccc(-c2cnc(O)c(C(=O)NCCCCCCNC(=O)c3ccc(-c4c5nc(c(-c6cc(S(=O)(=O)[O-])ccc6F)c6ccc([nH]6)c(-c6cc(S(=O)(=O)[O-])ccc6F)c6nc(c(-c7cc(S(=O)(=O)[O-])ccc7F)c7ccc4[nH]7)C=C6)C=C5)cc3)c2)c1
REMARK SMILES IDX 22 1 21 2 20 3 19 4 18 5 16 6 17 7 15 9 10 10 11 11 91 12
REMARK SMILES IDX 12 13 13 14 9 15 5 16 6 17 92 18 7 19 8 20 3 21 1 22 2 23
REMARK SMILES IDX 4 25 14 26 23 28 24 29 25 30 26 31 27 33 28 34 29 35 90 36
REMARK SMILES IDX 30 37 89 38 31 39 32 40 33 41 83 42 34 43 88 44 82 45 84 46
REMARK SMILES IDX 35 47 87 48 81 49 80 50 36 52 68 53 48 54 67 55 49 56 52 57
REMARK SMILES IDX 66 58 85 59 50 60 51 61 65 63 86 64 53 65 37 66 38 67 46 68
REMARK SMILES IDX 39 69 45 70 47 71 44 72 40 73 41 74 42 75 43 76 69 77 70 78
REMARK SMILES IDX 78 79 71 80 77 81 79 82 76 83 72 84 73 85 74 86 75 87 54 88
REMARK SMILES IDX 55 89 63 90 56 91 62 92 64 93 61 94 57 95 58 96 59 97 60 98
REMARK H PARENT 18 8 2 24 14 27 25 32 84 51 52 62
REMARK Flexibility Score: inf
ROOT
ATOM      1  C   UNL A   1      32.017  27.212  26.448  1.00  0.00     0.002 C 
ENDROOT
BRANCH   1   2
ATOM      2  C   UNL A   1      33.454  26.683  26.349  1.00  0.00     0.002 C 
BRANCH   2   3
ATOM      3  C   UNL A   1      33.565  25.167  26.129  1.00  0.00     0.021 C 
BRANCH   3   4
ATOM      4  C   UNL A   1      32.223  24.444  26.264  1.00  0.00     0.116 C 
BRANCH   4   5
ATOM      5  N   UNL A   1      31.988  23.612  25.096  1.00  0.00    -0.352 N 
ATOM      6  C   UNL A   1      31.733  23.894  23.781  1.00  0.00     0.256 C 
ATOM      7  O   UNL A   1      31.584  22.940  23.011  1.00  0.00    -0.269 OA
ATOM      8  H   UNL A   1      32.018  22.647  25.291  1.00  0.00     0.163 HD
BRANCH   6   9
ATOM      9  C   UNL A   1      31.702  25.258  23.203  1.00  0.00     0.102 A 
ATOM     10  C   UNL A   1      30.648  27.398  22.730  1.00  0.00     0.001 A 
ATOM     11  C   UNL A   1      31.884  27.838  22.271  1.00  0.00     0.124 A 
ATOM     12  C   UNL A   1      30.562  26.061  23.138  1.00  0.00     0.029 A 
ATOM     13  N   UNL A   1      32.994  27.067  22.224  1.00  0.00    -0.221 NA
ATOM     14  C   UNL A   1      32.884  25.805  22.695  1.00  0.00     0.223 A 
BRANCH  10  15
ATOM     15  C   UNL A   1      29.500  28.296  22.865  1.00  0.00    -0.016 A 
ATOM     16  C   UNL A   1      28.578  30.552  22.762  1.00  0.00     0.040 A 
ATOM     17  C   UNL A   1      27.340  30.069  23.193  1.00  0.00     0.014 A 
ATOM     18  C   UNL A   1      29.657  29.674  22.621  1.00  0.00     0.022 A 
ATOM     19  C   UNL A   1      27.170  28.706  23.431  1.00  0.00     0.001 A 
ATOM     20  C   UNL A   1      28.240  27.823  23.261  1.00  0.00     0.009 A 
BRANCH  16  21
ATOM     21  C   UNL A   1      28.743  32.009  22.578  1.00  0.00     0.251 C 
ATOM     22  C   UNL A   1      27.973  32.050  20.148  1.00  0.00     0.143 C 
ATOM     23  N   UNL A   1      28.532  32.599  21.361  1.00  0.00    -0.355 N 
ATOM     24  H   UNL A   1      28.804  33.543  21.303  1.00  0.00     0.163 HD
ATOM     25  O   UNL A   1      29.076  32.696  23.542  1.00  0.00    -0.269 OA
ENDBRANCH  16  21
ENDBRANCH  10  15
BRANCH  14  26
ATOM     26  O   UNL A   1      34.060  25.109  22.632  1.00  0.00    -0.493 OA
ATOM     27  H   UNL A   1      34.203  24.377  23.200  1.00  0.00     0.295 HD
ENDBRANCH  14  26
ENDBRANCH   6   9
ENDBRANCH   4   5
ENDBRANCH   3   4
ENDBRANCH   2   3
ENDBRANCH   1   2
BRANCH   1  28
ATOM     28  C   UNL A   1      31.863  28.712  26.189  1.00  0.00     0.021 C 
BRANCH  28  29
ATOM     29  C   UNL A   1      33.182  29.474  26.117  1.00  0.00     0.116 C 
BRANCH  29  30
ATOM     30  N   UNL A   1      33.006  30.871  26.475  1.00  0.00    -0.352 N 
ATOM     31  C   UNL A   1      33.688  31.625  27.395  1.00  0.00     0.251 C 
ATOM     32  H   UNL A   1      32.295  31.345  25.986  1.00  0.00     0.163 HD
ATOM     33  O   UNL A   1      33.225  32.706  27.750  1.00  0.00    -0.269 OA
BRANCH  31  34
ATOM     34  C   UNL A   1      34.967  31.137  27.958  1.00  0.00     0.039 A 
ATOM     35  C   UNL A   1      35.021  29.843  28.482  1.00  0.00     0.014 A 
ATOM     36  C   UNL A   1      36.092  31.965  28.018  1.00  0.00     0.014 A 
ATOM     37  C   UNL A   1      36.209  29.373  29.045  1.00  0.00     0.010 A 
ATOM     38  C   UNL A   1      37.297  31.468  28.509  1.00  0.00     0.010 A 
ATOM     39  C   UNL A   1      37.361  30.177  29.053  1.00  0.00    -0.014 A 
BRANCH  39  40
ATOM     40  C   UNL A   1      38.620  29.699  29.682  1.00  0.00     0.031 A 
ATOM     41  C   UNL A   1      39.037  30.236  31.026  1.00  0.00     0.074 A 
ATOM     42  C   UNL A   1      39.393  28.804  29.036  1.00  0.00     0.049 A 
ATOM     43  N   UNL A   1      40.105  29.964  31.733  1.00  0.00    -0.248 NA
ATOM     44  C   UNL A   1      38.151  31.236  31.641  1.00  0.00     0.031 C 
ATOM     45  C   UNL A   1      39.112  28.247  27.712  1.00  0.00     0.029 A 
ATOM     46  N   UNL A   1      40.570  28.205  29.405  1.00  0.00    -0.354 N 
ATOM     47  C   UNL A   1      40.023  30.766  32.867  1.00  0.00     0.074 A 
ATOM     48  C   UNL A   1      38.840  31.584  32.716  1.00  0.00     0.031 C 
ATOM     49  C   UNL A   1      40.073  27.364  27.394  1.00  0.00     0.029 A 
ATOM     50  C   UNL A   1      41.055  27.319  28.472  1.00  0.00     0.049 A 
ATOM     51  H   UNL A   1      41.025  28.392  30.257  1.00  0.00     0.167 HD
ATOM     52  C   UNL A   1      40.842  30.796  33.949  1.00  0.00     0.034 A 
ATOM     53  C   UNL A   1      42.167  26.557  28.487  1.00  0.00     0.034 A 
ATOM     54  C   UNL A   1      42.012  29.963  34.087  1.00  0.00     0.049 A 
ATOM     55  C   UNL A   1      43.062  26.606  29.699  1.00  0.00     0.074 A 
ATOM     56  C   UNL A   1      42.896  29.882  35.149  1.00  0.00     0.029 A 
ATOM     57  N   UNL A   1      42.465  29.065  33.127  1.00  0.00    -0.354 N 
ATOM     58  N   UNL A   1      42.947  27.334  30.787  1.00  0.00    -0.248 NA
ATOM     59  C   UNL A   1      44.225  25.711  29.695  1.00  0.00     0.031 C 
ATOM     60  C   UNL A   1      43.914  28.983  34.808  1.00  0.00     0.029 A 
ATOM     61  C   UNL A   1      43.624  28.441  33.565  1.00  0.00     0.049 A 
ATOM     62  H   UNL A   1      42.028  28.896  32.262  1.00  0.00     0.167 HD
ATOM     63  C   UNL A   1      44.002  26.955  31.611  1.00  0.00     0.074 A 
ATOM     64  C   UNL A   1      44.728  25.921  30.901  1.00  0.00     0.031 C 
ATOM     65  C   UNL A   1      44.342  27.416  32.843  1.00  0.00     0.034 A 
BRANCH  52  66
ATOM     66  C   UNL A   1      40.504  31.780  35.047  1.00  0.00     0.023 A 
ATOM     67  C   UNL A   1      39.493  31.517  35.989  1.00  0.00     0.031 A 
ATOM     68  C   UNL A   1      41.171  33.014  35.131  1.00  0.00     0.131 A 
ATOM     69  C   UNL A   1      39.120  32.504  36.915  1.00  0.00     0.055 A 
ATOM     70  C   UNL A   1      40.856  33.958  36.112  1.00  0.00     0.041 A 
ATOM     71  F   UNL A   1      42.131  33.335  34.250  1.00  0.00    -0.206 F 
ATOM     72  C   UNL A   1      39.813  33.713  37.001  1.00  0.00     0.022 A 
BRANCH  69  73
ATOM     73  S   UNL A   1      37.616  32.248  37.896  1.00  0.00     0.124 S 
ATOM     74  O   UNL A   1      37.413  30.808  37.753  1.00  0.00    -0.237 OA
ATOM     75  O   UNL A   1      38.019  32.709  39.219  1.00  0.00    -0.237 OA
ATOM     76  O   UNL A   1      36.621  33.079  37.220  1.00  0.00    -0.744 OA
ENDBRANCH  69  73
ENDBRANCH  52  66
BRANCH  53  77
ATOM     77  C   UNL A   1      42.495  25.673  27.331  1.00  0.00     0.023 A 
ATOM     78  C   UNL A   1      42.047  24.344  27.285  1.00  0.00     0.031 A 
ATOM     79  C   UNL A   1      43.303  26.132  26.276  1.00  0.00     0.131 A 
ATOM     80  C   UNL A   1      42.454  23.502  26.238  1.00  0.00     0.055 A 
ATOM     81  C   UNL A   1      43.659  25.308  25.207  1.00  0.00     0.041 A 
ATOM     82  F   UNL A   1      43.753  27.397  26.264  1.00  0.00    -0.206 F 
ATOM     83  C   UNL A   1      43.246  23.979  25.192  1.00  0.00     0.022 A 
BRANCH  80  84
ATOM     84  S   UNL A   1      42.004  21.746  26.310  1.00  0.00     0.124 S 
ATOM     85  O   UNL A   1      42.357  21.405  27.683  1.00  0.00    -0.237 OA
ATOM     86  O   UNL A   1      40.578  21.786  26.004  1.00  0.00    -0.237 OA
ATOM     87  O   UNL A   1      42.843  21.138  25.279  1.00  0.00    -0.744 OA
ENDBRANCH  80  84
ENDBRANCH  53  77
BRANCH  65  88
ATOM     88  C   UNL A   1      45.520  26.752  33.517  1.00  0.00     0.023 A 
ATOM     89  C   UNL A   1      45.372  25.601  34.311  1.00  0.00     0.031 A 
ATOM     90  C   UNL A   1      46.807  27.308  33.395  1.00  0.00     0.131 A 
ATOM     91  C   UNL A   1      46.472  25.092  35.017  1.00  0.00     0.055 A 
ATOM     92  C   UNL A   1      47.912  26.754  34.041  1.00  0.00     0.041 A 
ATOM     93  F   UNL A   1      47.010  28.407  32.652  1.00  0.00    -0.206 F 
ATOM     94  C   UNL A   1      47.745  25.650  34.874  1.00  0.00     0.022 A 
BRANCH  91  95
ATOM     95  S   UNL A   1      46.192  23.771  36.228  1.00  0.00     0.124 S 
ATOM     96  O   UNL A   1      46.889  24.282  37.403  1.00  0.00    -0.237 OA
ATOM     97  O   UNL A   1      44.736  23.733  36.316  1.00  0.00    -0.237 OA
ATOM     98  O   UNL A   1      46.804  22.599  35.605  1.00  0.00    -0.744 OA
ENDBRANCH  91  95
ENDBRANCH  65  88
ENDBRANCH  39  40
ENDBRANCH  31  34
ENDBRANCH  29  30
ENDBRANCH  28  29
ENDBRANCH   1  28
TORSDOF 19
ENDMDL
MODEL 2
REMARK VINA RESULT:     -11.8      1.944      4.579
REMARK SMILES CNC(=O)c1cccc(-c2cnc(O)c(C(=O)NCCCCCCNC(=O)c3ccc(-c4c5nc(c(-c6cc(S(=O)(=O)[O-])ccc6F)c6ccc([nH]6)c(-c6cc(S(=O)(=O)[O-])ccc6F)c6nc(c(-c7cc(S(=O)(=O)[O-])ccc7F)c7ccc4[nH]7)C=C6)C=C5)cc3)c2)c1
REMARK SMILES IDX 22 1 21 2 20 3 19 4 18 5 16 6 17 7 15 9 10 10 11 11 91 12
REMARK SMILES IDX 12 13 13 14 9 15 5 16 6 17 92 18 7 19 8 20 3 21 1 22 2 23
REMARK SMILES IDX 4 25 14 26 23 28 24 29 25 30 26 31 27 33 28 34 29 35 90 36
REMARK SMILES IDX 30 37 89 38 31 39 32 40 33 41 83 42 34 43 88 44 82 45 84 46
REMARK SMILES IDX 35 47 87 48 81 49 80 50 36 52 68 53 48 54 67 55 49 56 52 57
REMARK SMILES IDX 66 58 85 59 50 60 51 61 65 63 86 64 53 65 37 66 38 67 46 68
REMARK SMILES IDX 39 69 45 70 47 71 44 72 40 73 41 74 42 75 43 76 69 77 70 78
REMARK SMILES IDX 78 79 71 80 77 81 79 82 76 83 72 84 73 85 74 86 75 87 54 88
REMARK SMILES IDX 55 89 63 90 56 91 62 92 64 93 61 94 57 95 58 96 59 97 60 98
REMARK H PARENT 18 8 2 24 14 27 25 32 84 51 52 62
REMARK Flexibility Score: inf
ROOT
ATOM      1  C   UNL A   1      31.699  27.320  26.273  1.00  0.00     0.002 C 
ENDROOT
BRANCH   1   2
ATOM      2  C   UNL A   1      31.212  28.177  25.097  1.00  0.00     0.002 C 
BRANCH   2   3
ATOM      3  C   UNL A   1      30.257  27.457  24.132  1.00  0.00     0.021 C 
BRANCH   3   4
ATOM      4  C   UNL A   1      30.553  27.760  22.662  1.00  0.00     0.116 C 
BRANCH   4   5
ATOM      5  N   UNL A   1      31.900  28.289  22.526  1.00  0.00    -0.352 N 
ATOM      6  C   UNL A   1      33.130  27.700  22.409  1.00  0.00     0.256 C 
ATOM      7  O   UNL A   1      34.111  28.442  22.297  1.00  0.00    -0.269 OA
ATOM      8  H   UNL A   1      31.934  29.273  22.515  1.00  0.00     0.163 HD
BRANCH   6   9
ATOM      9  C   UNL A   1      33.360  26.238  22.328  1.00  0.00     0.102 A 
ATOM     10  C   UNL A   1      34.019  24.084  23.245  1.00  0.00     0.001 A 
ATOM     11  C   UNL A   1      33.520  23.505  22.083  1.00  0.00     0.124 A 
ATOM     12  C   UNL A   1      33.987  25.483  23.320  1.00  0.00     0.029 A 
ATOM     13  N   UNL A   1      32.991  24.203  21.054  1.00  0.00    -0.221 NA
ATOM     14  C   UNL A   1      32.914  25.545  21.199  1.00  0.00     0.223 A 
BRANCH  10  15
ATOM     15  C   UNL A   1      34.483  23.285  24.380  1.00  0.00    -0.016 A 
ATOM     16  C   UNL A   1      35.504  21.238  25.225  1.00  0.00     0.040 A 
ATOM     17  C   UNL A   1      35.315  21.681  26.537  1.00  0.00     0.014 A 
ATOM     18  C   UNL A   1      35.071  22.025  24.155  1.00  0.00     0.022 A 
ATOM     19  C   UNL A   1      34.740  22.929  26.773  1.00  0.00     0.001 A 
ATOM     20  C   UNL A   1      34.334  23.730  25.702  1.00  0.00     0.009 A 
BRANCH  16  21
ATOM     21  C   UNL A   1      36.058  19.885  25.010  1.00  0.00     0.251 C 
ATOM     22  C   UNL A   1      33.813  18.749  24.597  1.00  0.00     0.143 C 
ATOM     23  N   UNL A   1      35.240  18.805  24.814  1.00  0.00    -0.355 N 
ATOM     24  H   UNL A   1      35.694  17.932  24.823  1.00  0.00     0.163 HD
ATOM     25  O   UNL A   1      37.279  19.736  25.008  1.00  0.00    -0.269 OA
ENDBRANCH  16  21
ENDBRANCH  10  15
BRANCH  14  26
ATOM     26  O   UNL A   1      32.343  26.164  20.121  1.00  0.00    -0.493 OA
ATOM     27  H   UNL A   1      32.726  26.073  19.271  1.00  0.00     0.295 HD
ENDBRANCH  14  26
ENDBRANCH   6   9
ENDBRANCH   4   5
ENDBRANCH   3   4
ENDBRANCH   2   3
ENDBRANCH   1   2
BRANCH   1  28
ATOM     28  C   UNL A   1      32.961  27.837  26.968  1.00  0.00     0.021 C 
BRANCH  28  29
ATOM     29  C   UNL A   1      33.826  28.746  26.100  1.00  0.00     0.116 C 
BRANCH  29  30
ATOM     30  N   UNL A   1      33.649  30.143  26.458  1.00  0.00    -0.352 N 
ATOM     31  C   UNL A   1      34.310  30.888  27.402  1.00  0.00     0.251 C 
ATOM     32  H   UNL A   1      32.957  30.624  25.951  1.00  0.00     0.163 HD
ATOM     33  O   UNL A   1      33.845  31.970  27.748  1.00  0.00    -0.269 OA
BRANCH  31  34
ATOM     34  C   UNL A   1      35.568  30.387  28.000  1.00  0.00     0.039 A 
ATOM     35  C   UNL A   1      36.761  30.553  27.294  1.00  0.00     0.014 A 
ATOM     36  C   UNL A   1      35.566  29.712  29.225  1.00  0.00     0.014 A 
ATOM     37  C   UNL A   1      37.955  30.062  27.827  1.00  0.00     0.010 A 
ATOM     38  C   UNL A   1      36.767  29.292  29.790  1.00  0.00     0.010 A 
ATOM     39  C   UNL A   1      37.970  29.436  29.085  1.00  0.00    -0.014 A 
BRANCH  39  40
ATOM     40  C   UNL A   1      39.230  28.879  29.643  1.00  0.00     0.031 A 
ATOM     41  C   UNL A   1      39.794  29.440  30.923  1.00  0.00     0.074 A 
ATOM     42  C   UNL A   1      39.872  27.891  28.991  1.00  0.00     0.049 A 
ATOM     43  N   UNL A   1      40.887  29.109  31.563  1.00  0.00    -0.248 NA
ATOM     44  C   UNL A   1      39.045  30.541  31.547  1.00  0.00     0.031 C 
ATOM     45  C   UNL A   1      39.443  27.300  27.722  1.00  0.00     0.029 A 
ATOM     46  N   UNL A   1      41.020  27.209  29.303  1.00  0.00    -0.354 N 
ATOM     47  C   UNL A   1      40.961  29.966  32.656  1.00  0.00     0.074 A 
ATOM     48  C   UNL A   1      39.843  30.877  32.549  1.00  0.00     0.031 C 
ATOM     49  C   UNL A   1      40.299  26.323  27.382  1.00  0.00     0.029 A 
ATOM     50  C   UNL A   1      41.355  26.242  28.386  1.00  0.00     0.049 A 
ATOM     51  H   UNL A   1      41.554  27.395  30.109  1.00  0.00     0.167 HD
ATOM     52  C   UNL A   1      41.862  29.974  33.671  1.00  0.00     0.034 A 
ATOM     53  C   UNL A   1      42.397  25.387  28.358  1.00  0.00     0.034 A 
ATOM     54  C   UNL A   1      42.965  29.049  33.766  1.00  0.00     0.049 A 
ATOM     55  C   UNL A   1      43.385  25.414  29.497  1.00  0.00     0.074 A 
ATOM     56  C   UNL A   1      43.919  28.940  34.763  1.00  0.00     0.029 A 
ATOM     57  N   UNL A   1      43.265  28.071  32.825  1.00  0.00    -0.354 N 
ATOM     58  N   UNL A   1      43.416  26.199  30.550  1.00  0.00    -0.248 NA
ATOM     59  C   UNL A   1      44.465  24.421  29.454  1.00  0.00     0.031 C 
ATOM     60  C   UNL A   1      44.828  27.941  34.396  1.00  0.00     0.029 A 
ATOM     61  C   UNL A   1      44.398  27.369  33.209  1.00  0.00     0.049 A 
ATOM     62  H   UNL A   1      42.749  27.901  32.004  1.00  0.00     0.167 HD
ATOM     63  C   UNL A   1      44.497  25.767  31.313  1.00  0.00     0.074 A 
ATOM     64  C   UNL A   1      45.077  24.642  30.608  1.00  0.00     0.031 C 
ATOM     65  C   UNL A   1      44.969  26.253  32.491  1.00  0.00     0.034 A 
BRANCH  52  66
ATOM     66  C   UNL A   1      41.694  31.034  34.738  1.00  0.00     0.023 A 
ATOM     67  C   UNL A   1      40.587  31.040  35.606  1.00  0.00     0.031 A 
ATOM     68  C   UNL A   1      42.629  32.076  34.864  1.00  0.00     0.131 A 
ATOM     69  C   UNL A   1      40.399  32.107  36.498  1.00  0.00     0.055 A 
ATOM     70  C   UNL A   1      42.483  33.088  35.815  1.00  0.00     0.041 A 
ATOM     71  F   UNL A   1      43.696  32.140  34.052  1.00  0.00    -0.206 F 
ATOM     72  C   UNL A   1      41.353  33.117  36.628  1.00  0.00     0.022 A 
BRANCH  69  73
ATOM     73  S   UNL A   1      38.813  32.237  37.370  1.00  0.00     0.124 S 
ATOM     74  O   UNL A   1      39.251  32.412  38.753  1.00  0.00    -0.237 OA
ATOM     75  O   UNL A   1      38.200  33.401  36.741  1.00  0.00    -0.237 OA
ATOM     76  O   UNL A   1      38.162  30.959  37.089  1.00  0.00    -0.744 OA
ENDBRANCH  69  73
ENDBRANCH  52  66
BRANCH  53  77
ATOM     77  C   UNL A   1      42.559  24.425  27.230  1.00  0.00     0.023 A 
ATOM     78  C   UNL A   1      42.001  23.138  27.289  1.00  0.00     0.031 A 
ATOM     79  C   UNL A   1      43.316  24.763  26.094  1.00  0.00     0.131 A 
ATOM     80  C   UNL A   1      42.254  22.217  26.260  1.00  0.00     0.055 A 
ATOM     81  C   UNL A   1      43.517  23.862  25.047  1.00  0.00     0.041 A 
ATOM     82  F   UNL A   1      43.865  25.983  25.981  1.00  0.00    -0.206 F 
ATOM     83  C   UNL A   1      42.997  22.574  25.134  1.00  0.00     0.022 A 
BRANCH  80  84
ATOM     84  S   UNL A   1      41.668  20.511  26.459  1.00  0.00     0.124 S 
ATOM     85  O   UNL A   1      40.234  20.662  26.245  1.00  0.00    -0.237 OA
ATOM     86  O   UNL A   1      42.405  19.814  25.410  1.00  0.00    -0.237 OA
ATOM     87  O   UNL A   1      42.064  20.174  27.825  1.00  0.00    -0.744 OA
ENDBRANCH  80  84
ENDBRANCH  53  77
BRANCH  65  88
ATOM     88  C   UNL A   1      46.137  25.521  33.111  1.00  0.00     0.023 A 
ATOM     89  C   UNL A   1      45.955  24.418  33.963  1.00  0.00     0.031 A 
ATOM     90  C   UNL A   1      47.451  25.963  32.875  1.00  0.00     0.131 A 
ATOM     91  C   UNL A   1      47.059  23.847  34.613  1.00  0.00     0.055 A 
ATOM     92  C   UNL A   1      48.553  25.345  33.468  1.00  0.00     0.041 A 
ATOM     93  F   UNL A   1      47.686  27.013  32.072  1.00  0.00    -0.206 F 
ATOM     94  C   UNL A   1      48.359  24.292  34.358  1.00  0.00     0.022 A 
BRANCH  91  95
ATOM     95  S   UNL A   1      46.763  22.600  35.898  1.00  0.00     0.124 S 
ATOM     96  O   UNL A   1      46.296  21.461  35.114  1.00  0.00    -0.237 OA
ATOM     97  O   UNL A   1      48.083  22.459  36.504  1.00  0.00    -0.237 OA
ATOM     98  O   UNL A   1      45.753  23.222  36.752  1.00  0.00    -0.744 OA
ENDBRANCH  91  95
ENDBRANCH  65  88
ENDBRANCH  39  40
ENDBRANCH  31  34
ENDBRANCH  29  30
ENDBRANCH  28  29
ENDBRANCH   1  28
TORSDOF 19
ENDMDL
MODEL 3
REMARK VINA RESULT:     -11.7      5.267     10.676
REMARK SMILES CNC(=O)c1cccc(-c2cnc(O)c(C(=O)NCCCCCCNC(=O)c3ccc(-c4c5nc(c(-c6cc(S(=O)(=O)[O-])ccc6F)c6ccc([nH]6)c(-c6cc(S(=O)(=O)[O-])ccc6F)c6nc(c(-c7cc(S(=O)(=O)[O-])ccc7F)c7ccc4[nH]7)C=C6)C=C5)cc3)c2)c1
REMARK SMILES IDX 22 1 21 2 20 3 19 4 18 5 16 6 17 7 15 9 10 10 11 11 91 12
REMARK SMILES IDX 12 13 13 14 9 15 5 16 6 17 92 18 7 19 8 20 3 21 1 22 2 23
REMARK SMILES IDX 4 25 14 26 23 28 24 29 25 30 26 31 27 33 28 34 29 35 90 36
REMARK SMILES IDX 30 37 89 38 31 39 32 40 33 41 83 42 34 43 88 44 82 45 84 46
REMARK SMILES IDX 35 47 87 48 81 49 80 50 36 52 68 53 48 54 67 55 49 56 52 57
REMARK SMILES IDX 66 58 85 59 50 60 51 61 65 63 86 64 53 65 37 66 38 67 46 68
REMARK SMILES IDX 39 69 45 70 47 71 44 72 40 73 41 74 42 75 43 76 69 77 70 78
REMARK SMILES IDX 78 79 71 80 77 81 79 82 76 83 72 84 73 85 74 86 75 87 54 88
REMARK SMILES IDX 55 89 63 90 56 91 62 92 64 93 61 94 57 95 58 96 59 97 60 98
REMARK H PARENT 18 8 2 24 14 27 25 32 84 51 52 62
REMARK Flexibility Score: inf
ROOT
ATOM      1  C   UNL A   1      35.278  23.691  24.153  1.00  0.00     0.002 C 
ENDROOT
BRANCH   1   2
ATOM      2  C   UNL A   1      34.478  23.685  22.844  1.00  0.00     0.002 C 
BRANCH   2   3
ATOM      3  C   UNL A   1      33.643  24.951  22.598  1.00  0.00     0.021 C 
BRANCH   3   4
ATOM      4  C   UNL A   1      32.218  24.644  22.132  1.00  0.00     0.116 C 
BRANCH   4   5
ATOM      5  N   UNL A   1      31.265  25.046  23.153  1.00  0.00    -0.352 N 
ATOM      6  C   UNL A   1      30.935  24.536  24.380  1.00  0.00     0.256 C 
ATOM      7  O   UNL A   1      30.066  25.127  25.029  1.00  0.00    -0.269 OA
ATOM      8  H   UNL A   1      30.750  25.850  22.912  1.00  0.00     0.163 HD
BRANCH   6   9
ATOM      9  C   UNL A   1      31.601  23.375  25.016  1.00  0.00     0.102 A 
ATOM     10  C   UNL A   1      32.432  21.090  25.044  1.00  0.00     0.001 A 
ATOM     11  C   UNL A   1      33.051  21.394  26.251  1.00  0.00     0.124 A 
ATOM     12  C   UNL A   1      31.644  22.094  24.465  1.00  0.00     0.029 A 
ATOM     13  N   UNL A   1      32.958  22.592  26.871  1.00  0.00    -0.221 NA
ATOM     14  C   UNL A   1      32.248  23.554  26.242  1.00  0.00     0.223 A 
BRANCH  10  15
ATOM     15  C   UNL A   1      32.647  19.817  24.354  1.00  0.00    -0.016 A 
ATOM     16  C   UNL A   1      33.511  17.537  24.382  1.00  0.00     0.040 A 
ATOM     17  C   UNL A   1      33.153  17.381  23.040  1.00  0.00     0.014 A 
ATOM     18  C   UNL A   1      33.279  18.754  25.028  1.00  0.00     0.022 A 
ATOM     19  C   UNL A   1      32.521  18.423  22.364  1.00  0.00     0.001 A 
ATOM     20  C   UNL A   1      32.261  19.631  23.018  1.00  0.00     0.009 A 
BRANCH  16  21
ATOM     21  C   UNL A   1      34.235  16.436  25.052  1.00  0.00     0.251 C 
ATOM     22  C   UNL A   1      32.151  15.143  25.748  1.00  0.00     0.143 C 
ATOM     23  N   UNL A   1      33.563  15.442  25.711  1.00  0.00    -0.355 N 
ATOM     24  H   UNL A   1      34.131  14.838  26.243  1.00  0.00     0.163 HD
ATOM     25  O   UNL A   1      35.463  16.421  25.010  1.00  0.00    -0.269 OA
ENDBRANCH  16  21
ENDBRANCH  10  15
BRANCH  14  26
ATOM     26  O   UNL A   1      32.230  24.737  26.928  1.00  0.00    -0.493 OA
ATOM     27  H   UNL A   1      32.834  24.881  27.630  1.00  0.00     0.295 HD
ENDBRANCH  14  26
ENDBRANCH   6   9
ENDBRANCH   4   5
ENDBRANCH   3   4
ENDBRANCH   2   3
ENDBRANCH   1   2
BRANCH   1  28
ATOM     28  C   UNL A   1      36.149  22.454  24.382  1.00  0.00     0.021 C 
BRANCH  28  29
ATOM     29  C   UNL A   1      36.601  22.263  25.826  1.00  0.00     0.116 C 
BRANCH  29  30
ATOM     30  N   UNL A   1      37.615  21.228  25.931  1.00  0.00    -0.352 N 
ATOM     31  C   UNL A   1      38.965  21.353  26.135  1.00  0.00     0.251 C 
ATOM     32  H   UNL A   1      37.286  20.305  25.843  1.00  0.00     0.163 HD
ATOM     33  O   UNL A   1      39.697  20.389  25.927  1.00  0.00    -0.269 OA
BRANCH  31  34
ATOM     34  C   UNL A   1      39.534  22.640  26.595  1.00  0.00     0.039 A 
ATOM     35  C   UNL A   1      39.062  23.825  26.028  1.00  0.00     0.014 A 
ATOM     36  C   UNL A   1      40.563  22.677  27.542  1.00  0.00     0.014 A 
ATOM     37  C   UNL A   1      39.605  25.048  26.426  1.00  0.00     0.010 A 
ATOM     38  C   UNL A   1      41.049  23.901  27.993  1.00  0.00     0.010 A 
ATOM     39  C   UNL A   1      40.596  25.098  27.420  1.00  0.00    -0.014 A 
BRANCH  39  40
ATOM     40  C   UNL A   1      41.206  26.391  27.825  1.00  0.00     0.031 A 
ATOM     41  C   UNL A   1      42.627  26.704  27.435  1.00  0.00     0.074 A 
ATOM     42  C   UNL A   1      40.492  27.268  28.557  1.00  0.00     0.049 A 
ATOM     43  N   UNL A   1      43.348  27.763  27.705  1.00  0.00    -0.248 NA
ATOM     44  C   UNL A   1      43.342  25.674  26.667  1.00  0.00     0.031 C 
ATOM     45  C   UNL A   1      39.123  27.055  29.030  1.00  0.00     0.029 A 
ATOM     46  N   UNL A   1      40.816  28.513  29.032  1.00  0.00    -0.354 N 
ATOM     47  C   UNL A   1      44.600  27.521  27.150  1.00  0.00     0.074 A 
ATOM     48  C   UNL A   1      44.560  26.187  26.594  1.00  0.00     0.031 C 
ATOM     49  C   UNL A   1      38.714  28.146  29.699  1.00  0.00     0.029 A 
ATOM     50  C   UNL A   1      39.801  29.119  29.735  1.00  0.00     0.049 A 
ATOM     51  H   UNL A   1      41.693  28.934  28.884  1.00  0.00     0.167 HD
ATOM     52  C   UNL A   1      45.675  28.347  27.084  1.00  0.00     0.034 A 
ATOM     53  C   UNL A   1      39.754  30.323  30.340  1.00  0.00     0.034 A 
ATOM     54  C   UNL A   1      45.692  29.680  27.636  1.00  0.00     0.049 A 
ATOM     55  C   UNL A   1      40.960  31.223  30.253  1.00  0.00     0.074 A 
ATOM     56  C   UNL A   1      46.709  30.618  27.600  1.00  0.00     0.029 A 
ATOM     57  N   UNL A   1      44.639  30.267  28.329  1.00  0.00    -0.354 N 
ATOM     58  N   UNL A   1      42.123  31.000  29.683  1.00  0.00    -0.248 NA
ATOM     59  C   UNL A   1      40.837  32.548  30.871  1.00  0.00     0.031 C 
ATOM     60  C   UNL A   1      46.296  31.745  28.321  1.00  0.00     0.029 A 
ATOM     61  C   UNL A   1      44.990  31.544  28.740  1.00  0.00     0.049 A 
ATOM     62  H   UNL A   1      43.771  29.838  28.503  1.00  0.00     0.167 HD
ATOM     63  C   UNL A   1      42.854  32.174  29.842  1.00  0.00     0.074 A 
ATOM     64  C   UNL A   1      41.993  33.104  30.543  1.00  0.00     0.031 C 
ATOM     65  C   UNL A   1      44.122  32.459  29.445  1.00  0.00     0.034 A 
BRANCH  52  66
ATOM     66  C   UNL A   1      46.921  27.812  26.412  1.00  0.00     0.023 A 
ATOM     67  C   UNL A   1      47.183  28.044  25.050  1.00  0.00     0.031 A 
ATOM     68  C   UNL A   1      47.838  27.024  27.130  1.00  0.00     0.131 A 
ATOM     69  C   UNL A   1      48.281  27.427  24.430  1.00  0.00     0.055 A 
ATOM     70  C   UNL A   1      48.978  26.486  26.527  1.00  0.00     0.041 A 
ATOM     71  F   UNL A   1      47.634  26.747  28.427  1.00  0.00    -0.206 F 
ATOM     72  C   UNL A   1      49.195  26.671  25.165  1.00  0.00     0.022 A 
BRANCH  69  73
ATOM     73  S   UNL A   1      48.405  27.496  22.621  1.00  0.00     0.124 S 
ATOM     74  O   UNL A   1      47.175  28.199  22.268  1.00  0.00    -0.237 OA
ATOM     75  O   UNL A   1      49.646  28.234  22.417  1.00  0.00    -0.237 OA
ATOM     76  O   UNL A   1      48.443  26.089  22.227  1.00  0.00    -0.744 OA
ENDBRANCH  69  73
ENDBRANCH  52  66
BRANCH  53  77
ATOM     77  C   UNL A   1      38.527  30.758  31.066  1.00  0.00     0.023 A 
ATOM     78  C   UNL A   1      37.461  31.368  30.387  1.00  0.00     0.031 A 
ATOM     79  C   UNL A   1      38.423  30.613  32.461  1.00  0.00     0.131 A 
ATOM     80  C   UNL A   1      36.361  31.862  31.108  1.00  0.00     0.055 A 
ATOM     81  C   UNL A   1      37.302  31.054  33.167  1.00  0.00     0.041 A 
ATOM     82  F   UNL A   1      39.409  30.028  33.160  1.00  0.00    -0.206 F 
ATOM     83  C   UNL A   1      36.269  31.697  32.491  1.00  0.00     0.022 A 
BRANCH  80  84
ATOM     84  S   UNL A   1      35.092  32.804  30.218  1.00  0.00     0.124 S 
ATOM     85  O   UNL A   1      34.044  32.916  31.227  1.00  0.00    -0.237 OA
ATOM     86  O   UNL A   1      35.802  34.035  29.891  1.00  0.00    -0.237 OA
ATOM     87  O   UNL A   1      34.772  31.948  29.077  1.00  0.00    -0.744 OA
ENDBRANCH  80  84
ENDBRANCH  53  77
BRANCH  65  88
ATOM     88  C   UNL A   1      44.620  33.861  29.713  1.00  0.00     0.023 A 
ATOM     89  C   UNL A   1      44.393  34.916  28.811  1.00  0.00     0.031 A 
ATOM     90  C   UNL A   1      45.370  34.132  30.871  1.00  0.00     0.131 A 
ATOM     91  C   UNL A   1      44.979  36.170  29.040  1.00  0.00     0.055 A 
ATOM     92  C   UNL A   1      45.889  35.402  31.130  1.00  0.00     0.041 A 
ATOM     93  F   UNL A   1      45.621  33.165  31.767  1.00  0.00    -0.206 F 
ATOM     94  C   UNL A   1      45.711  36.425  30.203  1.00  0.00     0.022 A 
BRANCH  91  95
ATOM     95  S   UNL A   1      44.881  37.426  27.735  1.00  0.00     0.124 S 
ATOM     96  O   UNL A   1      43.826  36.893  26.879  1.00  0.00    -0.237 OA
ATOM     97  O   UNL A   1      44.545  38.630  28.487  1.00  0.00    -0.237 OA
ATOM     98  O   UNL A   1      46.221  37.416  27.149  1.00  0.00    -0.744 OA
ENDBRANCH  91  95
ENDBRANCH  65  88
ENDBRANCH  39  40
ENDBRANCH  31  34
ENDBRANCH  29  30
ENDBRANCH  28  29
ENDBRANCH   1  28
TORSDOF 19
ENDMDL
