MODEL 1
REMARK VINA RESULT:     -12.4      0.000      0.000
REMARK SMILES O=C(CCC(=O)N1CCC[C@@]2(CCC(=O)N(Cc3ccncc3)C2)C1)NCCCCCCNC(=O)c1ccc(-c2c3nc(c(-c4cc(S(=O)(=O)[O-])ccc4F)c4ccc([nH]4)c(-c4cc(S(=O)(=O)[O-])ccc4F)c4nc(c(-c5cc(S(=O)(=O)[O-])ccc5F)c5ccc2[nH]5)C=C4)C=C3)cc1
REMARK SMILES IDX 28 1 27 2 26 3 1 4 2 5 3 7 4 8 5 9 6 10 7 11 8 12 25 13 9 14
REMARK SMILES IDX 11 15 10 16 12 17 24 18 13 19 16 20 14 21 15 22 17 23 18 24
REMARK SMILES IDX 19 25 23 26 20 27 22 28 21 29 29 30 30 31 31 32 32 33 33 34
REMARK SMILES IDX 34 35 35 37 36 38 37 39 98 40 38 41 97 42 39 43 40 44 41 45
REMARK SMILES IDX 91 46 42 47 96 48 90 49 92 50 43 51 95 52 89 53 88 54 44 56
REMARK SMILES IDX 76 57 56 58 75 59 57 60 60 61 74 62 93 63 58 64 59 65 73 67
REMARK SMILES IDX 94 68 61 69 45 70 46 71 54 72 47 73 53 74 55 75 52 76 48 77
REMARK SMILES IDX 49 78 50 79 51 80 77 81 78 82 86 83 79 84 85 85 87 86 84 87
REMARK SMILES IDX 80 88 81 89 82 90 83 91 62 92 63 93 71 94 64 95 70 96 72 97
REMARK SMILES IDX 69 98 65 99 66 100 67 101 68 102
REMARK H PARENT 26 6 33 36 92 55 60 66
REMARK Flexibility Score: inf
ROOT
ATOM      1  C   UNL A   1      34.938  23.595  27.092  1.00  0.00     0.021 C 
ENDROOT
BRANCH   1   2
ATOM      2  C   UNL A   1      33.553  23.952  26.441  1.00  0.00     0.116 C 
BRANCH   2   3
ATOM      3  N   UNL A   1      33.530  25.300  25.872  1.00  0.00    -0.356 N 
ATOM      4  O   UNL A   1      31.624  26.092  26.908  1.00  0.00    -0.275 OA
ATOM      5  C   UNL A   1      32.545  26.238  26.112  1.00  0.00     0.220 C 
ATOM      6  H   UNL A   1      34.270  25.557  25.274  1.00  0.00     0.163 HD
BRANCH   5   7
ATOM      7  C   UNL A   1      32.709  27.523  25.310  1.00  0.00     0.110 C 
BRANCH   7   8
ATOM      8  C   UNL A   1      33.243  27.251  23.904  1.00  0.00     0.110 C 
BRANCH   8   9
ATOM      9  C   UNL A   1      32.129  26.636  23.104  1.00  0.00     0.223 C 
ATOM     10  O   UNL A   1      30.981  27.062  23.273  1.00  0.00    -0.275 OA
BRANCH   9  11
ATOM     11  N   UNL A   1      32.399  25.518  22.328  1.00  0.00    -0.342 N 
ATOM     12  C   UNL A   1      32.550  25.502  20.875  1.00  0.00     0.119 C 
ATOM     13  C   UNL A   1      32.091  24.265  22.940  1.00  0.00     0.128 C 
ATOM     14  C   UNL A   1      33.013  24.168  20.252  1.00  0.00     0.022 C 
ATOM     15  C   UNL A   1      33.109  23.139  22.543  1.00  0.00     0.006 C 
ATOM     16  C   UNL A   1      32.715  22.901  21.062  1.00  0.00     0.012 C 
ATOM     17  C   UNL A   1      34.993  23.630  22.601  1.00  0.00     0.020 C 
ATOM     18  C   UNL A   1      32.506  21.798  23.728  1.00  0.00     0.128 C 
ATOM     19  C   UNL A   1      36.200  22.480  23.664  1.00  0.00     0.101 C 
ATOM     20  N   UNL A   1      33.641  20.639  24.479  1.00  0.00    -0.338 N 
ATOM     21  C   UNL A   1      35.324  21.103  24.820  1.00  0.00     0.222 C 
ATOM     22  O   UNL A   1      35.846  20.737  25.867  1.00  0.00    -0.275 OA
BRANCH  20  23
ATOM     23  C   UNL A   1      33.175  19.268  23.951  1.00  0.00     0.155 C 
BRANCH  23  24
ATOM     24  C   UNL A   1      33.472  17.849  24.332  1.00  0.00    -0.026 A 
ATOM     25  C   UNL A   1      34.731  17.279  24.278  1.00  0.00     0.025 A 
ATOM     26  C   UNL A   1      32.440  17.107  24.963  1.00  0.00     0.025 A 
ATOM     27  C   UNL A   1      34.893  16.000  24.806  1.00  0.00     0.111 A 
ATOM     28  C   UNL A   1      32.705  15.847  25.474  1.00  0.00     0.111 A 
ATOM     29  N   UNL A   1      33.920  15.283  25.421  1.00  0.00    -0.265 NA
ENDBRANCH  23  24
ENDBRANCH  20  23
ENDBRANCH   9  11
ENDBRANCH   8   9
ENDBRANCH   7   8
ENDBRANCH   5   7
ENDBRANCH   2   3
ENDBRANCH   1   2
BRANCH   1  30
ATOM     30  C   UNL A   1      36.489  24.157  26.463  1.00  0.00     0.002 C 
BRANCH  30  31
ATOM     31  C   UNL A   1      38.486  23.411  26.392  1.00  0.00     0.002 C 
BRANCH  31  32
ATOM     32  C   UNL A   1      39.229  21.829  25.964  1.00  0.00     0.021 C 
BRANCH  32  33
ATOM     33  C   UNL A   1      40.128  20.841  26.781  1.00  0.00     0.116 C 
BRANCH  33  34
ATOM     34  N   UNL A   1      40.962  19.891  26.037  1.00  0.00    -0.352 N 
ATOM     35  C   UNL A   1      42.310  19.851  25.837  1.00  0.00     0.251 C 
ATOM     36  H   UNL A   1      40.464  19.157  25.610  1.00  0.00     0.163 HD
ATOM     37  O   UNL A   1      42.926  18.861  25.479  1.00  0.00    -0.269 OA
BRANCH  35  38
ATOM     38  C   UNL A   1      42.972  21.090  26.101  1.00  0.00     0.039 A 
ATOM     39  C   UNL A   1      43.003  22.017  25.063  1.00  0.00     0.014 A 
ATOM     40  C   UNL A   1      43.213  21.372  27.443  1.00  0.00     0.014 A 
ATOM     41  C   UNL A   1      43.300  23.310  25.385  1.00  0.00     0.010 A 
ATOM     42  C   UNL A   1      43.440  22.680  27.772  1.00  0.00     0.010 A 
ATOM     43  C   UNL A   1      43.514  23.624  26.733  1.00  0.00    -0.014 A 
BRANCH  43  44
ATOM     44  C   UNL A   1      44.074  24.927  27.037  1.00  0.00     0.031 A 
ATOM     45  C   UNL A   1      43.133  25.897  27.668  1.00  0.00     0.074 A 
ATOM     46  C   UNL A   1      45.372  25.136  26.784  1.00  0.00     0.049 A 
ATOM     47  N   UNL A   1      43.291  27.166  27.882  1.00  0.00    -0.248 NA
ATOM     48  C   UNL A   1      41.809  25.372  28.064  1.00  0.00     0.031 C 
ATOM     49  C   UNL A   1      46.301  24.140  26.234  1.00  0.00     0.029 A 
ATOM     50  N   UNL A   1      46.138  26.239  26.979  1.00  0.00    -0.354 N 
ATOM     51  C   UNL A   1      42.074  27.599  28.394  1.00  0.00     0.074 A 
ATOM     52  C   UNL A   1      41.170  26.476  28.402  1.00  0.00     0.031 C 
ATOM     53  C   UNL A   1      47.528  24.677  26.173  1.00  0.00     0.029 A 
ATOM     54  C   UNL A   1      47.443  26.070  26.590  1.00  0.00     0.049 A 
ATOM     55  H   UNL A   1      45.793  27.077  27.362  1.00  0.00     0.167 HD
ATOM     56  C   UNL A   1      41.774  28.841  28.827  1.00  0.00     0.034 A 
ATOM     57  C   UNL A   1      48.428  26.982  26.552  1.00  0.00     0.034 A 
ATOM     58  C   UNL A   1      42.761  29.887  28.809  1.00  0.00     0.049 A 
ATOM     59  C   UNL A   1      48.053  28.371  27.008  1.00  0.00     0.074 A 
ATOM     60  C   UNL A   1      42.636  31.208  29.180  1.00  0.00     0.029 A 
ATOM     61  N   UNL A   1      44.081  29.702  28.398  1.00  0.00    -0.354 N 
ATOM     62  N   UNL A   1      46.887  28.810  27.436  1.00  0.00    -0.248 NA
ATOM     63  C   UNL A   1      49.108  29.382  26.977  1.00  0.00     0.031 C 
ATOM     64  C   UNL A   1      43.862  31.834  28.934  1.00  0.00     0.029 A 
ATOM     65  C   UNL A   1      44.779  30.888  28.491  1.00  0.00     0.049 A 
ATOM     66  H   UNL A   1      44.460  28.848  28.086  1.00  0.00     0.167 HD
ATOM     67  C   UNL A   1      47.072  30.148  27.749  1.00  0.00     0.074 A 
ATOM     68  C   UNL A   1      48.474  30.429  27.485  1.00  0.00     0.031 C 
ATOM     69  C   UNL A   1      46.184  31.075  28.202  1.00  0.00     0.034 A 
BRANCH  56  70
ATOM     70  C   UNL A   1      40.356  29.101  29.262  1.00  0.00     0.023 A 
ATOM     71  C   UNL A   1      39.959  29.017  30.611  1.00  0.00     0.031 A 
ATOM     72  C   UNL A   1      39.360  29.344  28.301  1.00  0.00     0.131 A 
ATOM     73  C   UNL A   1      38.599  29.102  30.949  1.00  0.00     0.055 A 
ATOM     74  C   UNL A   1      38.020  29.511  28.653  1.00  0.00     0.041 A 
ATOM     75  F   UNL A   1      39.669  29.389  26.995  1.00  0.00    -0.206 F 
ATOM     76  C   UNL A   1      37.629  29.377  29.982  1.00  0.00     0.022 A 
BRANCH  73  77
ATOM     77  S   UNL A   1      38.094  28.705  32.647  1.00  0.00     0.124 S 
ATOM     78  O   UNL A   1      36.735  29.238  32.682  1.00  0.00    -0.237 OA
ATOM     79  O   UNL A   1      38.212  27.251  32.681  1.00  0.00    -0.237 OA
ATOM     80  O   UNL A   1      39.063  29.427  33.470  1.00  0.00    -0.744 OA
ENDBRANCH  73  77
ENDBRANCH  56  70
BRANCH  57  81
ATOM     81  C   UNL A   1      49.782  26.632  26.043  1.00  0.00     0.023 A 
ATOM     82  C   UNL A   1      50.227  27.093  24.796  1.00  0.00     0.031 A 
ATOM     83  C   UNL A   1      50.653  25.807  26.782  1.00  0.00     0.131 A 
ATOM     84  C   UNL A   1      51.474  26.683  24.300  1.00  0.00     0.055 A 
ATOM     85  C   UNL A   1      51.921  25.457  26.314  1.00  0.00     0.041 A 
ATOM     86  F   UNL A   1      50.289  25.337  27.986  1.00  0.00    -0.206 F 
ATOM     87  C   UNL A   1      52.332  25.881  25.056  1.00  0.00     0.022 A 
BRANCH  84  88
ATOM     88  S   UNL A   1      51.911  27.118  22.595  1.00  0.00     0.124 S 
ATOM     89  O   UNL A   1      50.613  27.058  21.931  1.00  0.00    -0.237 OA
ATOM     90  O   UNL A   1      52.487  28.449  22.762  1.00  0.00    -0.237 OA
ATOM     91  O   UNL A   1      52.859  26.074  22.210  1.00  0.00    -0.744 OA
ENDBRANCH  84  88
ENDBRANCH  57  81
BRANCH  69  92
ATOM     92  C   UNL A   1      46.747  32.440  28.469  1.00  0.00     0.023 A 
ATOM     93  C   UNL A   1      46.756  33.430  27.476  1.00  0.00     0.031 A 
ATOM     94  C   UNL A   1      47.277  32.746  29.734  1.00  0.00     0.131 A 
ATOM     95  C   UNL A   1      47.358  34.663  27.740  1.00  0.00     0.055 A 
ATOM     96  C   UNL A   1      47.797  34.006  30.017  1.00  0.00     0.041 A 
ATOM     97  F   UNL A   1      47.287  31.828  30.712  1.00  0.00    -0.206 F 
ATOM     98  C   UNL A   1      47.856  34.968  29.011  1.00  0.00     0.022 A 
BRANCH  95  99
ATOM     99  S   UNL A   1      47.593  35.813  26.362  1.00  0.00     0.124 S 
ATOM    100  O   UNL A   1      48.396  35.015  25.440  1.00  0.00    -0.237 OA
ATOM    101  O   UNL A   1      46.222  36.083  25.943  1.00  0.00    -0.237 OA
ATOM    102  O   UNL A   1      48.290  36.941  26.975  1.00  0.00    -0.744 OA
ENDBRANCH  95  99
ENDBRANCH  69  92
ENDBRANCH  43  44
ENDBRANCH  35  38
ENDBRANCH  33  34
ENDBRANCH  32  33
ENDBRANCH  31  32
ENDBRANCH  30  31
ENDBRANCH   1  30
TORSDOF 21
ENDMDL
MODEL 2
REMARK VINA RESULT:     -12.3      1.631      7.517
REMARK SMILES O=C(CCC(=O)N1CCC[C@@]2(CCC(=O)N(Cc3ccncc3)C2)C1)NCCCCCCNC(=O)c1ccc(-c2c3nc(c(-c4cc(S(=O)(=O)[O-])ccc4F)c4ccc([nH]4)c(-c4cc(S(=O)(=O)[O-])ccc4F)c4nc(c(-c5cc(S(=O)(=O)[O-])ccc5F)c5ccc2[nH]5)C=C4)C=C3)cc1
REMARK SMILES IDX 28 1 27 2 26 3 1 4 2 5 3 7 4 8 5 9 6 10 7 11 8 12 25 13 9 14
REMARK SMILES IDX 11 15 10 16 12 17 24 18 13 19 16 20 14 21 15 22 17 23 18 24
REMARK SMILES IDX 19 25 23 26 20 27 22 28 21 29 29 30 30 31 31 32 32 33 33 34
REMARK SMILES IDX 34 35 35 37 36 38 37 39 98 40 38 41 97 42 39 43 40 44 41 45
REMARK SMILES IDX 91 46 42 47 96 48 90 49 92 50 43 51 95 52 89 53 88 54 44 56
REMARK SMILES IDX 76 57 56 58 75 59 57 60 60 61 74 62 93 63 58 64 59 65 73 67
REMARK SMILES IDX 94 68 61 69 45 70 46 71 54 72 47 73 53 74 55 75 52 76 48 77
REMARK SMILES IDX 49 78 50 79 51 80 77 81 78 82 86 83 79 84 85 85 87 86 84 87
REMARK SMILES IDX 80 88 81 89 82 90 83 91 62 92 63 93 71 94 64 95 70 96 72 97
REMARK SMILES IDX 69 98 65 99 66 100 67 101 68 102
REMARK H PARENT 26 6 33 36 92 55 60 66
REMARK Flexibility Score: inf
ROOT
ATOM      1  C   UNL A   1      34.895  23.350  27.125  1.00  0.00     0.021 C 
ENDROOT
BRANCH   1   2
ATOM      2  C   UNL A   1      33.473  23.752  26.589  1.00  0.00     0.116 C 
BRANCH   2   3
ATOM      3  N   UNL A   1      33.412  25.144  26.143  1.00  0.00    -0.356 N 
ATOM      4  O   UNL A   1      31.276  25.655  26.857  1.00  0.00    -0.275 OA
ATOM      5  C   UNL A   1      32.306  25.962  26.268  1.00  0.00     0.220 C 
ATOM      6  H   UNL A   1      34.217  25.524  25.723  1.00  0.00     0.163 HD
BRANCH   5   7
ATOM      7  C   UNL A   1      32.478  27.333  25.625  1.00  0.00     0.110 C 
BRANCH   7   8
ATOM      8  C   UNL A   1      33.165  27.238  24.263  1.00  0.00     0.110 C 
BRANCH   8   9
ATOM      9  C   UNL A   1      32.122  26.855  23.251  1.00  0.00     0.223 C 
ATOM     10  O   UNL A   1      31.026  27.426  23.293  1.00  0.00    -0.275 OA
BRANCH   9  11
ATOM     11  N   UNL A   1      32.365  25.777  22.413  1.00  0.00    -0.342 N 
ATOM     12  C   UNL A   1      32.537  25.842  20.964  1.00  0.00     0.119 C 
ATOM     13  C   UNL A   1      32.006  24.502  22.945  1.00  0.00     0.128 C 
ATOM     14  C   UNL A   1      32.963  24.532  20.268  1.00  0.00     0.022 C 
ATOM     15  C   UNL A   1      32.991  23.367  22.494  1.00  0.00     0.006 C 
ATOM     16  C   UNL A   1      32.611  23.230  20.997  1.00  0.00     0.012 C 
ATOM     17  C   UNL A   1      34.891  23.788  22.605  1.00  0.00     0.020 C 
ATOM     18  C   UNL A   1      32.328  21.979  23.590  1.00  0.00     0.128 C 
ATOM     19  C   UNL A   1      36.043  22.536  23.612  1.00  0.00     0.101 C 
ATOM     20  N   UNL A   1      33.412  20.739  24.284  1.00  0.00    -0.338 N 
ATOM     21  C   UNL A   1      35.104  21.124  24.673  1.00  0.00     0.222 C 
ATOM     22  O   UNL A   1      35.599  20.679  25.702  1.00  0.00    -0.275 OA
BRANCH  20  23
ATOM     23  C   UNL A   1      32.907  19.419  23.669  1.00  0.00     0.155 C 
BRANCH  23  24
ATOM     24  C   UNL A   1      33.085  17.972  24.019  1.00  0.00    -0.026 A 
ATOM     25  C   UNL A   1      33.913  17.104  23.331  1.00  0.00     0.025 A 
ATOM     26  C   UNL A   1      32.520  17.515  25.238  1.00  0.00     0.025 A 
ATOM     27  C   UNL A   1      34.103  15.827  23.855  1.00  0.00     0.111 A 
ATOM     28  C   UNL A   1      32.783  16.231  25.686  1.00  0.00     0.111 A 
ATOM     29  N   UNL A   1      33.579  15.379  25.023  1.00  0.00    -0.265 NA
ENDBRANCH  23  24
ENDBRANCH  20  23
ENDBRANCH   9  11
ENDBRANCH   8   9
ENDBRANCH   7   8
ENDBRANCH   5   7
ENDBRANCH   2   3
ENDBRANCH   1   2
BRANCH   1  30
ATOM     30  C   UNL A   1      36.404  23.961  26.443  1.00  0.00     0.002 C 
BRANCH  30  31
ATOM     31  C   UNL A   1      38.418  23.273  26.294  1.00  0.00     0.002 C 
BRANCH  31  32
ATOM     32  C   UNL A   1      39.189  21.706  25.860  1.00  0.00     0.021 C 
BRANCH  32  33
ATOM     33  C   UNL A   1      39.859  20.593  26.733  1.00  0.00     0.116 C 
BRANCH  33  34
ATOM     34  N   UNL A   1      40.933  19.795  26.130  1.00  0.00    -0.352 N 
ATOM     35  C   UNL A   1      42.280  19.999  26.088  1.00  0.00     0.251 C 
ATOM     36  H   UNL A   1      40.629  18.974  25.681  1.00  0.00     0.163 HD
ATOM     37  O   UNL A   1      43.102  19.130  25.845  1.00  0.00    -0.269 OA
BRANCH  35  38
ATOM     38  C   UNL A   1      42.673  21.343  26.372  1.00  0.00     0.039 A 
ATOM     39  C   UNL A   1      42.639  22.243  25.310  1.00  0.00     0.014 A 
ATOM     40  C   UNL A   1      42.720  21.687  27.720  1.00  0.00     0.014 A 
ATOM     41  C   UNL A   1      42.659  23.574  25.615  1.00  0.00     0.010 A 
ATOM     42  C   UNL A   1      42.668  23.019  28.025  1.00  0.00     0.010 A 
ATOM     43  C   UNL A   1      42.673  23.944  26.966  1.00  0.00    -0.014 A 
BRANCH  43  44
ATOM     44  C   UNL A   1      42.951  25.333  27.278  1.00  0.00     0.031 A 
ATOM     45  C   UNL A   1      44.302  25.821  26.879  1.00  0.00     0.074 A 
ATOM     46  C   UNL A   1      41.979  26.064  27.838  1.00  0.00     0.049 A 
ATOM     47  N   UNL A   1      44.889  26.937  27.181  1.00  0.00    -0.248 NA
ATOM     48  C   UNL A   1      45.125  24.899  26.067  1.00  0.00     0.031 C 
ATOM     49  C   UNL A   1      40.628  25.583  28.152  1.00  0.00     0.029 A 
ATOM     50  N   UNL A   1      41.969  27.368  28.216  1.00  0.00    -0.354 N 
ATOM     51  C   UNL A   1      46.164  26.832  26.638  1.00  0.00     0.074 A 
ATOM     52  C   UNL A   1      46.287  25.525  26.042  1.00  0.00     0.031 C 
ATOM     53  C   UNL A   1      39.908  26.602  28.645  1.00  0.00     0.029 A 
ATOM     54  C   UNL A   1      40.775  27.766  28.761  1.00  0.00     0.049 A 
ATOM     55  H   UNL A   1      42.742  27.969  28.109  1.00  0.00     0.167 HD
ATOM     56  C   UNL A   1      47.126  27.778  26.643  1.00  0.00     0.034 A 
ATOM     57  C   UNL A   1      40.466  28.946  29.324  1.00  0.00     0.034 A 
ATOM     58  C   UNL A   1      46.891  29.066  27.236  1.00  0.00     0.049 A 
ATOM     59  C   UNL A   1      41.573  29.971  29.347  1.00  0.00     0.074 A 
ATOM     60  C   UNL A   1      47.749  30.137  27.360  1.00  0.00     0.029 A 
ATOM     61  N   UNL A   1      45.674  29.451  27.799  1.00  0.00    -0.354 N 
ATOM     62  N   UNL A   1      42.805  29.863  28.892  1.00  0.00    -0.248 NA
ATOM     63  C   UNL A   1      41.261  31.264  29.953  1.00  0.00     0.031 C 
ATOM     64  C   UNL A   1      47.070  31.145  28.054  1.00  0.00     0.029 A 
ATOM     65  C   UNL A   1      45.761  30.739  28.287  1.00  0.00     0.049 A 
ATOM     66  H   UNL A   1      44.869  28.887  27.842  1.00  0.00     0.167 HD
ATOM     67  C   UNL A   1      43.413  31.085  29.136  1.00  0.00     0.074 A 
ATOM     68  C   UNL A   1      42.395  31.921  29.753  1.00  0.00     0.031 C 
ATOM     69  C   UNL A   1      44.687  31.496  28.891  1.00  0.00     0.034 A 
BRANCH  56  70
ATOM     70  C   UNL A   1      48.466  27.407  26.066  1.00  0.00     0.023 A 
ATOM     71  C   UNL A   1      48.812  27.688  24.730  1.00  0.00     0.031 A 
ATOM     72  C   UNL A   1      49.384  26.673  26.838  1.00  0.00     0.131 A 
ATOM     73  C   UNL A   1      50.003  27.177  24.190  1.00  0.00     0.055 A 
ATOM     74  C   UNL A   1      50.605  26.239  26.319  1.00  0.00     0.041 A 
ATOM     75  F   UNL A   1      49.093  26.333  28.104  1.00  0.00    -0.206 F 
ATOM     76  C   UNL A   1      50.915  26.479  24.984  1.00  0.00     0.022 A 
BRANCH  73  77
ATOM     77  S   UNL A   1      50.278  27.311  22.401  1.00  0.00     0.124 S 
ATOM     78  O   UNL A   1      50.098  28.744  22.183  1.00  0.00    -0.237 OA
ATOM     79  O   UNL A   1      51.639  26.807  22.251  1.00  0.00    -0.237 OA
ATOM     80  O   UNL A   1      49.234  26.464  21.829  1.00  0.00    -0.744 OA
ENDBRANCH  73  77
ENDBRANCH  56  70
BRANCH  57  81
ATOM     81  C   UNL A   1      39.124  29.186  29.921  1.00  0.00     0.023 A 
ATOM     82  C   UNL A   1      38.138  29.895  29.221  1.00  0.00     0.031 A 
ATOM     83  C   UNL A   1      38.806  28.731  31.217  1.00  0.00     0.131 A 
ATOM     84  C   UNL A   1      36.908  30.179  29.837  1.00  0.00     0.055 A 
ATOM     85  C   UNL A   1      37.558  28.958  31.799  1.00  0.00     0.041 A 
ATOM     86  F   UNL A   1      39.706  28.041  31.937  1.00  0.00    -0.206 F 
ATOM     87  C   UNL A   1      36.605  29.704  31.114  1.00  0.00     0.022 A 
BRANCH  84  88
ATOM     88  S   UNL A   1      35.753  31.287  28.985  1.00  0.00     0.124 S 
ATOM     89  O   UNL A   1      36.663  32.148  28.238  1.00  0.00    -0.237 OA
ATOM     90  O   UNL A   1      34.963  30.348  28.195  1.00  0.00    -0.237 OA
ATOM     91  O   UNL A   1      35.036  31.937  30.081  1.00  0.00    -0.744 OA
ENDBRANCH  84  88
ENDBRANCH  57  81
BRANCH  69  92
ATOM     92  C   UNL A   1      44.996  32.917  29.261  1.00  0.00     0.023 A 
ATOM     93  C   UNL A   1      44.845  33.959  28.333  1.00  0.00     0.031 A 
ATOM     94  C   UNL A   1      45.445  33.225  30.556  1.00  0.00     0.131 A 
ATOM     95  C   UNL A   1      45.216  35.257  28.691  1.00  0.00     0.055 A 
ATOM     96  C   UNL A   1      45.731  34.534  30.932  1.00  0.00     0.041 A 
ATOM     97  F   UNL A   1      45.602  32.259  31.473  1.00  0.00    -0.206 F 
ATOM     98  C   UNL A   1      45.633  35.558  29.992  1.00  0.00     0.022 A 
BRANCH  95  99
ATOM     99  S   UNL A   1      45.266  36.521  27.397  1.00  0.00     0.124 S 
ATOM    100  O   UNL A   1      43.846  36.783  27.180  1.00  0.00    -0.237 OA
ATOM    101  O   UNL A   1      46.020  37.595  28.037  1.00  0.00    -0.237 OA
ATOM    102  O   UNL A   1      45.950  35.852  26.293  1.00  0.00    -0.744 OA
ENDBRANCH  95  99
ENDBRANCH  69  92
ENDBRANCH  43  44
ENDBRANCH  35  38
ENDBRANCH  33  34
ENDBRANCH  32  33
ENDBRANCH  31  32
ENDBRANCH  30  31
ENDBRANCH   1  30
TORSDOF 21
ENDMDL
MODEL 3
REMARK VINA RESULT:     -12.0      2.283      3.226
REMARK SMILES O=C(CCC(=O)N1CCC[C@@]2(CCC(=O)N(Cc3ccncc3)C2)C1)NCCCCCCNC(=O)c1ccc(-c2c3nc(c(-c4cc(S(=O)(=O)[O-])ccc4F)c4ccc([nH]4)c(-c4cc(S(=O)(=O)[O-])ccc4F)c4nc(c(-c5cc(S(=O)(=O)[O-])ccc5F)c5ccc2[nH]5)C=C4)C=C3)cc1
REMARK SMILES IDX 28 1 27 2 26 3 1 4 2 5 3 7 4 8 5 9 6 10 7 11 8 12 25 13 9 14
REMARK SMILES IDX 11 15 10 16 12 17 24 18 13 19 16 20 14 21 15 22 17 23 18 24
REMARK SMILES IDX 19 25 23 26 20 27 22 28 21 29 29 30 30 31 31 32 32 33 33 34
REMARK SMILES IDX 34 35 35 37 36 38 37 39 98 40 38 41 97 42 39 43 40 44 41 45
REMARK SMILES IDX 91 46 42 47 96 48 90 49 92 50 43 51 95 52 89 53 88 54 44 56
REMARK SMILES IDX 76 57 56 58 75 59 57 60 60 61 74 62 93 63 58 64 59 65 73 67
REMARK SMILES IDX 94 68 61 69 45 70 46 71 54 72 47 73 53 74 55 75 52 76 48 77
REMARK SMILES IDX 49 78 50 79 51 80 77 81 78 82 86 83 79 84 85 85 87 86 84 87
REMARK SMILES IDX 80 88 81 89 82 90 83 91 62 92 63 93 71 94 64 95 70 96 72 97
REMARK SMILES IDX 69 98 65 99 66 100 67 101 68 102
REMARK H PARENT 26 6 33 36 92 55 60 66
REMARK Flexibility Score: inf
ROOT
ATOM      1  C   UNL A   1      38.010  29.382  27.898  1.00  0.00     0.021 C 
ENDROOT
BRANCH   1   2
ATOM      2  C   UNL A   1      36.619  29.756  28.526  1.00  0.00     0.116 C 
BRANCH   2   3
ATOM      3  N   UNL A   1      35.493  29.323  27.699  1.00  0.00    -0.356 N 
ATOM      4  O   UNL A   1      34.378  31.338  27.528  1.00  0.00    -0.275 OA
ATOM      5  C   UNL A   1      34.444  30.134  27.311  1.00  0.00     0.220 C 
ATOM      6  H   UNL A   1      35.482  28.385  27.397  1.00  0.00     0.163 HD
BRANCH   5   7
ATOM      7  C   UNL A   1      33.352  29.402  26.540  1.00  0.00     0.110 C 
BRANCH   7   8
ATOM      8  C   UNL A   1      33.417  27.891  26.761  1.00  0.00     0.110 C 
BRANCH   8   9
ATOM      9  C   UNL A   1      32.007  27.371  26.776  1.00  0.00     0.223 C 
ATOM     10  O   UNL A   1      31.241  27.776  27.659  1.00  0.00    -0.275 OA
BRANCH   9  11
ATOM     11  N   UNL A   1      31.659  26.349  25.905  1.00  0.00    -0.342 N 
ATOM     12  C   UNL A   1      30.705  26.451  24.804  1.00  0.00     0.119 C 
ATOM     13  C   UNL A   1      31.932  25.030  26.379  1.00  0.00     0.128 C 
ATOM     14  C   UNL A   1      30.608  25.226  23.870  1.00  0.00     0.022 C 
ATOM     15  C   UNL A   1      32.373  24.060  25.227  1.00  0.00     0.006 C 
ATOM     16  C   UNL A   1      31.032  23.880  24.470  1.00  0.00     0.012 C 
ATOM     17  C   UNL A   1      33.691  24.762  23.975  1.00  0.00     0.020 C 
ATOM     18  C   UNL A   1      32.865  22.579  26.291  1.00  0.00     0.128 C 
ATOM     19  C   UNL A   1      35.326  23.691  23.679  1.00  0.00     0.101 C 
ATOM     20  N   UNL A   1      34.224  21.512  25.833  1.00  0.00    -0.338 N 
ATOM     21  C   UNL A   1      35.609  22.144  24.916  1.00  0.00     0.222 C 
ATOM     22  O   UNL A   1      36.741  21.771  25.205  1.00  0.00    -0.275 OA
BRANCH  20  23
ATOM     23  C   UNL A   1      33.560  20.135  25.627  1.00  0.00     0.155 C 
BRANCH  23  24
ATOM     24  C   UNL A   1      33.530  19.153  24.495  1.00  0.00    -0.026 A 
ATOM     25  C   UNL A   1      34.350  18.042  24.411  1.00  0.00     0.025 A 
ATOM     26  C   UNL A   1      32.472  19.264  23.556  1.00  0.00     0.025 A 
ATOM     27  C   UNL A   1      34.111  17.130  23.385  1.00  0.00     0.111 A 
ATOM     28  C   UNL A   1      32.306  18.294  22.581  1.00  0.00     0.111 A 
ATOM     29  N   UNL A   1      33.099  17.216  22.486  1.00  0.00    -0.265 NA
ENDBRANCH  23  24
ENDBRANCH  20  23
ENDBRANCH   9  11
ENDBRANCH   8   9
ENDBRANCH   7   8
ENDBRANCH   5   7
ENDBRANCH   2   3
ENDBRANCH   1   2
BRANCH   1  30
ATOM     30  C   UNL A   1      38.956  27.973  28.386  1.00  0.00     0.002 C 
BRANCH  30  31
ATOM     31  C   UNL A   1      39.823  26.286  27.411  1.00  0.00     0.002 C 
BRANCH  31  32
ATOM     32  C   UNL A   1      39.187  24.722  26.787  1.00  0.00     0.021 C 
BRANCH  32  33
ATOM     33  C   UNL A   1      39.482  23.238  27.189  1.00  0.00     0.116 C 
BRANCH  33  34
ATOM     34  N   UNL A   1      40.221  22.399  26.239  1.00  0.00    -0.352 N 
ATOM     35  C   UNL A   1      41.559  22.263  26.020  1.00  0.00     0.251 C 
ATOM     36  H   UNL A   1      39.653  21.838  25.662  1.00  0.00     0.163 HD
ATOM     37  O   UNL A   1      42.072  21.321  25.438  1.00  0.00    -0.269 OA
BRANCH  35  38
ATOM     38  C   UNL A   1      42.345  23.333  26.551  1.00  0.00     0.039 A 
ATOM     39  C   UNL A   1      43.095  23.053  27.690  1.00  0.00     0.014 A 
ATOM     40  C   UNL A   1      42.541  24.417  25.701  1.00  0.00     0.014 A 
ATOM     41  C   UNL A   1      44.105  23.917  28.004  1.00  0.00     0.010 A 
ATOM     42  C   UNL A   1      43.597  25.241  25.978  1.00  0.00     0.010 A 
ATOM     43  C   UNL A   1      44.342  24.998  27.145  1.00  0.00    -0.014 A 
BRANCH  43  44
ATOM     44  C   UNL A   1      45.234  26.042  27.612  1.00  0.00     0.031 A 
ATOM     45  C   UNL A   1      44.650  26.984  28.610  1.00  0.00     0.074 A 
ATOM     46  C   UNL A   1      46.495  26.048  27.163  1.00  0.00     0.049 A 
ATOM     47  N   UNL A   1      45.135  28.098  29.062  1.00  0.00    -0.248 NA
ATOM     48  C   UNL A   1      43.309  26.646  29.132  1.00  0.00     0.031 C 
ATOM     49  C   UNL A   1      47.072  25.064  26.239  1.00  0.00     0.029 A 
ATOM     50  N   UNL A   1      47.522  26.891  27.442  1.00  0.00    -0.354 N 
ATOM     51  C   UNL A   1      44.141  28.617  29.884  1.00  0.00     0.074 A 
ATOM     52  C   UNL A   1      43.005  27.731  29.821  1.00  0.00     0.031 C 
ATOM     53  C   UNL A   1      48.371  25.345  26.059  1.00  0.00     0.029 A 
ATOM     54  C   UNL A   1      48.681  26.572  26.780  1.00  0.00     0.049 A 
ATOM     55  H   UNL A   1      47.444  27.654  28.059  1.00  0.00     0.167 HD
ATOM     56  C   UNL A   1      44.211  29.740  30.628  1.00  0.00     0.034 A 
ATOM     57  C   UNL A   1      49.840  27.251  26.751  1.00  0.00     0.034 A 
ATOM     58  C   UNL A   1      45.406  30.539  30.648  1.00  0.00     0.049 A 
ATOM     59  C   UNL A   1      49.876  28.522  27.564  1.00  0.00     0.074 A 
ATOM     60  C   UNL A   1      45.653  31.718  31.316  1.00  0.00     0.029 A 
ATOM     61  N   UNL A   1      46.572  30.209  29.957  1.00  0.00    -0.354 N 
ATOM     62  N   UNL A   1      48.920  29.058  28.297  1.00  0.00    -0.248 NA
ATOM     63  C   UNL A   1      51.126  29.278  27.551  1.00  0.00     0.031 C 
ATOM     64  C   UNL A   1      46.947  32.131  30.979  1.00  0.00     0.029 A 
ATOM     65  C   UNL A   1      47.540  31.169  30.170  1.00  0.00     0.049 A 
ATOM     66  H   UNL A   1      46.689  29.406  29.399  1.00  0.00     0.167 HD
ATOM     67  C   UNL A   1      49.461  30.207  28.853  1.00  0.00     0.074 A 
ATOM     68  C   UNL A   1      50.839  30.263  28.389  1.00  0.00     0.031 C 
ATOM     69  C   UNL A   1      48.894  31.142  29.662  1.00  0.00     0.034 A 
BRANCH  56  70
ATOM     70  C   UNL A   1      42.971  30.154  31.376  1.00  0.00     0.023 A 
ATOM     71  C   UNL A   1      42.723  29.742  32.701  1.00  0.00     0.031 A 
ATOM     72  C   UNL A   1      41.972  30.896  30.724  1.00  0.00     0.131 A 
ATOM     73  C   UNL A   1      41.482  30.012  33.299  1.00  0.00     0.055 A 
ATOM     74  C   UNL A   1      40.773  31.233  31.354  1.00  0.00     0.041 A 
ATOM     75  F   UNL A   1      42.130  31.277  29.446  1.00  0.00    -0.206 F 
ATOM     76  C   UNL A   1      40.516  30.780  32.644  1.00  0.00     0.022 A 
BRANCH  73  77
ATOM     77  S   UNL A   1      41.089  29.226  34.887  1.00  0.00     0.124 S 
ATOM     78  O   UNL A   1      40.968  27.824  34.498  1.00  0.00    -0.237 OA
ATOM     79  O   UNL A   1      42.248  29.565  35.705  1.00  0.00    -0.237 OA
ATOM     80  O   UNL A   1      39.837  29.867  35.285  1.00  0.00    -0.744 OA
ENDBRANCH  73  77
ENDBRANCH  56  70
BRANCH  57  81
ATOM     81  C   UNL A   1      50.985  26.783  25.925  1.00  0.00     0.023 A 
ATOM     82  C   UNL A   1      51.191  27.278  24.629  1.00  0.00     0.031 A 
ATOM     83  C   UNL A   1      51.886  25.811  26.403  1.00  0.00     0.131 A 
ATOM     84  C   UNL A   1      52.230  26.762  23.838  1.00  0.00     0.055 A 
ATOM     85  C   UNL A   1      52.959  25.350  25.637  1.00  0.00     0.041 A 
ATOM     86  F   UNL A   1      51.747  25.301  27.637  1.00  0.00    -0.206 F 
ATOM     87  C   UNL A   1      53.124  25.813  24.336  1.00  0.00     0.022 A 
BRANCH  84  88
ATOM     88  S   UNL A   1      52.321  27.265  22.098  1.00  0.00     0.124 S 
ATOM     89  O   UNL A   1      53.073  26.163  21.509  1.00  0.00    -0.237 OA
ATOM     90  O   UNL A   1      50.910  27.348  21.735  1.00  0.00    -0.237 OA
ATOM     91  O   UNL A   1      53.026  28.545  22.151  1.00  0.00    -0.744 OA
ENDBRANCH  84  88
ENDBRANCH  57  81
BRANCH  69  92
ATOM     92  C   UNL A   1      49.798  32.254  30.107  1.00  0.00     0.023 A 
ATOM     93  C   UNL A   1      49.912  33.439  29.365  1.00  0.00     0.031 A 
ATOM     94  C   UNL A   1      50.549  32.119  31.287  1.00  0.00     0.131 A 
ATOM     95  C   UNL A   1      50.823  34.418  29.772  1.00  0.00     0.055 A 
ATOM     96  C   UNL A   1      51.389  33.136  31.732  1.00  0.00     0.041 A 
ATOM     97  F   UNL A   1      50.468  31.002  32.025  1.00  0.00    -0.206 F 
ATOM     98  C   UNL A   1      51.543  34.287  30.963  1.00  0.00     0.022 A 
BRANCH  95  99
ATOM     99  S   UNL A   1      51.142  35.805  28.654  1.00  0.00     0.124 S 
ATOM    100  O   UNL A   1      52.237  35.287  27.839  1.00  0.00    -0.237 OA
ATOM    101  O   UNL A   1      49.861  35.961  27.974  1.00  0.00    -0.237 OA
ATOM    102  O   UNL A   1      51.503  36.895  29.558  1.00  0.00    -0.744 OA
ENDBRANCH  95  99
ENDBRANCH  69  92
ENDBRANCH  43  44
ENDBRANCH  35  38
ENDBRANCH  33  34
ENDBRANCH  32  33
ENDBRANCH  31  32
ENDBRANCH  30  31
ENDBRANCH   1  30
TORSDOF 21
ENDMDL
