MODEL 1
REMARK VINA RESULT:     -13.4      0.000      0.000
REMARK SMILES Cc1cccc(N2C(=O)/C(=C/c3ccc(C(=O)NCCCCCCNC(=O)c4ccc(-c5c6nc(c(-c7cc(S(=O)(=O)[O-])ccc7F)c7ccc([nH]7)c(-c7cc(S(=O)(=O)[O-])ccc7F)c7nc(c(-c8cc(S(=O)(=O)[O-])ccc8F)c8ccc5[nH]8)C=C7)C=C6)cc4)cc3)c3ccccc3C2=O)c1
REMARK SMILES IDX 22 1 21 2 20 3 19 4 18 5 16 6 17 7 15 9 12 10 13 11 92 12
REMARK SMILES IDX 14 13 91 14 11 15 7 16 8 17 99 18 9 19 10 20 98 21 100 22
REMARK SMILES IDX 93 23 97 24 94 25 96 26 95 27 6 28 1 29 2 30 3 31 101 32
REMARK SMILES IDX 4 33 5 34 23 35 24 36 25 37 26 38 27 40 28 41 29 42 90 43
REMARK SMILES IDX 30 44 89 45 31 46 32 47 33 48 83 49 34 50 88 51 82 52 84 53
REMARK SMILES IDX 35 54 87 55 81 56 80 57 36 59 68 60 48 61 67 62 49 63 52 64
REMARK SMILES IDX 66 65 85 66 50 67 51 68 65 70 86 71 53 72 37 73 38 74 46 75
REMARK SMILES IDX 39 76 45 77 47 78 44 79 40 80 41 81 42 82 43 83 69 84 70 85
REMARK SMILES IDX 78 86 71 87 77 88 79 89 76 90 72 91 73 92 74 93 75 94 54 95
REMARK SMILES IDX 55 96 63 97 56 98 62 99 64 100 61 101 57 102 58 103 59 104
REMARK SMILES IDX 60 105
REMARK H PARENT 18 8 25 39 84 58 52 69
REMARK Flexibility Score: inf
ROOT
ATOM      1  C   UNL A   1      37.974  21.205  25.350  1.00  0.00     0.002 C 
ENDROOT
BRANCH   1   2
ATOM      2  C   UNL A   1      36.955  21.430  24.225  1.00  0.00     0.002 C 
BRANCH   2   3
ATOM      3  C   UNL A   1      35.505  21.729  24.624  1.00  0.00     0.021 C 
BRANCH   3   4
ATOM      4  C   UNL A   1      34.775  20.679  25.461  1.00  0.00     0.116 C 
BRANCH   4   5
ATOM      5  N   UNL A   1      33.928  19.785  24.691  1.00  0.00    -0.352 N 
ATOM      6  C   UNL A   1      32.764  20.053  24.010  1.00  0.00     0.251 C 
ATOM      7  O   UNL A   1      32.167  19.161  23.413  1.00  0.00    -0.269 OA
ATOM      8  H   UNL A   1      34.231  18.850  24.652  1.00  0.00     0.163 HD
BRANCH   6   9
ATOM      9  C   UNL A   1      32.179  21.413  24.028  1.00  0.00     0.039 A 
ATOM     10  C   UNL A   1      30.932  23.917  23.883  1.00  0.00    -0.025 A 
ATOM     11  C   UNL A   1      31.735  23.469  22.828  1.00  0.00     0.009 A 
ATOM     12  C   UNL A   1      30.857  23.155  25.059  1.00  0.00     0.009 A 
ATOM     13  C   UNL A   1      32.358  22.222  22.901  1.00  0.00     0.014 A 
ATOM     14  C   UNL A   1      31.475  21.903  25.131  1.00  0.00     0.014 A 
BRANCH  10  15
ATOM     15  C   UNL A   1      30.178  25.168  23.724  1.00  0.00     0.022 C 
ATOM     16  N   UNL A   1      30.249  28.766  23.402  1.00  0.00    -0.242 N 
ATOM     17  C   UNL A   1      29.631  27.525  23.667  1.00  0.00     0.265 C 
ATOM     18  C   UNL A   1      31.654  28.896  23.414  1.00  0.00     0.265 C 
ATOM     19  O   UNL A   1      28.441  27.256  23.497  1.00  0.00    -0.268 OA
ATOM     20  C   UNL A   1      30.564  26.415  24.083  1.00  0.00     0.049 C 
ATOM     21  C   UNL A   1      32.406  27.986  24.310  1.00  0.00     0.048 A 
ATOM     22  O   UNL A   1      32.336  29.694  22.775  1.00  0.00    -0.268 OA
ATOM     23  C   UNL A   1      31.835  26.784  24.713  1.00  0.00    -0.000 A 
ATOM     24  C   UNL A   1      33.679  28.360  24.768  1.00  0.00     0.014 A 
ATOM     25  C   UNL A   1      32.502  26.013  25.677  1.00  0.00     0.010 A 
ATOM     26  C   UNL A   1      34.364  27.552  25.672  1.00  0.00     0.001 A 
ATOM     27  C   UNL A   1      33.765  26.387  26.142  1.00  0.00     0.001 A 
BRANCH  16  28
ATOM     28  C   UNL A   1      29.416  29.889  22.972  1.00  0.00     0.053 A 
ATOM     29  C   UNL A   1      27.777  31.194  19.748  1.00  0.00     0.044 C 
ATOM     30  C   UNL A   1      28.192  31.087  21.186  1.00  0.00    -0.049 A 
ATOM     31  C   UNL A   1      27.774  32.051  22.101  1.00  0.00     0.003 A 
ATOM     32  C   UNL A   1      28.987  30.013  21.633  1.00  0.00     0.030 A 
ATOM     33  C   UNL A   1      28.153  31.945  23.432  1.00  0.00     0.002 A 
ATOM     34  C   UNL A   1      28.961  30.882  23.856  1.00  0.00     0.027 A 
ENDBRANCH  16  28
ENDBRANCH  10  15
ENDBRANCH   6   9
ENDBRANCH   4   5
ENDBRANCH   3   4
ENDBRANCH   2   3
ENDBRANCH   1   2
BRANCH   1  35
ATOM     35  C   UNL A   1      38.439  22.443  26.117  1.00  0.00     0.021 C 
BRANCH  35  36
ATOM     36  C   UNL A   1      39.783  22.298  26.822  1.00  0.00     0.116 C 
BRANCH  36  37
ATOM     37  N   UNL A   1      40.677  21.305  26.237  1.00  0.00    -0.352 N 
ATOM     38  C   UNL A   1      42.063  21.324  26.162  1.00  0.00     0.251 C 
ATOM     39  H   UNL A   1      40.239  20.516  25.841  1.00  0.00     0.163 HD
ATOM     40  O   UNL A   1      42.681  20.450  25.575  1.00  0.00    -0.269 OA
BRANCH  38  41
ATOM     41  C   UNL A   1      42.800  22.376  26.905  1.00  0.00     0.039 A 
ATOM     42  C   UNL A   1      42.789  22.315  28.304  1.00  0.00     0.014 A 
ATOM     43  C   UNL A   1      43.283  23.507  26.255  1.00  0.00     0.014 A 
ATOM     44  C   UNL A   1      43.034  23.474  29.040  1.00  0.00     0.010 A 
ATOM     45  C   UNL A   1      43.421  24.678  26.974  1.00  0.00     0.010 A 
ATOM     46  C   UNL A   1      43.236  24.676  28.361  1.00  0.00    -0.014 A 
BRANCH  46  47
ATOM     47  C   UNL A   1      43.106  25.984  28.994  1.00  0.00     0.031 A 
ATOM     48  C   UNL A   1      41.866  26.777  28.887  1.00  0.00     0.074 A 
ATOM     49  C   UNL A   1      44.109  26.464  29.764  1.00  0.00     0.049 A 
ATOM     50  N   UNL A   1      41.829  28.062  29.007  1.00  0.00    -0.248 NA
ATOM     51  C   UNL A   1      40.564  26.189  28.606  1.00  0.00     0.031 C 
ATOM     52  C   UNL A   1      44.048  27.587  30.697  1.00  0.00     0.029 A 
ATOM     53  N   UNL A   1      45.466  26.173  29.665  1.00  0.00    -0.354 N 
ATOM     54  C   UNL A   1      40.513  28.430  29.135  1.00  0.00     0.074 A 
ATOM     55  C   UNL A   1      39.760  27.241  28.799  1.00  0.00     0.031 C 
ATOM     56  C   UNL A   1      45.288  28.059  30.889  1.00  0.00     0.029 A 
ATOM     57  C   UNL A   1      46.171  27.349  29.985  1.00  0.00     0.049 A 
ATOM     58  H   UNL A   1      45.860  25.306  29.416  1.00  0.00     0.167 HD
ATOM     59  C   UNL A   1      40.198  29.652  29.651  1.00  0.00     0.034 A 
ATOM     60  C   UNL A   1      47.034  27.921  29.095  1.00  0.00     0.034 A 
ATOM     61  C   UNL A   1      41.385  30.437  29.994  1.00  0.00     0.049 A 
ATOM     62  C   UNL A   1      46.671  29.341  28.699  1.00  0.00     0.074 A 
ATOM     63  C   UNL A   1      42.003  30.784  31.186  1.00  0.00     0.029 A 
ATOM     64  N   UNL A   1      42.262  30.814  28.991  1.00  0.00    -0.354 N 
ATOM     65  N   UNL A   1      45.594  29.962  29.094  1.00  0.00    -0.248 NA
ATOM     66  C   UNL A   1      47.447  30.143  27.753  1.00  0.00     0.031 C 
ATOM     67  C   UNL A   1      43.241  31.416  30.881  1.00  0.00     0.029 A 
ATOM     68  C   UNL A   1      43.372  31.455  29.506  1.00  0.00     0.049 A 
ATOM     69  H   UNL A   1      42.114  30.646  28.033  1.00  0.00     0.167 HD
ATOM     70  C   UNL A   1      45.477  31.161  28.433  1.00  0.00     0.074 A 
ATOM     71  C   UNL A   1      46.670  31.231  27.609  1.00  0.00     0.031 C 
ATOM     72  C   UNL A   1      44.381  31.965  28.589  1.00  0.00     0.034 A 
BRANCH  59  73
ATOM     73  C   UNL A   1      38.807  30.036  30.097  1.00  0.00     0.023 A 
ATOM     74  C   UNL A   1      38.069  30.961  29.330  1.00  0.00     0.031 A 
ATOM     75  C   UNL A   1      38.162  29.558  31.252  1.00  0.00     0.131 A 
ATOM     76  C   UNL A   1      36.831  31.459  29.770  1.00  0.00     0.055 A 
ATOM     77  C   UNL A   1      36.956  30.095  31.723  1.00  0.00     0.041 A 
ATOM     78  F   UNL A   1      38.644  28.517  31.946  1.00  0.00    -0.206 F 
ATOM     79  C   UNL A   1      36.290  31.066  30.989  1.00  0.00     0.022 A 
BRANCH  76  80
ATOM     80  S   UNL A   1      35.938  32.631  28.713  1.00  0.00     0.124 S 
ATOM     81  O   UNL A   1      36.989  33.574  28.342  1.00  0.00    -0.237 OA
ATOM     82  O   UNL A   1      35.441  31.767  27.648  1.00  0.00    -0.237 OA
ATOM     83  O   UNL A   1      34.911  33.171  29.601  1.00  0.00    -0.744 OA
ENDBRANCH  76  80
ENDBRANCH  59  73
BRANCH  60  84
ATOM     84  C   UNL A   1      47.703  26.908  28.227  1.00  0.00     0.023 A 
ATOM     85  C   UNL A   1      47.280  26.844  26.881  1.00  0.00     0.031 A 
ATOM     86  C   UNL A   1      48.956  26.369  28.548  1.00  0.00     0.131 A 
ATOM     87  C   UNL A   1      48.171  26.434  25.881  1.00  0.00     0.055 A 
ATOM     88  C   UNL A   1      49.811  25.878  27.552  1.00  0.00     0.041 A 
ATOM     89  F   UNL A   1      49.430  26.435  29.802  1.00  0.00    -0.206 F 
ATOM     90  C   UNL A   1      49.440  25.955  26.208  1.00  0.00     0.022 A 
BRANCH  87  91
ATOM     91  S   UNL A   1      47.769  26.829  24.148  1.00  0.00     0.124 S 
ATOM     92  O   UNL A   1      47.904  25.529  23.502  1.00  0.00    -0.237 OA
ATOM     93  O   UNL A   1      46.408  27.357  24.247  1.00  0.00    -0.237 OA
ATOM     94  O   UNL A   1      48.773  27.826  23.784  1.00  0.00    -0.744 OA
ENDBRANCH  87  91
ENDBRANCH  60  84
BRANCH  72  95
ATOM     95  C   UNL A   1      44.132  33.286  27.886  1.00  0.00     0.023 A 
ATOM     96  C   UNL A   1      44.098  34.520  28.552  1.00  0.00     0.031 A 
ATOM     97  C   UNL A   1      43.841  33.333  26.497  1.00  0.00     0.131 A 
ATOM     98  C   UNL A   1      43.866  35.719  27.846  1.00  0.00     0.055 A 
ATOM     99  C   UNL A   1      43.546  34.516  25.813  1.00  0.00     0.041 A 
ATOM    100  F   UNL A   1      43.854  32.237  25.728  1.00  0.00    -0.206 F 
ATOM    101  C   UNL A   1      43.572  35.723  26.485  1.00  0.00     0.022 A 
BRANCH  98 102
ATOM    102  S   UNL A   1      43.999  37.292  28.736  1.00  0.00     0.124 S 
ATOM    103  O   UNL A   1      44.782  36.925  29.911  1.00  0.00    -0.237 OA
ATOM    104  O   UNL A   1      44.681  38.132  27.755  1.00  0.00    -0.237 OA
ATOM    105  O   UNL A   1      42.610  37.659  29.004  1.00  0.00    -0.744 OA
ENDBRANCH  98 102
ENDBRANCH  72  95
ENDBRANCH  46  47
ENDBRANCH  38  41
ENDBRANCH  36  37
ENDBRANCH  35  36
ENDBRANCH   1  35
TORSDOF 18
ENDMDL
MODEL 2
REMARK VINA RESULT:     -12.5      3.795      5.740
REMARK SMILES Cc1cccc(N2C(=O)/C(=C/c3ccc(C(=O)NCCCCCCNC(=O)c4ccc(-c5c6nc(c(-c7cc(S(=O)(=O)[O-])ccc7F)c7ccc([nH]7)c(-c7cc(S(=O)(=O)[O-])ccc7F)c7nc(c(-c8cc(S(=O)(=O)[O-])ccc8F)c8ccc5[nH]8)C=C7)C=C6)cc4)cc3)c3ccccc3C2=O)c1
REMARK SMILES IDX 22 1 21 2 20 3 19 4 18 5 16 6 17 7 15 9 12 10 13 11 92 12
REMARK SMILES IDX 14 13 91 14 11 15 7 16 8 17 99 18 9 19 10 20 98 21 100 22
REMARK SMILES IDX 93 23 97 24 94 25 96 26 95 27 6 28 1 29 2 30 3 31 101 32
REMARK SMILES IDX 4 33 5 34 23 35 24 36 25 37 26 38 27 40 28 41 29 42 90 43
REMARK SMILES IDX 30 44 89 45 31 46 32 47 33 48 83 49 34 50 88 51 82 52 84 53
REMARK SMILES IDX 35 54 87 55 81 56 80 57 36 59 68 60 48 61 67 62 49 63 52 64
REMARK SMILES IDX 66 65 85 66 50 67 51 68 65 70 86 71 53 72 37 73 38 74 46 75
REMARK SMILES IDX 39 76 45 77 47 78 44 79 40 80 41 81 42 82 43 83 69 84 70 85
REMARK SMILES IDX 78 86 71 87 77 88 79 89 76 90 72 91 73 92 74 93 75 94 54 95
REMARK SMILES IDX 55 96 63 97 56 98 62 99 64 100 61 101 57 102 58 103 59 104
REMARK SMILES IDX 60 105
REMARK H PARENT 18 8 25 39 84 58 52 69
REMARK Flexibility Score: inf
ROOT
ATOM      1  C   UNL A   1      43.223  22.462  25.566  1.00  0.00     0.002 C 
ENDROOT
BRANCH   1   2
ATOM      2  C   UNL A   1      42.125  21.636  26.249  1.00  0.00     0.002 C 
BRANCH   2   3
ATOM      3  C   UNL A   1      41.049  22.391  27.038  1.00  0.00     0.021 C 
BRANCH   3   4
ATOM      4  C   UNL A   1      39.626  22.374  26.480  1.00  0.00     0.116 C 
BRANCH   4   5
ATOM      5  N   UNL A   1      39.183  21.072  26.013  1.00  0.00    -0.352 N 
ATOM      6  C   UNL A   1      38.063  20.737  25.288  1.00  0.00     0.251 C 
ATOM      7  O   UNL A   1      37.839  19.568  24.984  1.00  0.00    -0.269 OA
ATOM      8  H   UNL A   1      39.769  20.318  26.252  1.00  0.00     0.163 HD
BRANCH   6   9
ATOM      9  C   UNL A   1      37.079  21.774  24.905  1.00  0.00     0.039 A 
ATOM     10  C   UNL A   1      35.355  23.895  24.293  1.00  0.00    -0.025 A 
ATOM     11  C   UNL A   1      35.510  23.475  25.619  1.00  0.00     0.009 A 
ATOM     12  C   UNL A   1      35.976  23.168  23.267  1.00  0.00     0.009 A 
ATOM     13  C   UNL A   1      36.368  22.417  25.924  1.00  0.00     0.014 A 
ATOM     14  C   UNL A   1      36.840  22.112  23.570  1.00  0.00     0.014 A 
BRANCH  10  15
ATOM     15  C   UNL A   1      34.556  25.097  24.015  1.00  0.00     0.022 C 
ATOM     16  N   UNL A   1      31.648  27.090  24.805  1.00  0.00    -0.242 N 
ATOM     17  C   UNL A   1      32.722  26.676  23.989  1.00  0.00     0.265 C 
ATOM     18  C   UNL A   1      31.190  26.284  25.869  1.00  0.00     0.265 C 
ATOM     19  O   UNL A   1      33.320  27.372  23.167  1.00  0.00    -0.268 OA
ATOM     20  C   UNL A   1      33.237  25.284  24.255  1.00  0.00     0.049 C 
ATOM     21  C   UNL A   1      31.352  24.818  25.719  1.00  0.00     0.048 A 
ATOM     22  O   UNL A   1      30.653  26.654  26.910  1.00  0.00    -0.268 OA
ATOM     23  C   UNL A   1      32.316  24.313  24.855  1.00  0.00    -0.000 A 
ATOM     24  C   UNL A   1      30.508  23.952  26.432  1.00  0.00     0.014 A 
ATOM     25  C   UNL A   1      32.349  22.930  24.619  1.00  0.00     0.010 A 
ATOM     26  C   UNL A   1      30.597  22.575  26.242  1.00  0.00     0.001 A 
ATOM     27  C   UNL A   1      31.504  22.066  25.319  1.00  0.00     0.001 A 
BRANCH  16  28
ATOM     28  C   UNL A   1      31.104  28.436  24.624  1.00  0.00     0.053 A 
ATOM     29  C   UNL A   1      28.432  30.204  22.500  1.00  0.00     0.044 C 
ATOM     30  C   UNL A   1      29.524  29.974  23.503  1.00  0.00    -0.049 A 
ATOM     31  C   UNL A   1      30.003  31.041  24.260  1.00  0.00     0.003 A 
ATOM     32  C   UNL A   1      30.062  28.689  23.707  1.00  0.00     0.030 A 
ATOM     33  C   UNL A   1      31.008  30.824  25.193  1.00  0.00     0.002 A 
ATOM     34  C   UNL A   1      31.548  29.542  25.369  1.00  0.00     0.027 A 
ENDBRANCH  16  28
ENDBRANCH  10  15
ENDBRANCH   6   9
ENDBRANCH   4   5
ENDBRANCH   3   4
ENDBRANCH   2   3
ENDBRANCH   1   2
BRANCH   1  35
ATOM     35  C   UNL A   1      44.166  23.245  26.480  1.00  0.00     0.021 C 
BRANCH  35  36
ATOM     36  C   UNL A   1      43.968  24.757  26.468  1.00  0.00     0.116 C 
BRANCH  36  37
ATOM     37  N   UNL A   1      42.860  25.223  25.642  1.00  0.00    -0.352 N 
ATOM     38  C   UNL A   1      41.648  25.767  26.044  1.00  0.00     0.251 C 
ATOM     39  H   UNL A   1      42.988  25.139  24.669  1.00  0.00     0.163 HD
ATOM     40  O   UNL A   1      40.778  26.050  25.236  1.00  0.00    -0.269 OA
BRANCH  38  41
ATOM     41  C   UNL A   1      41.462  26.105  27.477  1.00  0.00     0.039 A 
ATOM     42  C   UNL A   1      40.226  25.804  28.062  1.00  0.00     0.014 A 
ATOM     43  C   UNL A   1      42.384  26.899  28.151  1.00  0.00     0.014 A 
ATOM     44  C   UNL A   1      39.826  26.494  29.206  1.00  0.00     0.010 A 
ATOM     45  C   UNL A   1      41.950  27.659  29.219  1.00  0.00     0.010 A 
ATOM     46  C   UNL A   1      40.649  27.502  29.710  1.00  0.00    -0.014 A 
BRANCH  46  47
ATOM     47  C   UNL A   1      40.178  28.534  30.628  1.00  0.00     0.031 A 
ATOM     48  C   UNL A   1      39.477  29.739  30.144  1.00  0.00     0.074 A 
ATOM     49  C   UNL A   1      40.313  28.363  31.962  1.00  0.00     0.049 A 
ATOM     50  N   UNL A   1      39.447  30.855  30.793  1.00  0.00    -0.248 NA
ATOM     51  C   UNL A   1      38.774  29.797  28.870  1.00  0.00     0.031 C 
ATOM     52  C   UNL A   1      39.654  29.124  33.022  1.00  0.00     0.029 A 
ATOM     53  N   UNL A   1      41.276  27.611  32.627  1.00  0.00    -0.354 N 
ATOM     54  C   UNL A   1      38.494  31.651  30.208  1.00  0.00     0.074 A 
ATOM     55  C   UNL A   1      38.161  30.982  28.969  1.00  0.00     0.031 C 
ATOM     56  C   UNL A   1      40.374  29.012  34.148  1.00  0.00     0.029 A 
ATOM     57  C   UNL A   1      41.589  28.292  33.819  1.00  0.00     0.049 A 
ATOM     58  H   UNL A   1      41.668  26.762  32.319  1.00  0.00     0.167 HD
ATOM     59  C   UNL A   1      37.980  32.710  30.896  1.00  0.00     0.034 A 
ATOM     60  C   UNL A   1      42.862  28.706  34.085  1.00  0.00     0.034 A 
ATOM     61  C   UNL A   1      38.573  32.854  32.227  1.00  0.00     0.049 A 
ATOM     62  C   UNL A   1      43.003  30.206  34.272  1.00  0.00     0.074 A 
ATOM     63  C   UNL A   1      38.128  32.599  33.516  1.00  0.00     0.029 A 
ATOM     64  N   UNL A   1      39.927  33.121  32.341  1.00  0.00    -0.354 N 
ATOM     65  N   UNL A   1      42.030  31.061  34.122  1.00  0.00    -0.248 NA
ATOM     66  C   UNL A   1      44.275  30.871  34.556  1.00  0.00     0.031 C 
ATOM     67  C   UNL A   1      39.225  32.763  34.408  1.00  0.00     0.029 A 
ATOM     68  C   UNL A   1      40.332  33.120  33.662  1.00  0.00     0.049 A 
ATOM     69  H   UNL A   1      40.525  33.290  31.578  1.00  0.00     0.167 HD
ATOM     70  C   UNL A   1      42.517  32.343  34.200  1.00  0.00     0.074 A 
ATOM     71  C   UNL A   1      43.930  32.170  34.481  1.00  0.00     0.031 C 
ATOM     72  C   UNL A   1      41.719  33.431  33.975  1.00  0.00     0.034 A 
BRANCH  59  73
ATOM     73  C   UNL A   1      36.743  33.463  30.467  1.00  0.00     0.023 A 
ATOM     74  C   UNL A   1      35.817  33.878  31.446  1.00  0.00     0.031 A 
ATOM     75  C   UNL A   1      36.406  33.786  29.140  1.00  0.00     0.131 A 
ATOM     76  C   UNL A   1      34.586  34.456  31.094  1.00  0.00     0.055 A 
ATOM     77  C   UNL A   1      35.156  34.309  28.782  1.00  0.00     0.041 A 
ATOM     78  F   UNL A   1      37.290  33.657  28.140  1.00  0.00    -0.206 F 
ATOM     79  C   UNL A   1      34.228  34.632  29.762  1.00  0.00     0.022 A 
BRANCH  76  80
ATOM     80  S   UNL A   1      33.459  34.980  32.415  1.00  0.00     0.124 S 
ATOM     81  O   UNL A   1      33.340  33.766  33.217  1.00  0.00    -0.237 OA
ATOM     82  O   UNL A   1      34.192  36.085  33.023  1.00  0.00    -0.237 OA
ATOM     83  O   UNL A   1      32.248  35.363  31.693  1.00  0.00    -0.744 OA
ENDBRANCH  76  80
ENDBRANCH  59  73
BRANCH  60  84
ATOM     84  C   UNL A   1      43.886  27.790  33.503  1.00  0.00     0.023 A 
ATOM     85  C   UNL A   1      44.148  26.595  34.211  1.00  0.00     0.031 A 
ATOM     86  C   UNL A   1      44.244  27.842  32.149  1.00  0.00     0.131 A 
ATOM     87  C   UNL A   1      44.568  25.447  33.526  1.00  0.00     0.055 A 
ATOM     88  C   UNL A   1      44.747  26.714  31.488  1.00  0.00     0.041 A 
ATOM     89  F   UNL A   1      43.985  28.934  31.414  1.00  0.00    -0.206 F 
ATOM     90  C   UNL A   1      44.864  25.497  32.164  1.00  0.00     0.022 A 
BRANCH  87  91
ATOM     91  S   UNL A   1      44.417  23.837  34.364  1.00  0.00     0.124 S 
ATOM     92  O   UNL A   1      45.523  23.087  33.780  1.00  0.00    -0.237 OA
ATOM     93  O   UNL A   1      44.560  24.194  35.775  1.00  0.00    -0.237 OA
ATOM     94  O   UNL A   1      43.079  23.383  33.994  1.00  0.00    -0.744 OA
ENDBRANCH  87  91
ENDBRANCH  60  84
BRANCH  72  95
ATOM     95  C   UNL A   1      42.157  34.883  33.999  1.00  0.00     0.023 A 
ATOM     96  C   UNL A   1      43.071  35.429  33.085  1.00  0.00     0.031 A 
ATOM     97  C   UNL A   1      41.710  35.766  35.017  1.00  0.00     0.131 A 
ATOM     98  C   UNL A   1      43.440  36.789  33.152  1.00  0.00     0.055 A 
ATOM     99  C   UNL A   1      42.128  37.096  35.120  1.00  0.00     0.041 A 
ATOM    100  F   UNL A   1      40.824  35.390  35.948  1.00  0.00    -0.206 F 
ATOM    101  C   UNL A   1      42.988  37.621  34.174  1.00  0.00     0.022 A 
BRANCH  98 102
ATOM    102  S   UNL A   1      44.493  37.471  31.845  1.00  0.00     0.124 S 
ATOM    103  O   UNL A   1      43.765  37.111  30.633  1.00  0.00    -0.237 OA
ATOM    104  O   UNL A   1      44.502  38.892  32.181  1.00  0.00    -0.237 OA
ATOM    105  O   UNL A   1      45.768  36.783  32.033  1.00  0.00    -0.744 OA
ENDBRANCH  98 102
ENDBRANCH  72  95
ENDBRANCH  46  47
ENDBRANCH  38  41
ENDBRANCH  36  37
ENDBRANCH  35  36
ENDBRANCH   1  35
TORSDOF 18
ENDMDL
MODEL 3
REMARK VINA RESULT:     -12.2      5.967     11.084
REMARK SMILES Cc1cccc(N2C(=O)/C(=C/c3ccc(C(=O)NCCCCCCNC(=O)c4ccc(-c5c6nc(c(-c7cc(S(=O)(=O)[O-])ccc7F)c7ccc([nH]7)c(-c7cc(S(=O)(=O)[O-])ccc7F)c7nc(c(-c8cc(S(=O)(=O)[O-])ccc8F)c8ccc5[nH]8)C=C7)C=C6)cc4)cc3)c3ccccc3C2=O)c1
REMARK SMILES IDX 22 1 21 2 20 3 19 4 18 5 16 6 17 7 15 9 12 10 13 11 92 12
REMARK SMILES IDX 14 13 91 14 11 15 7 16 8 17 99 18 9 19 10 20 98 21 100 22
REMARK SMILES IDX 93 23 97 24 94 25 96 26 95 27 6 28 1 29 2 30 3 31 101 32
REMARK SMILES IDX 4 33 5 34 23 35 24 36 25 37 26 38 27 40 28 41 29 42 90 43
REMARK SMILES IDX 30 44 89 45 31 46 32 47 33 48 83 49 34 50 88 51 82 52 84 53
REMARK SMILES IDX 35 54 87 55 81 56 80 57 36 59 68 60 48 61 67 62 49 63 52 64
REMARK SMILES IDX 66 65 85 66 50 67 51 68 65 70 86 71 53 72 37 73 38 74 46 75
REMARK SMILES IDX 39 76 45 77 47 78 44 79 40 80 41 81 42 82 43 83 69 84 70 85
REMARK SMILES IDX 78 86 71 87 77 88 79 89 76 90 72 91 73 92 74 93 75 94 54 95
REMARK SMILES IDX 55 96 63 97 56 98 62 99 64 100 61 101 57 102 58 103 59 104
REMARK SMILES IDX 60 105
REMARK H PARENT 18 8 25 39 84 58 52 69
REMARK Flexibility Score: inf
ROOT
ATOM      1  C   UNL A   1      42.872  23.636  28.430  1.00  0.00     0.002 C 
ENDROOT
BRANCH   1   2
ATOM      2  C   UNL A   1      41.400  23.258  28.221  1.00  0.00     0.002 C 
BRANCH   2   3
ATOM      3  C   UNL A   1      41.093  21.855  27.681  1.00  0.00     0.021 C 
BRANCH   3   4
ATOM      4  C   UNL A   1      41.286  21.621  26.184  1.00  0.00     0.116 C 
BRANCH   4   5
ATOM      5  N   UNL A   1      41.954  20.373  25.855  1.00  0.00    -0.352 N 
ATOM      6  C   UNL A   1      43.241  20.158  25.421  1.00  0.00     0.251 C 
ATOM      7  O   UNL A   1      43.640  19.022  25.181  1.00  0.00    -0.269 OA
ATOM      8  H   UNL A   1      41.405  19.563  25.958  1.00  0.00     0.163 HD
BRANCH   6   9
ATOM      9  C   UNL A   1      44.154  21.299  25.185  1.00  0.00     0.039 A 
ATOM     10  C   UNL A   1      45.944  23.352  24.534  1.00  0.00    -0.025 A 
ATOM     11  C   UNL A   1      46.422  22.070  24.829  1.00  0.00     0.009 A 
ATOM     12  C   UNL A   1      44.577  23.627  24.685  1.00  0.00     0.009 A 
ATOM     13  C   UNL A   1      45.530  21.047  25.155  1.00  0.00     0.014 A 
ATOM     14  C   UNL A   1      43.682  22.603  25.006  1.00  0.00     0.014 A 
BRANCH  10  15
ATOM     15  C   UNL A   1      46.890  24.373  24.060  1.00  0.00     0.022 C 
ATOM     16  N   UNL A   1      49.813  26.388  24.733  1.00  0.00    -0.242 N 
ATOM     17  C   UNL A   1      48.627  26.058  24.042  1.00  0.00     0.265 C 
ATOM     18  C   UNL A   1      50.087  25.845  26.005  1.00  0.00     0.265 C 
ATOM     19  O   UNL A   1      48.378  26.317  22.863  1.00  0.00    -0.268 OA
ATOM     20  C   UNL A   1      47.646  25.209  24.810  1.00  0.00     0.049 C 
ATOM     21  C   UNL A   1      48.922  25.508  26.858  1.00  0.00     0.048 A 
ATOM     22  O   UNL A   1      51.189  25.630  26.505  1.00  0.00    -0.268 OA
ATOM     23  C   UNL A   1      47.683  25.269  26.274  1.00  0.00    -0.000 A 
ATOM     24  C   UNL A   1      49.074  25.461  28.253  1.00  0.00     0.014 A 
ATOM     25  C   UNL A   1      46.568  25.101  27.109  1.00  0.00     0.010 A 
ATOM     26  C   UNL A   1      47.972  25.223  29.070  1.00  0.00     0.001 A 
ATOM     27  C   UNL A   1      46.714  25.063  28.498  1.00  0.00     0.001 A 
BRANCH  16  28
ATOM     28  C   UNL A   1      50.826  27.191  24.049  1.00  0.00     0.053 A 
ATOM     29  C   UNL A   1      52.373  30.702  24.300  1.00  0.00     0.044 C 
ATOM     30  C   UNL A   1      52.095  29.304  23.832  1.00  0.00    -0.049 A 
ATOM     31  C   UNL A   1      52.810  28.780  22.757  1.00  0.00     0.003 A 
ATOM     32  C   UNL A   1      51.132  28.502  24.474  1.00  0.00     0.030 A 
ATOM     33  C   UNL A   1      52.556  27.483  22.330  1.00  0.00     0.002 A 
ATOM     34  C   UNL A   1      51.580  26.706  22.967  1.00  0.00     0.027 A 
ENDBRANCH  16  28
ENDBRANCH  10  15
ENDBRANCH   6   9
ENDBRANCH   4   5
ENDBRANCH   3   4
ENDBRANCH   2   3
ENDBRANCH   1   2
BRANCH   1  35
ATOM     35  C   UNL A   1      43.150  24.944  29.170  1.00  0.00     0.021 C 
BRANCH  35  36
ATOM     36  C   UNL A   1      43.176  26.190  28.292  1.00  0.00     0.116 C 
BRANCH  36  37
ATOM     37  N   UNL A   1      42.922  25.945  26.876  1.00  0.00    -0.352 N 
ATOM     38  C   UNL A   1      41.813  26.302  26.121  1.00  0.00     0.251 C 
ATOM     39  H   UNL A   1      43.630  25.462  26.392  1.00  0.00     0.163 HD
ATOM     40  O   UNL A   1      41.705  25.967  24.952  1.00  0.00    -0.269 OA
BRANCH  38  41
ATOM     41  C   UNL A   1      40.798  27.199  26.728  1.00  0.00     0.039 A 
ATOM     42  C   UNL A   1      41.101  28.564  26.811  1.00  0.00     0.014 A 
ATOM     43  C   UNL A   1      39.696  26.681  27.401  1.00  0.00     0.014 A 
ATOM     44  C   UNL A   1      40.444  29.353  27.755  1.00  0.00     0.010 A 
ATOM     45  C   UNL A   1      39.121  27.431  28.407  1.00  0.00     0.010 A 
ATOM     46  C   UNL A   1      39.537  28.749  28.627  1.00  0.00    -0.014 A 
BRANCH  46  47
ATOM     47  C   UNL A   1      39.101  29.362  29.876  1.00  0.00     0.031 A 
ATOM     48  C   UNL A   1      38.310  30.608  29.892  1.00  0.00     0.074 A 
ATOM     49  C   UNL A   1      39.354  28.749  31.055  1.00  0.00     0.049 A 
ATOM     50  N   UNL A   1      38.285  31.425  30.893  1.00  0.00    -0.248 NA
ATOM     51  C   UNL A   1      37.500  31.054  28.767  1.00  0.00     0.031 C 
ATOM     52  C   UNL A   1      38.754  29.046  32.353  1.00  0.00     0.029 A 
ATOM     53  N   UNL A   1      40.402  27.883  31.350  1.00  0.00    -0.354 N 
ATOM     54  C   UNL A   1      37.252  32.305  30.686  1.00  0.00     0.074 A 
ATOM     55  C   UNL A   1      36.847  32.086  29.315  1.00  0.00     0.031 C 
ATOM     56  C   UNL A   1      39.570  28.602  33.320  1.00  0.00     0.029 A 
ATOM     57  C   UNL A   1      40.783  28.128  32.683  1.00  0.00     0.049 A 
ATOM     58  H   UNL A   1      40.804  27.223  30.740  1.00  0.00     0.167 HD
ATOM     59  C   UNL A   1      36.753  33.020  31.733  1.00  0.00     0.034 A 
ATOM     60  C   UNL A   1      42.054  28.512  32.997  1.00  0.00     0.034 A 
ATOM     61  C   UNL A   1      37.448  32.734  32.990  1.00  0.00     0.049 A 
ATOM     62  C   UNL A   1      42.146  29.860  33.690  1.00  0.00     0.074 A 
ATOM     63  C   UNL A   1      37.124  32.018  34.132  1.00  0.00     0.029 A 
ATOM     64  N   UNL A   1      38.793  33.040  33.104  1.00  0.00    -0.354 N 
ATOM     65  N   UNL A   1      41.126  30.643  33.911  1.00  0.00    -0.248 NA
ATOM     66  C   UNL A   1      43.406  30.474  34.108  1.00  0.00     0.031 C 
ATOM     67  C   UNL A   1      38.284  31.939  34.953  1.00  0.00     0.029 A 
ATOM     68  C   UNL A   1      39.308  32.610  34.312  1.00  0.00     0.049 A 
ATOM     69  H   UNL A   1      39.318  33.505  32.413  1.00  0.00     0.167 HD
ATOM     70  C   UNL A   1      41.562  31.850  34.403  1.00  0.00     0.074 A 
ATOM     71  C   UNL A   1      43.000  31.689  34.516  1.00  0.00     0.031 C 
ATOM     72  C   UNL A   1      40.701  32.890  34.626  1.00  0.00     0.034 A 
BRANCH  59  73
ATOM     73  C   UNL A   1      35.452  33.786  31.675  1.00  0.00     0.023 A 
ATOM     74  C   UNL A   1      34.950  34.197  30.424  1.00  0.00     0.031 A 
ATOM     75  C   UNL A   1      34.676  34.156  32.789  1.00  0.00     0.131 A 
ATOM     76  C   UNL A   1      33.822  35.029  30.321  1.00  0.00     0.055 A 
ATOM     77  C   UNL A   1      33.586  35.033  32.695  1.00  0.00     0.041 A 
ATOM     78  F   UNL A   1      34.908  33.647  34.007  1.00  0.00    -0.206 F 
ATOM     79  C   UNL A   1      33.163  35.489  31.455  1.00  0.00     0.022 A 
BRANCH  76  80
ATOM     80  S   UNL A   1      33.230  35.495  28.671  1.00  0.00     0.124 S 
ATOM     81  O   UNL A   1      32.739  34.223  28.150  1.00  0.00    -0.237 OA
ATOM     82  O   UNL A   1      32.220  36.500  28.980  1.00  0.00    -0.237 OA
ATOM     83  O   UNL A   1      34.431  36.006  28.014  1.00  0.00    -0.744 OA
ENDBRANCH  76  80
ENDBRANCH  59  73
BRANCH  60  84
ATOM     84  C   UNL A   1      43.066  27.930  32.066  1.00  0.00     0.023 A 
ATOM     85  C   UNL A   1      43.452  28.727  30.966  1.00  0.00     0.031 A 
ATOM     86  C   UNL A   1      43.922  26.892  32.458  1.00  0.00     0.131 A 
ATOM     87  C   UNL A   1      44.736  28.601  30.420  1.00  0.00     0.055 A 
ATOM     88  C   UNL A   1      45.171  26.714  31.849  1.00  0.00     0.041 A 
ATOM     89  F   UNL A   1      43.629  26.125  33.519  1.00  0.00    -0.206 F 
ATOM     90  C   UNL A   1      45.604  27.600  30.860  1.00  0.00     0.022 A 
BRANCH  87  91
ATOM     91  S   UNL A   1      45.364  29.946  29.364  1.00  0.00     0.124 S 
ATOM     92  O   UNL A   1      46.227  30.676  30.284  1.00  0.00    -0.237 OA
ATOM     93  O   UNL A   1      46.041  29.221  28.289  1.00  0.00    -0.237 OA
ATOM     94  O   UNL A   1      44.152  30.644  28.943  1.00  0.00    -0.744 OA
ENDBRANCH  87  91
ENDBRANCH  60  84
BRANCH  72  95
ATOM     95  C   UNL A   1      41.076  34.270  35.131  1.00  0.00     0.023 A 
ATOM     96  C   UNL A   1      40.738  34.742  36.408  1.00  0.00     0.031 A 
ATOM     97  C   UNL A   1      41.739  35.203  34.291  1.00  0.00     0.131 A 
ATOM     98  C   UNL A   1      41.117  36.035  36.827  1.00  0.00     0.055 A 
ATOM     99  C   UNL A   1      42.054  36.506  34.686  1.00  0.00     0.041 A 
ATOM    100  F   UNL A   1      42.138  34.888  33.051  1.00  0.00    -0.206 F 
ATOM    101  C   UNL A   1      41.756  36.926  35.968  1.00  0.00     0.022 A 
BRANCH  98 102
ATOM    102  S   UNL A   1      40.796  36.522  38.543  1.00  0.00     0.124 S 
ATOM    103  O   UNL A   1      39.564  37.295  38.426  1.00  0.00    -0.237 OA
ATOM    104  O   UNL A   1      40.673  35.226  39.202  1.00  0.00    -0.237 OA
ATOM    105  O   UNL A   1      41.981  37.293  38.912  1.00  0.00    -0.744 OA
ENDBRANCH  98 102
ENDBRANCH  72  95
ENDBRANCH  46  47
ENDBRANCH  38  41
ENDBRANCH  36  37
ENDBRANCH  35  36
ENDBRANCH   1  35
TORSDOF 18
ENDMDL
