MODEL 1
REMARK VINA RESULT:     -11.6      0.000      0.000
REMARK SMILES O=C(Cn1nc(-c2ccc(Br)cc2)ccc1=O)N[C@H](C(=O)NCCCCCCNC(=O)c1ccc(-c2c3nc(c(-c4cc(S(=O)(=O)[O-])ccc4F)c4ccc([nH]4)c(-c4cc(S(=O)(=O)[O-])ccc4F)c4nc(c(-c5cc(S(=O)(=O)[O-])ccc5F)c5ccc2[nH]5)C=C4)C=C3)cc1)c1ccccc1
REMARK SMILES IDX 25 1 24 2 23 3 22 4 20 5 21 6 19 8 18 9 1 10 2 11 3 13 4 14
REMARK SMILES IDX 5 15 16 16 6 17 15 18 17 19 14 20 7 21 8 22 13 23 9 24 12 25
REMARK SMILES IDX 10 26 11 27 95 28 96 29 100 30 97 31 99 32 98 33 26 34 27 35
REMARK SMILES IDX 28 36 29 37 30 38 31 40 32 41 33 42 94 43 34 44 93 45 35 46
REMARK SMILES IDX 36 47 37 48 87 49 38 50 92 51 86 52 88 53 39 54 91 55 85 56
REMARK SMILES IDX 84 57 40 59 72 60 52 61 71 62 53 63 56 64 70 65 89 66 54 67
REMARK SMILES IDX 55 68 69 70 90 71 57 72 41 73 42 74 50 75 43 76 49 77 51 78
REMARK SMILES IDX 48 79 44 80 45 81 46 82 47 83 73 84 74 85 82 86 75 87 81 88
REMARK SMILES IDX 83 89 80 90 76 91 77 92 78 93 79 94 58 95 59 96 67 97 60 98
REMARK SMILES IDX 66 99 68 100 65 101 61 102 62 103 63 104 64 105
REMARK H PARENT 22 7 18 12 29 39 88 58 56 69
REMARK Flexibility Score: inf
ROOT
ATOM      1  C   UNL A   1      32.637  28.993  27.647  1.00  0.00     0.002 C 
ENDROOT
BRANCH   1   2
ATOM      2  C   UNL A   1      32.942  27.837  26.683  1.00  0.00     0.021 C 
BRANCH   2   3
ATOM      3  C   UNL A   1      32.170  27.884  25.360  1.00  0.00     0.116 C 
BRANCH   3   4
ATOM      4  N   UNL A   1      32.935  28.535  24.313  1.00  0.00    -0.354 N 
ATOM      5  C   UNL A   1      32.780  28.508  22.951  1.00  0.00     0.247 C 
ATOM      6  O   UNL A   1      33.482  29.303  22.310  1.00  0.00    -0.272 OA
ATOM      7  H   UNL A   1      33.688  29.084  24.632  1.00  0.00     0.163 HD
BRANCH   5   8
ATOM      8  C   UNL A   1      31.649  27.689  22.248  1.00  0.00     0.202 C 
BRANCH   8   9
ATOM      9  N   UNL A   1      31.711  26.292  22.642  1.00  0.00    -0.339 N 
ATOM     10  O   UNL A   1      33.236  25.603  21.103  1.00  0.00    -0.273 OA
ATOM     11  C   UNL A   1      32.512  25.352  22.063  1.00  0.00     0.242 C 
ATOM     12  H   UNL A   1      31.132  26.002  23.383  1.00  0.00     0.164 HD
BRANCH  11  13
ATOM     13  C   UNL A   1      32.358  23.932  22.625  1.00  0.00     0.248 C 
BRANCH  13  14
ATOM     14  N   UNL A   1      32.900  23.593  23.953  1.00  0.00    -0.220 N 
ATOM     15  N   UNL A   1      34.265  23.392  24.108  1.00  0.00    -0.169 NA
ATOM     16  C   UNL A   1      31.996  23.499  25.007  1.00  0.00     0.267 A 
ATOM     17  C   UNL A   1      34.703  23.082  25.290  1.00  0.00     0.091 A 
ATOM     18  C   UNL A   1      32.571  23.233  26.340  1.00  0.00     0.075 A 
ATOM     19  O   UNL A   1      30.777  23.604  24.898  1.00  0.00    -0.268 OA
ATOM     20  C   UNL A   1      33.876  23.020  26.507  1.00  0.00     0.036 A 
BRANCH  17  21
ATOM     21  C   UNL A   1      36.121  22.699  25.464  1.00  0.00     0.002 A 
ATOM     22  C   UNL A   1      36.569  21.443  25.065  1.00  0.00     0.011 A 
ATOM     23  C   UNL A   1      36.999  23.598  26.082  1.00  0.00     0.011 A 
ATOM     24  C   UNL A   1      37.906  21.091  25.285  1.00  0.00     0.016 A 
ATOM     25  C   UNL A   1      38.330  23.248  26.300  1.00  0.00     0.016 A 
ATOM     26  C   UNL A   1      38.777  21.991  25.906  1.00  0.00     0.018 A 
ATOM     27  Br  UNL A   1      40.569  21.498  26.240  1.00  0.00    -0.051 Br
ENDBRANCH  17  21
ENDBRANCH  13  14
ENDBRANCH  11  13
ENDBRANCH   8   9
BRANCH   8  28
ATOM     28  C   UNL A   1      30.255  28.285  22.486  1.00  0.00    -0.016 A 
ATOM     29  C   UNL A   1      29.924  29.587  22.062  1.00  0.00     0.006 A 
ATOM     30  C   UNL A   1      29.272  27.568  23.191  1.00  0.00     0.006 A 
ATOM     31  C   UNL A   1      28.640  30.106  22.246  1.00  0.00     0.000 A 
ATOM     32  C   UNL A   1      27.988  28.088  23.376  1.00  0.00     0.000 A 
ATOM     33  C   UNL A   1      27.666  29.349  22.885  1.00  0.00     0.000 A 
ENDBRANCH   8  28
ENDBRANCH   5   8
ENDBRANCH   3   4
ENDBRANCH   2   3
ENDBRANCH   1   2
BRANCH   1  34
ATOM     34  C   UNL A   1      33.280  30.349  27.300  1.00  0.00     0.002 C 
BRANCH  34  35
ATOM     35  C   UNL A   1      32.368  31.576  27.433  1.00  0.00     0.021 C 
BRANCH  35  36
ATOM     36  C   UNL A   1      32.892  32.857  26.791  1.00  0.00     0.116 C 
BRANCH  36  37
ATOM     37  N   UNL A   1      32.649  34.021  27.624  1.00  0.00    -0.352 N 
ATOM     38  C   UNL A   1      33.219  34.467  28.794  1.00  0.00     0.251 C 
ATOM     39  H   UNL A   1      31.934  34.607  27.285  1.00  0.00     0.163 HD
ATOM     40  O   UNL A   1      32.645  35.383  29.385  1.00  0.00    -0.269 OA
BRANCH  38  41
ATOM     41  C   UNL A   1      34.455  33.886  29.393  1.00  0.00     0.039 A 
ATOM     42  C   UNL A   1      35.745  34.333  29.105  1.00  0.00     0.014 A 
ATOM     43  C   UNL A   1      34.303  32.915  30.394  1.00  0.00     0.014 A 
ATOM     44  C   UNL A   1      36.863  33.731  29.706  1.00  0.00     0.010 A 
ATOM     45  C   UNL A   1      35.415  32.376  31.057  1.00  0.00     0.010 A 
ATOM     46  C   UNL A   1      36.718  32.747  30.698  1.00  0.00    -0.014 A 
BRANCH  46  47
ATOM     47  C   UNL A   1      37.907  32.132  31.373  1.00  0.00     0.031 A 
ATOM     48  C   UNL A   1      38.655  30.990  30.728  1.00  0.00     0.074 A 
ATOM     49  C   UNL A   1      38.318  32.577  32.580  1.00  0.00     0.049 A 
ATOM     50  N   UNL A   1      39.655  30.284  31.196  1.00  0.00    -0.248 NA
ATOM     51  C   UNL A   1      38.221  30.580  29.381  1.00  0.00     0.031 C 
ATOM     52  C   UNL A   1      37.699  33.671  33.327  1.00  0.00     0.029 A 
ATOM     53  N   UNL A   1      39.351  32.168  33.394  1.00  0.00    -0.354 N 
ATOM     54  C   UNL A   1      39.947  29.333  30.223  1.00  0.00     0.074 A 
ATOM     55  C   UNL A   1      38.999  29.532  29.150  1.00  0.00     0.031 C 
ATOM     56  C   UNL A   1      38.380  33.870  34.465  1.00  0.00     0.029 A 
ATOM     57  C   UNL A   1      39.440  32.869  34.576  1.00  0.00     0.049 A 
ATOM     58  H   UNL A   1      39.969  31.439  33.153  1.00  0.00     0.167 HD
ATOM     59  C   UNL A   1      40.922  28.392  30.215  1.00  0.00     0.034 A 
ATOM     60  C   UNL A   1      40.253  32.718  35.645  1.00  0.00     0.034 A 
ATOM     61  C   UNL A   1      41.883  28.210  31.275  1.00  0.00     0.049 A 
ATOM     62  C   UNL A   1      41.306  31.639  35.632  1.00  0.00     0.074 A 
ATOM     63  C   UNL A   1      42.929  27.304  31.327  1.00  0.00     0.029 A 
ATOM     64  N   UNL A   1      41.928  28.935  32.456  1.00  0.00    -0.354 N 
ATOM     65  N   UNL A   1      41.596  30.784  34.681  1.00  0.00    -0.248 NA
ATOM     66  C   UNL A   1      42.146  31.499  36.832  1.00  0.00     0.031 C 
ATOM     67  C   UNL A   1      43.561  27.434  32.563  1.00  0.00     0.029 A 
ATOM     68  C   UNL A   1      42.967  28.478  33.251  1.00  0.00     0.049 A 
ATOM     69  H   UNL A   1      41.312  29.665  32.693  1.00  0.00     0.167 HD
ATOM     70  C   UNL A   1      42.668  30.028  35.155  1.00  0.00     0.074 A 
ATOM     71  C   UNL A   1      42.987  30.539  36.470  1.00  0.00     0.031 C 
ATOM     72  C   UNL A   1      43.318  29.005  34.549  1.00  0.00     0.034 A 
BRANCH  59  73
ATOM     73  C   UNL A   1      41.037  27.473  29.021  1.00  0.00     0.023 A 
ATOM     74  C   UNL A   1      42.021  27.712  28.042  1.00  0.00     0.031 A 
ATOM     75  C   UNL A   1      40.090  26.463  28.778  1.00  0.00     0.131 A 
ATOM     76  C   UNL A   1      42.009  26.980  26.848  1.00  0.00     0.055 A 
ATOM     77  C   UNL A   1      40.111  25.705  27.606  1.00  0.00     0.041 A 
ATOM     78  F   UNL A   1      39.130  26.196  29.679  1.00  0.00    -0.206 F 
ATOM     79  C   UNL A   1      41.064  25.972  26.628  1.00  0.00     0.022 A 
BRANCH  76  80
ATOM     80  S   UNL A   1      43.165  27.356  25.502  1.00  0.00     0.124 S 
ATOM     81  O   UNL A   1      42.365  28.245  24.663  1.00  0.00    -0.237 OA
ATOM     82  O   UNL A   1      44.267  27.994  26.215  1.00  0.00    -0.237 OA
ATOM     83  O   UNL A   1      43.460  26.051  24.919  1.00  0.00    -0.744 OA
ENDBRANCH  76  80
ENDBRANCH  59  73
BRANCH  60  84
ATOM     84  C   UNL A   1      40.114  33.653  36.804  1.00  0.00     0.023 A 
ATOM     85  C   UNL A   1      40.996  34.736  36.974  1.00  0.00     0.031 A 
ATOM     86  C   UNL A   1      39.160  33.418  37.809  1.00  0.00     0.131 A 
ATOM     87  C   UNL A   1      40.959  35.490  38.154  1.00  0.00     0.055 A 
ATOM     88  C   UNL A   1      39.074  34.222  38.948  1.00  0.00     0.041 A 
ATOM     89  F   UNL A   1      38.301  32.394  37.698  1.00  0.00    -0.206 F 
ATOM     90  C   UNL A   1      39.990  35.252  39.134  1.00  0.00     0.022 A 
BRANCH  87  91
ATOM     91  S   UNL A   1      42.253  36.708  38.520  1.00  0.00     0.124 S 
ATOM     92  O   UNL A   1      43.216  35.914  39.274  1.00  0.00    -0.237 OA
ATOM     93  O   UNL A   1      42.674  37.103  37.177  1.00  0.00    -0.237 OA
ATOM     94  O   UNL A   1      41.551  37.739  39.276  1.00  0.00    -0.744 OA
ENDBRANCH  87  91
ENDBRANCH  60  84
BRANCH  72  95
ATOM     95  C   UNL A   1      44.482  28.347  35.254  1.00  0.00     0.023 A 
ATOM     96  C   UNL A   1      44.237  27.404  36.273  1.00  0.00     0.031 A 
ATOM     97  C   UNL A   1      45.805  28.780  35.058  1.00  0.00     0.131 A 
ATOM     98  C   UNL A   1      45.287  26.971  37.093  1.00  0.00     0.055 A 
ATOM     99  C   UNL A   1      46.856  28.304  35.843  1.00  0.00     0.041 A 
ATOM    100  F   UNL A   1      46.091  29.685  34.108  1.00  0.00    -0.206 F 
ATOM    101  C   UNL A   1      46.597  27.409  36.879  1.00  0.00     0.022 A 
BRANCH  98 102
ATOM    102  S   UNL A   1      44.974  25.907  38.530  1.00  0.00     0.124 S 
ATOM    103  O   UNL A   1      46.212  26.057  39.293  1.00  0.00    -0.237 OA
ATOM    104  O   UNL A   1      43.796  26.533  39.124  1.00  0.00    -0.237 OA
ATOM    105  O   UNL A   1      44.759  24.585  37.950  1.00  0.00    -0.744 OA
ENDBRANCH  98 102
ENDBRANCH  72  95
ENDBRANCH  46  47
ENDBRANCH  38  41
ENDBRANCH  36  37
ENDBRANCH  35  36
ENDBRANCH  34  35
ENDBRANCH   1  34
TORSDOF 21
ENDMDL
MODEL 2
REMARK VINA RESULT:     -11.6      1.329      7.184
REMARK SMILES O=C(Cn1nc(-c2ccc(Br)cc2)ccc1=O)N[C@H](C(=O)NCCCCCCNC(=O)c1ccc(-c2c3nc(c(-c4cc(S(=O)(=O)[O-])ccc4F)c4ccc([nH]4)c(-c4cc(S(=O)(=O)[O-])ccc4F)c4nc(c(-c5cc(S(=O)(=O)[O-])ccc5F)c5ccc2[nH]5)C=C4)C=C3)cc1)c1ccccc1
REMARK SMILES IDX 25 1 24 2 23 3 22 4 20 5 21 6 19 8 18 9 1 10 2 11 3 13 4 14
REMARK SMILES IDX 5 15 16 16 6 17 15 18 17 19 14 20 7 21 8 22 13 23 9 24 12 25
REMARK SMILES IDX 10 26 11 27 95 28 96 29 100 30 97 31 99 32 98 33 26 34 27 35
REMARK SMILES IDX 28 36 29 37 30 38 31 40 32 41 33 42 94 43 34 44 93 45 35 46
REMARK SMILES IDX 36 47 37 48 87 49 38 50 92 51 86 52 88 53 39 54 91 55 85 56
REMARK SMILES IDX 84 57 40 59 72 60 52 61 71 62 53 63 56 64 70 65 89 66 54 67
REMARK SMILES IDX 55 68 69 70 90 71 57 72 41 73 42 74 50 75 43 76 49 77 51 78
REMARK SMILES IDX 48 79 44 80 45 81 46 82 47 83 73 84 74 85 82 86 75 87 81 88
REMARK SMILES IDX 83 89 80 90 76 91 77 92 78 93 79 94 58 95 59 96 67 97 60 98
REMARK SMILES IDX 66 99 68 100 65 101 61 102 62 103 63 104 64 105
REMARK H PARENT 22 7 18 12 29 39 88 58 56 69
REMARK Flexibility Score: inf
ROOT
ATOM      1  C   UNL A   1      32.044  29.237  27.306  1.00  0.00     0.002 C 
ENDROOT
BRANCH   1   2
ATOM      2  C   UNL A   1      32.799  27.983  26.840  1.00  0.00     0.021 C 
BRANCH   2   3
ATOM      3  C   UNL A   1      32.447  27.511  25.425  1.00  0.00     0.116 C 
BRANCH   3   4
ATOM      4  N   UNL A   1      33.084  28.330  24.411  1.00  0.00    -0.354 N 
ATOM      5  C   UNL A   1      32.854  28.412  23.062  1.00  0.00     0.247 C 
ATOM      6  O   UNL A   1      33.437  29.330  22.467  1.00  0.00    -0.272 OA
ATOM      7  H   UNL A   1      33.797  28.922  24.745  1.00  0.00     0.163 HD
BRANCH   5   8
ATOM      8  C   UNL A   1      31.769  27.549  22.338  1.00  0.00     0.202 C 
BRANCH   8   9
ATOM      9  N   UNL A   1      31.898  26.151  22.710  1.00  0.00    -0.339 N 
ATOM     10  O   UNL A   1      33.168  25.476  20.950  1.00  0.00    -0.273 OA
ATOM     11  C   UNL A   1      32.603  25.218  22.010  1.00  0.00     0.242 C 
ATOM     12  H   UNL A   1      31.441  25.855  23.531  1.00  0.00     0.164 HD
BRANCH  11  13
ATOM     13  C   UNL A   1      32.543  23.794  22.582  1.00  0.00     0.248 C 
BRANCH  13  14
ATOM     14  N   UNL A   1      33.094  23.505  23.918  1.00  0.00    -0.220 N 
ATOM     15  N   UNL A   1      34.453  23.257  24.064  1.00  0.00    -0.169 NA
ATOM     16  C   UNL A   1      32.205  23.503  24.989  1.00  0.00     0.267 A 
ATOM     17  C   UNL A   1      34.898  22.993  25.254  1.00  0.00     0.091 A 
ATOM     18  C   UNL A   1      32.792  23.285  26.326  1.00  0.00     0.075 A 
ATOM     19  O   UNL A   1      30.990  23.651  24.892  1.00  0.00    -0.268 OA
ATOM     20  C   UNL A   1      34.091  23.029  26.484  1.00  0.00     0.036 A 
BRANCH  17  21
ATOM     21  C   UNL A   1      36.303  22.564  25.427  1.00  0.00     0.002 A 
ATOM     22  C   UNL A   1      36.705  21.286  25.045  1.00  0.00     0.011 A 
ATOM     23  C   UNL A   1      37.215  23.440  26.027  1.00  0.00     0.011 A 
ATOM     24  C   UNL A   1      38.030  20.891  25.264  1.00  0.00     0.016 A 
ATOM     25  C   UNL A   1      38.534  23.047  26.244  1.00  0.00     0.016 A 
ATOM     26  C   UNL A   1      38.935  21.769  25.866  1.00  0.00     0.018 A 
ATOM     27  Br  UNL A   1      40.711  21.219  26.200  1.00  0.00    -0.051 Br
ENDBRANCH  17  21
ENDBRANCH  13  14
ENDBRANCH  11  13
ENDBRANCH   8   9
BRANCH   8  28
ATOM     28  C   UNL A   1      30.346  28.072  22.575  1.00  0.00    -0.016 A 
ATOM     29  C   UNL A   1      29.936  29.339  22.114  1.00  0.00     0.006 A 
ATOM     30  C   UNL A   1      29.414  27.324  23.315  1.00  0.00     0.006 A 
ATOM     31  C   UNL A   1      28.626  29.789  22.299  1.00  0.00     0.000 A 
ATOM     32  C   UNL A   1      28.104  27.776  23.501  1.00  0.00     0.000 A 
ATOM     33  C   UNL A   1      27.704  28.999  22.974  1.00  0.00     0.000 A 
ENDBRANCH   8  28
ENDBRANCH   5   8
ENDBRANCH   3   4
ENDBRANCH   2   3
ENDBRANCH   1   2
BRANCH   1  34
ATOM     34  C   UNL A   1      32.845  30.552  27.288  1.00  0.00     0.002 C 
BRANCH  34  35
ATOM     35  C   UNL A   1      32.013  31.842  27.249  1.00  0.00     0.021 C 
BRANCH  35  36
ATOM     36  C   UNL A   1      32.755  33.089  26.780  1.00  0.00     0.116 C 
BRANCH  36  37
ATOM     37  N   UNL A   1      32.541  34.215  27.670  1.00  0.00    -0.352 N 
ATOM     38  C   UNL A   1      33.108  34.578  28.871  1.00  0.00     0.251 C 
ATOM     39  H   UNL A   1      31.853  34.844  27.354  1.00  0.00     0.163 HD
ATOM     40  O   UNL A   1      32.558  35.481  29.502  1.00  0.00    -0.269 OA
BRANCH  38  41
ATOM     41  C   UNL A   1      34.313  33.921  29.455  1.00  0.00     0.039 A 
ATOM     42  C   UNL A   1      35.624  34.312  29.179  1.00  0.00     0.014 A 
ATOM     43  C   UNL A   1      34.111  32.932  30.429  1.00  0.00     0.014 A 
ATOM     44  C   UNL A   1      36.710  33.639  29.765  1.00  0.00     0.010 A 
ATOM     45  C   UNL A   1      35.195  32.321  31.078  1.00  0.00     0.010 A 
ATOM     46  C   UNL A   1      36.515  32.637  30.729  1.00  0.00    -0.014 A 
BRANCH  46  47
ATOM     47  C   UNL A   1      37.671  31.947  31.388  1.00  0.00     0.031 A 
ATOM     48  C   UNL A   1      38.143  32.373  32.759  1.00  0.00     0.074 A 
ATOM     49  C   UNL A   1      38.322  30.944  30.760  1.00  0.00     0.049 A 
ATOM     50  N   UNL A   1      39.171  31.946  33.450  1.00  0.00    -0.248 NA
ATOM     51  C   UNL A   1      37.364  33.420  33.441  1.00  0.00     0.031 C 
ATOM     52  C   UNL A   1      37.984  30.423  29.437  1.00  0.00     0.029 A 
ATOM     53  N   UNL A   1      39.405  30.185  31.145  1.00  0.00    -0.354 N 
ATOM     54  C   UNL A   1      39.181  32.689  34.627  1.00  0.00     0.074 A 
ATOM     55  C   UNL A   1      38.074  33.615  34.543  1.00  0.00     0.031 C 
ATOM     56  C   UNL A   1      38.811  29.411  29.137  1.00  0.00     0.029 A 
ATOM     57  C   UNL A   1      39.796  29.256  30.206  1.00  0.00     0.049 A 
ATOM     58  H   UNL A   1      39.859  30.297  32.013  1.00  0.00     0.167 HD
ATOM     59  C   UNL A   1      40.022  32.600  35.686  1.00  0.00     0.034 A 
ATOM     60  C   UNL A   1      40.837  28.395  30.181  1.00  0.00     0.034 A 
ATOM     61  C   UNL A   1      41.111  31.659  35.780  1.00  0.00     0.049 A 
ATOM     62  C   UNL A   1      41.785  28.339  31.353  1.00  0.00     0.074 A 
ATOM     63  C   UNL A   1      41.988  31.476  36.837  1.00  0.00     0.029 A 
ATOM     64  N   UNL A   1      41.475  30.747  34.802  1.00  0.00    -0.354 N 
ATOM     65  N   UNL A   1      41.746  29.017  32.475  1.00  0.00    -0.248 NA
ATOM     66  C   UNL A   1      42.917  27.405  31.263  1.00  0.00     0.031 C 
ATOM     67  C   UNL A   1      42.919  30.506  36.472  1.00  0.00     0.029 A 
ATOM     68  C   UNL A   1      42.577  30.019  35.222  1.00  0.00     0.049 A 
ATOM     69  H   UNL A   1      41.018  30.634  33.937  1.00  0.00     0.167 HD
ATOM     70  C   UNL A   1      42.826  28.569  33.234  1.00  0.00     0.074 A 
ATOM     71  C   UNL A   1      43.490  27.550  32.451  1.00  0.00     0.031 C 
ATOM     72  C   UNL A   1      43.225  28.975  34.464  1.00  0.00     0.034 A 
BRANCH  59  73
ATOM     73  C   UNL A   1      39.814  33.527  36.862  1.00  0.00     0.023 A 
ATOM     74  C   UNL A   1      39.209  33.045  38.038  1.00  0.00     0.031 A 
ATOM     75  C   UNL A   1      40.073  34.905  36.765  1.00  0.00     0.131 A 
ATOM     76  C   UNL A   1      38.846  33.940  39.052  1.00  0.00     0.055 A 
ATOM     77  C   UNL A   1      39.751  35.786  37.799  1.00  0.00     0.041 A 
ATOM     78  F   UNL A   1      40.648  35.415  35.662  1.00  0.00    -0.206 F 
ATOM     79  C   UNL A   1      39.121  35.307  38.942  1.00  0.00     0.022 A 
BRANCH  76  80
ATOM     80  S   UNL A   1      37.933  33.381  40.517  1.00  0.00     0.124 S 
ATOM     81  O   UNL A   1      37.168  32.259  39.980  1.00  0.00    -0.237 OA
ATOM     82  O   UNL A   1      39.012  33.022  41.431  1.00  0.00    -0.237 OA
ATOM     83  O   UNL A   1      37.141  34.546  40.901  1.00  0.00    -0.744 OA
ENDBRANCH  76  80
ENDBRANCH  59  73
BRANCH  60  84
ATOM     84  C   UNL A   1      41.004  27.488  29.004  1.00  0.00     0.023 A 
ATOM     85  C   UNL A   1      42.015  27.714  28.050  1.00  0.00     0.031 A 
ATOM     86  C   UNL A   1      40.095  26.444  28.764  1.00  0.00     0.131 A 
ATOM     87  C   UNL A   1      42.041  26.961  26.869  1.00  0.00     0.055 A 
ATOM     88  C   UNL A   1      40.174  25.643  27.622  1.00  0.00     0.041 A 
ATOM     89  F   UNL A   1      39.109  26.193  29.638  1.00  0.00    -0.206 F 
ATOM     90  C   UNL A   1      41.139  25.915  26.657  1.00  0.00     0.022 A 
BRANCH  87  91
ATOM     91  S   UNL A   1      43.155  27.409  25.508  1.00  0.00     0.124 S 
ATOM     92  O   UNL A   1      42.275  28.174  24.631  1.00  0.00    -0.237 OA
ATOM     93  O   UNL A   1      44.178  28.183  26.207  1.00  0.00    -0.237 OA
ATOM     94  O   UNL A   1      43.600  26.120  24.990  1.00  0.00    -0.744 OA
ENDBRANCH  87  91
ENDBRANCH  60  84
BRANCH  72  95
ATOM     95  C   UNL A   1      44.426  28.318  35.106  1.00  0.00     0.023 A 
ATOM     96  C   UNL A   1      44.237  27.259  36.017  1.00  0.00     0.031 A 
ATOM     97  C   UNL A   1      45.720  28.848  34.969  1.00  0.00     0.131 A 
ATOM     98  C   UNL A   1      45.309  26.805  36.797  1.00  0.00     0.055 A 
ATOM     99  C   UNL A   1      46.797  28.357  35.709  1.00  0.00     0.041 A 
ATOM    100  F   UNL A   1      45.952  29.865  34.123  1.00  0.00    -0.206 F 
ATOM    101  C   UNL A   1      46.590  27.343  36.642  1.00  0.00     0.022 A 
BRANCH  98 102
ATOM    102  S   UNL A   1      45.058  25.579  38.110  1.00  0.00     0.124 S 
ATOM    103  O   UNL A   1      44.435  24.477  37.380  1.00  0.00    -0.237 OA
ATOM    104  O   UNL A   1      46.424  25.332  38.565  1.00  0.00    -0.237 OA
ATOM    105  O   UNL A   1      44.191  26.258  39.067  1.00  0.00    -0.744 OA
ENDBRANCH  98 102
ENDBRANCH  72  95
ENDBRANCH  46  47
ENDBRANCH  38  41
ENDBRANCH  36  37
ENDBRANCH  35  36
ENDBRANCH  34  35
ENDBRANCH   1  34
TORSDOF 21
ENDMDL
MODEL 3
REMARK VINA RESULT:     -11.3      6.332     11.802
REMARK SMILES O=C(Cn1nc(-c2ccc(Br)cc2)ccc1=O)N[C@H](C(=O)NCCCCCCNC(=O)c1ccc(-c2c3nc(c(-c4cc(S(=O)(=O)[O-])ccc4F)c4ccc([nH]4)c(-c4cc(S(=O)(=O)[O-])ccc4F)c4nc(c(-c5cc(S(=O)(=O)[O-])ccc5F)c5ccc2[nH]5)C=C4)C=C3)cc1)c1ccccc1
REMARK SMILES IDX 25 1 24 2 23 3 22 4 20 5 21 6 19 8 18 9 1 10 2 11 3 13 4 14
REMARK SMILES IDX 5 15 16 16 6 17 15 18 17 19 14 20 7 21 8 22 13 23 9 24 12 25
REMARK SMILES IDX 10 26 11 27 95 28 96 29 100 30 97 31 99 32 98 33 26 34 27 35
REMARK SMILES IDX 28 36 29 37 30 38 31 40 32 41 33 42 94 43 34 44 93 45 35 46
REMARK SMILES IDX 36 47 37 48 87 49 38 50 92 51 86 52 88 53 39 54 91 55 85 56
REMARK SMILES IDX 84 57 40 59 72 60 52 61 71 62 53 63 56 64 70 65 89 66 54 67
REMARK SMILES IDX 55 68 69 70 90 71 57 72 41 73 42 74 50 75 43 76 49 77 51 78
REMARK SMILES IDX 48 79 44 80 45 81 46 82 47 83 73 84 74 85 82 86 75 87 81 88
REMARK SMILES IDX 83 89 80 90 76 91 77 92 78 93 79 94 58 95 59 96 67 97 60 98
REMARK SMILES IDX 66 99 68 100 65 101 61 102 62 103 63 104 64 105
REMARK H PARENT 22 7 18 12 29 39 88 58 56 69
REMARK Flexibility Score: inf
ROOT
ATOM      1  C   UNL A   1      50.290  27.782  24.659  1.00  0.00     0.002 C 
ENDROOT
BRANCH   1   2
ATOM      2  C   UNL A   1      48.797  27.459  24.497  1.00  0.00     0.021 C 
BRANCH   2   3
ATOM      3  C   UNL A   1      48.486  25.984  24.217  1.00  0.00     0.116 C 
BRANCH   3   4
ATOM      4  N   UNL A   1      48.388  25.212  25.442  1.00  0.00    -0.354 N 
ATOM      5  C   UNL A   1      47.287  24.767  26.125  1.00  0.00     0.247 C 
ATOM      6  O   UNL A   1      47.508  23.979  27.056  1.00  0.00    -0.272 OA
ATOM      7  H   UNL A   1      49.252  24.970  25.848  1.00  0.00     0.163 HD
BRANCH   5   8
ATOM      8  C   UNL A   1      45.825  25.054  25.647  1.00  0.00     0.202 C 
BRANCH   8   9
ATOM      9  N   UNL A   1      45.007  23.860  25.767  1.00  0.00    -0.339 N 
ATOM     10  O   UNL A   1      45.399  23.005  23.697  1.00  0.00    -0.273 OA
ATOM     11  C   UNL A   1      44.866  22.909  24.800  1.00  0.00     0.242 C 
ATOM     12  H   UNL A   1      44.516  23.727  26.610  1.00  0.00     0.164 HD
BRANCH  11  13
ATOM     13  C   UNL A   1      43.902  21.766  25.147  1.00  0.00     0.248 C 
BRANCH  13  14
ATOM     14  N   UNL A   1      42.602  22.054  25.778  1.00  0.00    -0.220 N 
ATOM     15  N   UNL A   1      42.218  23.372  25.992  1.00  0.00    -0.169 NA
ATOM     16  C   UNL A   1      41.804  20.968  26.125  1.00  0.00     0.267 A 
ATOM     17  C   UNL A   1      41.072  23.586  26.562  1.00  0.00     0.091 A 
ATOM     18  C   UNL A   1      40.475  21.284  26.685  1.00  0.00     0.075 A 
ATOM     19  O   UNL A   1      42.134  19.791  26.012  1.00  0.00    -0.268 OA
ATOM     20  C   UNL A   1      40.097  22.542  26.915  1.00  0.00     0.036 A 
BRANCH  17  21
ATOM     21  C   UNL A   1      40.701  24.962  26.957  1.00  0.00     0.002 A 
ATOM     22  C   UNL A   1      39.880  25.186  28.060  1.00  0.00     0.011 A 
ATOM     23  C   UNL A   1      41.143  26.038  26.178  1.00  0.00     0.011 A 
ATOM     24  C   UNL A   1      39.508  26.496  28.382  1.00  0.00     0.016 A 
ATOM     25  C   UNL A   1      40.772  27.342  26.499  1.00  0.00     0.016 A 
ATOM     26  C   UNL A   1      39.949  27.565  27.598  1.00  0.00     0.018 A 
ATOM     27  Br  UNL A   1      39.410  29.328  28.010  1.00  0.00    -0.051 Br
ENDBRANCH  17  21
ENDBRANCH  13  14
ENDBRANCH  11  13
ENDBRANCH   8   9
BRANCH   8  28
ATOM     28  C   UNL A   1      45.194  26.251  26.370  1.00  0.00    -0.016 A 
ATOM     29  C   UNL A   1      45.213  27.546  25.814  1.00  0.00     0.006 A 
ATOM     30  C   UNL A   1      44.621  26.106  27.646  1.00  0.00     0.006 A 
ATOM     31  C   UNL A   1      44.599  28.622  26.461  1.00  0.00     0.000 A 
ATOM     32  C   UNL A   1      44.009  27.184  28.293  1.00  0.00     0.000 A 
ATOM     33  C   UNL A   1      43.979  28.437  27.691  1.00  0.00     0.000 A 
ENDBRANCH   8  28
ENDBRANCH   5   8
ENDBRANCH   3   4
ENDBRANCH   2   3
ENDBRANCH   1   2
BRANCH   1  34
ATOM     34  C   UNL A   1      51.261  26.917  23.834  1.00  0.00     0.002 C 
BRANCH  34  35
ATOM     35  C   UNL A   1      52.546  26.483  24.553  1.00  0.00     0.021 C 
BRANCH  35  36
ATOM     36  C   UNL A   1      53.053  27.438  25.629  1.00  0.00     0.116 C 
BRANCH  36  37
ATOM     37  N   UNL A   1      53.554  26.729  26.792  1.00  0.00    -0.352 N 
ATOM     38  C   UNL A   1      53.066  26.563  28.067  1.00  0.00     0.251 C 
ATOM     39  H   UNL A   1      54.416  26.278  26.638  1.00  0.00     0.163 HD
ATOM     40  O   UNL A   1      53.832  26.087  28.905  1.00  0.00    -0.269 OA
BRANCH  38  41
ATOM     41  C   UNL A   1      51.691  26.957  28.491  1.00  0.00     0.039 A 
ATOM     42  C   UNL A   1      50.527  26.355  28.013  1.00  0.00     0.014 A 
ATOM     43  C   UNL A   1      51.569  27.906  29.517  1.00  0.00     0.014 A 
ATOM     44  C   UNL A   1      49.264  26.786  28.456  1.00  0.00     0.010 A 
ATOM     45  C   UNL A   1      50.312  28.273  30.020  1.00  0.00     0.010 A 
ATOM     46  C   UNL A   1      49.135  27.747  29.472  1.00  0.00    -0.014 A 
BRANCH  46  47
ATOM     47  C   UNL A   1      47.791  28.178  29.978  1.00  0.00     0.031 A 
ATOM     48  C   UNL A   1      47.059  27.359  31.015  1.00  0.00     0.074 A 
ATOM     49  C   UNL A   1      47.203  29.296  29.500  1.00  0.00     0.049 A 
ATOM     50  N   UNL A   1      45.860  27.533  31.512  1.00  0.00    -0.248 NA
ATOM     51  C   UNL A   1      47.763  26.187  31.562  1.00  0.00     0.031 C 
ATOM     52  C   UNL A   1      47.785  30.188  28.499  1.00  0.00     0.029 A 
ATOM     53  N   UNL A   1      45.987  29.875  29.789  1.00  0.00    -0.354 N 
ATOM     54  C   UNL A   1      45.653  26.483  32.401  1.00  0.00     0.074 A 
ATOM     55  C   UNL A   1      46.840  25.658  32.353  1.00  0.00     0.031 C 
ATOM     56  C   UNL A   1      46.949  31.215  28.284  1.00  0.00     0.029 A 
ATOM     57  C   UNL A   1      45.731  31.021  29.069  1.00  0.00     0.049 A 
ATOM     58  H   UNL A   1      45.358  29.503  30.449  1.00  0.00     0.167 HD
ATOM     59  C   UNL A   1      44.583  26.234  33.196  1.00  0.00     0.034 A 
ATOM     60  C   UNL A   1      44.640  31.817  29.014  1.00  0.00     0.034 A 
ATOM     61  C   UNL A   1      43.410  27.071  33.261  1.00  0.00     0.049 A 
ATOM     62  C   UNL A   1      43.445  31.501  29.878  1.00  0.00     0.074 A 
ATOM     63  C   UNL A   1      42.297  26.911  34.070  1.00  0.00     0.029 A 
ATOM     64  N   UNL A   1      43.191  28.213  32.508  1.00  0.00    -0.354 N 
ATOM     65  N   UNL A   1      43.291  30.530  30.747  1.00  0.00    -0.248 NA
ATOM     66  C   UNL A   1      42.273  32.382  29.760  1.00  0.00     0.031 C 
ATOM     67  C   UNL A   1      41.380  27.913  33.757  1.00  0.00     0.029 A 
ATOM     68  C   UNL A   1      41.951  28.751  32.815  1.00  0.00     0.049 A 
ATOM     69  H   UNL A   1      43.823  28.586  31.851  1.00  0.00     0.167 HD
ATOM     70  C   UNL A   1      42.023  30.703  31.298  1.00  0.00     0.074 A 
ATOM     71  C   UNL A   1      41.457  31.881  30.678  1.00  0.00     0.031 C 
ATOM     72  C   UNL A   1      41.392  29.947  32.230  1.00  0.00     0.034 A 
BRANCH  59  73
ATOM     73  C   UNL A   1      44.607  25.016  34.089  1.00  0.00     0.023 A 
ATOM     74  C   UNL A   1      45.114  25.114  35.399  1.00  0.00     0.031 A 
ATOM     75  C   UNL A   1      44.272  23.740  33.601  1.00  0.00     0.131 A 
ATOM     76  C   UNL A   1      45.311  23.955  36.160  1.00  0.00     0.055 A 
ATOM     77  C   UNL A   1      44.427  22.593  34.381  1.00  0.00     0.041 A 
ATOM     78  F   UNL A   1      43.786  23.592  32.357  1.00  0.00    -0.206 F 
ATOM     79  C   UNL A   1      44.963  22.696  35.660  1.00  0.00     0.022 A 
BRANCH  76  80
ATOM     80  S   UNL A   1      46.098  24.023  37.793  1.00  0.00     0.124 S 
ATOM     81  O   UNL A   1      45.543  22.836  38.439  1.00  0.00    -0.237 OA
ATOM     82  O   UNL A   1      47.514  23.946  37.453  1.00  0.00    -0.237 OA
ATOM     83  O   UNL A   1      45.648  25.298  38.344  1.00  0.00    -0.744 OA
ENDBRANCH  76  80
ENDBRANCH  59  73
BRANCH  60  84
ATOM     84  C   UNL A   1      44.659  33.019  28.125  1.00  0.00     0.023 A 
ATOM     85  C   UNL A   1      45.040  34.281  28.616  1.00  0.00     0.031 A 
ATOM     86  C   UNL A   1      44.201  32.940  26.798  1.00  0.00     0.131 A 
ATOM     87  C   UNL A   1      44.880  35.420  27.816  1.00  0.00     0.055 A 
ATOM     88  C   UNL A   1      44.119  34.067  25.977  1.00  0.00     0.041 A 
ATOM     89  F   UNL A   1      43.818  31.761  26.284  1.00  0.00    -0.206 F 
ATOM     90  C   UNL A   1      44.441  35.319  26.493  1.00  0.00     0.022 A 
BRANCH  87  91
ATOM     91  S   UNL A   1      45.102  37.082  28.511  1.00  0.00     0.124 S 
ATOM     92  O   UNL A   1      44.224  37.045  29.675  1.00  0.00    -0.237 OA
ATOM     93  O   UNL A   1      46.534  37.092  28.799  1.00  0.00    -0.237 OA
ATOM     94  O   UNL A   1      44.682  37.966  27.428  1.00  0.00    -0.744 OA
ENDBRANCH  87  91
ENDBRANCH  60  84
BRANCH  72  95
ATOM     95  C   UNL A   1      40.013  30.349  32.700  1.00  0.00     0.023 A 
ATOM     96  C   UNL A   1      39.878  31.216  33.803  1.00  0.00     0.031 A 
ATOM     97  C   UNL A   1      38.852  29.742  32.189  1.00  0.00     0.131 A 
ATOM     98  C   UNL A   1      38.623  31.403  34.397  1.00  0.00     0.055 A 
ATOM     99  C   UNL A   1      37.596  29.976  32.751  1.00  0.00     0.041 A 
ATOM    100  F   UNL A   1      38.927  28.900  31.145  1.00  0.00    -0.206 F 
ATOM    101  C   UNL A   1      37.479  30.794  33.871  1.00  0.00     0.022 A 
BRANCH  98 102
ATOM    102  S   UNL A   1      38.446  32.358  35.930  1.00  0.00     0.124 S 
ATOM    103  O   UNL A   1      39.388  33.453  35.715  1.00  0.00    -0.237 OA
ATOM    104  O   UNL A   1      37.035  32.733  35.897  1.00  0.00    -0.237 OA
ATOM    105  O   UNL A   1      38.821  31.414  36.978  1.00  0.00    -0.744 OA
ENDBRANCH  98 102
ENDBRANCH  72  95
ENDBRANCH  46  47
ENDBRANCH  38  41
ENDBRANCH  36  37
ENDBRANCH  35  36
ENDBRANCH  34  35
ENDBRANCH   1  34
TORSDOF 21
ENDMDL
