MODEL 1
REMARK VINA RESULT:     -11.3      0.000      0.000
REMARK SMILES Cc1cc(C(=O)NC2CC2)sc1/C=C/C(=O)NCCCCCCNC(=O)c1ccc(-c2c3nc(c(-c4cc(S(=O)(=O)[O-])ccc4F)c4ccc([nH]4)c(-c4cc(S(=O)(=O)[O-])ccc4F)c4nc(c(-c5cc(S(=O)(=O)[O-])ccc5F)c5ccc2[nH]5)C=C4)C=C3)cc1
REMARK SMILES IDX 20 1 19 2 18 3 17 4 15 5 16 6 14 8 13 9 12 10 1 11 2 12 3 13
REMARK SMILES IDX 4 14 11 15 5 16 6 17 7 18 8 20 9 21 10 22 21 23 22 24 23 25
REMARK SMILES IDX 24 26 25 27 26 29 27 30 28 31 89 32 29 33 88 34 30 35 31 36
REMARK SMILES IDX 32 37 82 38 33 39 87 40 81 41 83 42 34 43 86 44 80 45 79 46
REMARK SMILES IDX 35 48 67 49 47 50 66 51 48 52 51 53 65 54 84 55 49 56 50 57
REMARK SMILES IDX 64 59 85 60 52 61 36 62 37 63 45 64 38 65 44 66 46 67 43 68
REMARK SMILES IDX 39 69 40 70 41 71 42 72 68 73 69 74 77 75 70 76 76 77 78 78
REMARK SMILES IDX 75 79 71 80 72 81 73 82 74 83 53 84 54 85 62 86 55 87 61 88
REMARK SMILES IDX 63 89 60 90 56 91 57 92 58 93 59 94
REMARK H PARENT 17 7 7 19 24 28 83 47 51 58
REMARK Flexibility Score: inf
ROOT
ATOM      1  C   UNL A   1      30.583  29.038  23.985  1.00  0.00     0.002 C 
ENDROOT
BRANCH   1   2
ATOM      2  C   UNL A   1      30.489  27.511  24.090  1.00  0.00     0.021 C 
BRANCH   2   3
ATOM      3  C   UNL A   1      30.711  26.821  22.745  1.00  0.00     0.116 C 
BRANCH   3   4
ATOM      4  N   UNL A   1      31.911  27.344  22.125  1.00  0.00    -0.353 N 
ATOM      5  C   UNL A   1      33.217  27.067  22.360  1.00  0.00     0.244 C 
ATOM      6  O   UNL A   1      34.093  27.638  21.715  1.00  0.00    -0.270 OA
ATOM      7  H   UNL A   1      31.754  28.011  21.417  1.00  0.00     0.163 HD
BRANCH   5   8
ATOM      8  C   UNL A   1      33.594  25.991  23.299  1.00  0.00     0.072 C 
ATOM      9  C   UNL A   1      34.069  24.784  22.954  1.00  0.00     0.025 C 
BRANCH   9  10
ATOM     10  C   UNL A   1      34.424  23.781  23.904  1.00  0.00     0.031 A 
ATOM     11  C   UNL A   1      36.702  22.957  23.013  1.00  0.00     0.046 C 
ATOM     12  C   UNL A   1      35.501  22.900  23.904  1.00  0.00    -0.032 A 
ATOM     13  C   UNL A   1      35.295  21.856  24.874  1.00  0.00     0.029 A 
ATOM     14  C   UNL A   1      34.133  22.008  25.620  1.00  0.00     0.093 A 
ATOM     15  S   UNL A   1      33.517  23.548  25.339  1.00  0.00    -0.130 S 
BRANCH  14  16
ATOM     16  C   UNL A   1      33.632  21.073  26.607  1.00  0.00     0.261 C 
ATOM     17  O   UNL A   1      33.722  21.337  27.814  1.00  0.00    -0.268 OA
ATOM     18  N   UNL A   1      33.052  19.843  26.372  1.00  0.00    -0.349 N 
ATOM     19  H   UNL A   1      32.735  19.468  27.225  1.00  0.00     0.164 HD
BRANCH  18  20
ATOM     20  C   UNL A   1      32.753  18.925  25.321  1.00  0.00     0.082 C 
ATOM     21  C   UNL A   1      33.834  18.465  24.380  1.00  0.00     0.027 C 
ATOM     22  C   UNL A   1      32.988  17.465  25.120  1.00  0.00     0.027 C 
ENDBRANCH  18  20
ENDBRANCH  14  16
ENDBRANCH   9  10
ENDBRANCH   5   8
ENDBRANCH   3   4
ENDBRANCH   2   3
ENDBRANCH   1   2
BRANCH   1  23
ATOM     23  C   UNL A   1      31.576  29.674  24.967  1.00  0.00     0.002 C 
BRANCH  23  24
ATOM     24  C   UNL A   1      32.314  28.674  25.861  1.00  0.00     0.021 C 
BRANCH  24  25
ATOM     25  C   UNL A   1      33.713  29.127  26.264  1.00  0.00     0.116 C 
BRANCH  25  26
ATOM     26  N   UNL A   1      33.723  30.533  26.633  1.00  0.00    -0.352 N 
ATOM     27  C   UNL A   1      34.506  31.178  27.556  1.00  0.00     0.251 C 
ATOM     28  H   UNL A   1      33.078  31.101  26.153  1.00  0.00     0.163 HD
ATOM     29  O   UNL A   1      34.190  32.295  27.951  1.00  0.00    -0.269 OA
BRANCH  27  30
ATOM     30  C   UNL A   1      35.720  30.512  28.072  1.00  0.00     0.039 A 
ATOM     31  C   UNL A   1      36.948  30.764  27.457  1.00  0.00     0.014 A 
ATOM     32  C   UNL A   1      35.640  29.631  29.154  1.00  0.00     0.014 A 
ATOM     33  C   UNL A   1      38.104  30.168  27.960  1.00  0.00     0.010 A 
ATOM     34  C   UNL A   1      36.803  29.099  29.701  1.00  0.00     0.010 A 
ATOM     35  C   UNL A   1      38.047  29.355  29.105  1.00  0.00    -0.014 A 
BRANCH  35  36
ATOM     36  C   UNL A   1      39.276  28.756  29.684  1.00  0.00     0.031 A 
ATOM     37  C   UNL A   1      39.864  29.318  30.950  1.00  0.00     0.074 A 
ATOM     38  C   UNL A   1      39.890  27.744  29.040  1.00  0.00     0.049 A 
ATOM     39  N   UNL A   1      40.962  28.981  31.574  1.00  0.00    -0.248 NA
ATOM     40  C   UNL A   1      39.134  30.431  31.577  1.00  0.00     0.031 C 
ATOM     41  C   UNL A   1      39.433  27.143  27.785  1.00  0.00     0.029 A 
ATOM     42  N   UNL A   1      41.033  27.049  29.343  1.00  0.00    -0.354 N 
ATOM     43  C   UNL A   1      41.061  29.843  32.661  1.00  0.00     0.074 A 
ATOM     44  C   UNL A   1      39.947  30.761  32.568  1.00  0.00     0.031 C 
ATOM     45  C   UNL A   1      40.268  26.150  27.444  1.00  0.00     0.029 A 
ATOM     46  C   UNL A   1      41.348  26.076  28.423  1.00  0.00     0.049 A 
ATOM     47  H   UNL A   1      41.575  27.229  30.145  1.00  0.00     0.167 HD
ATOM     48  C   UNL A   1      41.981  29.850  33.658  1.00  0.00     0.034 A 
ATOM     49  C   UNL A   1      42.396  25.229  28.369  1.00  0.00     0.034 A 
ATOM     50  C   UNL A   1      43.081  28.918  33.735  1.00  0.00     0.049 A 
ATOM     51  C   UNL A   1      43.427  25.279  29.467  1.00  0.00     0.074 A 
ATOM     52  C   UNL A   1      44.041  28.799  34.724  1.00  0.00     0.029 A 
ATOM     53  N   UNL A   1      43.377  27.954  32.779  1.00  0.00    -0.354 N 
ATOM     54  N   UNL A   1      43.478  26.066  30.518  1.00  0.00    -0.248 NA
ATOM     55  C   UNL A   1      44.535  24.320  29.377  1.00  0.00     0.031 C 
ATOM     56  C   UNL A   1      44.959  27.819  34.330  1.00  0.00     0.029 A 
ATOM     57  C   UNL A   1      44.526  27.263  33.137  1.00  0.00     0.049 A 
ATOM     58  H   UNL A   1      42.848  27.786  31.966  1.00  0.00     0.167 HD
ATOM     59  C   UNL A   1      44.609  25.674  31.230  1.00  0.00     0.074 A 
ATOM     60  C   UNL A   1      45.197  24.572  30.497  1.00  0.00     0.031 C 
ATOM     61  C   UNL A   1      45.111  26.175  32.388  1.00  0.00     0.034 A 
BRANCH  48  62
ATOM     62  C   UNL A   1      41.846  30.916  34.721  1.00  0.00     0.023 A 
ATOM     63  C   UNL A   1      40.716  30.990  35.556  1.00  0.00     0.031 A 
ATOM     64  C   UNL A   1      42.842  31.894  34.881  1.00  0.00     0.131 A 
ATOM     65  C   UNL A   1      40.569  32.064  36.446  1.00  0.00     0.055 A 
ATOM     66  C   UNL A   1      42.732  32.911  35.834  1.00  0.00     0.041 A 
ATOM     67  F   UNL A   1      43.935  31.893  34.101  1.00  0.00    -0.206 F 
ATOM     68  C   UNL A   1      41.583  33.010  36.611  1.00  0.00     0.022 A 
BRANCH  65  69
ATOM     69  S   UNL A   1      38.967  32.297  37.263  1.00  0.00     0.124 S 
ATOM     70  O   UNL A   1      38.328  33.276  36.386  1.00  0.00    -0.237 OA
ATOM     71  O   UNL A   1      38.401  30.952  37.239  1.00  0.00    -0.237 OA
ATOM     72  O   UNL A   1      39.326  32.800  38.587  1.00  0.00    -0.744 OA
ENDBRANCH  65  69
ENDBRANCH  48  62
BRANCH  49  73
ATOM     73  C   UNL A   1      42.530  24.269  27.236  1.00  0.00     0.023 A 
ATOM     74  C   UNL A   1      41.937  22.998  27.290  1.00  0.00     0.031 A 
ATOM     75  C   UNL A   1      43.283  24.596  26.093  1.00  0.00     0.131 A 
ATOM     76  C   UNL A   1      42.145  22.084  26.246  1.00  0.00     0.055 A 
ATOM     77  C   UNL A   1      43.440  23.704  25.032  1.00  0.00     0.041 A 
ATOM     78  F   UNL A   1      43.867  25.801  25.987  1.00  0.00    -0.206 F 
ATOM     79  C   UNL A   1      42.880  22.433  25.111  1.00  0.00     0.022 A 
BRANCH  76  80
ATOM     80  S   UNL A   1      41.508  20.396  26.430  1.00  0.00     0.124 S 
ATOM     81  O   UNL A   1      40.069  20.608  26.324  1.00  0.00    -0.237 OA
ATOM     82  O   UNL A   1      42.140  19.710  25.308  1.00  0.00    -0.237 OA
ATOM     83  O   UNL A   1      41.986  19.995  27.752  1.00  0.00    -0.744 OA
ENDBRANCH  76  80
ENDBRANCH  49  73
BRANCH  61  84
ATOM     84  C   UNL A   1      46.340  25.501  32.951  1.00  0.00     0.023 A 
ATOM     85  C   UNL A   1      46.249  24.417  33.841  1.00  0.00     0.031 A 
ATOM     86  C   UNL A   1      47.622  25.958  32.597  1.00  0.00     0.131 A 
ATOM     87  C   UNL A   1      47.416  23.867  34.394  1.00  0.00     0.055 A 
ATOM     88  C   UNL A   1      48.780  25.363  33.096  1.00  0.00     0.041 A 
ATOM     89  F   UNL A   1      47.770  26.993  31.753  1.00  0.00    -0.206 F 
ATOM     90  C   UNL A   1      48.681  24.319  34.012  1.00  0.00     0.022 A 
BRANCH  87  91
ATOM     91  S   UNL A   1      47.255  22.615  35.697  1.00  0.00     0.124 S 
ATOM     92  O   UNL A   1      46.611  23.371  36.765  1.00  0.00    -0.237 OA
ATOM     93  O   UNL A   1      46.433  21.596  35.053  1.00  0.00    -0.237 OA
ATOM     94  O   UNL A   1      48.637  22.218  35.963  1.00  0.00    -0.744 OA
ENDBRANCH  87  91
ENDBRANCH  61  84
ENDBRANCH  35  36
ENDBRANCH  27  30
ENDBRANCH  25  26
ENDBRANCH  24  25
ENDBRANCH  23  24
ENDBRANCH   1  23
TORSDOF 19
ENDMDL
MODEL 2
REMARK VINA RESULT:     -10.5      2.600      8.204
REMARK SMILES Cc1cc(C(=O)NC2CC2)sc1/C=C/C(=O)NCCCCCCNC(=O)c1ccc(-c2c3nc(c(-c4cc(S(=O)(=O)[O-])ccc4F)c4ccc([nH]4)c(-c4cc(S(=O)(=O)[O-])ccc4F)c4nc(c(-c5cc(S(=O)(=O)[O-])ccc5F)c5ccc2[nH]5)C=C4)C=C3)cc1
REMARK SMILES IDX 20 1 19 2 18 3 17 4 15 5 16 6 14 8 13 9 12 10 1 11 2 12 3 13
REMARK SMILES IDX 4 14 11 15 5 16 6 17 7 18 8 20 9 21 10 22 21 23 22 24 23 25
REMARK SMILES IDX 24 26 25 27 26 29 27 30 28 31 89 32 29 33 88 34 30 35 31 36
REMARK SMILES IDX 32 37 82 38 33 39 87 40 81 41 83 42 34 43 86 44 80 45 79 46
REMARK SMILES IDX 35 48 67 49 47 50 66 51 48 52 51 53 65 54 84 55 49 56 50 57
REMARK SMILES IDX 64 59 85 60 52 61 36 62 37 63 45 64 38 65 44 66 46 67 43 68
REMARK SMILES IDX 39 69 40 70 41 71 42 72 68 73 69 74 77 75 70 76 76 77 78 78
REMARK SMILES IDX 75 79 71 80 72 81 73 82 74 83 53 84 54 85 62 86 55 87 61 88
REMARK SMILES IDX 63 89 60 90 56 91 57 92 58 93 59 94
REMARK H PARENT 17 7 7 19 24 28 83 47 51 58
REMARK Flexibility Score: inf
ROOT
ATOM      1  C   UNL A   1      31.401  29.609  25.369  1.00  0.00     0.002 C 
ENDROOT
BRANCH   1   2
ATOM      2  C   UNL A   1      31.331  29.184  23.898  1.00  0.00     0.021 C 
BRANCH   2   3
ATOM      3  C   UNL A   1      30.992  27.704  23.735  1.00  0.00     0.116 C 
BRANCH   3   4
ATOM      4  N   UNL A   1      30.409  27.203  24.963  1.00  0.00    -0.353 N 
ATOM      5  C   UNL A   1      30.538  25.999  25.573  1.00  0.00     0.244 C 
ATOM      6  O   UNL A   1      29.942  25.775  26.624  1.00  0.00    -0.270 OA
ATOM      7  H   UNL A   1      29.824  27.841  25.433  1.00  0.00     0.163 HD
BRANCH   5   8
ATOM      8  C   UNL A   1      31.489  24.997  25.051  1.00  0.00     0.072 C 
ATOM      9  C   UNL A   1      32.790  24.916  25.368  1.00  0.00     0.025 C 
BRANCH   9  10
ATOM     10  C   UNL A   1      33.665  23.920  24.839  1.00  0.00     0.031 A 
ATOM     11  C   UNL A   1      33.515  24.349  22.298  1.00  0.00     0.046 C 
ATOM     12  C   UNL A   1      33.920  23.578  23.515  1.00  0.00    -0.032 A 
ATOM     13  C   UNL A   1      34.612  22.317  23.448  1.00  0.00     0.029 A 
ATOM     14  C   UNL A   1      34.924  21.784  24.692  1.00  0.00     0.093 A 
ATOM     15  S   UNL A   1      34.653  22.964  25.860  1.00  0.00    -0.130 S 
BRANCH  14  16
ATOM     16  C   UNL A   1      35.544  20.496  24.931  1.00  0.00     0.261 C 
ATOM     17  O   UNL A   1      36.769  20.419  25.101  1.00  0.00    -0.268 OA
ATOM     18  N   UNL A   1      34.922  19.265  24.973  1.00  0.00    -0.349 N 
ATOM     19  H   UNL A   1      35.579  18.581  25.235  1.00  0.00     0.164 HD
BRANCH  18  20
ATOM     20  C   UNL A   1      33.655  18.640  24.771  1.00  0.00     0.082 C 
ATOM     21  C   UNL A   1      32.493  19.430  24.230  1.00  0.00     0.027 C 
ATOM     22  C   UNL A   1      32.921  18.149  23.568  1.00  0.00     0.027 C 
ENDBRANCH  18  20
ENDBRANCH  14  16
ENDBRANCH   9  10
ENDBRANCH   5   8
ENDBRANCH   3   4
ENDBRANCH   2   3
ENDBRANCH   1   2
BRANCH   1  23
ATOM     23  C   UNL A   1      31.078  31.090  25.610  1.00  0.00     0.002 C 
BRANCH  23  24
ATOM     24  C   UNL A   1      31.452  31.602  27.004  1.00  0.00     0.021 C 
BRANCH  24  25
ATOM     25  C   UNL A   1      32.799  32.315  27.055  1.00  0.00     0.116 C 
BRANCH  25  26
ATOM     26  N   UNL A   1      32.640  33.709  27.435  1.00  0.00    -0.352 N 
ATOM     27  C   UNL A   1      33.214  34.391  28.477  1.00  0.00     0.251 C 
ATOM     28  H   UNL A   1      32.036  34.237  26.864  1.00  0.00     0.163 HD
ATOM     29  O   UNL A   1      32.753  35.471  28.827  1.00  0.00    -0.269 OA
BRANCH  27  30
ATOM     30  C   UNL A   1      34.380  33.808  29.173  1.00  0.00     0.039 A 
ATOM     31  C   UNL A   1      34.172  32.826  30.143  1.00  0.00     0.014 A 
ATOM     32  C   UNL A   1      35.675  34.239  28.871  1.00  0.00     0.014 A 
ATOM     33  C   UNL A   1      35.268  32.243  30.778  1.00  0.00     0.010 A 
ATOM     34  C   UNL A   1      36.769  33.604  29.449  1.00  0.00     0.010 A 
ATOM     35  C   UNL A   1      36.577  32.605  30.415  1.00  0.00    -0.014 A 
BRANCH  35  36
ATOM     36  C   UNL A   1      37.756  31.957  31.045  1.00  0.00     0.031 A 
ATOM     37  C   UNL A   1      38.539  30.920  30.287  1.00  0.00     0.074 A 
ATOM     38  C   UNL A   1      38.083  32.262  32.316  1.00  0.00     0.049 A 
ATOM     39  N   UNL A   1      39.553  30.194  30.683  1.00  0.00    -0.248 NA
ATOM     40  C   UNL A   1      38.101  30.640  28.911  1.00  0.00     0.031 C 
ATOM     41  C   UNL A   1      37.373  33.224  33.162  1.00  0.00     0.029 A 
ATOM     42  N   UNL A   1      39.089  31.791  33.121  1.00  0.00    -0.354 N 
ATOM     43  C   UNL A   1      39.869  29.366  29.610  1.00  0.00     0.074 A 
ATOM     44  C   UNL A   1      38.893  29.634  28.575  1.00  0.00     0.031 C 
ATOM     45  C   UNL A   1      37.984  33.294  34.354  1.00  0.00     0.029 A 
ATOM     46  C   UNL A   1      39.095  32.348  34.380  1.00  0.00     0.049 A 
ATOM     47  H   UNL A   1      39.745  31.119  32.826  1.00  0.00     0.167 HD
ATOM     48  C   UNL A   1      40.893  28.485  29.491  1.00  0.00     0.034 A 
ATOM     49  C   UNL A   1      39.897  32.112  35.437  1.00  0.00     0.034 A 
ATOM     50  C   UNL A   1      41.859  28.239  30.535  1.00  0.00     0.049 A 
ATOM     51  C   UNL A   1      41.006  31.101  35.296  1.00  0.00     0.074 A 
ATOM     52  C   UNL A   1      42.966  27.409  30.507  1.00  0.00     0.029 A 
ATOM     53  N   UNL A   1      41.827  28.811  31.802  1.00  0.00    -0.354 N 
ATOM     54  N   UNL A   1      41.325  30.363  34.256  1.00  0.00    -0.248 NA
ATOM     55  C   UNL A   1      41.868  30.899  36.466  1.00  0.00     0.031 C 
ATOM     56  C   UNL A   1      43.556  27.420  31.776  1.00  0.00     0.029 A 
ATOM     57  C   UNL A   1      42.872  28.323  32.573  1.00  0.00     0.049 A 
ATOM     58  H   UNL A   1      41.160  29.468  32.107  1.00  0.00     0.167 HD
ATOM     59  C   UNL A   1      42.446  29.632  34.640  1.00  0.00     0.074 A 
ATOM     60  C   UNL A   1      42.754  30.031  35.999  1.00  0.00     0.031 C 
ATOM     61  C   UNL A   1      43.159  28.718  33.933  1.00  0.00     0.034 A 
BRANCH  48  62
ATOM     62  C   UNL A   1      40.994  27.707  28.200  1.00  0.00     0.023 A 
ATOM     63  C   UNL A   1      40.555  26.374  28.103  1.00  0.00     0.031 A 
ATOM     64  C   UNL A   1      41.570  28.290  27.058  1.00  0.00     0.131 A 
ATOM     65  C   UNL A   1      40.777  25.645  26.926  1.00  0.00     0.055 A 
ATOM     66  C   UNL A   1      41.705  27.587  25.858  1.00  0.00     0.041 A 
ATOM     67  F   UNL A   1      42.029  29.551  27.091  1.00  0.00    -0.206 F 
ATOM     68  C   UNL A   1      41.325  26.250  25.792  1.00  0.00     0.022 A 
BRANCH  65  69
ATOM     69  S   UNL A   1      40.493  23.853  26.950  1.00  0.00     0.124 S 
ATOM     70  O   UNL A   1      39.110  23.769  26.482  1.00  0.00    -0.237 OA
ATOM     71  O   UNL A   1      41.511  23.359  26.030  1.00  0.00    -0.237 OA
ATOM     72  O   UNL A   1      40.689  23.494  28.353  1.00  0.00    -0.744 OA
ENDBRANCH  65  69
ENDBRANCH  48  62
BRANCH  49  73
ATOM     73  C   UNL A   1      39.681  32.837  36.722  1.00  0.00     0.023 A 
ATOM     74  C   UNL A   1      38.764  32.363  37.674  1.00  0.00     0.031 A 
ATOM     75  C   UNL A   1      40.364  34.033  37.004  1.00  0.00     0.131 A 
ATOM     76  C   UNL A   1      38.520  33.105  38.840  1.00  0.00     0.055 A 
ATOM     77  C   UNL A   1      40.159  34.739  38.191  1.00  0.00     0.041 A 
ATOM     78  F   UNL A   1      41.255  34.528  36.131  1.00  0.00    -0.206 F 
ATOM     79  C   UNL A   1      39.222  34.281  39.112  1.00  0.00     0.022 A 
BRANCH  76  80
ATOM     80  S   UNL A   1      37.207  32.553  39.962  1.00  0.00     0.124 S 
ATOM     81  O   UNL A   1      36.053  32.512  39.072  1.00  0.00    -0.237 OA
ATOM     82  O   UNL A   1      37.716  31.261  40.411  1.00  0.00    -0.237 OA
ATOM     83  O   UNL A   1      37.172  33.596  40.985  1.00  0.00    -0.744 OA
ENDBRANCH  76  80
ENDBRANCH  49  73
BRANCH  61  84
ATOM     84  C   UNL A   1      44.370  28.121  34.609  1.00  0.00     0.023 A 
ATOM     85  C   UNL A   1      44.301  26.910  35.320  1.00  0.00     0.031 A 
ATOM     86  C   UNL A   1      45.610  28.781  34.549  1.00  0.00     0.131 A 
ATOM     87  C   UNL A   1      45.435  26.429  35.992  1.00  0.00     0.055 A 
ATOM     88  C   UNL A   1      46.751  28.263  35.162  1.00  0.00     0.041 A 
ATOM     89  F   UNL A   1      45.735  29.943  33.888  1.00  0.00    -0.206 F 
ATOM     90  C   UNL A   1      46.664  27.086  35.901  1.00  0.00     0.022 A 
BRANCH  87  91
ATOM     91  S   UNL A   1      45.258  24.982  37.072  1.00  0.00     0.124 S 
ATOM     92  O   UNL A   1      44.611  24.020  36.186  1.00  0.00    -0.237 OA
ATOM     93  O   UNL A   1      46.643  24.687  37.429  1.00  0.00    -0.237 OA
ATOM     94  O   UNL A   1      44.428  25.473  38.170  1.00  0.00    -0.744 OA
ENDBRANCH  87  91
ENDBRANCH  61  84
ENDBRANCH  35  36
ENDBRANCH  27  30
ENDBRANCH  25  26
ENDBRANCH  24  25
ENDBRANCH  23  24
ENDBRANCH   1  23
TORSDOF 19
ENDMDL
MODEL 3
REMARK VINA RESULT:     -10.5      2.841      4.430
REMARK SMILES Cc1cc(C(=O)NC2CC2)sc1/C=C/C(=O)NCCCCCCNC(=O)c1ccc(-c2c3nc(c(-c4cc(S(=O)(=O)[O-])ccc4F)c4ccc([nH]4)c(-c4cc(S(=O)(=O)[O-])ccc4F)c4nc(c(-c5cc(S(=O)(=O)[O-])ccc5F)c5ccc2[nH]5)C=C4)C=C3)cc1
REMARK SMILES IDX 20 1 19 2 18 3 17 4 15 5 16 6 14 8 13 9 12 10 1 11 2 12 3 13
REMARK SMILES IDX 4 14 11 15 5 16 6 17 7 18 8 20 9 21 10 22 21 23 22 24 23 25
REMARK SMILES IDX 24 26 25 27 26 29 27 30 28 31 89 32 29 33 88 34 30 35 31 36
REMARK SMILES IDX 32 37 82 38 33 39 87 40 81 41 83 42 34 43 86 44 80 45 79 46
REMARK SMILES IDX 35 48 67 49 47 50 66 51 48 52 51 53 65 54 84 55 49 56 50 57
REMARK SMILES IDX 64 59 85 60 52 61 36 62 37 63 45 64 38 65 44 66 46 67 43 68
REMARK SMILES IDX 39 69 40 70 41 71 42 72 68 73 69 74 77 75 70 76 76 77 78 78
REMARK SMILES IDX 75 79 71 80 72 81 73 82 74 83 53 84 54 85 62 86 55 87 61 88
REMARK SMILES IDX 63 89 60 90 56 91 57 92 58 93 59 94
REMARK H PARENT 17 7 7 19 24 28 83 47 51 58
REMARK Flexibility Score: inf
ROOT
ATOM      1  C   UNL A   1      34.755  31.782  28.704  1.00  0.00     0.002 C 
ENDROOT
BRANCH   1   2
ATOM      2  C   UNL A   1      34.882  30.588  27.752  1.00  0.00     0.021 C 
BRANCH   2   3
ATOM      3  C   UNL A   1      33.625  30.378  26.909  1.00  0.00     0.116 C 
BRANCH   3   4
ATOM      4  N   UNL A   1      32.671  29.582  27.655  1.00  0.00    -0.353 N 
ATOM      5  C   UNL A   1      31.976  28.474  27.296  1.00  0.00     0.244 C 
ATOM      6  O   UNL A   1      31.200  27.951  28.092  1.00  0.00    -0.270 OA
ATOM      7  H   UNL A   1      32.497  29.897  28.572  1.00  0.00     0.163 HD
BRANCH   5   8
ATOM      8  C   UNL A   1      32.238  27.817  26.000  1.00  0.00     0.072 C 
ATOM      9  C   UNL A   1      33.372  27.184  25.660  1.00  0.00     0.025 C 
BRANCH   9  10
ATOM     10  C   UNL A   1      33.570  26.558  24.393  1.00  0.00     0.031 A 
ATOM     11  C   UNL A   1      33.921  28.581  22.828  1.00  0.00     0.046 C 
ATOM     12  C   UNL A   1      33.705  27.131  23.132  1.00  0.00    -0.032 A 
ATOM     13  C   UNL A   1      33.561  26.129  22.108  1.00  0.00     0.029 A 
ATOM     14  C   UNL A   1      33.401  24.843  22.605  1.00  0.00     0.093 A 
ATOM     15  S   UNL A   1      33.743  24.860  24.252  1.00  0.00    -0.130 S 
BRANCH  14  16
ATOM     16  C   UNL A   1      33.156  23.653  21.814  1.00  0.00     0.261 C 
ATOM     17  O   UNL A   1      33.368  23.665  20.593  1.00  0.00    -0.268 OA
ATOM     18  N   UNL A   1      32.666  22.442  22.258  1.00  0.00    -0.349 N 
ATOM     19  H   UNL A   1      32.682  21.797  21.515  1.00  0.00     0.164 HD
BRANCH  18  20
ATOM     20  C   UNL A   1      32.144  21.800  23.421  1.00  0.00     0.082 C 
ATOM     21  C   UNL A   1      32.414  20.340  23.670  1.00  0.00     0.027 C 
ATOM     22  C   UNL A   1      32.736  21.367  24.721  1.00  0.00     0.027 C 
ENDBRANCH  18  20
ENDBRANCH  14  16
ENDBRANCH   9  10
ENDBRANCH   5   8
ENDBRANCH   3   4
ENDBRANCH   2   3
ENDBRANCH   1   2
BRANCH   1  23
ATOM     23  C   UNL A   1      34.670  33.142  27.998  1.00  0.00     0.002 C 
BRANCH  23  24
ATOM     24  C   UNL A   1      33.417  33.955  28.335  1.00  0.00     0.021 C 
BRANCH  24  25
ATOM     25  C   UNL A   1      33.714  35.378  28.796  1.00  0.00     0.116 C 
BRANCH  25  26
ATOM     26  N   UNL A   1      33.058  35.667  30.061  1.00  0.00    -0.352 N 
ATOM     27  C   UNL A   1      33.266  35.096  31.291  1.00  0.00     0.251 C 
ATOM     28  H   UNL A   1      32.371  36.370  30.030  1.00  0.00     0.163 HD
ATOM     29  O   UNL A   1      32.436  35.245  32.180  1.00  0.00    -0.269 OA
BRANCH  27  30
ATOM     30  C   UNL A   1      34.487  34.297  31.524  1.00  0.00     0.039 A 
ATOM     31  C   UNL A   1      35.732  34.857  31.231  1.00  0.00     0.014 A 
ATOM     32  C   UNL A   1      34.398  32.994  32.023  1.00  0.00     0.014 A 
ATOM     33  C   UNL A   1      36.892  34.125  31.484  1.00  0.00     0.010 A 
ATOM     34  C   UNL A   1      35.557  32.296  32.345  1.00  0.00     0.010 A 
ATOM     35  C   UNL A   1      36.816  32.850  32.071  1.00  0.00    -0.014 A 
BRANCH  35  36
ATOM     36  C   UNL A   1      38.043  32.079  32.393  1.00  0.00     0.031 A 
ATOM     37  C   UNL A   1      38.749  32.300  33.704  1.00  0.00     0.074 A 
ATOM     38  C   UNL A   1      38.551  31.224  31.484  1.00  0.00     0.049 A 
ATOM     39  N   UNL A   1      39.865  31.778  34.142  1.00  0.00    -0.248 NA
ATOM     40  C   UNL A   1      38.131  33.262  34.630  1.00  0.00     0.031 C 
ATOM     41  C   UNL A   1      37.974  30.957  30.164  1.00  0.00     0.029 A 
ATOM     42  N   UNL A   1      39.668  30.429  31.524  1.00  0.00    -0.354 N 
ATOM     43  C   UNL A   1      40.089  32.353  35.389  1.00  0.00     0.074 A 
ATOM     44  C   UNL A   1      39.028  33.313  35.602  1.00  0.00     0.031 C 
ATOM     45  C   UNL A   1      38.724  30.039  29.536  1.00  0.00     0.029 A 
ATOM     46  C   UNL A   1      39.861  29.689  30.380  1.00  0.00     0.049 A 
ATOM     47  H   UNL A   1      40.273  30.391  32.300  1.00  0.00     0.167 HD
ATOM     48  C   UNL A   1      41.073  32.084  36.283  1.00  0.00     0.034 A 
ATOM     49  C   UNL A   1      40.850  28.836  30.046  1.00  0.00     0.034 A 
ATOM     50  C   UNL A   1      42.118  31.115  36.053  1.00  0.00     0.049 A 
ATOM     51  C   UNL A   1      41.955  28.581  31.039  1.00  0.00     0.074 A 
ATOM     52  C   UNL A   1      43.135  30.725  36.906  1.00  0.00     0.029 A 
ATOM     53  N   UNL A   1      42.290  30.394  34.877  1.00  0.00    -0.354 N 
ATOM     54  N   UNL A   1      42.124  29.093  32.238  1.00  0.00    -0.248 NA
ATOM     55  C   UNL A   1      42.994  27.625  30.640  1.00  0.00     0.031 C 
ATOM     56  C   UNL A   1      43.963  29.829  36.222  1.00  0.00     0.029 A 
ATOM     57  C   UNL A   1      43.417  29.590  34.971  1.00  0.00     0.049 A 
ATOM     58  H   UNL A   1      41.698  30.445  34.092  1.00  0.00     0.167 HD
ATOM     59  C   UNL A   1      43.275  28.496  32.746  1.00  0.00     0.074 A 
ATOM     60  C   UNL A   1      43.745  27.575  31.731  1.00  0.00     0.031 C 
ATOM     61  C   UNL A   1      43.884  28.687  33.944  1.00  0.00     0.034 A 
BRANCH  48  62
ATOM     62  C   UNL A   1      41.075  32.872  37.572  1.00  0.00     0.023 A 
ATOM     63  C   UNL A   1      40.295  32.486  38.678  1.00  0.00     0.031 A 
ATOM     64  C   UNL A   1      41.838  34.047  37.691  1.00  0.00     0.131 A 
ATOM     65  C   UNL A   1      40.226  33.307  39.812  1.00  0.00     0.055 A 
ATOM     66  C   UNL A   1      41.837  34.814  38.859  1.00  0.00     0.041 A 
ATOM     67  F   UNL A   1      42.587  34.483  36.665  1.00  0.00    -0.206 F 
ATOM     68  C   UNL A   1      41.014  34.456  39.922  1.00  0.00     0.022 A 
BRANCH  65  69
ATOM     69  S   UNL A   1      38.972  32.943  41.071  1.00  0.00     0.124 S 
ATOM     70  O   UNL A   1      37.770  33.507  40.460  1.00  0.00    -0.237 OA
ATOM     71  O   UNL A   1      39.023  31.488  41.155  1.00  0.00    -0.237 OA
ATOM     72  O   UNL A   1      39.454  33.655  42.252  1.00  0.00    -0.744 OA
ENDBRANCH  65  69
ENDBRANCH  48  62
BRANCH  49  73
ATOM     73  C   UNL A   1      40.849  28.168  28.714  1.00  0.00     0.023 A 
ATOM     74  C   UNL A   1      40.309  26.882  28.549  1.00  0.00     0.031 A 
ATOM     75  C   UNL A   1      41.420  28.791  27.589  1.00  0.00     0.131 A 
ATOM     76  C   UNL A   1      40.392  26.243  27.303  1.00  0.00     0.055 A 
ATOM     77  C   UNL A   1      41.451  28.173  26.338  1.00  0.00     0.041 A 
ATOM     78  F   UNL A   1      41.947  30.021  27.689  1.00  0.00    -0.206 F 
ATOM     79  C   UNL A   1      40.946  26.885  26.193  1.00  0.00     0.022 A 
BRANCH  76  80
ATOM     80  S   UNL A   1      39.839  24.520  27.173  1.00  0.00     0.124 S 
ATOM     81  O   UNL A   1      38.590  24.665  26.434  1.00  0.00    -0.237 OA
ATOM     82  O   UNL A   1      40.944  23.902  26.448  1.00  0.00    -0.237 OA
ATOM     83  O   UNL A   1      39.698  24.102  28.566  1.00  0.00    -0.744 OA
ENDBRANCH  76  80
ENDBRANCH  49  73
BRANCH  61  84
ATOM     84  C   UNL A   1      45.106  27.847  34.234  1.00  0.00     0.023 A 
ATOM     85  C   UNL A   1      45.003  26.515  34.670  1.00  0.00     0.031 A 
ATOM     86  C   UNL A   1      46.392  28.394  34.080  1.00  0.00     0.131 A 
ATOM     87  C   UNL A   1      46.163  25.794  34.995  1.00  0.00     0.055 A 
ATOM     88  C   UNL A   1      47.544  27.651  34.339  1.00  0.00     0.041 A 
ATOM     89  F   UNL A   1      46.551  29.663  33.670  1.00  0.00    -0.206 F 
ATOM     90  C   UNL A   1      47.433  26.347  34.813  1.00  0.00     0.022 A 
BRANCH  87  91
ATOM     91  S   UNL A   1      45.987  24.157  35.755  1.00  0.00     0.124 S 
ATOM     92  O   UNL A   1      45.242  23.428  34.734  1.00  0.00    -0.237 OA
ATOM     93  O   UNL A   1      47.376  23.748  35.944  1.00  0.00    -0.237 OA
ATOM     94  O   UNL A   1      45.249  24.428  36.987  1.00  0.00    -0.744 OA
ENDBRANCH  87  91
ENDBRANCH  61  84
ENDBRANCH  35  36
ENDBRANCH  27  30
ENDBRANCH  25  26
ENDBRANCH  24  25
ENDBRANCH  23  24
ENDBRANCH   1  23
TORSDOF 19
ENDMDL
