MODEL 1
REMARK VINA RESULT:     -11.4      0.000      0.000
REMARK SMILES O=C(NCCCCCCNC(=O)[C@@H](Cc1c(F)cccc1Cl)c1ccc(Cl)cc1)c1ccc(-c2c3nc(c(-c4cc(S(=O)(=O)[O-])ccc4F)c4ccc([nH]4)c(-c4cc(S(=O)(=O)[O-])ccc4F)c4nc(c(-c5cc(S(=O)(=O)[O-])ccc5F)c5ccc2[nH]5)C=C4)C=C3)cc1
REMARK SMILES IDX 6 1 5 2 4 3 3 4 1 5 2 6 30 8 31 9 92 10 32 11 91 12 33 13
REMARK SMILES IDX 34 14 35 15 85 16 36 17 90 18 84 19 86 20 37 21 89 22 83 23
REMARK SMILES IDX 82 24 38 26 70 27 50 28 69 29 51 30 54 31 68 32 87 33 52 34
REMARK SMILES IDX 53 35 67 37 88 38 55 39 39 40 40 41 48 42 41 43 47 44 49 45
REMARK SMILES IDX 46 46 42 47 43 48 44 49 45 50 71 51 72 52 80 53 73 54 79 55
REMARK SMILES IDX 81 56 78 57 74 58 75 59 76 60 77 61 56 62 57 63 65 64 58 65
REMARK SMILES IDX 64 66 66 67 63 68 59 69 60 70 61 71 62 72 7 73 8 74 9 75
REMARK SMILES IDX 10 76 11 77 12 79 13 80 14 81 15 82 16 83 21 84 17 85 18 86
REMARK SMILES IDX 20 87 22 88 19 89 23 90 24 91 29 92 25 93 28 94 26 95 27 96
REMARK H PARENT 3 7 86 25 54 36 10 78
REMARK Flexibility Score: inf
ROOT
ATOM      1  C   UNL A   1      32.613  26.936  26.035  1.00  0.00     0.002 C 
ENDROOT
BRANCH   1   2
ATOM      2  C   UNL A   1      32.975  28.113  26.939  1.00  0.00     0.021 C 
BRANCH   2   3
ATOM      3  C   UNL A   1      34.056  29.045  26.404  1.00  0.00     0.116 C 
BRANCH   3   4
ATOM      4  N   UNL A   1      33.867  30.426  26.827  1.00  0.00    -0.352 N 
ATOM      5  O   UNL A   1      34.127  32.285  28.065  1.00  0.00    -0.269 OA
ATOM      6  C   UNL A   1      34.569  31.193  27.727  1.00  0.00     0.251 C 
ATOM      7  H   UNL A   1      33.110  30.887  26.398  1.00  0.00     0.163 HD
BRANCH   6   8
ATOM      8  C   UNL A   1      35.847  30.705  28.297  1.00  0.00     0.039 A 
ATOM      9  C   UNL A   1      37.064  31.274  27.922  1.00  0.00     0.014 A 
ATOM     10  C   UNL A   1      35.824  29.680  29.250  1.00  0.00     0.014 A 
ATOM     11  C   UNL A   1      38.256  30.713  28.365  1.00  0.00     0.010 A 
ATOM     12  C   UNL A   1      37.025  29.184  29.772  1.00  0.00     0.010 A 
ATOM     13  C   UNL A   1      38.256  29.668  29.303  1.00  0.00    -0.014 A 
BRANCH  13  14
ATOM     14  C   UNL A   1      39.555  29.129  29.793  1.00  0.00     0.031 A 
ATOM     15  C   UNL A   1      40.233  29.715  31.005  1.00  0.00     0.074 A 
ATOM     16  C   UNL A   1      40.103  28.071  29.163  1.00  0.00     0.049 A 
ATOM     17  N   UNL A   1      41.339  29.337  31.595  1.00  0.00    -0.248 NA
ATOM     18  C   UNL A   1      39.591  30.879  31.630  1.00  0.00     0.031 C 
ATOM     19  C   UNL A   1      39.544  27.421  27.973  1.00  0.00     0.029 A 
ATOM     20  N   UNL A   1      41.227  27.336  29.441  1.00  0.00    -0.354 N 
ATOM     21  C   UNL A   1      41.540  30.227  32.646  1.00  0.00     0.074 A 
ATOM     22  C   UNL A   1      40.457  31.186  32.586  1.00  0.00     0.031 C 
ATOM     23  C   UNL A   1      40.291  26.352  27.663  1.00  0.00     0.029 A 
ATOM     24  C   UNL A   1      41.423  26.281  28.579  1.00  0.00     0.049 A 
ATOM     25  H   UNL A   1      41.836  27.543  30.186  1.00  0.00     0.167 HD
ATOM     26  C   UNL A   1      42.529  30.237  33.576  1.00  0.00     0.034 A 
ATOM     27  C   UNL A   1      42.411  25.367  28.517  1.00  0.00     0.034 A 
ATOM     28  C   UNL A   1      43.601  29.269  33.621  1.00  0.00     0.049 A 
ATOM     29  C   UNL A   1      43.517  25.426  29.537  1.00  0.00     0.074 A 
ATOM     30  C   UNL A   1      44.630  29.166  34.543  1.00  0.00     0.029 A 
ATOM     31  N   UNL A   1      43.795  28.245  32.702  1.00  0.00    -0.354 N 
ATOM     32  N   UNL A   1      43.672  26.257  30.542  1.00  0.00    -0.248 NA
ATOM     33  C   UNL A   1      44.576  24.417  29.418  1.00  0.00     0.031 C 
ATOM     34  C   UNL A   1      45.486  28.137  34.135  1.00  0.00     0.029 A 
ATOM     35  C   UNL A   1      44.944  27.531  33.014  1.00  0.00     0.049 A 
ATOM     36  H   UNL A   1      43.202  28.053  31.939  1.00  0.00     0.167 HD
ATOM     37  C   UNL A   1      44.830  25.846  31.195  1.00  0.00     0.074 A 
ATOM     38  C   UNL A   1      45.319  24.684  30.480  1.00  0.00     0.031 C 
ATOM     39  C   UNL A   1      45.432  26.379  32.290  1.00  0.00     0.034 A 
BRANCH  26  40
ATOM     40  C   UNL A   1      42.525  31.360  34.591  1.00  0.00     0.023 A 
ATOM     41  C   UNL A   1      41.596  31.408  35.645  1.00  0.00     0.031 A 
ATOM     42  C   UNL A   1      43.457  32.410  34.490  1.00  0.00     0.131 A 
ATOM     43  C   UNL A   1      41.569  32.517  36.506  1.00  0.00     0.055 A 
ATOM     44  C   UNL A   1      43.480  33.467  35.402  1.00  0.00     0.041 A 
ATOM     45  F   UNL A   1      44.356  32.433  33.493  1.00  0.00    -0.206 F 
ATOM     46  C   UNL A   1      42.522  33.532  36.409  1.00  0.00     0.022 A 
BRANCH  43  47
ATOM     47  S   UNL A   1      40.176  32.686  37.655  1.00  0.00     0.124 S 
ATOM     48  O   UNL A   1      40.828  32.462  38.943  1.00  0.00    -0.237 OA
ATOM     49  O   UNL A   1      39.722  34.048  37.398  1.00  0.00    -0.237 OA
ATOM     50  O   UNL A   1      39.257  31.630  37.237  1.00  0.00    -0.744 OA
ENDBRANCH  43  47
ENDBRANCH  26  40
BRANCH  27  51
ATOM     51  C   UNL A   1      42.414  24.330  27.445  1.00  0.00     0.023 A 
ATOM     52  C   UNL A   1      41.858  23.060  27.662  1.00  0.00     0.031 A 
ATOM     53  C   UNL A   1      43.014  24.581  26.197  1.00  0.00     0.131 A 
ATOM     54  C   UNL A   1      41.956  22.074  26.668  1.00  0.00     0.055 A 
ATOM     55  C   UNL A   1      43.053  23.617  25.188  1.00  0.00     0.041 A 
ATOM     56  F   UNL A   1      43.561  25.779  25.934  1.00  0.00    -0.206 F 
ATOM     57  C   UNL A   1      42.534  22.349  25.428  1.00  0.00     0.022 A 
BRANCH  54  58
ATOM     58  S   UNL A   1      41.398  20.394  27.058  1.00  0.00     0.124 S 
ATOM     59  O   UNL A   1      42.653  19.650  27.026  1.00  0.00    -0.237 OA
ATOM     60  O   UNL A   1      40.792  20.573  28.373  1.00  0.00    -0.237 OA
ATOM     61  O   UNL A   1      40.462  20.088  25.979  1.00  0.00    -0.744 OA
ENDBRANCH  54  58
ENDBRANCH  27  51
BRANCH  39  62
ATOM     62  C   UNL A   1      46.656  25.664  32.814  1.00  0.00     0.023 A 
ATOM     63  C   UNL A   1      46.569  24.645  33.779  1.00  0.00     0.031 A 
ATOM     64  C   UNL A   1      47.935  26.036  32.364  1.00  0.00     0.131 A 
ATOM     65  C   UNL A   1      47.740  24.089  34.318  1.00  0.00     0.055 A 
ATOM     66  C   UNL A   1      49.093  25.427  32.848  1.00  0.00     0.041 A 
ATOM     67  F   UNL A   1      48.083  27.007  31.448  1.00  0.00    -0.206 F 
ATOM     68  C   UNL A   1      49.000  24.460  33.844  1.00  0.00     0.022 A 
BRANCH  65  69
ATOM     69  S   UNL A   1      47.599  22.967  35.736  1.00  0.00     0.124 S 
ATOM     70  O   UNL A   1      47.266  23.887  36.819  1.00  0.00    -0.237 OA
ATOM     71  O   UNL A   1      46.530  22.066  35.315  1.00  0.00    -0.237 OA
ATOM     72  O   UNL A   1      48.924  22.357  35.826  1.00  0.00    -0.744 OA
ENDBRANCH  65  69
ENDBRANCH  39  62
ENDBRANCH  13  14
ENDBRANCH   6   8
ENDBRANCH   3   4
ENDBRANCH   2   3
ENDBRANCH   1   2
BRANCH   1  73
ATOM     73  C   UNL A   1      31.295  27.058  25.258  1.00  0.00     0.002 C 
BRANCH  73  74
ATOM     74  C   UNL A   1      31.376  26.833  23.743  1.00  0.00     0.021 C 
BRANCH  74  75
ATOM     75  C   UNL A   1      32.751  27.147  23.150  1.00  0.00     0.116 C 
BRANCH  75  76
ATOM     76  N   UNL A   1      33.185  26.222  22.128  1.00  0.00    -0.356 N 
ATOM     77  C   UNL A   1      33.168  24.861  22.126  1.00  0.00     0.227 C 
ATOM     78  H   UNL A   1      33.549  26.639  21.314  1.00  0.00     0.163 HD
ATOM     79  O   UNL A   1      33.081  24.332  21.008  1.00  0.00    -0.274 OA
BRANCH  77  80
ATOM     80  C   UNL A   1      33.308  23.987  23.389  1.00  0.00     0.113 C 
BRANCH  80  81
ATOM     81  C   UNL A   1      32.297  22.818  23.476  1.00  0.00     0.058 C 
BRANCH  81  82
ATOM     82  C   UNL A   1      32.471  21.363  23.904  1.00  0.00     0.008 A 
ATOM     83  C   UNL A   1      32.219  20.461  22.839  1.00  0.00     0.127 A 
ATOM     84  C   UNL A   1      32.803  20.767  25.133  1.00  0.00     0.047 A 
ATOM     85  F   UNL A   1      31.873  20.950  21.637  1.00  0.00    -0.207 F 
ATOM     86  C   UNL A   1      32.317  19.077  22.956  1.00  0.00     0.039 A 
ATOM     87  C   UNL A   1      32.893  19.365  25.254  1.00  0.00     0.021 A 
ATOM     88  Cl  UNL A   1      33.199  21.573  26.604  1.00  0.00    -0.084 Cl
ATOM     89  C   UNL A   1      32.662  18.522  24.174  1.00  0.00     0.005 A 
ENDBRANCH  81  82
ENDBRANCH  80  81
BRANCH  80  90
ATOM     90  C   UNL A   1      34.692  23.798  23.991  1.00  0.00    -0.035 A 
ATOM     91  C   UNL A   1      35.676  23.011  23.377  1.00  0.00     0.006 A 
ATOM     92  C   UNL A   1      35.014  24.427  25.213  1.00  0.00     0.006 A 
ATOM     93  C   UNL A   1      36.879  22.734  24.038  1.00  0.00     0.021 A 
ATOM     94  C   UNL A   1      36.199  24.125  25.887  1.00  0.00     0.021 A 
ATOM     95  C   UNL A   1      37.114  23.254  25.308  1.00  0.00     0.041 A 
ATOM     96  Cl  UNL A   1      38.530  22.803  26.172  1.00  0.00    -0.084 Cl
ENDBRANCH  80  90
ENDBRANCH  77  80
ENDBRANCH  75  76
ENDBRANCH  74  75
ENDBRANCH  73  74
ENDBRANCH   1  73
TORSDOF 19
ENDMDL
MODEL 2
REMARK VINA RESULT:     -11.4      1.911      2.718
REMARK SMILES O=C(NCCCCCCNC(=O)[C@@H](Cc1c(F)cccc1Cl)c1ccc(Cl)cc1)c1ccc(-c2c3nc(c(-c4cc(S(=O)(=O)[O-])ccc4F)c4ccc([nH]4)c(-c4cc(S(=O)(=O)[O-])ccc4F)c4nc(c(-c5cc(S(=O)(=O)[O-])ccc5F)c5ccc2[nH]5)C=C4)C=C3)cc1
REMARK SMILES IDX 6 1 5 2 4 3 3 4 1 5 2 6 30 8 31 9 92 10 32 11 91 12 33 13
REMARK SMILES IDX 34 14 35 15 85 16 36 17 90 18 84 19 86 20 37 21 89 22 83 23
REMARK SMILES IDX 82 24 38 26 70 27 50 28 69 29 51 30 54 31 68 32 87 33 52 34
REMARK SMILES IDX 53 35 67 37 88 38 55 39 39 40 40 41 48 42 41 43 47 44 49 45
REMARK SMILES IDX 46 46 42 47 43 48 44 49 45 50 71 51 72 52 80 53 73 54 79 55
REMARK SMILES IDX 81 56 78 57 74 58 75 59 76 60 77 61 56 62 57 63 65 64 58 65
REMARK SMILES IDX 64 66 66 67 63 68 59 69 60 70 61 71 62 72 7 73 8 74 9 75
REMARK SMILES IDX 10 76 11 77 12 79 13 80 14 81 15 82 16 83 21 84 17 85 18 86
REMARK SMILES IDX 20 87 22 88 19 89 23 90 24 91 29 92 25 93 28 94 26 95 27 96
REMARK H PARENT 3 7 86 25 54 36 10 78
REMARK Flexibility Score: inf
ROOT
ATOM      1  C   UNL A   1      31.585  27.093  25.412  1.00  0.00     0.002 C 
ENDROOT
BRANCH   1   2
ATOM      2  C   UNL A   1      31.781  28.323  26.296  1.00  0.00     0.021 C 
BRANCH   2   3
ATOM      3  C   UNL A   1      32.829  29.319  25.815  1.00  0.00     0.116 C 
BRANCH   3   4
ATOM      4  N   UNL A   1      32.505  30.694  26.174  1.00  0.00    -0.352 N 
ATOM      5  O   UNL A   1      32.542  32.607  27.355  1.00  0.00    -0.269 OA
ATOM      6  C   UNL A   1      33.090  31.545  27.083  1.00  0.00     0.251 C 
ATOM      7  H   UNL A   1      31.741  31.076  25.687  1.00  0.00     0.163 HD
BRANCH   6   8
ATOM      8  C   UNL A   1      34.366  31.183  27.742  1.00  0.00     0.039 A 
ATOM      9  C   UNL A   1      34.637  29.862  28.102  1.00  0.00     0.014 A 
ATOM     10  C   UNL A   1      35.324  32.176  27.972  1.00  0.00     0.014 A 
ATOM     11  C   UNL A   1      35.779  29.566  28.838  1.00  0.00     0.010 A 
ATOM     12  C   UNL A   1      36.522  31.855  28.625  1.00  0.00     0.010 A 
ATOM     13  C   UNL A   1      36.743  30.554  29.102  1.00  0.00    -0.014 A 
BRANCH  13  14
ATOM     14  C   UNL A   1      37.978  30.185  29.847  1.00  0.00     0.031 A 
ATOM     15  C   UNL A   1      38.214  30.673  31.253  1.00  0.00     0.074 A 
ATOM     16  C   UNL A   1      38.872  29.362  29.263  1.00  0.00     0.049 A 
ATOM     17  N   UNL A   1      39.209  30.408  32.062  1.00  0.00    -0.248 NA
ATOM     18  C   UNL A   1      37.209  31.581  31.820  1.00  0.00     0.031 C 
ATOM     19  C   UNL A   1      38.758  28.830  27.901  1.00  0.00     0.029 A 
ATOM     20  N   UNL A   1      40.033  28.807  29.736  1.00  0.00    -0.354 N 
ATOM     21  C   UNL A   1      38.964  31.131  33.225  1.00  0.00     0.074 A 
ATOM     22  C   UNL A   1      37.742  31.876  32.998  1.00  0.00     0.031 C 
ATOM     23  C   UNL A   1      39.769  27.980  27.674  1.00  0.00     0.029 A 
ATOM     24  C   UNL A   1      40.647  27.963  28.838  1.00  0.00     0.049 A 
ATOM     25  H   UNL A   1      40.394  28.993  30.633  1.00  0.00     0.167 HD
ATOM     26  C   UNL A   1      39.685  31.165  34.375  1.00  0.00     0.034 A 
ATOM     27  C   UNL A   1      41.796  27.265  28.930  1.00  0.00     0.034 A 
ATOM     28  C   UNL A   1      40.900  30.413  34.585  1.00  0.00     0.049 A 
ATOM     29  C   UNL A   1      42.596  27.352  30.202  1.00  0.00     0.074 A 
ATOM     30  C   UNL A   1      41.686  30.345  35.725  1.00  0.00     0.029 A 
ATOM     31  N   UNL A   1      41.518  29.608  33.635  1.00  0.00    -0.354 N 
ATOM     32  N   UNL A   1      42.332  28.018  31.302  1.00  0.00    -0.248 NA
ATOM     33  C   UNL A   1      43.847  26.585  30.246  1.00  0.00     0.031 C 
ATOM     34  C   UNL A   1      42.815  29.570  35.437  1.00  0.00     0.029 A 
ATOM     35  C   UNL A   1      42.690  29.071  34.150  1.00  0.00     0.049 A 
ATOM     36  H   UNL A   1      41.174  29.442  32.728  1.00  0.00     0.167 HD
ATOM     37  C   UNL A   1      43.368  27.720  32.182  1.00  0.00     0.074 A 
ATOM     38  C   UNL A   1      44.248  26.801  31.489  1.00  0.00     0.031 C 
ATOM     39  C   UNL A   1      43.570  28.163  33.450  1.00  0.00     0.034 A 
BRANCH  26  40
ATOM     40  C   UNL A   1      39.203  32.084  35.478  1.00  0.00     0.023 A 
ATOM     41  C   UNL A   1      39.623  33.422  35.569  1.00  0.00     0.031 A 
ATOM     42  C   UNL A   1      38.323  31.606  36.465  1.00  0.00     0.131 A 
ATOM     43  C   UNL A   1      39.226  34.210  36.661  1.00  0.00     0.055 A 
ATOM     44  C   UNL A   1      37.861  32.420  37.502  1.00  0.00     0.041 A 
ATOM     45  F   UNL A   1      37.902  30.330  36.446  1.00  0.00    -0.206 F 
ATOM     46  C   UNL A   1      38.326  33.727  37.613  1.00  0.00     0.022 A 
BRANCH  43  47
ATOM     47  S   UNL A   1      40.023  35.821  36.902  1.00  0.00     0.124 S 
ATOM     48  O   UNL A   1      39.394  36.279  38.139  1.00  0.00    -0.237 OA
ATOM     49  O   UNL A   1      41.433  35.462  36.999  1.00  0.00    -0.237 OA
ATOM     50  O   UNL A   1      39.649  36.571  35.706  1.00  0.00    -0.744 OA
ENDBRANCH  43  47
ENDBRANCH  26  40
BRANCH  27  51
ATOM     51  C   UNL A   1      42.271  26.439  27.782  1.00  0.00     0.023 A 
ATOM     52  C   UNL A   1      42.051  25.054  27.746  1.00  0.00     0.031 A 
ATOM     53  C   UNL A   1      42.992  27.019  26.723  1.00  0.00     0.131 A 
ATOM     54  C   UNL A   1      42.588  24.288  26.700  1.00  0.00     0.055 A 
ATOM     55  C   UNL A   1      43.470  26.262  25.652  1.00  0.00     0.041 A 
ATOM     56  F   UNL A   1      43.231  28.341  26.706  1.00  0.00    -0.206 F 
ATOM     57  C   UNL A   1      43.281  24.884  25.645  1.00  0.00     0.022 A 
BRANCH  54  58
ATOM     58  S   UNL A   1      42.447  22.482  26.788  1.00  0.00     0.124 S 
ATOM     59  O   UNL A   1      42.056  22.283  28.180  1.00  0.00    -0.237 OA
ATOM     60  O   UNL A   1      41.421  22.209  25.788  1.00  0.00    -0.237 OA
ATOM     61  O   UNL A   1      43.790  22.019  26.444  1.00  0.00    -0.744 OA
ENDBRANCH  54  58
ENDBRANCH  27  51
BRANCH  39  62
ATOM     62  C   UNL A   1      44.764  27.603  34.188  1.00  0.00     0.023 A 
ATOM     63  C   UNL A   1      44.692  26.411  34.930  1.00  0.00     0.031 A 
ATOM     64  C   UNL A   1      45.987  28.298  34.176  1.00  0.00     0.131 A 
ATOM     65  C   UNL A   1      45.795  25.992  35.689  1.00  0.00     0.055 A 
ATOM     66  C   UNL A   1      47.104  27.836  34.872  1.00  0.00     0.041 A 
ATOM     67  F   UNL A   1      46.116  29.446  33.491  1.00  0.00    -0.206 F 
ATOM     68  C   UNL A   1      47.007  26.685  35.649  1.00  0.00     0.022 A 
BRANCH  65  69
ATOM     69  S   UNL A   1      45.586  24.597  36.831  1.00  0.00     0.124 S 
ATOM     70  O   UNL A   1      45.047  23.564  35.952  1.00  0.00    -0.237 OA
ATOM     71  O   UNL A   1      46.948  24.380  37.309  1.00  0.00    -0.237 OA
ATOM     72  O   UNL A   1      44.652  25.109  37.832  1.00  0.00    -0.744 OA
ENDBRANCH  65  69
ENDBRANCH  39  62
ENDBRANCH  13  14
ENDBRANCH   6   8
ENDBRANCH   3   4
ENDBRANCH   2   3
ENDBRANCH   1   2
BRANCH   1  73
ATOM     73  C   UNL A   1      30.830  27.319  24.095  1.00  0.00     0.002 C 
BRANCH  73  74
ATOM     74  C   UNL A   1      31.253  26.441  22.910  1.00  0.00     0.021 C 
BRANCH  74  75
ATOM     75  C   UNL A   1      32.687  26.692  22.442  1.00  0.00     0.116 C 
BRANCH  75  76
ATOM     76  N   UNL A   1      33.249  25.630  21.641  1.00  0.00    -0.356 N 
ATOM     77  C   UNL A   1      33.222  24.284  21.844  1.00  0.00     0.227 C 
ATOM     78  H   UNL A   1      33.722  25.922  20.830  1.00  0.00     0.163 HD
ATOM     79  O   UNL A   1      33.284  23.590  20.819  1.00  0.00    -0.274 OA
BRANCH  77  80
ATOM     80  C   UNL A   1      33.185  23.614  23.233  1.00  0.00     0.113 C 
BRANCH  80  81
ATOM     81  C   UNL A   1      32.203  22.422  23.344  1.00  0.00     0.058 C 
BRANCH  81  82
ATOM     82  C   UNL A   1      32.437  20.948  23.665  1.00  0.00     0.008 A 
ATOM     83  C   UNL A   1      32.170  20.111  22.553  1.00  0.00     0.127 A 
ATOM     84  C   UNL A   1      32.836  20.282  24.839  1.00  0.00     0.047 A 
ATOM     85  F   UNL A   1      31.761  20.668  21.400  1.00  0.00    -0.207 F 
ATOM     86  C   UNL A   1      32.314  18.727  22.572  1.00  0.00     0.039 A 
ATOM     87  C   UNL A   1      32.973  18.879  24.860  1.00  0.00     0.021 A 
ATOM     88  Cl  UNL A   1      33.267  21.002  26.344  1.00  0.00    -0.084 Cl
ATOM     89  C   UNL A   1      32.723  18.103  23.735  1.00  0.00     0.005 A 
ENDBRANCH  81  82
ENDBRANCH  80  81
BRANCH  80  90
ATOM     90  C   UNL A   1      34.461  23.584  24.059  1.00  0.00    -0.035 A 
ATOM     91  C   UNL A   1      34.556  24.199  25.316  1.00  0.00     0.006 A 
ATOM     92  C   UNL A   1      35.603  22.923  23.557  1.00  0.00     0.006 A 
ATOM     93  C   UNL A   1      35.790  24.285  25.973  1.00  0.00     0.021 A 
ATOM     94  C   UNL A   1      36.839  23.037  24.195  1.00  0.00     0.021 A 
ATOM     95  C   UNL A   1      36.933  23.745  25.388  1.00  0.00     0.041 A 
ATOM     96  Cl  UNL A   1      38.466  23.971  26.130  1.00  0.00    -0.084 Cl
ENDBRANCH  80  90
ENDBRANCH  77  80
ENDBRANCH  75  76
ENDBRANCH  74  75
ENDBRANCH  73  74
ENDBRANCH   1  73
TORSDOF 19
ENDMDL
MODEL 3
REMARK VINA RESULT:     -11.2      1.301      2.221
REMARK SMILES O=C(NCCCCCCNC(=O)[C@@H](Cc1c(F)cccc1Cl)c1ccc(Cl)cc1)c1ccc(-c2c3nc(c(-c4cc(S(=O)(=O)[O-])ccc4F)c4ccc([nH]4)c(-c4cc(S(=O)(=O)[O-])ccc4F)c4nc(c(-c5cc(S(=O)(=O)[O-])ccc5F)c5ccc2[nH]5)C=C4)C=C3)cc1
REMARK SMILES IDX 6 1 5 2 4 3 3 4 1 5 2 6 30 8 31 9 92 10 32 11 91 12 33 13
REMARK SMILES IDX 34 14 35 15 85 16 36 17 90 18 84 19 86 20 37 21 89 22 83 23
REMARK SMILES IDX 82 24 38 26 70 27 50 28 69 29 51 30 54 31 68 32 87 33 52 34
REMARK SMILES IDX 53 35 67 37 88 38 55 39 39 40 40 41 48 42 41 43 47 44 49 45
REMARK SMILES IDX 46 46 42 47 43 48 44 49 45 50 71 51 72 52 80 53 73 54 79 55
REMARK SMILES IDX 81 56 78 57 74 58 75 59 76 60 77 61 56 62 57 63 65 64 58 65
REMARK SMILES IDX 64 66 66 67 63 68 59 69 60 70 61 71 62 72 7 73 8 74 9 75
REMARK SMILES IDX 10 76 11 77 12 79 13 80 14 81 15 82 16 83 21 84 17 85 18 86
REMARK SMILES IDX 20 87 22 88 19 89 23 90 24 91 29 92 25 93 28 94 26 95 27 96
REMARK H PARENT 3 7 86 25 54 36 10 78
REMARK Flexibility Score: inf
ROOT
ATOM      1  C   UNL A   1      31.839  27.788  26.315  1.00  0.00     0.002 C 
ENDROOT
BRANCH   1   2
ATOM      2  C   UNL A   1      32.735  28.690  25.467  1.00  0.00     0.021 C 
BRANCH   2   3
ATOM      3  C   UNL A   1      33.952  29.266  26.180  1.00  0.00     0.116 C 
BRANCH   3   4
ATOM      4  N   UNL A   1      33.733  30.626  26.655  1.00  0.00    -0.352 N 
ATOM      5  O   UNL A   1      33.919  32.428  27.987  1.00  0.00    -0.269 OA
ATOM      6  C   UNL A   1      34.384  31.355  27.623  1.00  0.00     0.251 C 
ATOM      7  H   UNL A   1      32.996  31.103  26.210  1.00  0.00     0.163 HD
BRANCH   6   8
ATOM      8  C   UNL A   1      35.634  30.846  28.235  1.00  0.00     0.039 A 
ATOM      9  C   UNL A   1      36.870  31.409  27.914  1.00  0.00     0.014 A 
ATOM     10  C   UNL A   1      35.565  29.809  29.172  1.00  0.00     0.014 A 
ATOM     11  C   UNL A   1      38.040  30.830  28.395  1.00  0.00     0.010 A 
ATOM     12  C   UNL A   1      36.742  29.294  29.732  1.00  0.00     0.010 A 
ATOM     13  C   UNL A   1      37.994  29.772  29.317  1.00  0.00    -0.014 A 
BRANCH  13  14
ATOM     14  C   UNL A   1      39.268  29.215  29.849  1.00  0.00     0.031 A 
ATOM     15  C   UNL A   1      39.867  29.728  31.133  1.00  0.00     0.074 A 
ATOM     16  C   UNL A   1      39.864  28.201  29.188  1.00  0.00     0.049 A 
ATOM     17  N   UNL A   1      40.941  29.323  31.762  1.00  0.00    -0.248 NA
ATOM     18  C   UNL A   1      39.176  30.846  31.790  1.00  0.00     0.031 C 
ATOM     19  C   UNL A   1      39.383  27.623  27.929  1.00  0.00     0.029 A 
ATOM     20  N   UNL A   1      40.978  27.460  29.486  1.00  0.00    -0.354 N 
ATOM     21  C   UNL A   1      41.070  30.147  32.877  1.00  0.00     0.074 A 
ATOM     22  C   UNL A   1      39.981  31.099  32.813  1.00  0.00     0.031 C 
ATOM     23  C   UNL A   1      40.159  26.582  27.598  1.00  0.00     0.029 A 
ATOM     24  C   UNL A   1      41.237  26.463  28.573  1.00  0.00     0.049 A 
ATOM     25  H   UNL A   1      41.540  27.625  30.277  1.00  0.00     0.167 HD
ATOM     26  C   UNL A   1      42.003  30.107  33.862  1.00  0.00     0.034 A 
ATOM     27  C   UNL A   1      42.237  25.562  28.513  1.00  0.00     0.034 A 
ATOM     28  C   UNL A   1      43.081  29.147  33.911  1.00  0.00     0.049 A 
ATOM     29  C   UNL A   1      43.281  25.565  29.599  1.00  0.00     0.074 A 
ATOM     30  C   UNL A   1      44.055  28.994  34.884  1.00  0.00     0.029 A 
ATOM     31  N   UNL A   1      43.340  28.183  32.943  1.00  0.00    -0.354 N 
ATOM     32  N   UNL A   1      43.367  26.333  30.660  1.00  0.00    -0.248 NA
ATOM     33  C   UNL A   1      44.356  24.575  29.480  1.00  0.00     0.031 C 
ATOM     34  C   UNL A   1      44.946  27.999  34.464  1.00  0.00     0.029 A 
ATOM     35  C   UNL A   1      44.477  27.461  33.277  1.00  0.00     0.049 A 
ATOM     36  H   UNL A   1      42.796  28.035  32.136  1.00  0.00     0.167 HD
ATOM     37  C   UNL A   1      44.490  25.891  31.355  1.00  0.00     0.074 A 
ATOM     38  C   UNL A   1      45.032  24.781  30.599  1.00  0.00     0.031 C 
ATOM     39  C   UNL A   1      45.020  26.360  32.514  1.00  0.00     0.034 A 
BRANCH  26  40
ATOM     40  C   UNL A   1      41.926  31.164  34.943  1.00  0.00     0.023 A 
ATOM     41  C   UNL A   1      40.829  31.259  35.817  1.00  0.00     0.031 A 
ATOM     42  C   UNL A   1      42.962  32.105  35.089  1.00  0.00     0.131 A 
ATOM     43  C   UNL A   1      40.757  32.313  36.741  1.00  0.00     0.055 A 
ATOM     44  C   UNL A   1      42.925  33.100  36.068  1.00  0.00     0.041 A 
ATOM     45  F   UNL A   1      44.027  32.082  34.271  1.00  0.00    -0.206 F 
ATOM     46  C   UNL A   1      41.810  33.217  36.892  1.00  0.00     0.022 A 
BRANCH  43  47
ATOM     47  S   UNL A   1      39.201  32.575  37.635  1.00  0.00     0.124 S 
ATOM     48  O   UNL A   1      39.678  32.798  38.998  1.00  0.00    -0.237 OA
ATOM     49  O   UNL A   1      38.642  33.738  36.957  1.00  0.00    -0.237 OA
ATOM     50  O   UNL A   1      38.475  31.323  37.434  1.00  0.00    -0.744 OA
ENDBRANCH  43  47
ENDBRANCH  26  40
BRANCH  27  51
ATOM     51  C   UNL A   1      42.315  24.594  27.381  1.00  0.00     0.023 A 
ATOM     52  C   UNL A   1      41.571  23.404  27.392  1.00  0.00     0.031 A 
ATOM     53  C   UNL A   1      43.170  24.826  26.289  1.00  0.00     0.131 A 
ATOM     54  C   UNL A   1      41.733  22.470  26.357  1.00  0.00     0.055 A 
ATOM     55  C   UNL A   1      43.280  23.922  25.231  1.00  0.00     0.041 A 
ATOM     56  F   UNL A   1      43.904  25.949  26.226  1.00  0.00    -0.206 F 
ATOM     57  C   UNL A   1      42.569  22.727  25.270  1.00  0.00     0.022 A 
BRANCH  54  58
ATOM     58  S   UNL A   1      40.902  20.864  26.504  1.00  0.00     0.124 S 
ATOM     59  O   UNL A   1      41.823  19.988  25.790  1.00  0.00    -0.237 OA
ATOM     60  O   UNL A   1      40.838  20.687  27.950  1.00  0.00    -0.237 OA
ATOM     61  O   UNL A   1      39.615  21.087  25.848  1.00  0.00    -0.744 OA
ENDBRANCH  54  58
ENDBRANCH  27  51
BRANCH  39  62
ATOM     62  C   UNL A   1      46.219  25.623  33.065  1.00  0.00     0.023 A 
ATOM     63  C   UNL A   1      46.087  24.528  33.937  1.00  0.00     0.031 A 
ATOM     64  C   UNL A   1      47.519  26.049  32.736  1.00  0.00     0.131 A 
ATOM     65  C   UNL A   1      47.229  23.948  34.510  1.00  0.00     0.055 A 
ATOM     66  C   UNL A   1      48.653  25.421  33.250  1.00  0.00     0.041 A 
ATOM     67  F   UNL A   1      47.709  27.094  31.913  1.00  0.00    -0.206 F 
ATOM     68  C   UNL A   1      48.512  24.375  34.157  1.00  0.00     0.022 A 
BRANCH  65  69
ATOM     69  S   UNL A   1      47.014  22.714  35.822  1.00  0.00     0.124 S 
ATOM     70  O   UNL A   1      45.563  22.678  35.970  1.00  0.00    -0.237 OA
ATOM     71  O   UNL A   1      47.624  21.525  35.233  1.00  0.00    -0.237 OA
ATOM     72  O   UNL A   1      47.739  23.285  36.955  1.00  0.00    -0.744 OA
ENDBRANCH  65  69
ENDBRANCH  39  62
ENDBRANCH  13  14
ENDBRANCH   6   8
ENDBRANCH   3   4
ENDBRANCH   2   3
ENDBRANCH   1   2
BRANCH   1  73
ATOM     73  C   UNL A   1      32.228  26.304  26.367  1.00  0.00     0.002 C 
BRANCH  73  74
ATOM     74  C   UNL A   1      33.594  25.937  25.772  1.00  0.00     0.021 C 
BRANCH  74  75
ATOM     75  C   UNL A   1      33.948  24.456  25.918  1.00  0.00     0.116 C 
BRANCH  75  76
ATOM     76  N   UNL A   1      34.542  23.865  24.742  1.00  0.00    -0.356 N 
ATOM     77  C   UNL A   1      34.036  23.739  23.484  1.00  0.00     0.227 C 
ATOM     78  H   UNL A   1      35.447  23.500  24.868  1.00  0.00     0.163 HD
ATOM     79  O   UNL A   1      34.876  23.701  22.574  1.00  0.00    -0.274 OA
BRANCH  77  80
ATOM     80  C   UNL A   1      32.535  23.583  23.162  1.00  0.00     0.113 C 
BRANCH  80  81
ATOM     81  C   UNL A   1      31.879  22.316  23.763  1.00  0.00     0.058 C 
BRANCH  81  82
ATOM     82  C   UNL A   1      32.396  20.889  23.916  1.00  0.00     0.008 A 
ATOM     83  C   UNL A   1      32.121  20.097  22.772  1.00  0.00     0.127 A 
ATOM     84  C   UNL A   1      33.056  20.224  24.965  1.00  0.00     0.047 A 
ATOM     85  F   UNL A   1      31.472  20.651  21.735  1.00  0.00    -0.207 F 
ATOM     86  C   UNL A   1      32.495  18.761  22.646  1.00  0.00     0.039 A 
ATOM     87  C   UNL A   1      33.425  18.868  24.841  1.00  0.00     0.021 A 
ATOM     88  Cl  UNL A   1      33.564  20.901  26.466  1.00  0.00    -0.084 Cl
ATOM     89  C   UNL A   1      33.157  18.140  23.688  1.00  0.00     0.005 A 
ENDBRANCH  81  82
ENDBRANCH  80  81
BRANCH  80  90
ATOM     90  C   UNL A   1      31.691  24.839  23.014  1.00  0.00    -0.035 A 
ATOM     91  C   UNL A   1      32.145  25.971  22.322  1.00  0.00     0.006 A 
ATOM     92  C   UNL A   1      30.403  24.887  23.589  1.00  0.00     0.006 A 
ATOM     93  C   UNL A   1      31.405  27.160  22.343  1.00  0.00     0.021 A 
ATOM     94  C   UNL A   1      29.680  26.081  23.638  1.00  0.00     0.021 A 
ATOM     95  C   UNL A   1      30.200  27.221  23.038  1.00  0.00     0.041 A 
ATOM     96  Cl  UNL A   1      29.363  28.717  23.175  1.00  0.00    -0.084 Cl
ENDBRANCH  80  90
ENDBRANCH  77  80
ENDBRANCH  75  76
ENDBRANCH  74  75
ENDBRANCH  73  74
ENDBRANCH   1  73
TORSDOF 19
ENDMDL
