MODEL 1
REMARK VINA RESULT:     -13.0      0.000      0.000
REMARK SMILES [NH3+][C@@H](Cc1cn(-c2nc(Cl)nc(N3CCOCC3)n2)c2ccccc12)C(=O)NCCCCCCNC(=O)c1ccc(-c2c3nc(c(-c4cc(S(=O)(=O)[O-])ccc4F)c4ccc([nH]4)c(-c4cc(S(=O)(=O)[O-])ccc4F)c4nc(c(-c5cc(S(=O)(=O)[O-])ccc5F)c5ccc2[nH]5)C=C4)C=C3)cc1
REMARK SMILES IDX 31 1 30 2 29 3 28 4 26 5 27 6 2 8 1 9 3 13 4 14 5 15 25 16
REMARK SMILES IDX 6 17 20 18 24 19 21 20 23 21 22 22 7 23 8 24 19 25 9 26
REMARK SMILES IDX 12 27 10 28 11 29 13 30 14 31 18 32 15 33 17 34 16 35 32 36
REMARK SMILES IDX 33 37 34 38 35 39 36 40 37 42 38 43 39 44 100 45 40 46 99 47
REMARK SMILES IDX 41 48 42 49 43 50 93 51 44 52 98 53 92 54 94 55 45 56 97 57
REMARK SMILES IDX 91 58 90 59 46 61 78 62 58 63 77 64 59 65 62 66 76 67 95 68
REMARK SMILES IDX 60 69 61 70 75 72 96 73 63 74 47 75 48 76 56 77 49 78 55 79
REMARK SMILES IDX 57 80 54 81 50 82 51 83 52 84 53 85 79 86 80 87 88 88 81 89
REMARK SMILES IDX 87 90 89 91 86 92 82 93 83 94 84 95 85 96 64 97 65 98 73 99
REMARK SMILES IDX 66 100 72 101 74 102 71 103 67 104 68 105 69 106 70 107
REMARK H PARENT 28 7 1 10 1 11 1 12 35 41 94 60 62 71
REMARK Flexibility Score: inf
ROOT
ATOM      1  C   UNL A   1      32.591  29.730  27.203  1.00  0.00     0.002 C 
ENDROOT
BRANCH   1   2
ATOM      2  C   UNL A   1      31.351  29.254  26.013  1.00  0.00     0.021 C 
BRANCH   2   3
ATOM      3  C   UNL A   1      31.434  28.886  23.836  1.00  0.00     0.116 C 
BRANCH   3   4
ATOM      4  N   UNL A   1      32.643  28.416  22.893  1.00  0.00    -0.351 N 
ATOM      5  C   UNL A   1      32.888  27.377  22.052  1.00  0.00     0.278 C 
ATOM      6  O   UNL A   1      34.069  27.266  21.685  1.00  0.00    -0.268 OA
ATOM      7  H   UNL A   1      33.403  29.042  22.934  1.00  0.00     0.163 HD
BRANCH   5   8
ATOM      8  C   UNL A   1      31.830  26.336  21.574  1.00  0.00     0.275 C 
BRANCH   8   9
ATOM      9  N   UNL A   1      32.156  25.736  20.254  1.00  0.00    -0.347 N 
ATOM     10  H   UNL A   1      31.367  25.861  19.620  1.00  0.00     0.345 HD
ATOM     11  H   UNL A   1      32.344  24.740  20.370  1.00  0.00     0.345 HD
ATOM     12  H   UNL A   1      32.980  26.196  19.866  1.00  0.00     0.345 HD
ENDBRANCH   8   9
BRANCH   8  13
ATOM     13  C   UNL A   1      31.313  25.289  22.559  1.00  0.00     0.113 C 
BRANCH  13  14
ATOM     14  C   UNL A   1      32.197  24.887  23.738  1.00  0.00    -0.015 A 
ATOM     15  C   UNL A   1      33.161  23.869  23.610  1.00  0.00     0.099 A 
ATOM     16  C   UNL A   1      31.775  24.934  25.131  1.00  0.00     0.004 A 
ATOM     17  N   UNL A   1      33.050  22.892  24.620  1.00  0.00    -0.285 N 
ATOM     18  C   UNL A   1      31.967  23.217  25.420  1.00  0.00     0.056 A 
ATOM     19  C   UNL A   1      30.399  25.811  25.941  1.00  0.00     0.010 A 
ATOM     20  C   UNL A   1      30.751  22.297  26.380  1.00  0.00     0.027 A 
ATOM     21  C   UNL A   1      29.145  24.903  26.869  1.00  0.00     0.001 A 
ATOM     22  C   UNL A   1      29.321  23.140  27.072  1.00  0.00     0.002 A 
BRANCH  17  23
ATOM     23  C   UNL A   1      33.715  21.628  24.670  1.00  0.00     0.240 A 
ATOM     24  N   UNL A   1      35.039  21.676  24.748  1.00  0.00    -0.181 NA
ATOM     25  N   UNL A   1      33.001  20.501  24.591  1.00  0.00    -0.176 NA
ATOM     26  C   UNL A   1      35.617  20.493  24.841  1.00  0.00     0.228 A 
ATOM     27  C   UNL A   1      33.719  19.370  24.595  1.00  0.00     0.231 A 
ATOM     28  Cl  UNL A   1      37.320  20.517  24.906  1.00  0.00    -0.041 Cl
ATOM     29  N   UNL A   1      35.026  19.318  24.793  1.00  0.00    -0.182 NA
BRANCH  27  30
ATOM     30  N   UNL A   1      33.125  18.193  24.236  1.00  0.00    -0.336 N 
ATOM     31  C   UNL A   1      32.259  17.495  25.168  1.00  0.00     0.148 C 
ATOM     32  C   UNL A   1      33.728  17.382  23.184  1.00  0.00     0.148 C 
ATOM     33  C   UNL A   1      32.997  16.286  25.744  1.00  0.00     0.181 C 
ATOM     34  C   UNL A   1      34.405  16.160  23.837  1.00  0.00     0.181 C 
ATOM     35  O   UNL A   1      33.504  15.434  24.700  1.00  0.00    -0.378 OA
ENDBRANCH  27  30
ENDBRANCH  17  23
ENDBRANCH  13  14
ENDBRANCH   8  13
ENDBRANCH   5   8
ENDBRANCH   3   4
ENDBRANCH   2   3
ENDBRANCH   1   2
BRANCH   1  36
ATOM     36  C   UNL A   1      33.085  31.199  27.315  1.00  0.00     0.002 C 
BRANCH  36  37
ATOM     37  C   UNL A   1      34.596  31.329  27.467  1.00  0.00     0.021 C 
BRANCH  37  38
ATOM     38  C   UNL A   1      34.919  32.727  27.959  1.00  0.00     0.116 C 
BRANCH  38  39
ATOM     39  N   UNL A   1      34.799  32.784  29.398  1.00  0.00    -0.352 N 
ATOM     40  C   UNL A   1      35.412  32.061  30.380  1.00  0.00     0.251 C 
ATOM     41  H   UNL A   1      34.167  33.463  29.728  1.00  0.00     0.163 HD
ATOM     42  O   UNL A   1      34.867  32.056  31.485  1.00  0.00    -0.269 OA
BRANCH  40  43
ATOM     43  C   UNL A   1      36.636  31.257  30.156  1.00  0.00     0.039 A 
ATOM     44  C   UNL A   1      36.679  29.884  29.899  1.00  0.00     0.014 A 
ATOM     45  C   UNL A   1      37.834  31.978  30.153  1.00  0.00     0.014 A 
ATOM     46  C   UNL A   1      37.883  29.205  29.925  1.00  0.00     0.010 A 
ATOM     47  C   UNL A   1      39.029  31.330  29.948  1.00  0.00     0.010 A 
ATOM     48  C   UNL A   1      39.060  29.945  29.993  1.00  0.00    -0.014 A 
BRANCH  48  49
ATOM     49  C   UNL A   1      40.342  29.267  29.915  1.00  0.00     0.031 A 
ATOM     50  C   UNL A   1      40.894  28.950  31.261  1.00  0.00     0.074 A 
ATOM     51  C   UNL A   1      40.865  28.876  28.731  1.00  0.00     0.049 A 
ATOM     52  N   UNL A   1      41.942  29.461  31.815  1.00  0.00    -0.248 NA
ATOM     53  C   UNL A   1      40.058  28.170  32.194  1.00  0.00     0.031 C 
ATOM     54  C   UNL A   1      40.286  28.981  27.385  1.00  0.00     0.029 A 
ATOM     55  N   UNL A   1      42.031  28.215  28.493  1.00  0.00    -0.354 N 
ATOM     56  C   UNL A   1      42.039  28.865  33.070  1.00  0.00     0.074 A 
ATOM     57  C   UNL A   1      40.767  28.241  33.320  1.00  0.00     0.031 C 
ATOM     58  C   UNL A   1      40.969  28.188  26.526  1.00  0.00     0.029 A 
ATOM     59  C   UNL A   1      42.131  27.661  27.212  1.00  0.00     0.049 A 
ATOM     60  H   UNL A   1      42.745  28.133  29.165  1.00  0.00     0.167 HD
ATOM     61  C   UNL A   1      43.244  28.738  33.691  1.00  0.00     0.034 A 
ATOM     62  C   UNL A   1      43.103  26.812  26.774  1.00  0.00     0.034 A 
ATOM     63  C   UNL A   1      44.226  29.588  33.070  1.00  0.00     0.049 A 
ATOM     64  C   UNL A   1      44.256  26.981  27.698  1.00  0.00     0.074 A 
ATOM     65  C   UNL A   1      44.408  30.952  32.987  1.00  0.00     0.029 A 
ATOM     66  N   UNL A   1      44.958  29.035  32.047  1.00  0.00    -0.354 N 
ATOM     67  N   UNL A   1      44.943  28.091  27.767  1.00  0.00    -0.248 NA
ATOM     68  C   UNL A   1      44.268  26.149  28.893  1.00  0.00     0.031 C 
ATOM     69  C   UNL A   1      44.858  31.181  31.655  1.00  0.00     0.029 A 
ATOM     70  C   UNL A   1      45.036  29.946  31.024  1.00  0.00     0.049 A 
ATOM     71  H   UNL A   1      45.358  28.136  32.048  1.00  0.00     0.167 HD
ATOM     72  C   UNL A   1      45.081  28.322  29.128  1.00  0.00     0.074 A 
ATOM     73  C   UNL A   1      44.671  27.071  29.772  1.00  0.00     0.031 C 
ATOM     74  C   UNL A   1      45.202  29.588  29.629  1.00  0.00     0.034 A 
BRANCH  61  75
ATOM     75  C   UNL A   1      43.616  27.581  34.585  1.00  0.00     0.023 A 
ATOM     76  C   UNL A   1      43.722  26.254  34.126  1.00  0.00     0.031 A 
ATOM     77  C   UNL A   1      44.108  27.827  35.883  1.00  0.00     0.131 A 
ATOM     78  C   UNL A   1      44.280  25.245  34.925  1.00  0.00     0.055 A 
ATOM     79  C   UNL A   1      44.725  26.835  36.654  1.00  0.00     0.041 A 
ATOM     80  F   UNL A   1      44.053  29.056  36.421  1.00  0.00    -0.206 F 
ATOM     81  C   UNL A   1      44.815  25.535  36.174  1.00  0.00     0.022 A 
BRANCH  78  82
ATOM     82  S   UNL A   1      44.330  23.525  34.348  1.00  0.00     0.124 S 
ATOM     83  O   UNL A   1      44.999  23.657  33.058  1.00  0.00    -0.237 OA
ATOM     84  O   UNL A   1      45.113  22.887  35.403  1.00  0.00    -0.237 OA
ATOM     85  O   UNL A   1      42.924  23.139  34.301  1.00  0.00    -0.744 OA
ENDBRANCH  78  82
ENDBRANCH  61  75
BRANCH  62  86
ATOM     86  C   UNL A   1      42.846  25.502  26.108  1.00  0.00     0.023 A 
ATOM     87  C   UNL A   1      41.812  24.682  26.595  1.00  0.00     0.031 A 
ATOM     88  C   UNL A   1      43.783  24.901  25.246  1.00  0.00     0.131 A 
ATOM     89  C   UNL A   1      41.764  23.318  26.275  1.00  0.00     0.055 A 
ATOM     90  C   UNL A   1      43.714  23.542  24.897  1.00  0.00     0.041 A 
ATOM     91  F   UNL A   1      44.830  25.604  24.783  1.00  0.00    -0.206 F 
ATOM     92  C   UNL A   1      42.708  22.739  25.428  1.00  0.00     0.022 A 
BRANCH  89  93
ATOM     93  S   UNL A   1      40.538  22.243  27.072  1.00  0.00     0.124 S 
ATOM     94  O   UNL A   1      40.271  21.258  26.026  1.00  0.00    -0.237 OA
ATOM     95  O   UNL A   1      41.283  21.750  28.225  1.00  0.00    -0.237 OA
ATOM     96  O   UNL A   1      39.431  23.147  27.367  1.00  0.00    -0.744 OA
ENDBRANCH  89  93
ENDBRANCH  62  86
BRANCH  74  97
ATOM     97  C   UNL A   1      45.344  30.748  28.663  1.00  0.00     0.023 A 
ATOM     98  C   UNL A   1      46.651  31.162  28.372  1.00  0.00     0.031 A 
ATOM     99  C   UNL A   1      44.293  31.594  28.253  1.00  0.00     0.131 A 
ATOM    100  C   UNL A   1      46.887  32.401  27.767  1.00  0.00     0.055 A 
ATOM    101  C   UNL A   1      44.528  32.802  27.581  1.00  0.00     0.041 A 
ATOM    102  F   UNL A   1      43.020  31.329  28.568  1.00  0.00    -0.206 F 
ATOM    103  C   UNL A   1      45.835  33.220  27.353  1.00  0.00     0.022 A 
BRANCH 100 104
ATOM    104  S   UNL A   1      48.575  33.046  27.671  1.00  0.00     0.124 S 
ATOM    105  O   UNL A   1      48.943  32.744  26.291  1.00  0.00    -0.237 OA
ATOM    106  O   UNL A   1      48.383  34.464  27.972  1.00  0.00    -0.237 OA
ATOM    107  O   UNL A   1      49.301  32.293  28.690  1.00  0.00    -0.744 OA
ENDBRANCH 100 104
ENDBRANCH  74  97
ENDBRANCH  48  49
ENDBRANCH  40  43
ENDBRANCH  38  39
ENDBRANCH  37  38
ENDBRANCH  36  37
ENDBRANCH   1  36
TORSDOF 21
ENDMDL
MODEL 2
REMARK VINA RESULT:     -12.7      2.830      4.114
REMARK SMILES [NH3+][C@@H](Cc1cn(-c2nc(Cl)nc(N3CCOCC3)n2)c2ccccc12)C(=O)NCCCCCCNC(=O)c1ccc(-c2c3nc(c(-c4cc(S(=O)(=O)[O-])ccc4F)c4ccc([nH]4)c(-c4cc(S(=O)(=O)[O-])ccc4F)c4nc(c(-c5cc(S(=O)(=O)[O-])ccc5F)c5ccc2[nH]5)C=C4)C=C3)cc1
REMARK SMILES IDX 31 1 30 2 29 3 28 4 26 5 27 6 2 8 1 9 3 13 4 14 5 15 25 16
REMARK SMILES IDX 6 17 20 18 24 19 21 20 23 21 22 22 7 23 8 24 19 25 9 26
REMARK SMILES IDX 12 27 10 28 11 29 13 30 14 31 18 32 15 33 17 34 16 35 32 36
REMARK SMILES IDX 33 37 34 38 35 39 36 40 37 42 38 43 39 44 100 45 40 46 99 47
REMARK SMILES IDX 41 48 42 49 43 50 93 51 44 52 98 53 92 54 94 55 45 56 97 57
REMARK SMILES IDX 91 58 90 59 46 61 78 62 58 63 77 64 59 65 62 66 76 67 95 68
REMARK SMILES IDX 60 69 61 70 75 72 96 73 63 74 47 75 48 76 56 77 49 78 55 79
REMARK SMILES IDX 57 80 54 81 50 82 51 83 52 84 53 85 79 86 80 87 88 88 81 89
REMARK SMILES IDX 87 90 89 91 86 92 82 93 83 94 84 95 85 96 64 97 65 98 73 99
REMARK SMILES IDX 66 100 72 101 74 102 71 103 67 104 68 105 69 106 70 107
REMARK H PARENT 28 7 1 10 1 11 1 12 35 41 94 60 62 71
REMARK Flexibility Score: inf
ROOT
ATOM      1  C   UNL A   1      37.143  29.630  30.074  1.00  0.00     0.002 C 
ENDROOT
BRANCH   1   2
ATOM      2  C   UNL A   1      36.129  29.629  28.607  1.00  0.00     0.021 C 
BRANCH   2   3
ATOM      3  C   UNL A   1      34.698  31.094  27.779  1.00  0.00     0.116 C 
BRANCH   3   4
ATOM      4  N   UNL A   1      33.280  30.890  27.059  1.00  0.00    -0.351 N 
ATOM      5  C   UNL A   1      32.454  29.844  26.790  1.00  0.00     0.278 C 
ATOM      6  O   UNL A   1      31.538  30.091  25.991  1.00  0.00    -0.268 OA
ATOM      7  H   UNL A   1      32.913  31.741  26.727  1.00  0.00     0.163 HD
BRANCH   5   8
ATOM      8  C   UNL A   1      32.608  28.404  27.368  1.00  0.00     0.275 C 
BRANCH   8   9
ATOM      9  N   UNL A   1      31.386  27.920  28.062  1.00  0.00    -0.347 N 
ATOM     10  H   UNL A   1      30.564  28.356  27.647  1.00  0.00     0.345 HD
ATOM     11  H   UNL A   1      31.437  28.164  29.052  1.00  0.00     0.345 HD
ATOM     12  H   UNL A   1      31.319  26.906  27.965  1.00  0.00     0.345 HD
ENDBRANCH   8   9
BRANCH   8  13
ATOM     13  C   UNL A   1      33.237  27.313  26.503  1.00  0.00     0.113 C 
BRANCH  13  14
ATOM     14  C   UNL A   1      32.415  26.068  26.174  1.00  0.00    -0.015 A 
ATOM     15  C   UNL A   1      32.919  24.778  26.423  1.00  0.00     0.099 A 
ATOM     16  C   UNL A   1      31.475  25.978  25.066  1.00  0.00     0.004 A 
ATOM     17  N   UNL A   1      32.833  23.939  25.293  1.00  0.00    -0.285 N 
ATOM     18  C   UNL A   1      32.311  24.677  24.244  1.00  0.00     0.056 A 
ATOM     19  C   UNL A   1      30.665  27.269  24.068  1.00  0.00     0.010 A 
ATOM     20  C   UNL A   1      32.500  24.684  22.453  1.00  0.00     0.027 A 
ATOM     21  C   UNL A   1      30.879  27.319  22.276  1.00  0.00     0.001 A 
ATOM     22  C   UNL A   1      31.811  26.028  21.476  1.00  0.00     0.002 A 
BRANCH  17  23
ATOM     23  C   UNL A   1      33.439  22.655  25.128  1.00  0.00     0.240 A 
ATOM     24  N   UNL A   1      34.734  22.661  24.842  1.00  0.00    -0.181 NA
ATOM     25  N   UNL A   1      32.688  21.553  25.221  1.00  0.00    -0.176 NA
ATOM     26  C   UNL A   1      35.270  21.458  24.745  1.00  0.00     0.228 A 
ATOM     27  C   UNL A   1      33.337  20.401  25.002  1.00  0.00     0.231 A 
ATOM     28  Cl  UNL A   1      36.926  21.429  24.342  1.00  0.00    -0.041 Cl
ATOM     29  N   UNL A   1      34.645  20.304  24.833  1.00  0.00    -0.182 NA
BRANCH  27  30
ATOM     30  N   UNL A   1      32.624  19.255  24.791  1.00  0.00    -0.336 N 
ATOM     31  C   UNL A   1      32.708  18.156  25.735  1.00  0.00     0.148 C 
ATOM     32  C   UNL A   1      32.210  18.912  23.436  1.00  0.00     0.148 C 
ATOM     33  C   UNL A   1      33.578  17.043  25.147  1.00  0.00     0.181 C 
ATOM     34  C   UNL A   1      33.095  17.753  22.934  1.00  0.00     0.181 C 
ATOM     35  O   UNL A   1      33.105  16.637  23.849  1.00  0.00    -0.378 OA
ENDBRANCH  27  30
ENDBRANCH  17  23
ENDBRANCH  13  14
ENDBRANCH   8  13
ENDBRANCH   5   8
ENDBRANCH   3   4
ENDBRANCH   2   3
ENDBRANCH   1   2
BRANCH   1  36
ATOM     36  C   UNL A   1      36.563  30.032  31.459  1.00  0.00     0.002 C 
BRANCH  36  37
ATOM     37  C   UNL A   1      36.421  31.537  31.653  1.00  0.00     0.021 C 
BRANCH  37  38
ATOM     38  C   UNL A   1      37.793  32.174  31.547  1.00  0.00     0.116 C 
BRANCH  38  39
ATOM     39  N   UNL A   1      38.277  32.526  32.863  1.00  0.00    -0.352 N 
ATOM     40  C   UNL A   1      39.198  31.924  33.671  1.00  0.00     0.251 C 
ATOM     41  H   UNL A   1      37.875  33.340  33.242  1.00  0.00     0.163 HD
ATOM     42  O   UNL A   1      39.154  32.213  34.869  1.00  0.00    -0.269 OA
BRANCH  40  43
ATOM     43  C   UNL A   1      40.176  30.922  33.188  1.00  0.00     0.039 A 
ATOM     44  C   UNL A   1      41.490  31.183  32.791  1.00  0.00     0.014 A 
ATOM     45  C   UNL A   1      39.728  29.597  33.196  1.00  0.00     0.014 A 
ATOM     46  C   UNL A   1      42.235  30.208  32.155  1.00  0.00     0.010 A 
ATOM     47  C   UNL A   1      40.558  28.585  32.774  1.00  0.00     0.010 A 
ATOM     48  C   UNL A   1      41.733  28.910  32.115  1.00  0.00    -0.014 A 
BRANCH  48  49
ATOM     49  C   UNL A   1      42.539  27.844  31.548  1.00  0.00     0.031 A 
ATOM     50  C   UNL A   1      43.554  27.332  32.510  1.00  0.00     0.074 A 
ATOM     51  C   UNL A   1      42.269  27.323  30.330  1.00  0.00     0.049 A 
ATOM     52  N   UNL A   1      44.837  27.451  32.427  1.00  0.00    -0.248 NA
ATOM     53  C   UNL A   1      43.092  26.859  33.829  1.00  0.00     0.031 C 
ATOM     54  C   UNL A   1      41.167  27.643  29.412  1.00  0.00     0.029 A 
ATOM     55  N   UNL A   1      42.906  26.314  29.674  1.00  0.00    -0.354 N 
ATOM     56  C   UNL A   1      45.351  26.831  33.563  1.00  0.00     0.074 A 
ATOM     57  C   UNL A   1      44.245  26.666  34.469  1.00  0.00     0.031 C 
ATOM     58  C   UNL A   1      41.066  26.685  28.461  1.00  0.00     0.029 A 
ATOM     59  C   UNL A   1      42.193  25.785  28.593  1.00  0.00     0.049 A 
ATOM     60  H   UNL A   1      43.794  25.984  29.939  1.00  0.00     0.167 HD
ATOM     61  C   UNL A   1      46.603  26.294  33.561  1.00  0.00     0.034 A 
ATOM     62  C   UNL A   1      42.517  24.667  27.883  1.00  0.00     0.034 A 
ATOM     63  C   UNL A   1      47.358  26.778  32.434  1.00  0.00     0.049 A 
ATOM     64  C   UNL A   1      43.963  24.421  28.124  1.00  0.00     0.074 A 
ATOM     65  C   UNL A   1      47.878  28.003  32.075  1.00  0.00     0.029 A 
ATOM     66  N   UNL A   1      47.288  26.032  31.282  1.00  0.00    -0.354 N 
ATOM     67  N   UNL A   1      44.895  25.235  27.699  1.00  0.00    -0.248 NA
ATOM     68  C   UNL A   1      44.308  23.609  29.283  1.00  0.00     0.031 C 
ATOM     69  C   UNL A   1      47.662  28.095  30.670  1.00  0.00     0.029 A 
ATOM     70  C   UNL A   1      47.127  26.885  30.220  1.00  0.00     0.049 A 
ATOM     71  H   UNL A   1      47.345  25.051  31.229  1.00  0.00     0.167 HD
ATOM     72  C   UNL A   1      45.744  25.379  28.786  1.00  0.00     0.074 A 
ATOM     73  C   UNL A   1      45.346  24.325  29.725  1.00  0.00     0.031 C 
ATOM     74  C   UNL A   1      46.470  26.520  28.979  1.00  0.00     0.034 A 
BRANCH  61  75
ATOM     75  C   UNL A   1      46.996  25.063  34.337  1.00  0.00     0.023 A 
ATOM     76  C   UNL A   1      46.179  23.919  34.435  1.00  0.00     0.031 A 
ATOM     77  C   UNL A   1      48.318  24.920  34.806  1.00  0.00     0.131 A 
ATOM     78  C   UNL A   1      46.663  22.718  34.973  1.00  0.00     0.055 A 
ATOM     79  C   UNL A   1      48.819  23.703  35.282  1.00  0.00     0.041 A 
ATOM     80  F   UNL A   1      49.180  25.948  34.764  1.00  0.00    -0.206 F 
ATOM     81  C   UNL A   1      47.990  22.592  35.366  1.00  0.00     0.022 A 
BRANCH  78  82
ATOM     82  S   UNL A   1      45.570  21.282  35.169  1.00  0.00     0.124 S 
ATOM     83  O   UNL A   1      45.642  21.039  36.606  1.00  0.00    -0.237 OA
ATOM     84  O   UNL A   1      44.300  21.813  34.681  1.00  0.00    -0.237 OA
ATOM     85  O   UNL A   1      46.184  20.267  34.317  1.00  0.00    -0.744 OA
ENDBRANCH  78  82
ENDBRANCH  61  75
BRANCH  62  86
ATOM     86  C   UNL A   1      41.585  23.534  27.617  1.00  0.00     0.023 A 
ATOM     87  C   UNL A   1      42.119  22.249  27.404  1.00  0.00     0.031 A 
ATOM     88  C   UNL A   1      40.244  23.736  27.240  1.00  0.00     0.131 A 
ATOM     89  C   UNL A   1      41.357  21.246  26.791  1.00  0.00     0.055 A 
ATOM     90  C   UNL A   1      39.469  22.719  26.658  1.00  0.00     0.041 A 
ATOM     91  F   UNL A   1      39.679  24.949  27.362  1.00  0.00    -0.206 F 
ATOM     92  C   UNL A   1      40.032  21.469  26.415  1.00  0.00     0.022 A 
BRANCH  89  93
ATOM     93  S   UNL A   1      42.129  19.664  26.349  1.00  0.00     0.124 S 
ATOM     94  O   UNL A   1      43.251  20.094  25.518  1.00  0.00    -0.237 OA
ATOM     95  O   UNL A   1      42.482  19.131  27.659  1.00  0.00    -0.237 OA
ATOM     96  O   UNL A   1      41.070  18.955  25.637  1.00  0.00    -0.744 OA
ENDBRANCH  89  93
ENDBRANCH  62  86
BRANCH  74  97
ATOM     97  C   UNL A   1      46.463  27.584  27.900  1.00  0.00     0.023 A 
ATOM     98  C   UNL A   1      45.393  28.489  27.922  1.00  0.00     0.031 A 
ATOM     99  C   UNL A   1      47.276  27.576  26.748  1.00  0.00     0.131 A 
ATOM    100  C   UNL A   1      45.113  29.289  26.809  1.00  0.00     0.055 A 
ATOM    101  C   UNL A   1      47.038  28.431  25.662  1.00  0.00     0.041 A 
ATOM    102  F   UNL A   1      48.263  26.686  26.595  1.00  0.00    -0.206 F 
ATOM    103  C   UNL A   1      45.937  29.280  25.683  1.00  0.00     0.022 A 
BRANCH 100 104
ATOM    104  S   UNL A   1      43.566  30.224  26.742  1.00  0.00     0.124 S 
ATOM    105  O   UNL A   1      42.735  29.385  25.883  1.00  0.00    -0.237 OA
ATOM    106  O   UNL A   1      43.168  30.267  28.149  1.00  0.00    -0.237 OA
ATOM    107  O   UNL A   1      43.952  31.511  26.172  1.00  0.00    -0.744 OA
ENDBRANCH 100 104
ENDBRANCH  74  97
ENDBRANCH  48  49
ENDBRANCH  40  43
ENDBRANCH  38  39
ENDBRANCH  37  38
ENDBRANCH  36  37
ENDBRANCH   1  36
TORSDOF 21
ENDMDL
MODEL 3
REMARK VINA RESULT:     -12.3      2.527      3.715
REMARK SMILES [NH3+][C@@H](Cc1cn(-c2nc(Cl)nc(N3CCOCC3)n2)c2ccccc12)C(=O)NCCCCCCNC(=O)c1ccc(-c2c3nc(c(-c4cc(S(=O)(=O)[O-])ccc4F)c4ccc([nH]4)c(-c4cc(S(=O)(=O)[O-])ccc4F)c4nc(c(-c5cc(S(=O)(=O)[O-])ccc5F)c5ccc2[nH]5)C=C4)C=C3)cc1
REMARK SMILES IDX 31 1 30 2 29 3 28 4 26 5 27 6 2 8 1 9 3 13 4 14 5 15 25 16
REMARK SMILES IDX 6 17 20 18 24 19 21 20 23 21 22 22 7 23 8 24 19 25 9 26
REMARK SMILES IDX 12 27 10 28 11 29 13 30 14 31 18 32 15 33 17 34 16 35 32 36
REMARK SMILES IDX 33 37 34 38 35 39 36 40 37 42 38 43 39 44 100 45 40 46 99 47
REMARK SMILES IDX 41 48 42 49 43 50 93 51 44 52 98 53 92 54 94 55 45 56 97 57
REMARK SMILES IDX 91 58 90 59 46 61 78 62 58 63 77 64 59 65 62 66 76 67 95 68
REMARK SMILES IDX 60 69 61 70 75 72 96 73 63 74 47 75 48 76 56 77 49 78 55 79
REMARK SMILES IDX 57 80 54 81 50 82 51 83 52 84 53 85 79 86 80 87 88 88 81 89
REMARK SMILES IDX 87 90 89 91 86 92 82 93 83 94 84 95 85 96 64 97 65 98 73 99
REMARK SMILES IDX 66 100 72 101 74 102 71 103 67 104 68 105 69 106 70 107
REMARK H PARENT 28 7 1 10 1 11 1 12 35 41 94 60 62 71
REMARK Flexibility Score: inf
ROOT
ATOM      1  C   UNL A   1      36.847  29.766  29.919  1.00  0.00     0.002 C 
ENDROOT
BRANCH   1   2
ATOM      2  C   UNL A   1      35.908  29.804  28.403  1.00  0.00     0.021 C 
BRANCH   2   3
ATOM      3  C   UNL A   1      34.261  31.096  27.698  1.00  0.00     0.116 C 
BRANCH   3   4
ATOM      4  N   UNL A   1      32.931  30.751  26.872  1.00  0.00    -0.351 N 
ATOM      5  C   UNL A   1      32.203  29.636  26.602  1.00  0.00     0.278 C 
ATOM      6  O   UNL A   1      31.349  29.770  25.710  1.00  0.00    -0.268 OA
ATOM      7  H   UNL A   1      32.542  31.553  26.454  1.00  0.00     0.163 HD
BRANCH   5   8
ATOM      8  C   UNL A   1      32.395  28.246  27.284  1.00  0.00     0.275 C 
BRANCH   8   9
ATOM      9  N   UNL A   1      31.169  27.756  27.965  1.00  0.00    -0.347 N 
ATOM     10  H   UNL A   1      31.219  27.980  28.959  1.00  0.00     0.345 HD
ATOM     11  H   UNL A   1      31.096  26.744  27.848  1.00  0.00     0.345 HD
ATOM     12  H   UNL A   1      30.350  28.206  27.556  1.00  0.00     0.345 HD
ENDBRANCH   8   9
BRANCH   8  13
ATOM     13  C   UNL A   1      33.104  27.130  26.520  1.00  0.00     0.113 C 
BRANCH  13  14
ATOM     14  C   UNL A   1      32.310  25.882  26.135  1.00  0.00    -0.015 A 
ATOM     15  C   UNL A   1      32.812  24.593  26.395  1.00  0.00     0.099 A 
ATOM     16  C   UNL A   1      31.429  25.797  24.980  1.00  0.00     0.004 A 
ATOM     17  N   UNL A   1      32.791  23.767  25.252  1.00  0.00    -0.285 N 
ATOM     18  C   UNL A   1      32.318  24.513  24.186  1.00  0.00     0.056 A 
ATOM     19  C   UNL A   1      30.661  27.094  23.956  1.00  0.00     0.010 A 
ATOM     20  C   UNL A   1      32.598  24.542  22.408  1.00  0.00     0.027 A 
ATOM     21  C   UNL A   1      30.966  27.167  22.178  1.00  0.00     0.001 A 
ATOM     22  C   UNL A   1      31.950  25.892  21.412  1.00  0.00     0.002 A 
BRANCH  17  23
ATOM     23  C   UNL A   1      33.415  22.489  25.105  1.00  0.00     0.240 A 
ATOM     24  N   UNL A   1      34.718  22.509  24.856  1.00  0.00    -0.181 NA
ATOM     25  N   UNL A   1      32.674  21.379  25.175  1.00  0.00    -0.176 NA
ATOM     26  C   UNL A   1      35.269  21.312  24.774  1.00  0.00     0.228 A 
ATOM     27  C   UNL A   1      33.341  20.235  24.974  1.00  0.00     0.231 A 
ATOM     28  Cl  UNL A   1      36.936  21.301  24.420  1.00  0.00    -0.041 Cl
ATOM     29  N   UNL A   1      34.654  20.151  24.844  1.00  0.00    -0.182 NA
BRANCH  27  30
ATOM     30  N   UNL A   1      32.646  19.081  24.742  1.00  0.00    -0.336 N 
ATOM     31  C   UNL A   1      32.593  18.042  25.754  1.00  0.00     0.148 C 
ATOM     32  C   UNL A   1      32.408  18.656  23.368  1.00  0.00     0.148 C 
ATOM     33  C   UNL A   1      33.518  16.891  25.354  1.00  0.00     0.181 C 
ATOM     34  C   UNL A   1      33.336  17.465  23.057  1.00  0.00     0.181 C 
ATOM     35  O   UNL A   1      33.212  16.407  24.032  1.00  0.00    -0.378 OA
ENDBRANCH  27  30
ENDBRANCH  17  23
ENDBRANCH  13  14
ENDBRANCH   8  13
ENDBRANCH   5   8
ENDBRANCH   3   4
ENDBRANCH   2   3
ENDBRANCH   1   2
BRANCH   1  36
ATOM     36  C   UNL A   1      36.264  30.325  31.247  1.00  0.00     0.002 C 
BRANCH  36  37
ATOM     37  C   UNL A   1      36.051  31.834  31.237  1.00  0.00     0.021 C 
BRANCH  37  38
ATOM     38  C   UNL A   1      37.294  32.499  30.676  1.00  0.00     0.116 C 
BRANCH  38  39
ATOM     39  N   UNL A   1      37.945  33.276  31.706  1.00  0.00    -0.352 N 
ATOM     40  C   UNL A   1      38.987  32.975  32.535  1.00  0.00     0.251 C 
ATOM     41  H   UNL A   1      37.575  34.179  31.831  1.00  0.00     0.163 HD
ATOM     42  O   UNL A   1      39.101  33.663  33.552  1.00  0.00    -0.269 OA
BRANCH  40  43
ATOM     43  C   UNL A   1      39.917  31.847  32.299  1.00  0.00     0.039 A 
ATOM     44  C   UNL A   1      41.234  31.952  31.842  1.00  0.00     0.014 A 
ATOM     45  C   UNL A   1      39.419  30.582  32.625  1.00  0.00     0.014 A 
ATOM     46  C   UNL A   1      41.930  30.824  31.452  1.00  0.00     0.010 A 
ATOM     47  C   UNL A   1      40.202  29.465  32.450  1.00  0.00     0.010 A 
ATOM     48  C   UNL A   1      41.379  29.576  31.725  1.00  0.00    -0.014 A 
BRANCH  48  49
ATOM     49  C   UNL A   1      42.134  28.372  31.423  1.00  0.00     0.031 A 
ATOM     50  C   UNL A   1      42.893  27.873  32.602  1.00  0.00     0.074 A 
ATOM     51  C   UNL A   1      42.019  27.745  30.231  1.00  0.00     0.049 A 
ATOM     52  N   UNL A   1      44.176  27.848  32.751  1.00  0.00    -0.248 NA
ATOM     53  C   UNL A   1      42.152  27.607  33.850  1.00  0.00     0.031 C 
ATOM     54  C   UNL A   1      41.144  28.070  29.096  1.00  0.00     0.029 A 
ATOM     55  N   UNL A   1      42.632  26.606  29.805  1.00  0.00    -0.354 N 
ATOM     56  C   UNL A   1      44.402  27.313  34.017  1.00  0.00     0.074 A 
ATOM     57  C   UNL A   1      43.143  27.370  34.710  1.00  0.00     0.031 C 
ATOM     58  C   UNL A   1      41.093  27.023  28.239  1.00  0.00     0.029 A 
ATOM     59  C   UNL A   1      42.060  26.032  28.665  1.00  0.00     0.049 A 
ATOM     60  H   UNL A   1      43.412  26.218  30.262  1.00  0.00     0.167 HD
ATOM     61  C   UNL A   1      45.559  26.653  34.300  1.00  0.00     0.034 A 
ATOM     62  C   UNL A   1      42.363  24.812  28.138  1.00  0.00     0.034 A 
ATOM     63  C   UNL A   1      46.554  26.922  33.295  1.00  0.00     0.049 A 
ATOM     64  C   UNL A   1      43.703  24.447  28.668  1.00  0.00     0.074 A 
ATOM     65  C   UNL A   1      47.275  28.036  32.924  1.00  0.00     0.029 A 
ATOM     66  N   UNL A   1      46.596  26.059  32.226  1.00  0.00    -0.354 N 
ATOM     67  N   UNL A   1      44.787  25.104  28.350  1.00  0.00    -0.248 NA
ATOM     68  C   UNL A   1      43.736  23.743  29.943  1.00  0.00     0.031 C 
ATOM     69  C   UNL A   1      47.323  27.986  31.502  1.00  0.00     0.029 A 
ATOM     70  C   UNL A   1      46.729  26.795  31.076  1.00  0.00     0.049 A 
ATOM     71  H   UNL A   1      46.539  25.078  32.278  1.00  0.00     0.167 HD
ATOM     72  C   UNL A   1      45.445  25.284  29.558  1.00  0.00     0.074 A 
ATOM     73  C   UNL A   1      44.762  24.393  30.501  1.00  0.00     0.031 C 
ATOM     74  C   UNL A   1      46.261  26.358  29.774  1.00  0.00     0.034 A 
BRANCH  61  75
ATOM     75  C   UNL A   1      45.654  25.486  35.250  1.00  0.00     0.023 A 
ATOM     76  C   UNL A   1      45.886  24.162  34.826  1.00  0.00     0.031 A 
ATOM     77  C   UNL A   1      45.752  25.715  36.637  1.00  0.00     0.131 A 
ATOM     78  C   UNL A   1      46.187  23.143  35.739  1.00  0.00     0.055 A 
ATOM     79  C   UNL A   1      46.118  24.712  37.541  1.00  0.00     0.041 A 
ATOM     80  F   UNL A   1      45.546  26.939  37.151  1.00  0.00    -0.206 F 
ATOM     81  C   UNL A   1      46.340  23.417  37.093  1.00  0.00     0.022 A 
BRANCH  78  82
ATOM     82  S   UNL A   1      46.398  21.428  35.182  1.00  0.00     0.124 S 
ATOM     83  O   UNL A   1      45.672  20.684  36.206  1.00  0.00    -0.237 OA
ATOM     84  O   UNL A   1      45.766  21.471  33.865  1.00  0.00    -0.237 OA
ATOM     85  O   UNL A   1      47.846  21.249  35.167  1.00  0.00    -0.744 OA
ENDBRANCH  78  82
ENDBRANCH  61  75
BRANCH  62  86
ATOM     86  C   UNL A   1      41.360  23.759  27.810  1.00  0.00     0.023 A 
ATOM     87  C   UNL A   1      41.806  22.448  27.561  1.00  0.00     0.031 A 
ATOM     88  C   UNL A   1      40.045  24.070  27.414  1.00  0.00     0.131 A 
ATOM     89  C   UNL A   1      40.989  21.524  26.895  1.00  0.00     0.055 A 
ATOM     90  C   UNL A   1      39.213  23.132  26.779  1.00  0.00     0.041 A 
ATOM     91  F   UNL A   1      39.565  25.315  27.569  1.00  0.00    -0.206 F 
ATOM     92  C   UNL A   1      39.693  21.855  26.501  1.00  0.00     0.022 A 
BRANCH  89  93
ATOM     93  S   UNL A   1      41.657  19.907  26.410  1.00  0.00     0.124 S 
ATOM     94  O   UNL A   1      42.718  20.283  25.479  1.00  0.00    -0.237 OA
ATOM     95  O   UNL A   1      42.103  19.375  27.693  1.00  0.00    -0.237 OA
ATOM     96  O   UNL A   1      40.513  19.234  25.803  1.00  0.00    -0.744 OA
ENDBRANCH  89  93
ENDBRANCH  62  86
BRANCH  74  97
ATOM     97  C   UNL A   1      46.574  27.285  28.617  1.00  0.00     0.023 A 
ATOM     98  C   UNL A   1      47.746  27.012  27.897  1.00  0.00     0.031 A 
ATOM     99  C   UNL A   1      45.945  28.524  28.377  1.00  0.00     0.131 A 
ATOM    100  C   UNL A   1      48.295  27.971  27.038  1.00  0.00     0.055 A 
ATOM    101  C   UNL A   1      46.456  29.454  27.460  1.00  0.00     0.041 A 
ATOM    102  F   UNL A   1      44.876  28.912  29.081  1.00  0.00    -0.206 F 
ATOM    103  C   UNL A   1      47.650  29.186  26.800  1.00  0.00     0.022 A 
BRANCH 100 104
ATOM    104  S   UNL A   1      49.950  27.720  26.355  1.00  0.00     0.124 S 
ATOM    105  O   UNL A   1      50.773  27.637  27.559  1.00  0.00    -0.237 OA
ATOM    106  O   UNL A   1      49.795  26.468  25.615  1.00  0.00    -0.237 OA
ATOM    107  O   UNL A   1      50.175  28.901  25.526  1.00  0.00    -0.744 OA
ENDBRANCH 100 104
ENDBRANCH  74  97
ENDBRANCH  48  49
ENDBRANCH  40  43
ENDBRANCH  38  39
ENDBRANCH  37  38
ENDBRANCH  36  37
ENDBRANCH   1  36
TORSDOF 21
ENDMDL
