MODEL 1
REMARK VINA RESULT:     -10.9      0.000      0.000
REMARK SMILES C[C@H](COc1ccccc1C(=O)NCCCCCCNC(=O)c1ccc(-c2c3nc(c(-c4cc(S(=O)(=O)[O-])ccc4F)c4ccc([nH]4)c(-c4cc(S(=O)(=O)[O-])ccc4F)c4nc(c(-c5cc(S(=O)(=O)[O-])ccc5F)c5ccc2[nH]5)C=C4)C=C3)cc1)C(N)=O
REMARK SMILES IDX 16 1 15 2 14 3 13 4 11 5 12 6 10 8 5 9 6 10 7 11 9 12 8 13
REMARK SMILES IDX 4 14 3 15 2 16 1 17 86 18 87 19 88 20 17 23 18 24 19 25
REMARK SMILES IDX 20 26 21 27 22 29 23 30 24 31 85 32 25 33 84 34 26 35 27 36
REMARK SMILES IDX 28 37 78 38 29 39 83 40 77 41 79 42 30 43 82 44 76 45 75 46
REMARK SMILES IDX 31 48 63 49 43 50 62 51 44 52 47 53 61 54 80 55 45 56 46 57
REMARK SMILES IDX 60 59 81 60 48 61 32 62 33 63 41 64 34 65 40 66 42 67 39 68
REMARK SMILES IDX 35 69 36 70 37 71 38 72 64 73 65 74 73 75 66 76 72 77 74 78
REMARK SMILES IDX 71 79 67 80 68 81 69 82 70 83 49 84 50 85 58 86 51 87 57 88
REMARK SMILES IDX 59 89 56 90 52 91 53 92 54 93 55 94
REMARK H PARENT 13 7 87 21 87 22 20 28 79 47 47 58
REMARK Flexibility Score: inf
ROOT
ATOM      1  C   UNL A   1      32.398  29.611  24.990  1.00  0.00     0.002 C 
ENDROOT
BRANCH   1   2
ATOM      2  C   UNL A   1      33.477  28.548  24.717  1.00  0.00     0.021 C 
BRANCH   2   3
ATOM      3  C   UNL A   1      34.156  28.519  23.347  1.00  0.00     0.116 C 
BRANCH   3   4
ATOM      4  N   UNL A   1      33.250  28.200  22.269  1.00  0.00    -0.352 N 
ATOM      5  C   UNL A   1      32.839  26.911  22.001  1.00  0.00     0.255 C 
ATOM      6  O   UNL A   1      33.447  26.144  21.266  1.00  0.00    -0.269 OA
ATOM      7  H   UNL A   1      32.913  28.931  21.703  1.00  0.00     0.163 HD
BRANCH   5   8
ATOM      8  C   UNL A   1      31.619  26.479  22.749  1.00  0.00     0.081 A 
ATOM      9  C   UNL A   1      30.485  27.301  22.831  1.00  0.00     0.132 A 
ATOM     10  C   UNL A   1      29.624  27.174  23.921  1.00  0.00     0.047 A 
ATOM     11  C   UNL A   1      29.804  26.120  24.824  1.00  0.00     0.004 A 
ATOM     12  C   UNL A   1      31.719  25.352  23.571  1.00  0.00     0.018 A 
ATOM     13  C   UNL A   1      30.803  25.168  24.606  1.00  0.00     0.001 A 
BRANCH   9  14
ATOM     14  O   UNL A   1      30.272  28.282  21.883  1.00  0.00    -0.492 OA
BRANCH  14  15
ATOM     15  C   UNL A   1      29.876  29.523  22.502  1.00  0.00     0.242 C 
BRANCH  15  16
ATOM     16  C   UNL A   1      28.499  30.070  22.038  1.00  0.00     0.113 C 
ATOM     17  C   UNL A   1      27.312  29.932  22.996  1.00  0.00     0.022 C 
BRANCH  16  18
ATOM     18  C   UNL A   1      28.645  31.555  21.747  1.00  0.00     0.223 C 
ATOM     19  N   UNL A   1      28.269  31.943  20.495  1.00  0.00    -0.369 N 
ATOM     20  O   UNL A   1      29.027  32.385  22.562  1.00  0.00    -0.275 OA
ATOM     21  H   UNL A   1      27.963  31.272  19.842  1.00  0.00     0.159 HD
ATOM     22  H   UNL A   1      28.304  32.895  20.243  1.00  0.00     0.159 HD
ENDBRANCH  16  18
ENDBRANCH  15  16
ENDBRANCH  14  15
ENDBRANCH   9  14
ENDBRANCH   5   8
ENDBRANCH   3   4
ENDBRANCH   2   3
ENDBRANCH   1   2
BRANCH   1  23
ATOM     23  C   UNL A   1      31.807  29.727  26.397  1.00  0.00     0.002 C 
BRANCH  23  24
ATOM     24  C   UNL A   1      31.425  31.116  26.898  1.00  0.00     0.021 C 
BRANCH  24  25
ATOM     25  C   UNL A   1      32.330  32.269  26.489  1.00  0.00     0.116 C 
BRANCH  25  26
ATOM     26  N   UNL A   1      32.115  33.507  27.224  1.00  0.00    -0.352 N 
ATOM     27  C   UNL A   1      32.920  34.080  28.190  1.00  0.00     0.251 C 
ATOM     28  H   UNL A   1      31.291  33.999  27.004  1.00  0.00     0.163 HD
ATOM     29  O   UNL A   1      32.564  35.114  28.749  1.00  0.00    -0.269 OA
BRANCH  27  30
ATOM     30  C   UNL A   1      34.183  33.410  28.590  1.00  0.00     0.039 A 
ATOM     31  C   UNL A   1      35.388  34.114  28.492  1.00  0.00     0.014 A 
ATOM     32  C   UNL A   1      34.176  32.120  29.126  1.00  0.00     0.014 A 
ATOM     33  C   UNL A   1      36.558  33.571  29.036  1.00  0.00     0.010 A 
ATOM     34  C   UNL A   1      35.320  31.620  29.742  1.00  0.00     0.010 A 
ATOM     35  C   UNL A   1      36.520  32.347  29.721  1.00  0.00    -0.014 A 
BRANCH  35  36
ATOM     36  C   UNL A   1      37.706  31.806  30.443  1.00  0.00     0.031 A 
ATOM     37  C   UNL A   1      38.565  30.756  29.792  1.00  0.00     0.074 A 
ATOM     38  C   UNL A   1      37.945  32.179  31.717  1.00  0.00     0.049 A 
ATOM     39  N   UNL A   1      39.539  30.047  30.303  1.00  0.00    -0.248 NA
ATOM     40  C   UNL A   1      38.261  30.439  28.389  1.00  0.00     0.031 C 
ATOM     41  C   UNL A   1      37.164  33.158  32.475  1.00  0.00     0.029 A 
ATOM     42  N   UNL A   1      38.902  31.762  32.611  1.00  0.00    -0.354 N 
ATOM     43  C   UNL A   1      39.950  29.184  29.292  1.00  0.00     0.074 A 
ATOM     44  C   UNL A   1      39.078  29.422  28.160  1.00  0.00     0.031 C 
ATOM     45  C   UNL A   1      37.679  33.278  33.709  1.00  0.00     0.029 A 
ATOM     46  C   UNL A   1      38.795  32.348  33.853  1.00  0.00     0.049 A 
ATOM     47  H   UNL A   1      39.601  31.107  32.384  1.00  0.00     0.167 HD
ATOM     48  C   UNL A   1      40.972  28.293  29.299  1.00  0.00     0.034 A 
ATOM     49  C   UNL A   1      39.497  32.142  34.986  1.00  0.00     0.034 A 
ATOM     50  C   UNL A   1      41.845  28.083  30.428  1.00  0.00     0.049 A 
ATOM     51  C   UNL A   1      40.607  31.121  34.982  1.00  0.00     0.074 A 
ATOM     52  C   UNL A   1      42.953  27.258  30.519  1.00  0.00     0.029 A 
ATOM     53  N   UNL A   1      41.704  28.695  31.667  1.00  0.00    -0.354 N 
ATOM     54  N   UNL A   1      41.013  30.349  34.001  1.00  0.00    -0.248 NA
ATOM     55  C   UNL A   1      41.352  30.945  36.235  1.00  0.00     0.031 C 
ATOM     56  C   UNL A   1      43.441  27.321  31.829  1.00  0.00     0.029 A 
ATOM     57  C   UNL A   1      42.682  28.239  32.538  1.00  0.00     0.049 A 
ATOM     58  H   UNL A   1      41.011  29.356  31.893  1.00  0.00     0.167 HD
ATOM     59  C   UNL A   1      42.078  29.613  34.514  1.00  0.00     0.074 A 
ATOM     60  C   UNL A   1      42.260  30.045  35.884  1.00  0.00     0.031 C 
ATOM     61  C   UNL A   1      42.840  28.668  33.907  1.00  0.00     0.034 A 
BRANCH  48  62
ATOM     62  C   UNL A   1      41.181  27.466  28.053  1.00  0.00     0.023 A 
ATOM     63  C   UNL A   1      40.822  26.108  28.000  1.00  0.00     0.031 A 
ATOM     64  C   UNL A   1      41.774  28.033  26.911  1.00  0.00     0.131 A 
ATOM     65  C   UNL A   1      41.133  25.344  26.865  1.00  0.00     0.055 A 
ATOM     66  C   UNL A   1      42.004  27.287  25.753  1.00  0.00     0.041 A 
ATOM     67  F   UNL A   1      42.155  29.321  26.907  1.00  0.00    -0.206 F 
ATOM     68  C   UNL A   1      41.699  25.930  25.731  1.00  0.00     0.022 A 
BRANCH  65  69
ATOM     69  S   UNL A   1      40.924  23.545  26.951  1.00  0.00     0.124 S 
ATOM     70  O   UNL A   1      39.478  23.408  26.793  1.00  0.00    -0.237 OA
ATOM     71  O   UNL A   1      41.736  23.078  25.833  1.00  0.00    -0.237 OA
ATOM     72  O   UNL A   1      41.432  23.203  28.278  1.00  0.00    -0.744 OA
ENDBRANCH  65  69
ENDBRANCH  48  62
BRANCH  49  73
ATOM     73  C   UNL A   1      39.163  32.893  36.232  1.00  0.00     0.023 A 
ATOM     74  C   UNL A   1      39.741  34.144  36.497  1.00  0.00     0.031 A 
ATOM     75  C   UNL A   1      38.297  32.349  37.198  1.00  0.00     0.131 A 
ATOM     76  C   UNL A   1      39.482  34.792  37.715  1.00  0.00     0.055 A 
ATOM     77  C   UNL A   1      38.001  33.022  38.385  1.00  0.00     0.041 A 
ATOM     78  F   UNL A   1      37.714  31.157  36.994  1.00  0.00    -0.206 F 
ATOM     79  C   UNL A   1      38.606  34.245  38.655  1.00  0.00     0.022 A 
BRANCH  76  80
ATOM     80  S   UNL A   1      40.373  36.327  38.090  1.00  0.00     0.124 S 
ATOM     81  O   UNL A   1      41.002  36.625  36.808  1.00  0.00    -0.237 OA
ATOM     82  O   UNL A   1      39.289  37.214  38.496  1.00  0.00    -0.237 OA
ATOM     83  O   UNL A   1      41.289  35.936  39.159  1.00  0.00    -0.744 OA
ENDBRANCH  76  80
ENDBRANCH  49  73
BRANCH  61  84
ATOM     84  C   UNL A   1      43.961  28.065  34.717  1.00  0.00     0.023 A 
ATOM     85  C   UNL A   1      43.816  26.830  35.370  1.00  0.00     0.031 A 
ATOM     86  C   UNL A   1      45.188  28.739  34.835  1.00  0.00     0.131 A 
ATOM     87  C   UNL A   1      44.869  26.324  36.148  1.00  0.00     0.055 A 
ATOM     88  C   UNL A   1      46.251  28.206  35.566  1.00  0.00     0.041 A 
ATOM     89  F   UNL A   1      45.379  29.925  34.234  1.00  0.00    -0.206 F 
ATOM     90  C   UNL A   1      46.091  26.996  36.236  1.00  0.00     0.022 A 
BRANCH  87  91
ATOM     91  S   UNL A   1      44.596  24.807  37.105  1.00  0.00     0.124 S 
ATOM     92  O   UNL A   1      45.783  24.024  36.777  1.00  0.00    -0.237 OA
ATOM     93  O   UNL A   1      44.520  25.308  38.473  1.00  0.00    -0.237 OA
ATOM     94  O   UNL A   1      43.340  24.285  36.568  1.00  0.00    -0.744 OA
ENDBRANCH  87  91
ENDBRANCH  61  84
ENDBRANCH  35  36
ENDBRANCH  27  30
ENDBRANCH  25  26
ENDBRANCH  24  25
ENDBRANCH  23  24
ENDBRANCH   1  23
TORSDOF 20
ENDMDL
MODEL 2
REMARK VINA RESULT:     -10.7      5.198     10.205
REMARK SMILES C[C@H](COc1ccccc1C(=O)NCCCCCCNC(=O)c1ccc(-c2c3nc(c(-c4cc(S(=O)(=O)[O-])ccc4F)c4ccc([nH]4)c(-c4cc(S(=O)(=O)[O-])ccc4F)c4nc(c(-c5cc(S(=O)(=O)[O-])ccc5F)c5ccc2[nH]5)C=C4)C=C3)cc1)C(N)=O
REMARK SMILES IDX 16 1 15 2 14 3 13 4 11 5 12 6 10 8 5 9 6 10 7 11 9 12 8 13
REMARK SMILES IDX 4 14 3 15 2 16 1 17 86 18 87 19 88 20 17 23 18 24 19 25
REMARK SMILES IDX 20 26 21 27 22 29 23 30 24 31 85 32 25 33 84 34 26 35 27 36
REMARK SMILES IDX 28 37 78 38 29 39 83 40 77 41 79 42 30 43 82 44 76 45 75 46
REMARK SMILES IDX 31 48 63 49 43 50 62 51 44 52 47 53 61 54 80 55 45 56 46 57
REMARK SMILES IDX 60 59 81 60 48 61 32 62 33 63 41 64 34 65 40 66 42 67 39 68
REMARK SMILES IDX 35 69 36 70 37 71 38 72 64 73 65 74 73 75 66 76 72 77 74 78
REMARK SMILES IDX 71 79 67 80 68 81 69 82 70 83 49 84 50 85 58 86 51 87 57 88
REMARK SMILES IDX 59 89 56 90 52 91 53 92 54 93 55 94
REMARK H PARENT 13 7 87 21 87 22 20 28 79 47 47 58
REMARK Flexibility Score: inf
ROOT
ATOM      1  C   UNL A   1      34.094  23.193  22.738  1.00  0.00     0.002 C 
ENDROOT
BRANCH   1   2
ATOM      2  C   UNL A   1      32.794  24.013  22.805  1.00  0.00     0.021 C 
BRANCH   2   3
ATOM      3  C   UNL A   1      32.862  25.524  22.578  1.00  0.00     0.116 C 
BRANCH   3   4
ATOM      4  N   UNL A   1      31.564  26.132  22.399  1.00  0.00    -0.352 N 
ATOM      5  C   UNL A   1      30.598  26.122  23.383  1.00  0.00     0.255 C 
ATOM      6  O   UNL A   1      29.781  25.220  23.522  1.00  0.00    -0.269 OA
ATOM      7  H   UNL A   1      31.362  26.572  21.542  1.00  0.00     0.163 HD
BRANCH   5   8
ATOM      8  C   UNL A   1      30.668  27.270  24.337  1.00  0.00     0.081 A 
ATOM      9  C   UNL A   1      30.499  28.593  23.901  1.00  0.00     0.132 A 
ATOM     10  C   UNL A   1      31.090  29.632  24.619  1.00  0.00     0.047 A 
ATOM     11  C   UNL A   1      31.695  29.363  25.852  1.00  0.00     0.004 A 
ATOM     12  C   UNL A   1      31.152  27.021  25.626  1.00  0.00     0.018 A 
ATOM     13  C   UNL A   1      31.658  28.074  26.389  1.00  0.00     0.001 A 
BRANCH   9  14
ATOM     14  O   UNL A   1      29.823  28.851  22.725  1.00  0.00    -0.492 OA
BRANCH  14  15
ATOM     15  C   UNL A   1      28.397  28.799  22.926  1.00  0.00     0.242 C 
BRANCH  15  16
ATOM     16  C   UNL A   1      27.657  30.142  22.680  1.00  0.00     0.113 C 
ATOM     17  C   UNL A   1      27.713  31.204  23.782  1.00  0.00     0.022 C 
BRANCH  16  18
ATOM     18  C   UNL A   1      28.237  30.789  21.432  1.00  0.00     0.223 C 
ATOM     19  N   UNL A   1      29.454  31.381  21.595  1.00  0.00    -0.369 N 
ATOM     20  O   UNL A   1      27.704  30.767  20.329  1.00  0.00    -0.275 OA
ATOM     21  H   UNL A   1      29.879  31.398  22.484  1.00  0.00     0.159 HD
ATOM     22  H   UNL A   1      29.908  31.794  20.824  1.00  0.00     0.159 HD
ENDBRANCH  16  18
ENDBRANCH  15  16
ENDBRANCH  14  15
ENDBRANCH   9  14
ENDBRANCH   5   8
ENDBRANCH   3   4
ENDBRANCH   2   3
ENDBRANCH   1   2
BRANCH   1  23
ATOM     23  C   UNL A   1      34.594  22.486  24.001  1.00  0.00     0.002 C 
BRANCH  23  24
ATOM     24  C   UNL A   1      35.725  23.142  24.786  1.00  0.00     0.021 C 
BRANCH  24  25
ATOM     25  C   UNL A   1      36.275  22.369  25.977  1.00  0.00     0.116 C 
BRANCH  25  26
ATOM     26  N   UNL A   1      37.295  21.384  25.649  1.00  0.00    -0.352 N 
ATOM     27  C   UNL A   1      38.656  21.452  25.881  1.00  0.00     0.251 C 
ATOM     28  H   UNL A   1      36.975  20.565  25.207  1.00  0.00     0.163 HD
ATOM     29  O   UNL A   1      39.388  20.544  25.495  1.00  0.00    -0.269 OA
BRANCH  27  30
ATOM     30  C   UNL A   1      39.233  22.650  26.541  1.00  0.00     0.039 A 
ATOM     31  C   UNL A   1      40.304  22.490  27.426  1.00  0.00     0.014 A 
ATOM     32  C   UNL A   1      38.771  23.932  26.237  1.00  0.00     0.014 A 
ATOM     33  C   UNL A   1      40.981  23.615  27.911  1.00  0.00     0.010 A 
ATOM     34  C   UNL A   1      39.496  25.047  26.651  1.00  0.00     0.010 A 
ATOM     35  C   UNL A   1      40.621  24.901  27.478  1.00  0.00    -0.014 A 
BRANCH  35  36
ATOM     36  C   UNL A   1      41.407  26.111  27.850  1.00  0.00     0.031 A 
ATOM     37  C   UNL A   1      40.737  27.243  28.582  1.00  0.00     0.074 A 
ATOM     38  C   UNL A   1      42.685  26.237  27.438  1.00  0.00     0.049 A 
ATOM     39  N   UNL A   1      41.194  28.438  28.857  1.00  0.00    -0.248 NA
ATOM     40  C   UNL A   1      39.357  27.008  29.030  1.00  0.00     0.031 C 
ATOM     41  C   UNL A   1      43.436  25.228  26.688  1.00  0.00     0.029 A 
ATOM     42  N   UNL A   1      43.575  27.275  27.571  1.00  0.00    -0.354 N 
ATOM     43  C   UNL A   1      40.150  29.105  29.491  1.00  0.00     0.074 A 
ATOM     44  C   UNL A   1      39.022  28.198  29.504  1.00  0.00     0.031 C 
ATOM     45  C   UNL A   1      44.673  25.689  26.442  1.00  0.00     0.029 A 
ATOM     46  C   UNL A   1      44.791  27.045  26.967  1.00  0.00     0.049 A 
ATOM     47  H   UNL A   1      43.363  28.105  28.056  1.00  0.00     0.167 HD
ATOM     48  C   UNL A   1      40.141  30.350  30.031  1.00  0.00     0.034 A 
ATOM     49  C   UNL A   1      45.869  27.844  26.829  1.00  0.00     0.034 A 
ATOM     50  C   UNL A   1      41.281  31.234  30.027  1.00  0.00     0.049 A 
ATOM     51  C   UNL A   1      45.825  29.237  27.407  1.00  0.00     0.074 A 
ATOM     52  C   UNL A   1      41.403  32.485  30.607  1.00  0.00     0.029 A 
ATOM     53  N   UNL A   1      42.494  30.965  29.406  1.00  0.00    -0.354 N 
ATOM     54  N   UNL A   1      44.846  29.833  28.047  1.00  0.00    -0.248 NA
ATOM     55  C   UNL A   1      47.029  30.062  27.245  1.00  0.00     0.031 C 
ATOM     56  C   UNL A   1      42.663  32.999  30.281  1.00  0.00     0.029 A 
ATOM     57  C   UNL A   1      43.355  32.041  29.557  1.00  0.00     0.049 A 
ATOM     58  H   UNL A   1      42.710  30.132  28.929  1.00  0.00     0.167 HD
ATOM     59  C   UNL A   1      45.327  31.095  28.384  1.00  0.00     0.074 A 
ATOM     60  C   UNL A   1      46.687  31.167  27.891  1.00  0.00     0.031 C 
ATOM     61  C   UNL A   1      44.704  32.104  29.045  1.00  0.00     0.034 A 
BRANCH  48  62
ATOM     62  C   UNL A   1      38.849  30.829  30.647  1.00  0.00     0.023 A 
ATOM     63  C   UNL A   1      37.843  31.436  29.875  1.00  0.00     0.031 A 
ATOM     64  C   UNL A   1      38.629  30.706  32.031  1.00  0.00     0.131 A 
ATOM     65  C   UNL A   1      36.705  31.970  30.498  1.00  0.00     0.055 A 
ATOM     66  C   UNL A   1      37.455  31.164  32.634  1.00  0.00     0.041 A 
ATOM     67  F   UNL A   1      39.560  30.151  32.824  1.00  0.00    -0.206 F 
ATOM     68  C   UNL A   1      36.493  31.816  31.869  1.00  0.00     0.022 A 
BRANCH  65  69
ATOM     69  S   UNL A   1      35.583  32.998  29.513  1.00  0.00     0.124 S 
ATOM     70  O   UNL A   1      34.366  32.190  29.514  1.00  0.00    -0.237 OA
ATOM     71  O   UNL A   1      35.529  34.235  30.283  1.00  0.00    -0.237 OA
ATOM     72  O   UNL A   1      36.254  33.096  28.219  1.00  0.00    -0.744 OA
ENDBRANCH  65  69
ENDBRANCH  48  62
BRANCH  49  73
ATOM     73  C   UNL A   1      47.077  27.367  26.094  1.00  0.00     0.023 A 
ATOM     74  C   UNL A   1      47.295  27.725  24.754  1.00  0.00     0.031 A 
ATOM     75  C   UNL A   1      48.008  26.508  26.707  1.00  0.00     0.131 A 
ATOM     76  C   UNL A   1      48.390  27.193  24.057  1.00  0.00     0.055 A 
ATOM     77  C   UNL A   1      49.124  26.023  26.023  1.00  0.00     0.041 A 
ATOM     78  F   UNL A   1      47.849  26.136  27.987  1.00  0.00    -0.206 F 
ATOM     79  C   UNL A   1      49.313  26.355  24.686  1.00  0.00     0.022 A 
BRANCH  76  80
ATOM     80  S   UNL A   1      48.547  27.548  22.284  1.00  0.00     0.124 S 
ATOM     81  O   UNL A   1      49.789  28.313  22.245  1.00  0.00    -0.237 OA
ATOM     82  O   UNL A   1      48.600  26.208  21.711  1.00  0.00    -0.237 OA
ATOM     83  O   UNL A   1      47.336  28.307  21.981  1.00  0.00    -0.744 OA
ENDBRANCH  76  80
ENDBRANCH  49  73
BRANCH  61  84
ATOM     84  C   UNL A   1      45.505  33.356  29.300  1.00  0.00     0.023 A 
ATOM     85  C   UNL A   1      45.507  34.427  28.390  1.00  0.00     0.031 A 
ATOM     86  C   UNL A   1      46.275  33.476  30.469  1.00  0.00     0.131 A 
ATOM     87  C   UNL A   1      46.299  35.557  28.645  1.00  0.00     0.055 A 
ATOM     88  C   UNL A   1      47.018  34.625  30.744  1.00  0.00     0.041 A 
ATOM     89  F   UNL A   1      46.311  32.481  31.370  1.00  0.00    -0.206 F 
ATOM     90  C   UNL A   1      47.041  35.670  29.823  1.00  0.00     0.022 A 
BRANCH  87  91
ATOM     91  S   UNL A   1      46.404  36.851  27.378  1.00  0.00     0.124 S 
ATOM     92  O   UNL A   1      47.630  37.547  27.756  1.00  0.00    -0.237 OA
ATOM     93  O   UNL A   1      46.464  36.077  26.143  1.00  0.00    -0.237 OA
ATOM     94  O   UNL A   1      45.173  37.617  27.568  1.00  0.00    -0.744 OA
ENDBRANCH  87  91
ENDBRANCH  61  84
ENDBRANCH  35  36
ENDBRANCH  27  30
ENDBRANCH  25  26
ENDBRANCH  24  25
ENDBRANCH  23  24
ENDBRANCH   1  23
TORSDOF 20
ENDMDL
MODEL 3
REMARK VINA RESULT:     -10.5      4.588      8.041
REMARK SMILES C[C@H](COc1ccccc1C(=O)NCCCCCCNC(=O)c1ccc(-c2c3nc(c(-c4cc(S(=O)(=O)[O-])ccc4F)c4ccc([nH]4)c(-c4cc(S(=O)(=O)[O-])ccc4F)c4nc(c(-c5cc(S(=O)(=O)[O-])ccc5F)c5ccc2[nH]5)C=C4)C=C3)cc1)C(N)=O
REMARK SMILES IDX 16 1 15 2 14 3 13 4 11 5 12 6 10 8 5 9 6 10 7 11 9 12 8 13
REMARK SMILES IDX 4 14 3 15 2 16 1 17 86 18 87 19 88 20 17 23 18 24 19 25
REMARK SMILES IDX 20 26 21 27 22 29 23 30 24 31 85 32 25 33 84 34 26 35 27 36
REMARK SMILES IDX 28 37 78 38 29 39 83 40 77 41 79 42 30 43 82 44 76 45 75 46
REMARK SMILES IDX 31 48 63 49 43 50 62 51 44 52 47 53 61 54 80 55 45 56 46 57
REMARK SMILES IDX 60 59 81 60 48 61 32 62 33 63 41 64 34 65 40 66 42 67 39 68
REMARK SMILES IDX 35 69 36 70 37 71 38 72 64 73 65 74 73 75 66 76 72 77 74 78
REMARK SMILES IDX 71 79 67 80 68 81 69 82 70 83 49 84 50 85 58 86 51 87 57 88
REMARK SMILES IDX 59 89 56 90 52 91 53 92 54 93 55 94
REMARK H PARENT 13 7 87 21 87 22 20 28 79 47 47 58
REMARK Flexibility Score: inf
ROOT
ATOM      1  C   UNL A   1      33.815  23.569  23.859  1.00  0.00     0.002 C 
ENDROOT
BRANCH   1   2
ATOM      2  C   UNL A   1      32.407  23.055  23.513  1.00  0.00     0.021 C 
BRANCH   2   3
ATOM      3  C   UNL A   1      31.318  23.106  24.587  1.00  0.00     0.116 C 
BRANCH   3   4
ATOM      4  N   UNL A   1      30.498  24.292  24.512  1.00  0.00    -0.352 N 
ATOM      5  C   UNL A   1      30.491  25.254  25.500  1.00  0.00     0.255 C 
ATOM      6  O   UNL A   1      29.754  25.216  26.477  1.00  0.00    -0.269 OA
ATOM      7  H   UNL A   1      29.923  24.419  23.724  1.00  0.00     0.163 HD
BRANCH   5   8
ATOM      8  C   UNL A   1      31.521  26.323  25.336  1.00  0.00     0.081 A 
ATOM      9  C   UNL A   1      31.596  27.091  24.163  1.00  0.00     0.132 A 
ATOM     10  C   UNL A   1      32.815  27.652  23.788  1.00  0.00     0.047 A 
ATOM     11  C   UNL A   1      33.903  27.591  24.665  1.00  0.00     0.004 A 
ATOM     12  C   UNL A   1      32.564  26.377  26.266  1.00  0.00     0.018 A 
ATOM     13  C   UNL A   1      33.756  27.021  25.933  1.00  0.00     0.001 A 
BRANCH   9  14
ATOM     14  O   UNL A   1      30.487  27.217  23.348  1.00  0.00    -0.492 OA
BRANCH  14  15
ATOM     15  C   UNL A   1      29.770  28.434  23.635  1.00  0.00     0.242 C 
BRANCH  15  16
ATOM     16  C   UNL A   1      28.738  28.849  22.552  1.00  0.00     0.113 C 
ATOM     17  C   UNL A   1      27.405  29.441  23.021  1.00  0.00     0.022 C 
BRANCH  16  18
ATOM     18  C   UNL A   1      29.378  29.896  21.654  1.00  0.00     0.223 C 
ATOM     19  N   UNL A   1      30.737  29.974  21.728  1.00  0.00    -0.369 N 
ATOM     20  O   UNL A   1      28.759  30.610  20.874  1.00  0.00    -0.275 OA
ATOM     21  H   UNL A   1      31.231  29.399  22.357  1.00  0.00     0.159 HD
ATOM     22  H   UNL A   1      31.226  30.607  21.152  1.00  0.00     0.159 HD
ENDBRANCH  16  18
ENDBRANCH  15  16
ENDBRANCH  14  15
ENDBRANCH   9  14
ENDBRANCH   5   8
ENDBRANCH   3   4
ENDBRANCH   2   3
ENDBRANCH   1   2
BRANCH   1  23
ATOM     23  C   UNL A   1      34.649  22.814  24.899  1.00  0.00     0.002 C 
BRANCH  23  24
ATOM     24  C   UNL A   1      35.228  23.610  26.063  1.00  0.00     0.021 C 
BRANCH  24  25
ATOM     25  C   UNL A   1      36.722  23.903  26.022  1.00  0.00     0.116 C 
BRANCH  25  26
ATOM     26  N   UNL A   1      37.577  22.726  26.073  1.00  0.00    -0.352 N 
ATOM     27  C   UNL A   1      38.909  22.651  26.436  1.00  0.00     0.251 C 
ATOM     28  H   UNL A   1      37.153  21.876  25.818  1.00  0.00     0.163 HD
ATOM     29  O   UNL A   1      39.498  21.576  26.379  1.00  0.00    -0.269 OA
BRANCH  27  30
ATOM     30  C   UNL A   1      39.635  23.883  26.835  1.00  0.00     0.039 A 
ATOM     31  C   UNL A   1      39.969  24.824  25.855  1.00  0.00     0.014 A 
ATOM     32  C   UNL A   1      39.923  24.147  28.175  1.00  0.00     0.014 A 
ATOM     33  C   UNL A   1      40.482  26.070  26.232  1.00  0.00     0.010 A 
ATOM     34  C   UNL A   1      40.352  25.417  28.555  1.00  0.00     0.010 A 
ATOM     35  C   UNL A   1      40.619  26.400  27.589  1.00  0.00    -0.014 A 
BRANCH  35  36
ATOM     36  C   UNL A   1      41.018  27.764  28.037  1.00  0.00     0.031 A 
ATOM     37  C   UNL A   1      42.473  28.149  28.060  1.00  0.00     0.074 A 
ATOM     38  C   UNL A   1      40.088  28.612  28.520  1.00  0.00     0.049 A 
ATOM     39  N   UNL A   1      43.040  29.218  28.558  1.00  0.00    -0.248 NA
ATOM     40  C   UNL A   1      43.415  27.183  27.477  1.00  0.00     0.031 C 
ATOM     41  C   UNL A   1      38.650  28.344  28.588  1.00  0.00     0.029 A 
ATOM     42  N   UNL A   1      40.212  29.866  29.068  1.00  0.00    -0.354 N 
ATOM     43  C   UNL A   1      44.408  29.044  28.368  1.00  0.00     0.074 A 
ATOM     44  C   UNL A   1      44.582  27.740  27.764  1.00  0.00     0.031 C 
ATOM     45  C   UNL A   1      38.027  29.403  29.129  1.00  0.00     0.029 A 
ATOM     46  C   UNL A   1      39.021  30.406  29.497  1.00  0.00     0.049 A 
ATOM     47  H   UNL A   1      41.074  30.336  29.144  1.00  0.00     0.167 HD
ATOM     48  C   UNL A   1      45.420  29.901  28.652  1.00  0.00     0.034 A 
ATOM     49  C   UNL A   1      38.760  31.564  30.137  1.00  0.00     0.034 A 
ATOM     50  C   UNL A   1      45.227  31.205  29.237  1.00  0.00     0.049 A 
ATOM     51  C   UNL A   1      39.905  32.486  30.474  1.00  0.00     0.074 A 
ATOM     52  C   UNL A   1      46.174  32.180  29.500  1.00  0.00     0.029 A 
ATOM     53  N   UNL A   1      44.005  31.715  29.657  1.00  0.00    -0.354 N 
ATOM     54  N   UNL A   1      41.187  32.327  30.243  1.00  0.00    -0.248 NA
ATOM     55  C   UNL A   1      39.567  33.742  31.157  1.00  0.00     0.031 C 
ATOM     56  C   UNL A   1      45.536  33.251  30.138  1.00  0.00     0.029 A 
ATOM     57  C   UNL A   1      44.180  32.975  30.210  1.00  0.00     0.049 A 
ATOM     58  H   UNL A   1      43.142  31.251  29.574  1.00  0.00     0.167 HD
ATOM     59  C   UNL A   1      41.805  33.475  30.731  1.00  0.00     0.074 A 
ATOM     60  C   UNL A   1      40.754  34.323  31.254  1.00  0.00     0.031 C 
ATOM     61  C   UNL A   1      43.123  33.802  30.743  1.00  0.00     0.034 A 
BRANCH  48  62
ATOM     62  C   UNL A   1      46.826  29.437  28.353  1.00  0.00     0.023 A 
ATOM     63  C   UNL A   1      47.566  28.680  29.279  1.00  0.00     0.031 A 
ATOM     64  C   UNL A   1      47.448  29.780  27.140  1.00  0.00     0.131 A 
ATOM     65  C   UNL A   1      48.906  28.363  29.013  1.00  0.00     0.055 A 
ATOM     66  C   UNL A   1      48.756  29.389  26.846  1.00  0.00     0.041 A 
ATOM     67  F   UNL A   1      46.799  30.517  26.224  1.00  0.00    -0.206 F 
ATOM     68  C   UNL A   1      49.499  28.691  27.793  1.00  0.00     0.022 A 
BRANCH  65  69
ATOM     69  S   UNL A   1      49.905  27.649  30.348  1.00  0.00     0.124 S 
ATOM     70  O   UNL A   1      50.214  26.326  29.809  1.00  0.00    -0.237 OA
ATOM     71  O   UNL A   1      51.024  28.579  30.437  1.00  0.00    -0.237 OA
ATOM     72  O   UNL A   1      48.999  27.650  31.494  1.00  0.00    -0.744 OA
ENDBRANCH  65  69
ENDBRANCH  48  62
BRANCH  49  73
ATOM     73  C   UNL A   1      37.363  31.916  30.529  1.00  0.00     0.023 A 
ATOM     74  C   UNL A   1      36.501  32.560  29.628  1.00  0.00     0.031 A 
ATOM     75  C   UNL A   1      36.885  31.654  31.826  1.00  0.00     0.131 A 
ATOM     76  C   UNL A   1      35.223  32.960  30.047  1.00  0.00     0.055 A 
ATOM     77  C   UNL A   1      35.594  32.008  32.222  1.00  0.00     0.041 A 
ATOM     78  F   UNL A   1      37.667  31.038  32.728  1.00  0.00    -0.206 F 
ATOM     79  C   UNL A   1      34.759  32.677  31.334  1.00  0.00     0.022 A 
BRANCH  76  80
ATOM     80  S   UNL A   1      34.199  33.933  28.907  1.00  0.00     0.124 S 
ATOM     81  O   UNL A   1      35.130  34.975  28.489  1.00  0.00    -0.237 OA
ATOM     82  O   UNL A   1      33.848  32.941  27.896  1.00  0.00    -0.237 OA
ATOM     83  O   UNL A   1      33.092  34.384  29.746  1.00  0.00    -0.744 OA
ENDBRANCH  76  80
ENDBRANCH  49  73
BRANCH  61  84
ATOM     84  C   UNL A   1      43.491  35.150  31.311  1.00  0.00     0.023 A 
ATOM     85  C   UNL A   1      43.564  36.295  30.501  1.00  0.00     0.031 A 
ATOM     86  C   UNL A   1      43.769  35.286  32.681  1.00  0.00     0.131 A 
ATOM     87  C   UNL A   1      43.950  37.522  31.061  1.00  0.00     0.055 A 
ATOM     88  C   UNL A   1      44.100  36.520  33.244  1.00  0.00     0.041 A 
ATOM     89  F   UNL A   1      43.716  34.223  33.500  1.00  0.00    -0.206 F 
ATOM     90  C   UNL A   1      44.202  37.645  32.430  1.00  0.00     0.022 A 
BRANCH  87  91
ATOM     91  S   UNL A   1      44.189  38.946  29.963  1.00  0.00     0.124 S 
ATOM     92  O   UNL A   1      43.501  38.512  28.751  1.00  0.00    -0.237 OA
ATOM     93  O   UNL A   1      43.551  40.027  30.707  1.00  0.00    -0.237 OA
ATOM     94  O   UNL A   1      45.643  39.050  29.847  1.00  0.00    -0.744 OA
ENDBRANCH  87  91
ENDBRANCH  61  84
ENDBRANCH  35  36
ENDBRANCH  27  30
ENDBRANCH  25  26
ENDBRANCH  24  25
ENDBRANCH  23  24
ENDBRANCH   1  23
TORSDOF 20
ENDMDL
