MODEL 1
REMARK VINA RESULT:     -11.1      0.000      0.000
REMARK SMILES CC(C)([NH2+]C[C@@H]1COc2ccccc21)C(=O)NCCCCCCNC(=O)c1ccc(-c2c3nc(c(-c4cc(S(=O)(=O)[O-])ccc4F)c4ccc([nH]4)c(-c4cc(S(=O)(=O)[O-])ccc4F)c4nc(c(-c5cc(S(=O)(=O)[O-])ccc5F)c5ccc2[nH]5)C=C4)C=C3)cc1
REMARK SMILES IDX 20 1 19 2 18 3 17 4 15 5 16 6 2 8 1 9 3 10 4 11 5 14 6 15
REMARK SMILES IDX 7 16 14 17 8 18 9 19 13 20 10 21 12 22 11 23 21 24 22 25
REMARK SMILES IDX 23 26 24 27 25 28 26 30 27 31 28 32 89 33 29 34 88 35 30 36
REMARK SMILES IDX 31 37 32 38 82 39 33 40 87 41 81 42 83 43 34 44 86 45 80 46
REMARK SMILES IDX 79 47 35 49 67 50 47 51 66 52 48 53 51 54 65 55 84 56 49 57
REMARK SMILES IDX 50 58 64 60 85 61 52 62 36 63 37 64 45 65 38 66 44 67 46 68
REMARK SMILES IDX 43 69 39 70 40 71 41 72 42 73 68 74 69 75 77 76 70 77 76 78
REMARK SMILES IDX 78 79 75 80 71 81 72 82 73 83 74 84 53 85 54 86 62 87 55 88
REMARK SMILES IDX 61 89 63 90 60 91 56 92 57 93 58 94 59 95
REMARK H PARENT 17 7 4 12 4 13 24 29 83 48 51 59
REMARK Flexibility Score: inf
ROOT
ATOM      1  C   UNL A   1      33.269  29.464  26.334  1.00  0.00     0.002 C 
ENDROOT
BRANCH   1   2
ATOM      2  C   UNL A   1      33.466  28.020  26.797  1.00  0.00     0.021 C 
BRANCH   2   3
ATOM      3  C   UNL A   1      32.667  27.006  25.976  1.00  0.00     0.116 C 
BRANCH   3   4
ATOM      4  N   UNL A   1      33.176  25.670  26.114  1.00  0.00    -0.351 N 
ATOM      5  C   UNL A   1      32.595  24.446  26.064  1.00  0.00     0.280 C 
ATOM      6  O   UNL A   1      33.420  23.521  26.155  1.00  0.00    -0.268 OA
ATOM      7  H   UNL A   1      34.146  25.636  26.279  1.00  0.00     0.163 HD
BRANCH   5   8
ATOM      8  C   UNL A   1      31.077  24.134  25.777  1.00  0.00     0.169 C 
ATOM      9  C   UNL A   1      30.373  25.528  25.924  1.00  0.00     0.090 C 
ATOM     10  C   UNL A   1      30.467  23.250  26.864  1.00  0.00     0.090 C 
BRANCH   8  11
ATOM     11  N   UNL A   1      30.704  23.754  24.393  1.00  0.00    -0.333 N 
ATOM     12  H   UNL A   1      29.862  23.189  24.501  1.00  0.00     0.347 HD
ATOM     13  H   UNL A   1      31.611  23.401  24.085  1.00  0.00     0.347 HD
BRANCH  11  14
ATOM     14  C   UNL A   1      30.417  24.626  23.260  1.00  0.00     0.273 C 
BRANCH  14  15
ATOM     15  C   UNL A   1      31.476  25.094  22.222  1.00  0.00     0.116 C 
ATOM     16  C   UNL A   1      32.867  24.434  22.186  1.00  0.00     0.244 C 
ATOM     17  C   UNL A   1      31.912  26.511  22.456  1.00  0.00     0.006 A 
ATOM     18  O   UNL A   1      33.917  25.425  22.106  1.00  0.00    -0.492 OA
ATOM     19  C   UNL A   1      33.292  26.604  22.385  1.00  0.00     0.123 A 
ATOM     20  C   UNL A   1      31.152  27.653  22.656  1.00  0.00     0.008 A 
ATOM     21  C   UNL A   1      33.965  27.801  22.542  1.00  0.00     0.047 A 
ATOM     22  C   UNL A   1      31.810  28.880  22.804  1.00  0.00     0.001 A 
ATOM     23  C   UNL A   1      33.210  28.953  22.756  1.00  0.00     0.004 A 
ENDBRANCH  14  15
ENDBRANCH  11  14
ENDBRANCH   8  11
ENDBRANCH   5   8
ENDBRANCH   3   4
ENDBRANCH   2   3
ENDBRANCH   1   2
BRANCH   1  24
ATOM     24  C   UNL A   1      31.818  29.959  26.387  1.00  0.00     0.002 C 
BRANCH  24  25
ATOM     25  C   UNL A   1      31.639  31.451  26.688  1.00  0.00     0.021 C 
BRANCH  25  26
ATOM     26  C   UNL A   1      32.879  32.144  27.247  1.00  0.00     0.116 C 
BRANCH  26  27
ATOM     27  N   UNL A   1      32.629  33.551  27.530  1.00  0.00    -0.352 N 
ATOM     28  C   UNL A   1      33.138  34.354  28.520  1.00  0.00     0.251 C 
ATOM     29  H   UNL A   1      31.999  33.993  26.917  1.00  0.00     0.163 HD
ATOM     30  O   UNL A   1      32.616  35.438  28.753  1.00  0.00    -0.269 OA
BRANCH  28  31
ATOM     31  C   UNL A   1      34.305  33.902  29.306  1.00  0.00     0.039 A 
ATOM     32  C   UNL A   1      34.106  33.032  30.380  1.00  0.00     0.014 A 
ATOM     33  C   UNL A   1      35.591  34.351  28.991  1.00  0.00     0.014 A 
ATOM     34  C   UNL A   1      35.206  32.552  31.093  1.00  0.00     0.010 A 
ATOM     35  C   UNL A   1      36.691  33.820  29.659  1.00  0.00     0.010 A 
ATOM     36  C   UNL A   1      36.510  32.909  30.710  1.00  0.00    -0.014 A 
BRANCH  36  37
ATOM     37  C   UNL A   1      37.700  32.317  31.374  1.00  0.00     0.031 A 
ATOM     38  C   UNL A   1      38.428  31.167  30.739  1.00  0.00     0.074 A 
ATOM     39  C   UNL A   1      38.070  32.770  32.590  1.00  0.00     0.049 A 
ATOM     40  N   UNL A   1      39.415  30.451  31.211  1.00  0.00    -0.248 NA
ATOM     41  C   UNL A   1      37.967  30.752  29.406  1.00  0.00     0.031 C 
ATOM     42  C   UNL A   1      37.419  33.863  33.316  1.00  0.00     0.029 A 
ATOM     43  N   UNL A   1      39.071  32.363  33.435  1.00  0.00    -0.354 N 
ATOM     44  C   UNL A   1      39.689  29.493  30.239  1.00  0.00     0.074 A 
ATOM     45  C   UNL A   1      38.723  29.688  29.179  1.00  0.00     0.031 C 
ATOM     46  C   UNL A   1      38.049  34.051  34.486  1.00  0.00     0.029 A 
ATOM     47  C   UNL A   1      39.110  33.058  34.621  1.00  0.00     0.049 A 
ATOM     48  H   UNL A   1      39.702  31.640  33.212  1.00  0.00     0.167 HD
ATOM     49  C   UNL A   1      40.667  28.554  30.230  1.00  0.00     0.034 A 
ATOM     50  C   UNL A   1      39.895  32.899  35.706  1.00  0.00     0.034 A 
ATOM     51  C   UNL A   1      41.620  28.379  31.299  1.00  0.00     0.049 A 
ATOM     52  C   UNL A   1      40.937  31.810  35.694  1.00  0.00     0.074 A 
ATOM     53  C   UNL A   1      42.684  27.497  31.368  1.00  0.00     0.029 A 
ATOM     54  N   UNL A   1      41.618  29.089  32.494  1.00  0.00    -0.354 N 
ATOM     55  N   UNL A   1      41.216  30.945  34.746  1.00  0.00    -0.248 NA
ATOM     56  C   UNL A   1      41.772  31.676  36.894  1.00  0.00     0.031 C 
ATOM     57  C   UNL A   1      43.273  27.616  32.631  1.00  0.00     0.029 A 
ATOM     58  C   UNL A   1      42.633  28.633  33.321  1.00  0.00     0.049 A 
ATOM     59  H   UNL A   1      40.987  29.811  32.719  1.00  0.00     0.167 HD
ATOM     60  C   UNL A   1      42.277  30.183  35.228  1.00  0.00     0.074 A 
ATOM     61  C   UNL A   1      42.596  30.702  36.541  1.00  0.00     0.031 C 
ATOM     62  C   UNL A   1      42.930  29.150  34.637  1.00  0.00     0.034 A 
BRANCH  49  63
ATOM     63  C   UNL A   1      40.730  27.625  29.040  1.00  0.00     0.023 A 
ATOM     64  C   UNL A   1      41.668  27.804  28.010  1.00  0.00     0.031 A 
ATOM     65  C   UNL A   1      39.827  26.551  28.927  1.00  0.00     0.131 A 
ATOM     66  C   UNL A   1      41.636  26.973  26.879  1.00  0.00     0.055 A 
ATOM     67  C   UNL A   1      39.856  25.676  27.839  1.00  0.00     0.041 A 
ATOM     68  F   UNL A   1      38.893  26.340  29.868  1.00  0.00    -0.206 F 
ATOM     69  C   UNL A   1      40.755  25.894  26.800  1.00  0.00     0.022 A 
BRANCH  66  70
ATOM     70  S   UNL A   1      42.665  27.414  25.452  1.00  0.00     0.124 S 
ATOM     71  O   UNL A   1      42.553  26.214  24.626  1.00  0.00    -0.237 OA
ATOM     72  O   UNL A   1      42.000  28.607  24.941  1.00  0.00    -0.237 OA
ATOM     73  O   UNL A   1      43.985  27.638  26.037  1.00  0.00    -0.744 OA
ENDBRANCH  66  70
ENDBRANCH  49  63
BRANCH  50  74
ATOM     74  C   UNL A   1      39.712  33.768  36.905  1.00  0.00     0.023 A 
ATOM     75  C   UNL A   1      40.581  34.841  37.158  1.00  0.00     0.031 A 
ATOM     76  C   UNL A   1      38.690  33.514  37.837  1.00  0.00     0.131 A 
ATOM     77  C   UNL A   1      40.442  35.589  38.338  1.00  0.00     0.055 A 
ATOM     78  C   UNL A   1      38.520  34.297  38.979  1.00  0.00     0.041 A 
ATOM     79  F   UNL A   1      37.830  32.500  37.643  1.00  0.00    -0.206 F 
ATOM     80  C   UNL A   1      39.409  35.335  39.242  1.00  0.00     0.022 A 
BRANCH  77  81
ATOM     81  S   UNL A   1      41.696  36.843  38.721  1.00  0.00     0.124 S 
ATOM     82  O   UNL A   1      42.283  37.085  37.408  1.00  0.00    -0.237 OA
ATOM     83  O   UNL A   1      40.884  37.924  39.272  1.00  0.00    -0.237 OA
ATOM     84  O   UNL A   1      42.568  36.170  39.681  1.00  0.00    -0.744 OA
ENDBRANCH  77  81
ENDBRANCH  50  74
BRANCH  62  85
ATOM     85  C   UNL A   1      44.082  28.538  35.398  1.00  0.00     0.023 A 
ATOM     86  C   UNL A   1      43.892  27.477  36.299  1.00  0.00     0.031 A 
ATOM     87  C   UNL A   1      45.389  29.024  35.213  1.00  0.00     0.131 A 
ATOM     88  C   UNL A   1      44.985  26.966  37.016  1.00  0.00     0.055 A 
ATOM     89  C   UNL A   1      46.481  28.471  35.882  1.00  0.00     0.041 A 
ATOM     90  F   UNL A   1      45.628  30.040  34.368  1.00  0.00    -0.206 F 
ATOM     91  C   UNL A   1      46.280  27.443  36.799  1.00  0.00     0.022 A 
BRANCH  88  92
ATOM     92  S   UNL A   1      44.680  25.720  38.299  1.00  0.00     0.124 S 
ATOM     93  O   UNL A   1      43.711  24.845  37.646  1.00  0.00    -0.237 OA
ATOM     94  O   UNL A   1      46.008  25.155  38.509  1.00  0.00    -0.237 OA
ATOM     95  O   UNL A   1      44.155  26.501  39.417  1.00  0.00    -0.744 OA
ENDBRANCH  88  92
ENDBRANCH  62  85
ENDBRANCH  36  37
ENDBRANCH  28  31
ENDBRANCH  26  27
ENDBRANCH  25  26
ENDBRANCH  24  25
ENDBRANCH   1  24
TORSDOF 19
ENDMDL
MODEL 2
REMARK VINA RESULT:     -11.0      2.254      3.199
REMARK SMILES CC(C)([NH2+]C[C@@H]1COc2ccccc21)C(=O)NCCCCCCNC(=O)c1ccc(-c2c3nc(c(-c4cc(S(=O)(=O)[O-])ccc4F)c4ccc([nH]4)c(-c4cc(S(=O)(=O)[O-])ccc4F)c4nc(c(-c5cc(S(=O)(=O)[O-])ccc5F)c5ccc2[nH]5)C=C4)C=C3)cc1
REMARK SMILES IDX 20 1 19 2 18 3 17 4 15 5 16 6 2 8 1 9 3 10 4 11 5 14 6 15
REMARK SMILES IDX 7 16 14 17 8 18 9 19 13 20 10 21 12 22 11 23 21 24 22 25
REMARK SMILES IDX 23 26 24 27 25 28 26 30 27 31 28 32 89 33 29 34 88 35 30 36
REMARK SMILES IDX 31 37 32 38 82 39 33 40 87 41 81 42 83 43 34 44 86 45 80 46
REMARK SMILES IDX 79 47 35 49 67 50 47 51 66 52 48 53 51 54 65 55 84 56 49 57
REMARK SMILES IDX 50 58 64 60 85 61 52 62 36 63 37 64 45 65 38 66 44 67 46 68
REMARK SMILES IDX 43 69 39 70 40 71 41 72 42 73 68 74 69 75 77 76 70 77 76 78
REMARK SMILES IDX 78 79 75 80 71 81 72 82 73 83 74 84 53 85 54 86 62 87 55 88
REMARK SMILES IDX 61 89 63 90 60 91 56 92 57 93 58 94 59 95
REMARK H PARENT 17 7 4 12 4 13 24 29 83 48 51 59
REMARK Flexibility Score: inf
ROOT
ATOM      1  C   UNL A   1      33.221  28.998  27.029  1.00  0.00     0.002 C 
ENDROOT
BRANCH   1   2
ATOM      2  C   UNL A   1      34.023  28.091  26.097  1.00  0.00     0.021 C 
BRANCH   2   3
ATOM      3  C   UNL A   1      33.324  26.764  25.794  1.00  0.00     0.116 C 
BRANCH   3   4
ATOM      4  N   UNL A   1      33.845  26.130  24.615  1.00  0.00    -0.351 N 
ATOM      5  C   UNL A   1      33.322  25.250  23.726  1.00  0.00     0.280 C 
ATOM      6  O   UNL A   1      34.094  25.006  22.783  1.00  0.00    -0.268 OA
ATOM      7  H   UNL A   1      34.774  26.385  24.411  1.00  0.00     0.163 HD
BRANCH   5   8
ATOM      8  C   UNL A   1      31.857  24.668  23.726  1.00  0.00     0.169 C 
ATOM      9  C   UNL A   1      31.015  25.773  22.998  1.00  0.00     0.090 C 
ATOM     10  C   UNL A   1      31.285  24.583  25.141  1.00  0.00     0.090 C 
BRANCH   8  11
ATOM     11  N   UNL A   1      31.590  23.480  22.881  1.00  0.00    -0.333 N 
ATOM     12  H   UNL A   1      31.685  23.821  21.923  1.00  0.00     0.347 HD
ATOM     13  H   UNL A   1      30.714  23.184  23.312  1.00  0.00     0.347 HD
BRANCH  11  14
ATOM     14  C   UNL A   1      32.277  22.194  22.882  1.00  0.00     0.273 C 
BRANCH  14  15
ATOM     15  C   UNL A   1      32.440  21.287  24.133  1.00  0.00     0.116 C 
ATOM     16  C   UNL A   1      33.576  21.554  25.138  1.00  0.00     0.244 C 
ATOM     17  C   UNL A   1      32.797  19.876  23.768  1.00  0.00     0.006 A 
ATOM     18  O   UNL A   1      34.267  20.333  25.487  1.00  0.00    -0.492 OA
ATOM     19  C   UNL A   1      33.836  19.424  24.566  1.00  0.00     0.123 A 
ATOM     20  C   UNL A   1      32.214  19.022  22.844  1.00  0.00     0.008 A 
ATOM     21  C   UNL A   1      34.353  18.148  24.459  1.00  0.00     0.047 A 
ATOM     22  C   UNL A   1      32.713  17.720  22.727  1.00  0.00     0.001 A 
ATOM     23  C   UNL A   1      33.782  17.286  23.525  1.00  0.00     0.004 A 
ENDBRANCH  14  15
ENDBRANCH  11  14
ENDBRANCH   8  11
ENDBRANCH   5   8
ENDBRANCH   3   4
ENDBRANCH   2   3
ENDBRANCH   1   2
BRANCH   1  24
ATOM     24  C   UNL A   1      31.972  29.623  26.394  1.00  0.00     0.002 C 
BRANCH  24  25
ATOM     25  C   UNL A   1      31.817  31.136  26.589  1.00  0.00     0.021 C 
BRANCH  25  26
ATOM     26  C   UNL A   1      32.970  31.806  27.334  1.00  0.00     0.116 C 
BRANCH  26  27
ATOM     27  N   UNL A   1      32.738  33.232  27.515  1.00  0.00    -0.352 N 
ATOM     28  C   UNL A   1      33.270  34.101  28.435  1.00  0.00     0.251 C 
ATOM     29  H   UNL A   1      32.102  33.635  26.880  1.00  0.00     0.163 HD
ATOM     30  O   UNL A   1      32.761  35.205  28.595  1.00  0.00    -0.269 OA
BRANCH  28  31
ATOM     31  C   UNL A   1      34.444  33.697  29.236  1.00  0.00     0.039 A 
ATOM     32  C   UNL A   1      34.269  32.808  30.299  1.00  0.00     0.014 A 
ATOM     33  C   UNL A   1      35.713  34.206  28.944  1.00  0.00     0.014 A 
ATOM     34  C   UNL A   1      35.380  32.373  31.025  1.00  0.00     0.010 A 
ATOM     35  C   UNL A   1      36.826  33.720  29.625  1.00  0.00     0.010 A 
ATOM     36  C   UNL A   1      36.671  32.793  30.665  1.00  0.00    -0.014 A 
BRANCH  36  37
ATOM     37  C   UNL A   1      37.877  32.251  31.343  1.00  0.00     0.031 A 
ATOM     38  C   UNL A   1      38.669  31.143  30.708  1.00  0.00     0.074 A 
ATOM     39  C   UNL A   1      38.205  32.707  32.569  1.00  0.00     0.049 A 
ATOM     40  N   UNL A   1      39.681  30.469  31.189  1.00  0.00    -0.248 NA
ATOM     41  C   UNL A   1      38.249  30.722  29.363  1.00  0.00     0.031 C 
ATOM     42  C   UNL A   1      37.492  33.760  33.296  1.00  0.00     0.029 A 
ATOM     43  N   UNL A   1      39.211  32.338  33.426  1.00  0.00    -0.354 N 
ATOM     44  C   UNL A   1      40.015  29.537  30.212  1.00  0.00     0.074 A 
ATOM     45  C   UNL A   1      39.059  29.698  29.137  1.00  0.00     0.031 C 
ATOM     46  C   UNL A   1      38.094  33.965  34.478  1.00  0.00     0.029 A 
ATOM     47  C   UNL A   1      39.198  33.021  34.620  1.00  0.00     0.049 A 
ATOM     48  H   UNL A   1      39.879  31.649  33.207  1.00  0.00     0.167 HD
ATOM     49  C   UNL A   1      41.037  28.645  30.209  1.00  0.00     0.034 A 
ATOM     50  C   UNL A   1      39.972  32.888  35.717  1.00  0.00     0.034 A 
ATOM     51  C   UNL A   1      41.980  28.503  31.292  1.00  0.00     0.049 A 
ATOM     52  C   UNL A   1      41.065  31.849  35.710  1.00  0.00     0.074 A 
ATOM     53  C   UNL A   1      43.083  27.672  31.369  1.00  0.00     0.029 A 
ATOM     54  N   UNL A   1      41.925  29.199  32.493  1.00  0.00    -0.354 N 
ATOM     55  N   UNL A   1      41.399  31.008  34.758  1.00  0.00    -0.248 NA
ATOM     56  C   UNL A   1      41.885  31.742  36.923  1.00  0.00     0.031 C 
ATOM     57  C   UNL A   1      43.646  27.804  32.643  1.00  0.00     0.029 A 
ATOM     58  C   UNL A   1      42.947  28.782  33.333  1.00  0.00     0.049 A 
ATOM     59  H   UNL A   1      41.257  29.888  32.716  1.00  0.00     0.167 HD
ATOM     60  C   UNL A   1      42.487  30.292  35.249  1.00  0.00     0.074 A 
ATOM     61  C   UNL A   1      42.761  30.811  36.574  1.00  0.00     0.031 C 
ATOM     62  C   UNL A   1      43.198  29.298  34.659  1.00  0.00     0.034 A 
BRANCH  49  63
ATOM     63  C   UNL A   1      41.162  27.733  29.011  1.00  0.00     0.023 A 
ATOM     64  C   UNL A   1      42.167  27.914  28.045  1.00  0.00     0.031 A 
ATOM     65  C   UNL A   1      40.254  26.675  28.823  1.00  0.00     0.131 A 
ATOM     66  C   UNL A   1      42.197  27.100  26.902  1.00  0.00     0.055 A 
ATOM     67  C   UNL A   1      40.340  25.816  27.725  1.00  0.00     0.041 A 
ATOM     68  F   UNL A   1      39.258  26.464  29.698  1.00  0.00    -0.206 F 
ATOM     69  C   UNL A   1      41.307  26.036  26.749  1.00  0.00     0.022 A 
BRANCH  66  70
ATOM     70  S   UNL A   1      43.321  27.547  25.551  1.00  0.00     0.124 S 
ATOM     71  O   UNL A   1      42.382  27.964  24.512  1.00  0.00    -0.237 OA
ATOM     72  O   UNL A   1      44.126  28.607  26.148  1.00  0.00    -0.237 OA
ATOM     73  O   UNL A   1      44.035  26.303  25.274  1.00  0.00    -0.744 OA
ENDBRANCH  66  70
ENDBRANCH  49  63
BRANCH  50  74
ATOM     74  C   UNL A   1      39.729  33.733  36.921  1.00  0.00     0.023 A 
ATOM     75  C   UNL A   1      39.079  33.211  38.050  1.00  0.00     0.031 A 
ATOM     76  C   UNL A   1      40.106  35.088  36.945  1.00  0.00     0.131 A 
ATOM     77  C   UNL A   1      38.784  34.051  39.136  1.00  0.00     0.055 A 
ATOM     78  C   UNL A   1      39.862  35.904  38.051  1.00  0.00     0.041 A 
ATOM     79  F   UNL A   1      40.731  35.638  35.891  1.00  0.00    -0.206 F 
ATOM     80  C   UNL A   1      39.184  35.389  39.152  1.00  0.00     0.022 A 
BRANCH  77  81
ATOM     81  S   UNL A   1      37.779  33.389  40.494  1.00  0.00     0.124 S 
ATOM     82  O   UNL A   1      36.608  32.893  39.780  1.00  0.00    -0.237 OA
ATOM     83  O   UNL A   1      38.663  32.376  41.060  1.00  0.00    -0.237 OA
ATOM     84  O   UNL A   1      37.545  34.555  41.344  1.00  0.00    -0.744 OA
ENDBRANCH  77  81
ENDBRANCH  50  74
BRANCH  62  85
ATOM     85  C   UNL A   1      44.365  28.733  35.433  1.00  0.00     0.023 A 
ATOM     86  C   UNL A   1      44.201  27.697  36.367  1.00  0.00     0.031 A 
ATOM     87  C   UNL A   1      45.661  29.238  35.225  1.00  0.00     0.131 A 
ATOM     88  C   UNL A   1      45.306  27.230  37.094  1.00  0.00     0.055 A 
ATOM     89  C   UNL A   1      46.767  28.727  35.906  1.00  0.00     0.041 A 
ATOM     90  F   UNL A   1      45.877  30.231  34.348  1.00  0.00    -0.206 F 
ATOM     91  C   UNL A   1      46.591  27.725  36.855  1.00  0.00     0.022 A 
BRANCH  88  92
ATOM     92  S   UNL A   1      45.032  26.020  38.417  1.00  0.00     0.124 S 
ATOM     93  O   UNL A   1      46.217  26.207  39.249  1.00  0.00    -0.237 OA
ATOM     94  O   UNL A   1      43.770  26.467  38.995  1.00  0.00    -0.237 OA
ATOM     95  O   UNL A   1      44.970  24.744  37.706  1.00  0.00    -0.744 OA
ENDBRANCH  88  92
ENDBRANCH  62  85
ENDBRANCH  36  37
ENDBRANCH  28  31
ENDBRANCH  26  27
ENDBRANCH  25  26
ENDBRANCH  24  25
ENDBRANCH   1  24
TORSDOF 19
ENDMDL
MODEL 3
REMARK VINA RESULT:     -10.8      3.291      4.599
REMARK SMILES CC(C)([NH2+]C[C@@H]1COc2ccccc21)C(=O)NCCCCCCNC(=O)c1ccc(-c2c3nc(c(-c4cc(S(=O)(=O)[O-])ccc4F)c4ccc([nH]4)c(-c4cc(S(=O)(=O)[O-])ccc4F)c4nc(c(-c5cc(S(=O)(=O)[O-])ccc5F)c5ccc2[nH]5)C=C4)C=C3)cc1
REMARK SMILES IDX 20 1 19 2 18 3 17 4 15 5 16 6 2 8 1 9 3 10 4 11 5 14 6 15
REMARK SMILES IDX 7 16 14 17 8 18 9 19 13 20 10 21 12 22 11 23 21 24 22 25
REMARK SMILES IDX 23 26 24 27 25 28 26 30 27 31 28 32 89 33 29 34 88 35 30 36
REMARK SMILES IDX 31 37 32 38 82 39 33 40 87 41 81 42 83 43 34 44 86 45 80 46
REMARK SMILES IDX 79 47 35 49 67 50 47 51 66 52 48 53 51 54 65 55 84 56 49 57
REMARK SMILES IDX 50 58 64 60 85 61 52 62 36 63 37 64 45 65 38 66 44 67 46 68
REMARK SMILES IDX 43 69 39 70 40 71 41 72 42 73 68 74 69 75 77 76 70 77 76 78
REMARK SMILES IDX 78 79 75 80 71 81 72 82 73 83 74 84 53 85 54 86 62 87 55 88
REMARK SMILES IDX 61 89 63 90 60 91 56 92 57 93 58 94 59 95
REMARK H PARENT 17 7 4 12 4 13 24 29 83 48 51 59
REMARK Flexibility Score: inf
ROOT
ATOM      1  C   UNL A   1      31.230  26.325  26.323  1.00  0.00     0.002 C 
ENDROOT
BRANCH   1   2
ATOM      2  C   UNL A   1      31.864  24.950  26.113  1.00  0.00     0.021 C 
BRANCH   2   3
ATOM      3  C   UNL A   1      33.370  25.011  25.851  1.00  0.00     0.116 C 
BRANCH   3   4
ATOM      4  N   UNL A   1      33.688  24.867  24.458  1.00  0.00    -0.351 N 
ATOM      5  C   UNL A   1      34.618  24.142  23.789  1.00  0.00     0.280 C 
ATOM      6  O   UNL A   1      34.503  24.239  22.555  1.00  0.00    -0.268 OA
ATOM      7  H   UNL A   1      33.114  25.406  23.867  1.00  0.00     0.163 HD
BRANCH   5   8
ATOM      8  C   UNL A   1      35.665  23.144  24.415  1.00  0.00     0.169 C 
ATOM      9  C   UNL A   1      36.441  24.021  25.459  1.00  0.00     0.090 C 
ATOM     10  C   UNL A   1      36.710  22.707  23.389  1.00  0.00     0.090 C 
BRANCH   8  11
ATOM     11  N   UNL A   1      35.145  22.050  25.270  1.00  0.00    -0.333 N 
ATOM     12  H   UNL A   1      34.153  22.262  25.381  1.00  0.00     0.347 HD
ATOM     13  H   UNL A   1      35.841  22.098  26.014  1.00  0.00     0.347 HD
BRANCH  11  14
ATOM     14  C   UNL A   1      35.188  20.613  25.027  1.00  0.00     0.273 C 
BRANCH  14  15
ATOM     15  C   UNL A   1      34.033  19.796  24.384  1.00  0.00     0.116 C 
ATOM     16  C   UNL A   1      32.578  20.031  24.832  1.00  0.00     0.244 C 
ATOM     17  C   UNL A   1      34.126  18.333  24.704  1.00  0.00     0.006 A 
ATOM     18  O   UNL A   1      31.893  18.781  25.073  1.00  0.00    -0.492 OA
ATOM     19  C   UNL A   1      32.888  17.848  25.092  1.00  0.00     0.123 A 
ATOM     20  C   UNL A   1      35.205  17.468  24.603  1.00  0.00     0.008 A 
ATOM     21  C   UNL A   1      32.680  16.523  25.424  1.00  0.00     0.047 A 
ATOM     22  C   UNL A   1      35.016  16.119  24.922  1.00  0.00     0.001 A 
ATOM     23  C   UNL A   1      33.761  15.649  25.338  1.00  0.00     0.004 A 
ENDBRANCH  14  15
ENDBRANCH  11  14
ENDBRANCH   8  11
ENDBRANCH   5   8
ENDBRANCH   3   4
ENDBRANCH   2   3
ENDBRANCH   1   2
BRANCH   1  24
ATOM     24  C   UNL A   1      31.894  27.462  25.535  1.00  0.00     0.002 C 
BRANCH  24  25
ATOM     25  C   UNL A   1      31.753  28.860  26.146  1.00  0.00     0.021 C 
BRANCH  25  26
ATOM     26  C   UNL A   1      32.923  29.801  25.870  1.00  0.00     0.116 C 
BRANCH  26  27
ATOM     27  N   UNL A   1      32.619  31.170  26.263  1.00  0.00    -0.352 N 
ATOM     28  C   UNL A   1      33.203  31.962  27.220  1.00  0.00     0.251 C 
ATOM     29  H   UNL A   1      31.881  31.591  25.767  1.00  0.00     0.163 HD
ATOM     30  O   UNL A   1      32.645  32.992  27.582  1.00  0.00    -0.269 OA
BRANCH  28  31
ATOM     31  C   UNL A   1      34.495  31.564  27.816  1.00  0.00     0.039 A 
ATOM     32  C   UNL A   1      35.507  32.519  27.946  1.00  0.00     0.014 A 
ATOM     33  C   UNL A   1      34.711  30.247  28.230  1.00  0.00     0.014 A 
ATOM     34  C   UNL A   1      36.710  32.170  28.562  1.00  0.00     0.010 A 
ATOM     35  C   UNL A   1      35.885  29.918  28.903  1.00  0.00     0.010 A 
ATOM     36  C   UNL A   1      36.892  30.878  29.083  1.00  0.00    -0.014 A 
BRANCH  36  37
ATOM     37  C   UNL A   1      38.114  30.518  29.847  1.00  0.00     0.031 A 
ATOM     38  C   UNL A   1      39.086  29.515  29.293  1.00  0.00     0.074 A 
ATOM     39  C   UNL A   1      38.299  31.038  31.078  1.00  0.00     0.049 A 
ATOM     40  N   UNL A   1      40.146  28.994  29.853  1.00  0.00    -0.248 NA
ATOM     41  C   UNL A   1      38.813  29.015  27.938  1.00  0.00     0.031 C 
ATOM     42  C   UNL A   1      37.405  31.999  31.730  1.00  0.00     0.029 A 
ATOM     43  N   UNL A   1      39.288  30.826  32.004  1.00  0.00    -0.354 N 
ATOM     44  C   UNL A   1      40.664  28.097  28.925  1.00  0.00     0.074 A 
ATOM     45  C   UNL A   1      39.766  28.106  27.790  1.00  0.00     0.031 C 
ATOM     46  C   UNL A   1      37.898  32.306  32.940  1.00  0.00     0.029 A 
ATOM     47  C   UNL A   1      39.107  31.524  33.176  1.00  0.00     0.049 A 
ATOM     48  H   UNL A   1      40.055  30.229  31.845  1.00  0.00     0.167 HD
ATOM     49  C   UNL A   1      41.794  27.351  29.009  1.00  0.00     0.034 A 
ATOM     50  C   UNL A   1      39.820  31.518  34.320  1.00  0.00     0.034 A 
ATOM     51  C   UNL A   1      42.677  27.360  30.151  1.00  0.00     0.049 A 
ATOM     52  C   UNL A   1      41.041  30.637  34.410  1.00  0.00     0.074 A 
ATOM     53  C   UNL A   1      43.874  26.687  30.318  1.00  0.00     0.029 A 
ATOM     54  N   UNL A   1      42.452  28.066  31.327  1.00  0.00    -0.354 N 
ATOM     55  N   UNL A   1      41.545  29.831  33.504  1.00  0.00    -0.248 NA
ATOM     56  C   UNL A   1      41.788  30.665  35.673  1.00  0.00     0.031 C 
ATOM     57  C   UNL A   1      44.331  26.920  31.620  1.00  0.00     0.029 A 
ATOM     58  C   UNL A   1      43.465  27.807  32.239  1.00  0.00     0.049 A 
ATOM     59  H   UNL A   1      41.685  28.662  31.489  1.00  0.00     0.167 HD
ATOM     60  C   UNL A   1      42.685  29.278  34.080  1.00  0.00     0.074 A 
ATOM     61  C   UNL A   1      42.801  29.856  35.403  1.00  0.00     0.031 C 
ATOM     62  C   UNL A   1      43.560  28.378  33.562  1.00  0.00     0.034 A 
BRANCH  49  63
ATOM     63  C   UNL A   1      42.118  26.442  27.847  1.00  0.00     0.023 A 
ATOM     64  C   UNL A   1      41.667  25.112  27.800  1.00  0.00     0.031 A 
ATOM     65  C   UNL A   1      42.902  26.908  26.775  1.00  0.00     0.131 A 
ATOM     66  C   UNL A   1      42.062  24.274  26.745  1.00  0.00     0.055 A 
ATOM     67  C   UNL A   1      43.221  26.093  25.687  1.00  0.00     0.041 A 
ATOM     68  F   UNL A   1      43.381  28.162  26.772  1.00  0.00    -0.206 F 
ATOM     69  C   UNL A   1      42.814  24.763  25.675  1.00  0.00     0.022 A 
BRANCH  66  70
ATOM     70  S   UNL A   1      41.703  22.501  26.869  1.00  0.00     0.124 S 
ATOM     71  O   UNL A   1      40.284  22.511  27.218  1.00  0.00    -0.237 OA
ATOM     72  O   UNL A   1      42.029  22.019  25.532  1.00  0.00    -0.237 OA
ATOM     73  O   UNL A   1      42.596  22.043  27.931  1.00  0.00    -0.744 OA
ENDBRANCH  66  70
ENDBRANCH  49  63
BRANCH  50  74
ATOM     74  C   UNL A   1      39.389  32.346  35.484  1.00  0.00     0.023 A 
ATOM     75  C   UNL A   1      39.798  33.683  35.608  1.00  0.00     0.031 A 
ATOM     76  C   UNL A   1      38.595  31.801  36.509  1.00  0.00     0.131 A 
ATOM     77  C   UNL A   1      39.452  34.415  36.756  1.00  0.00     0.055 A 
ATOM     78  C   UNL A   1      38.206  32.551  37.619  1.00  0.00     0.041 A 
ATOM     79  F   UNL A   1      38.176  30.527  36.439  1.00  0.00    -0.206 F 
ATOM     80  C   UNL A   1      38.647  33.864  37.754  1.00  0.00     0.022 A 
BRANCH  77  81
ATOM     81  S   UNL A   1      40.155  36.074  36.969  1.00  0.00     0.124 S 
ATOM     82  O   UNL A   1      41.562  35.770  37.205  1.00  0.00    -0.237 OA
ATOM     83  O   UNL A   1      39.840  36.703  35.692  1.00  0.00    -0.237 OA
ATOM     84  O   UNL A   1      39.429  36.606  38.121  1.00  0.00    -0.744 OA
ENDBRANCH  77  81
ENDBRANCH  50  74
BRANCH  62  85
ATOM     85  C   UNL A   1      44.739  27.992  34.421  1.00  0.00     0.023 A 
ATOM     86  C   UNL A   1      45.937  28.727  34.408  1.00  0.00     0.031 A 
ATOM     87  C   UNL A   1      44.659  26.872  35.269  1.00  0.00     0.131 A 
ATOM     88  C   UNL A   1      47.022  28.307  35.192  1.00  0.00     0.055 A 
ATOM     89  C   UNL A   1      45.720  26.496  36.093  1.00  0.00     0.041 A 
ATOM     90  F   UNL A   1      43.541  26.130  35.318  1.00  0.00    -0.206 F 
ATOM     91  C   UNL A   1      46.915  27.209  36.049  1.00  0.00     0.022 A 
BRANCH  88  92
ATOM     92  S   UNL A   1      48.607  29.171  35.019  1.00  0.00     0.124 S 
ATOM     93  O   UNL A   1      48.207  30.410  34.359  1.00  0.00    -0.237 OA
ATOM     94  O   UNL A   1      49.047  29.301  36.404  1.00  0.00    -0.237 OA
ATOM     95  O   UNL A   1      49.405  28.263  34.198  1.00  0.00    -0.744 OA
ENDBRANCH  88  92
ENDBRANCH  62  85
ENDBRANCH  36  37
ENDBRANCH  28  31
ENDBRANCH  26  27
ENDBRANCH  25  26
ENDBRANCH  24  25
ENDBRANCH   1  24
TORSDOF 19
ENDMDL
