MODEL 1
REMARK VINA RESULT:     -11.4      0.000      0.000
REMARK SMILES CN(C(=O)N[C@@](C)(C(=O)NCCCCCCNC(=O)c1ccc(-c2c3nc(c(-c4cc(S(=O)(=O)[O-])ccc4F)c4ccc([nH]4)c(-c4cc(S(=O)(=O)[O-])ccc4F)c4nc(c(-c5cc(S(=O)(=O)[O-])ccc5F)c5ccc2[nH]5)C=C4)C=C3)cc1)C(F)(F)F)c1ccc(F)cc1
REMARK SMILES IDX 13 1 12 2 11 3 10 4 8 5 9 6 6 8 7 9 5 10 3 11 4 12 2 14 1 15
REMARK SMILES IDX 87 16 88 17 93 18 89 19 92 20 90 21 91 22 83 23 84 24 85 25
REMARK SMILES IDX 86 26 14 27 15 28 16 29 17 30 18 31 19 33 20 34 21 35 82 36
REMARK SMILES IDX 22 37 81 38 23 39 24 40 25 41 75 42 26 43 80 44 74 45 76 46
REMARK SMILES IDX 27 47 79 48 73 49 72 50 28 52 60 53 40 54 59 55 41 56 44 57
REMARK SMILES IDX 58 58 77 59 42 60 43 61 57 63 78 64 45 65 29 66 30 67 38 68
REMARK SMILES IDX 31 69 37 70 39 71 36 72 32 73 33 74 34 75 35 76 61 77 62 78
REMARK SMILES IDX 70 79 63 80 69 81 71 82 68 83 64 84 65 85 66 86 67 87 46 88
REMARK SMILES IDX 47 89 55 90 48 91 54 92 56 93 53 94 49 95 50 96 51 97 52 98
REMARK H PARENT 10 7 5 13 17 32 76 51 44 62
REMARK Flexibility Score: inf
ROOT
ATOM      1  C   UNL A   1      31.875  29.537  26.444  1.00  0.00     0.002 C 
ENDROOT
BRANCH   1   2
ATOM      2  C   UNL A   1      31.801  28.132  25.831  1.00  0.00     0.021 C 
BRANCH   2   3
ATOM      3  C   UNL A   1      32.549  27.051  26.610  1.00  0.00     0.116 C 
BRANCH   3   4
ATOM      4  N   UNL A   1      31.669  25.934  26.897  1.00  0.00    -0.354 N 
ATOM      5  C   UNL A   1      31.672  24.613  26.594  1.00  0.00     0.255 C 
ATOM      6  O   UNL A   1      30.605  24.042  26.851  1.00  0.00    -0.272 OA
ATOM      7  H   UNL A   1      30.888  26.197  27.436  1.00  0.00     0.163 HD
BRANCH   5   8
ATOM      8  C   UNL A   1      32.865  23.878  25.934  1.00  0.00     0.213 C 
ATOM      9  C   UNL A   1      34.096  24.792  25.774  1.00  0.00     0.056 C 
BRANCH   8  10
ATOM     10  N   UNL A   1      32.405  23.494  24.545  1.00  0.00    -0.316 N 
ATOM     11  C   UNL A   1      32.289  23.867  23.263  1.00  0.00     0.322 C 
ATOM     12  O   UNL A   1      32.139  22.892  22.513  1.00  0.00    -0.248 OA
ATOM     13  H   UNL A   1      32.031  22.586  24.611  1.00  0.00     0.166 HD
BRANCH  11  14
ATOM     14  N   UNL A   1      32.319  25.150  22.806  1.00  0.00    -0.298 N 
ATOM     15  C   UNL A   1      33.512  25.908  22.487  1.00  0.00     0.155 C 
BRANCH  14  16
ATOM     16  C   UNL A   1      31.143  25.975  22.861  1.00  0.00     0.045 A 
ATOM     17  C   UNL A   1      30.033  25.610  23.638  1.00  0.00     0.029 A 
ATOM     18  C   UNL A   1      31.168  27.245  22.263  1.00  0.00     0.029 A 
ATOM     19  C   UNL A   1      28.994  26.519  23.853  1.00  0.00     0.041 A 
ATOM     20  C   UNL A   1      30.118  28.143  22.458  1.00  0.00     0.041 A 
ATOM     21  C   UNL A   1      29.050  27.778  23.268  1.00  0.00     0.123 A 
ATOM     22  F   UNL A   1      28.069  28.662  23.500  1.00  0.00    -0.207 F 
ENDBRANCH  14  16
ENDBRANCH  11  14
ENDBRANCH   8  10
BRANCH   8  23
ATOM     23  C   UNL A   1      33.247  22.844  27.021  1.00  0.00     0.420 C 
ATOM     24  F   UNL A   1      34.544  22.879  27.388  1.00  0.00    -0.168 F 
ATOM     25  F   UNL A   1      32.503  23.000  28.147  1.00  0.00    -0.168 F 
ATOM     26  F   UNL A   1      32.974  21.573  26.618  1.00  0.00    -0.168 F 
ENDBRANCH   8  23
ENDBRANCH   5   8
ENDBRANCH   3   4
ENDBRANCH   2   3
ENDBRANCH   1   2
BRANCH   1  27
ATOM     27  C   UNL A   1      31.135  30.627  25.665  1.00  0.00     0.002 C 
BRANCH  27  28
ATOM     28  C   UNL A   1      31.098  31.994  26.351  1.00  0.00     0.021 C 
BRANCH  28  29
ATOM     29  C   UNL A   1      32.434  32.449  26.926  1.00  0.00     0.116 C 
BRANCH  29  30
ATOM     30  N   UNL A   1      32.388  33.821  27.402  1.00  0.00    -0.352 N 
ATOM     31  C   UNL A   1      33.158  34.425  28.363  1.00  0.00     0.251 C 
ATOM     32  H   UNL A   1      31.710  34.395  26.976  1.00  0.00     0.163 HD
ATOM     33  O   UNL A   1      32.850  35.538  28.784  1.00  0.00    -0.269 OA
BRANCH  31  34
ATOM     34  C   UNL A   1      34.335  33.715  28.907  1.00  0.00     0.039 A 
ATOM     35  C   UNL A   1      35.607  34.244  28.682  1.00  0.00     0.014 A 
ATOM     36  C   UNL A   1      34.182  32.540  29.650  1.00  0.00     0.014 A 
ATOM     37  C   UNL A   1      36.721  33.627  29.253  1.00  0.00     0.010 A 
ATOM     38  C   UNL A   1      35.283  31.975  30.285  1.00  0.00     0.010 A 
ATOM     39  C   UNL A   1      36.566  32.508  30.089  1.00  0.00    -0.014 A 
BRANCH  39  40
ATOM     40  C   UNL A   1      37.737  31.885  30.761  1.00  0.00     0.031 A 
ATOM     41  C   UNL A   1      38.551  30.842  30.045  1.00  0.00     0.074 A 
ATOM     42  C   UNL A   1      38.032  32.218  32.033  1.00  0.00     0.049 A 
ATOM     43  N   UNL A   1      39.567  30.142  30.480  1.00  0.00    -0.248 NA
ATOM     44  C   UNL A   1      38.146  30.521  28.668  1.00  0.00     0.031 C 
ATOM     45  C   UNL A   1      37.286  33.182  32.846  1.00  0.00     0.029 A 
ATOM     46  N   UNL A   1      39.026  31.779  32.871  1.00  0.00    -0.354 N 
ATOM     47  C   UNL A   1      39.916  29.290  29.437  1.00  0.00     0.074 A 
ATOM     48  C   UNL A   1      38.957  29.516  28.376  1.00  0.00     0.031 C 
ATOM     49  C   UNL A   1      37.863  33.277  34.054  1.00  0.00     0.029 A 
ATOM     50  C   UNL A   1      38.984  32.346  34.125  1.00  0.00     0.049 A 
ATOM     51  H   UNL A   1      39.706  31.120  32.601  1.00  0.00     0.167 HD
ATOM     52  C   UNL A   1      40.954  28.420  29.361  1.00  0.00     0.034 A 
ATOM     53  C   UNL A   1      39.748  32.128  35.213  1.00  0.00     0.034 A 
ATOM     54  C   UNL A   1      41.901  28.213  30.431  1.00  0.00     0.049 A 
ATOM     55  C   UNL A   1      40.881  31.136  35.119  1.00  0.00     0.074 A 
ATOM     56  C   UNL A   1      43.024  27.403  30.443  1.00  0.00     0.029 A 
ATOM     57  N   UNL A   1      41.828  28.805  31.687  1.00  0.00    -0.354 N 
ATOM     58  N   UNL A   1      41.239  30.387  34.102  1.00  0.00    -0.248 NA
ATOM     59  C   UNL A   1      41.716  30.971  36.313  1.00  0.00     0.031 C 
ATOM     60  C   UNL A   1      43.577  27.440  31.727  1.00  0.00     0.029 A 
ATOM     61  C   UNL A   1      42.860  28.346  32.492  1.00  0.00     0.049 A 
ATOM     62  H   UNL A   1      41.143  29.455  31.964  1.00  0.00     0.167 HD
ATOM     63  C   UNL A   1      42.362  29.680  34.527  1.00  0.00     0.074 A 
ATOM     64  C   UNL A   1      42.628  30.109  35.885  1.00  0.00     0.031 C 
ATOM     65  C   UNL A   1      43.107  28.766  33.853  1.00  0.00     0.034 A 
BRANCH  52  66
ATOM     66  C   UNL A   1      41.091  27.608  28.093  1.00  0.00     0.023 A 
ATOM     67  C   UNL A   1      40.741  26.247  28.043  1.00  0.00     0.031 A 
ATOM     68  C   UNL A   1      41.613  28.191  26.925  1.00  0.00     0.131 A 
ATOM     69  C   UNL A   1      41.003  25.496  26.887  1.00  0.00     0.055 A 
ATOM     70  C   UNL A   1      41.783  27.460  25.747  1.00  0.00     0.041 A 
ATOM     71  F   UNL A   1      41.986  29.481  26.912  1.00  0.00    -0.206 F 
ATOM     72  C   UNL A   1      41.496  26.100  25.729  1.00  0.00     0.022 A 
BRANCH  69  73
ATOM     73  S   UNL A   1      40.856  23.690  26.978  1.00  0.00     0.124 S 
ATOM     74  O   UNL A   1      41.766  23.266  25.916  1.00  0.00    -0.237 OA
ATOM     75  O   UNL A   1      41.289  23.407  28.341  1.00  0.00    -0.237 OA
ATOM     76  O   UNL A   1      39.441  23.447  26.708  1.00  0.00    -0.744 OA
ENDBRANCH  69  73
ENDBRANCH  52  66
BRANCH  53  77
ATOM     77  C   UNL A   1      39.456  32.842  36.490  1.00  0.00     0.023 A 
ATOM     78  C   UNL A   1      38.550  32.323  37.428  1.00  0.00     0.031 A 
ATOM     79  C   UNL A   1      40.066  34.078  36.778  1.00  0.00     0.131 A 
ATOM     80  C   UNL A   1      38.249  33.054  38.588  1.00  0.00     0.055 A 
ATOM     81  C   UNL A   1      39.807  34.773  37.960  1.00  0.00     0.041 A 
ATOM     82  F   UNL A   1      40.943  34.618  35.917  1.00  0.00    -0.206 F 
ATOM     83  C   UNL A   1      38.882  34.268  38.867  1.00  0.00     0.022 A 
BRANCH  80  84
ATOM     84  S   UNL A   1      36.949  32.437  39.693  1.00  0.00     0.124 S 
ATOM     85  O   UNL A   1      35.766  32.540  38.846  1.00  0.00    -0.237 OA
ATOM     86  O   UNL A   1      37.416  31.086  39.985  1.00  0.00    -0.237 OA
ATOM     87  O   UNL A   1      36.992  33.366  40.820  1.00  0.00    -0.744 OA
ENDBRANCH  80  84
ENDBRANCH  53  77
BRANCH  65  88
ATOM     88  C   UNL A   1      44.310  28.198  34.569  1.00  0.00     0.023 A 
ATOM     89  C   UNL A   1      44.227  27.038  35.361  1.00  0.00     0.031 A 
ATOM     90  C   UNL A   1      45.560  28.834  34.462  1.00  0.00     0.131 A 
ATOM     91  C   UNL A   1      45.356  26.587  36.060  1.00  0.00     0.055 A 
ATOM     92  C   UNL A   1      46.696  28.339  35.104  1.00  0.00     0.041 A 
ATOM     93  F   UNL A   1      45.700  29.948  33.725  1.00  0.00    -0.206 F 
ATOM     94  C   UNL A   1      46.595  27.217  35.920  1.00  0.00     0.022 A 
BRANCH  91  95
ATOM     95  S   UNL A   1      45.162  25.225  37.242  1.00  0.00     0.124 S 
ATOM     96  O   UNL A   1      46.447  25.239  37.934  1.00  0.00    -0.237 OA
ATOM     97  O   UNL A   1      44.011  25.654  38.028  1.00  0.00    -0.237 OA
ATOM     98  O   UNL A   1      44.930  24.061  36.389  1.00  0.00    -0.744 OA
ENDBRANCH  91  95
ENDBRANCH  65  88
ENDBRANCH  39  40
ENDBRANCH  31  34
ENDBRANCH  29  30
ENDBRANCH  28  29
ENDBRANCH  27  28
ENDBRANCH   1  27
TORSDOF 20
ENDMDL
MODEL 2
REMARK VINA RESULT:     -11.3      5.137      8.328
REMARK SMILES CN(C(=O)N[C@@](C)(C(=O)NCCCCCCNC(=O)c1ccc(-c2c3nc(c(-c4cc(S(=O)(=O)[O-])ccc4F)c4ccc([nH]4)c(-c4cc(S(=O)(=O)[O-])ccc4F)c4nc(c(-c5cc(S(=O)(=O)[O-])ccc5F)c5ccc2[nH]5)C=C4)C=C3)cc1)C(F)(F)F)c1ccc(F)cc1
REMARK SMILES IDX 13 1 12 2 11 3 10 4 8 5 9 6 6 8 7 9 5 10 3 11 4 12 2 14 1 15
REMARK SMILES IDX 87 16 88 17 93 18 89 19 92 20 90 21 91 22 83 23 84 24 85 25
REMARK SMILES IDX 86 26 14 27 15 28 16 29 17 30 18 31 19 33 20 34 21 35 82 36
REMARK SMILES IDX 22 37 81 38 23 39 24 40 25 41 75 42 26 43 80 44 74 45 76 46
REMARK SMILES IDX 27 47 79 48 73 49 72 50 28 52 60 53 40 54 59 55 41 56 44 57
REMARK SMILES IDX 58 58 77 59 42 60 43 61 57 63 78 64 45 65 29 66 30 67 38 68
REMARK SMILES IDX 31 69 37 70 39 71 36 72 32 73 33 74 34 75 35 76 61 77 62 78
REMARK SMILES IDX 70 79 63 80 69 81 71 82 68 83 64 84 65 85 66 86 67 87 46 88
REMARK SMILES IDX 47 89 55 90 48 91 54 92 56 93 53 94 49 95 50 96 51 97 52 98
REMARK H PARENT 10 7 5 13 17 32 76 51 44 62
REMARK Flexibility Score: inf
ROOT
ATOM      1  C   UNL A   1      34.887  23.075  24.841  1.00  0.00     0.002 C 
ENDROOT
BRANCH   1   2
ATOM      2  C   UNL A   1      34.546  22.980  23.348  1.00  0.00     0.021 C 
BRANCH   2   3
ATOM      3  C   UNL A   1      33.224  23.633  22.948  1.00  0.00     0.116 C 
BRANCH   3   4
ATOM      4  N   UNL A   1      32.174  23.260  23.877  1.00  0.00    -0.354 N 
ATOM      5  C   UNL A   1      31.344  23.940  24.704  1.00  0.00     0.255 C 
ATOM      6  O   UNL A   1      30.735  23.216  25.502  1.00  0.00    -0.272 OA
ATOM      7  H   UNL A   1      32.032  22.286  23.915  1.00  0.00     0.163 HD
BRANCH   5   8
ATOM      8  C   UNL A   1      31.199  25.482  24.711  1.00  0.00     0.213 C 
ATOM      9  C   UNL A   1      29.916  25.943  25.431  1.00  0.00     0.056 C 
BRANCH   8  10
ATOM     10  N   UNL A   1      31.077  25.898  23.262  1.00  0.00    -0.316 N 
ATOM     11  C   UNL A   1      31.274  26.867  22.357  1.00  0.00     0.322 C 
ATOM     12  O   UNL A   1      31.296  26.419  21.202  1.00  0.00    -0.248 OA
ATOM     13  H   UNL A   1      30.688  25.134  22.780  1.00  0.00     0.166 HD
BRANCH  11  14
ATOM     14  N   UNL A   1      31.427  28.192  22.636  1.00  0.00    -0.298 N 
ATOM     15  C   UNL A   1      32.687  28.870  22.864  1.00  0.00     0.155 C 
BRANCH  14  16
ATOM     16  C   UNL A   1      30.295  28.998  23.005  1.00  0.00     0.045 A 
ATOM     17  C   UNL A   1      30.412  30.028  23.949  1.00  0.00     0.029 A 
ATOM     18  C   UNL A   1      29.094  28.862  22.289  1.00  0.00     0.029 A 
ATOM     19  C   UNL A   1      29.365  30.936  24.135  1.00  0.00     0.041 A 
ATOM     20  C   UNL A   1      28.041  29.754  22.494  1.00  0.00     0.041 A 
ATOM     21  C   UNL A   1      28.194  30.795  23.400  1.00  0.00     0.123 A 
ATOM     22  F   UNL A   1      27.203  31.684  23.554  1.00  0.00    -0.207 F 
ENDBRANCH  14  16
ENDBRANCH  11  14
ENDBRANCH   8  10
BRANCH   8  23
ATOM     23  C   UNL A   1      32.372  25.911  25.626  1.00  0.00     0.420 C 
ATOM     24  F   UNL A   1      32.829  24.935  26.435  1.00  0.00    -0.168 F 
ATOM     25  F   UNL A   1      33.430  26.368  24.906  1.00  0.00    -0.168 F 
ATOM     26  F   UNL A   1      32.029  26.965  26.415  1.00  0.00    -0.168 F 
ENDBRANCH   8  23
ENDBRANCH   5   8
ENDBRANCH   3   4
ENDBRANCH   2   3
ENDBRANCH   1   2
BRANCH   1  27
ATOM     27  C   UNL A   1      34.960  21.735  25.578  1.00  0.00     0.002 C 
BRANCH  27  28
ATOM     28  C   UNL A   1      35.968  20.740  25.001  1.00  0.00     0.021 C 
BRANCH  28  29
ATOM     29  C   UNL A   1      37.414  21.221  25.020  1.00  0.00     0.116 C 
BRANCH  29  30
ATOM     30  N   UNL A   1      38.322  20.210  25.535  1.00  0.00    -0.352 N 
ATOM     31  C   UNL A   1      39.536  20.378  26.151  1.00  0.00     0.251 C 
ATOM     32  H   UNL A   1      38.025  19.277  25.425  1.00  0.00     0.163 HD
ATOM     33  O   UNL A   1      40.265  19.407  26.342  1.00  0.00    -0.269 OA
BRANCH  31  34
ATOM     34  C   UNL A   1      39.970  21.733  26.551  1.00  0.00     0.039 A 
ATOM     35  C   UNL A   1      40.963  21.866  27.523  1.00  0.00     0.014 A 
ATOM     36  C   UNL A   1      39.409  22.869  25.957  1.00  0.00     0.014 A 
ATOM     37  C   UNL A   1      41.436  23.137  27.857  1.00  0.00     0.010 A 
ATOM     38  C   UNL A   1      39.940  24.126  26.230  1.00  0.00     0.010 A 
ATOM     39  C   UNL A   1      40.955  24.274  27.188  1.00  0.00    -0.014 A 
BRANCH  39  40
ATOM     40  C   UNL A   1      41.502  25.626  27.482  1.00  0.00     0.031 A 
ATOM     41  C   UNL A   1      42.897  25.985  27.048  1.00  0.00     0.074 A 
ATOM     42  C   UNL A   1      40.765  26.505  28.187  1.00  0.00     0.049 A 
ATOM     43  N   UNL A   1      43.573  27.085  27.261  1.00  0.00    -0.248 NA
ATOM     44  C   UNL A   1      43.641  24.958  26.304  1.00  0.00     0.031 C 
ATOM     45  C   UNL A   1      39.417  26.252  28.703  1.00  0.00     0.029 A 
ATOM     46  N   UNL A   1      41.043  27.783  28.603  1.00  0.00    -0.354 N 
ATOM     47  C   UNL A   1      44.824  26.879  26.689  1.00  0.00     0.074 A 
ATOM     48  C   UNL A   1      44.832  25.522  26.182  1.00  0.00     0.031 C 
ATOM     49  C   UNL A   1      38.979  27.347  29.344  1.00  0.00     0.029 A 
ATOM     50  C   UNL A   1      40.029  28.360  29.334  1.00  0.00     0.049 A 
ATOM     51  H   UNL A   1      41.888  28.244  28.398  1.00  0.00     0.167 HD
ATOM     52  C   UNL A   1      45.859  27.748  26.574  1.00  0.00     0.034 A 
ATOM     53  C   UNL A   1      39.959  29.560  29.943  1.00  0.00     0.034 A 
ATOM     54  C   UNL A   1      45.828  29.098  27.085  1.00  0.00     0.049 A 
ATOM     55  C   UNL A   1      41.131  30.502  29.828  1.00  0.00     0.074 A 
ATOM     56  C   UNL A   1      46.794  30.084  26.973  1.00  0.00     0.029 A 
ATOM     57  N   UNL A   1      44.785  29.649  27.820  1.00  0.00    -0.354 N 
ATOM     58  N   UNL A   1      42.283  30.317  29.226  1.00  0.00    -0.248 NA
ATOM     59  C   UNL A   1      40.989  31.817  30.465  1.00  0.00     0.031 C 
ATOM     60  C   UNL A   1      46.373  31.196  27.710  1.00  0.00     0.029 A 
ATOM     61  C   UNL A   1      45.102  30.944  28.203  1.00  0.00     0.049 A 
ATOM     62  H   UNL A   1      43.943  29.187  28.037  1.00  0.00     0.167 HD
ATOM     63  C   UNL A   1      42.992  31.505  29.388  1.00  0.00     0.074 A 
ATOM     64  C   UNL A   1      42.129  32.402  30.128  1.00  0.00     0.031 C 
ATOM     65  C   UNL A   1      44.240  31.826  28.958  1.00  0.00     0.034 A 
BRANCH  52  66
ATOM     66  C   UNL A   1      47.118  27.246  25.902  1.00  0.00     0.023 A 
ATOM     67  C   UNL A   1      48.109  26.547  26.613  1.00  0.00     0.031 A 
ATOM     68  C   UNL A   1      47.350  27.502  24.539  1.00  0.00     0.131 A 
ATOM     69  C   UNL A   1      49.320  26.212  25.987  1.00  0.00     0.055 A 
ATOM     70  C   UNL A   1      48.517  27.081  23.897  1.00  0.00     0.041 A 
ATOM     71  F   UNL A   1      46.452  28.183  23.809  1.00  0.00    -0.206 F 
ATOM     72  C   UNL A   1      49.518  26.449  24.626  1.00  0.00     0.022 A 
BRANCH  69  73
ATOM     73  S   UNL A   1      50.691  25.623  27.017  1.00  0.00     0.124 S 
ATOM     74  O   UNL A   1      50.828  26.715  27.979  1.00  0.00    -0.237 OA
ATOM     75  O   UNL A   1      50.173  24.367  27.546  1.00  0.00    -0.237 OA
ATOM     76  O   UNL A   1      51.799  25.494  26.072  1.00  0.00    -0.744 OA
ENDBRANCH  69  73
ENDBRANCH  52  66
BRANCH  53  77
ATOM     77  C   UNL A   1      38.750  29.930  30.735  1.00  0.00     0.023 A 
ATOM     78  C   UNL A   1      37.768  30.788  30.215  1.00  0.00     0.031 A 
ATOM     79  C   UNL A   1      38.574  29.447  32.045  1.00  0.00     0.131 A 
ATOM     80  C   UNL A   1      36.677  31.168  31.012  1.00  0.00     0.055 A 
ATOM     81  C   UNL A   1      37.458  29.782  32.813  1.00  0.00     0.041 A 
ATOM     82  F   UNL A   1      39.481  28.621  32.591  1.00  0.00    -0.206 F 
ATOM     83  C   UNL A   1      36.508  30.659  32.302  1.00  0.00     0.022 A 
BRANCH  80  84
ATOM     84  S   UNL A   1      35.520  32.409  30.370  1.00  0.00     0.124 S 
ATOM     85  O   UNL A   1      34.446  32.350  31.354  1.00  0.00    -0.237 OA
ATOM     86  O   UNL A   1      36.337  33.619  30.382  1.00  0.00    -0.237 OA
ATOM     87  O   UNL A   1      35.180  31.902  29.042  1.00  0.00    -0.744 OA
ENDBRANCH  80  84
ENDBRANCH  53  77
BRANCH  65  88
ATOM     88  C   UNL A   1      44.729  33.226  29.247  1.00  0.00     0.023 A 
ATOM     89  C   UNL A   1      44.416  34.311  28.408  1.00  0.00     0.031 A 
ATOM     90  C   UNL A   1      45.527  33.476  30.377  1.00  0.00     0.131 A 
ATOM     91  C   UNL A   1      44.949  35.580  28.680  1.00  0.00     0.055 A 
ATOM     92  C   UNL A   1      45.995  34.756  30.681  1.00  0.00     0.041 A 
ATOM     93  F   UNL A   1      45.864  32.478  31.211  1.00  0.00    -0.206 F 
ATOM     94  C   UNL A   1      45.718  35.814  29.822  1.00  0.00     0.022 A 
BRANCH  91  95
ATOM     95  S   UNL A   1      44.709  36.904  27.463  1.00  0.00     0.124 S 
ATOM     96  O   UNL A   1      43.433  36.533  26.858  1.00  0.00    -0.237 OA
ATOM     97  O   UNL A   1      44.693  38.099  28.299  1.00  0.00    -0.237 OA
ATOM     98  O   UNL A   1      45.871  36.778  26.585  1.00  0.00    -0.744 OA
ENDBRANCH  91  95
ENDBRANCH  65  88
ENDBRANCH  39  40
ENDBRANCH  31  34
ENDBRANCH  29  30
ENDBRANCH  28  29
ENDBRANCH  27  28
ENDBRANCH   1  27
TORSDOF 20
ENDMDL
MODEL 3
REMARK VINA RESULT:     -11.3      2.376      8.075
REMARK SMILES CN(C(=O)N[C@@](C)(C(=O)NCCCCCCNC(=O)c1ccc(-c2c3nc(c(-c4cc(S(=O)(=O)[O-])ccc4F)c4ccc([nH]4)c(-c4cc(S(=O)(=O)[O-])ccc4F)c4nc(c(-c5cc(S(=O)(=O)[O-])ccc5F)c5ccc2[nH]5)C=C4)C=C3)cc1)C(F)(F)F)c1ccc(F)cc1
REMARK SMILES IDX 13 1 12 2 11 3 10 4 8 5 9 6 6 8 7 9 5 10 3 11 4 12 2 14 1 15
REMARK SMILES IDX 87 16 88 17 93 18 89 19 92 20 90 21 91 22 83 23 84 24 85 25
REMARK SMILES IDX 86 26 14 27 15 28 16 29 17 30 18 31 19 33 20 34 21 35 82 36
REMARK SMILES IDX 22 37 81 38 23 39 24 40 25 41 75 42 26 43 80 44 74 45 76 46
REMARK SMILES IDX 27 47 79 48 73 49 72 50 28 52 60 53 40 54 59 55 41 56 44 57
REMARK SMILES IDX 58 58 77 59 42 60 43 61 57 63 78 64 45 65 29 66 30 67 38 68
REMARK SMILES IDX 31 69 37 70 39 71 36 72 32 73 33 74 34 75 35 76 61 77 62 78
REMARK SMILES IDX 70 79 63 80 69 81 71 82 68 83 64 84 65 85 66 86 67 87 46 88
REMARK SMILES IDX 47 89 55 90 48 91 54 92 56 93 53 94 49 95 50 96 51 97 52 98
REMARK H PARENT 10 7 5 13 17 32 76 51 44 62
REMARK Flexibility Score: inf
ROOT
ATOM      1  C   UNL A   1      32.705  29.578  27.215  1.00  0.00     0.002 C 
ENDROOT
BRANCH   1   2
ATOM      2  C   UNL A   1      33.969  29.119  26.474  1.00  0.00     0.021 C 
BRANCH   2   3
ATOM      3  C   UNL A   1      33.785  27.882  25.595  1.00  0.00     0.116 C 
BRANCH   3   4
ATOM      4  N   UNL A   1      32.778  27.005  26.161  1.00  0.00    -0.354 N 
ATOM      5  C   UNL A   1      31.774  26.249  25.653  1.00  0.00     0.255 C 
ATOM      6  O   UNL A   1      30.996  25.815  26.510  1.00  0.00    -0.272 OA
ATOM      7  H   UNL A   1      32.837  26.945  27.142  1.00  0.00     0.163 HD
BRANCH   5   8
ATOM      8  C   UNL A   1      31.566  25.989  24.140  1.00  0.00     0.213 C 
ATOM      9  C   UNL A   1      30.483  24.924  23.876  1.00  0.00     0.056 C 
BRANCH   8  10
ATOM     10  N   UNL A   1      32.877  25.437  23.625  1.00  0.00    -0.316 N 
ATOM     11  C   UNL A   1      33.772  24.442  23.688  1.00  0.00     0.322 C 
ATOM     12  O   UNL A   1      34.499  24.414  22.685  1.00  0.00    -0.248 OA
ATOM     13  H   UNL A   1      33.216  26.082  22.964  1.00  0.00     0.166 HD
BRANCH  11  14
ATOM     14  N   UNL A   1      33.902  23.557  24.716  1.00  0.00    -0.298 N 
ATOM     15  C   UNL A   1      34.821  23.681  25.830  1.00  0.00     0.155 C 
BRANCH  14  16
ATOM     16  C   UNL A   1      33.309  22.250  24.637  1.00  0.00     0.045 A 
ATOM     17  C   UNL A   1      32.646  21.820  23.478  1.00  0.00     0.029 A 
ATOM     18  C   UNL A   1      33.538  21.329  25.672  1.00  0.00     0.029 A 
ATOM     19  C   UNL A   1      32.268  20.481  23.338  1.00  0.00     0.041 A 
ATOM     20  C   UNL A   1      33.138  19.999  25.541  1.00  0.00     0.041 A 
ATOM     21  C   UNL A   1      32.525  19.583  24.367  1.00  0.00     0.123 A 
ATOM     22  F   UNL A   1      32.192  18.294  24.220  1.00  0.00    -0.207 F 
ENDBRANCH  14  16
ENDBRANCH  11  14
ENDBRANCH   8  10
BRANCH   8  23
ATOM     23  C   UNL A   1      30.961  27.332  23.663  1.00  0.00     0.420 C 
ATOM     24  F   UNL A   1      31.866  28.210  23.190  1.00  0.00    -0.168 F 
ATOM     25  F   UNL A   1      30.029  27.147  22.692  1.00  0.00    -0.168 F 
ATOM     26  F   UNL A   1      30.277  27.952  24.663  1.00  0.00    -0.168 F 
ENDBRANCH   8  23
ENDBRANCH   5   8
ENDBRANCH   3   4
ENDBRANCH   2   3
ENDBRANCH   1   2
BRANCH   1  27
ATOM     27  C   UNL A   1      31.676  30.313  26.352  1.00  0.00     0.002 C 
BRANCH  27  28
ATOM     28  C   UNL A   1      31.660  31.832  26.528  1.00  0.00     0.021 C 
BRANCH  28  29
ATOM     29  C   UNL A   1      32.834  32.390  27.323  1.00  0.00     0.116 C 
BRANCH  29  30
ATOM     30  N   UNL A   1      32.636  33.781  27.691  1.00  0.00    -0.352 N 
ATOM     31  C   UNL A   1      33.234  34.499  28.695  1.00  0.00     0.251 C 
ATOM     32  H   UNL A   1      31.983  34.276  27.144  1.00  0.00     0.163 HD
ATOM     33  O   UNL A   1      32.802  35.610  28.994  1.00  0.00    -0.269 OA
BRANCH  31  34
ATOM     34  C   UNL A   1      34.375  33.913  29.431  1.00  0.00     0.039 A 
ATOM     35  C   UNL A   1      34.120  33.012  30.466  1.00  0.00     0.014 A 
ATOM     36  C   UNL A   1      35.691  34.240  29.089  1.00  0.00     0.014 A 
ATOM     37  C   UNL A   1      35.188  32.393  31.118  1.00  0.00     0.010 A 
ATOM     38  C   UNL A   1      36.750  33.560  29.683  1.00  0.00     0.010 A 
ATOM     39  C   UNL A   1      36.510  32.633  30.709  1.00  0.00    -0.014 A 
BRANCH  39  40
ATOM     40  C   UNL A   1      37.652  31.926  31.348  1.00  0.00     0.031 A 
ATOM     41  C   UNL A   1      38.133  32.346  32.710  1.00  0.00     0.074 A 
ATOM     42  C   UNL A   1      38.288  30.944  30.678  1.00  0.00     0.049 A 
ATOM     43  N   UNL A   1      39.146  31.896  33.405  1.00  0.00    -0.248 NA
ATOM     44  C   UNL A   1      37.397  33.441  33.360  1.00  0.00     0.031 C 
ATOM     45  C   UNL A   1      37.941  30.482  29.332  1.00  0.00     0.029 A 
ATOM     46  N   UNL A   1      39.362  30.166  31.029  1.00  0.00    -0.354 N 
ATOM     47  C   UNL A   1      39.176  32.658  34.569  1.00  0.00     0.074 A 
ATOM     48  C   UNL A   1      38.123  33.645  34.448  1.00  0.00     0.031 C 
ATOM     49  C   UNL A   1      38.771  29.487  28.982  1.00  0.00     0.029 A 
ATOM     50  C   UNL A   1      39.741  29.274  30.051  1.00  0.00     0.049 A 
ATOM     51  H   UNL A   1      39.819  30.239  31.898  1.00  0.00     0.167 HD
ATOM     52  C   UNL A   1      39.990  32.531  35.647  1.00  0.00     0.034 A 
ATOM     53  C   UNL A   1      40.765  28.399  30.011  1.00  0.00     0.034 A 
ATOM     54  C   UNL A   1      41.033  31.539  35.746  1.00  0.00     0.049 A 
ATOM     55  C   UNL A   1      41.677  28.291  31.208  1.00  0.00     0.074 A 
ATOM     56  C   UNL A   1      41.877  31.280  36.813  1.00  0.00     0.029 A 
ATOM     57  N   UNL A   1      41.389  30.651  34.737  1.00  0.00    -0.354 N 
ATOM     58  N   UNL A   1      41.651  28.975  32.329  1.00  0.00    -0.248 NA
ATOM     59  C   UNL A   1      42.745  27.288  31.138  1.00  0.00     0.031 C 
ATOM     60  C   UNL A   1      42.794  30.300  36.419  1.00  0.00     0.029 A 
ATOM     61  C   UNL A   1      42.465  29.875  35.141  1.00  0.00     0.049 A 
ATOM     62  H   UNL A   1      40.942  30.584  33.862  1.00  0.00     0.167 HD
ATOM     63  C   UNL A   1      42.684  28.463  33.110  1.00  0.00     0.074 A 
ATOM     64  C   UNL A   1      43.299  27.403  32.337  1.00  0.00     0.031 C 
ATOM     65  C   UNL A   1      43.084  28.832  34.354  1.00  0.00     0.034 A 
BRANCH  52  66
ATOM     66  C   UNL A   1      39.801  33.515  36.780  1.00  0.00     0.023 A 
ATOM     67  C   UNL A   1      40.644  34.628  36.944  1.00  0.00     0.031 A 
ATOM     68  C   UNL A   1      38.787  33.317  37.735  1.00  0.00     0.131 A 
ATOM     69  C   UNL A   1      40.520  35.443  38.079  1.00  0.00     0.055 A 
ATOM     70  C   UNL A   1      38.608  34.188  38.812  1.00  0.00     0.041 A 
ATOM     71  F   UNL A   1      37.962  32.262  37.648  1.00  0.00    -0.206 F 
ATOM     72  C   UNL A   1      39.489  35.247  39.000  1.00  0.00     0.022 A 
BRANCH  69  73
ATOM     73  S   UNL A   1      41.829  36.651  38.424  1.00  0.00     0.124 S 
ATOM     74  O   UNL A   1      42.347  36.916  37.084  1.00  0.00    -0.237 OA
ATOM     75  O   UNL A   1      41.094  37.742  39.052  1.00  0.00    -0.237 OA
ATOM     76  O   UNL A   1      42.742  35.925  39.303  1.00  0.00    -0.744 OA
ENDBRANCH  69  73
ENDBRANCH  52  66
BRANCH  53  77
ATOM     77  C   UNL A   1      40.998  27.572  28.791  1.00  0.00     0.023 A 
ATOM     78  C   UNL A   1      42.022  27.881  27.882  1.00  0.00     0.031 A 
ATOM     79  C   UNL A   1      40.173  26.469  28.502  1.00  0.00     0.131 A 
ATOM     80  C   UNL A   1      42.171  27.122  26.710  1.00  0.00     0.055 A 
ATOM     81  C   UNL A   1      40.361  25.682  27.365  1.00  0.00     0.041 A 
ATOM     82  F   UNL A   1      39.180  26.127  29.339  1.00  0.00    -0.206 F 
ATOM     83  C   UNL A   1      41.357  26.016  26.454  1.00  0.00     0.022 A 
BRANCH  80  84
ATOM     84  S   UNL A   1      43.392  27.652  25.478  1.00  0.00     0.124 S 
ATOM     85  O   UNL A   1      43.951  28.843  26.108  1.00  0.00    -0.237 OA
ATOM     86  O   UNL A   1      44.272  26.490  25.405  1.00  0.00    -0.237 OA
ATOM     87  O   UNL A   1      42.585  27.897  24.284  1.00  0.00    -0.744 OA
ENDBRANCH  80  84
ENDBRANCH  53  77
BRANCH  65  88
ATOM     88  C   UNL A   1      44.220  28.050  34.973  1.00  0.00     0.023 A 
ATOM     89  C   UNL A   1      44.038  26.752  35.484  1.00  0.00     0.031 A 
ATOM     90  C   UNL A   1      45.503  28.618  35.058  1.00  0.00     0.131 A 
ATOM     91  C   UNL A   1      45.107  26.092  36.109  1.00  0.00     0.055 A 
ATOM     92  C   UNL A   1      46.579  27.928  35.618  1.00  0.00     0.041 A 
ATOM     93  F   UNL A   1      45.735  29.857  34.593  1.00  0.00    -0.206 F 
ATOM     94  C   UNL A   1      46.381  26.663  36.161  1.00  0.00     0.022 A 
BRANCH  91  95
ATOM     95  S   UNL A   1      44.785  24.518  36.951  1.00  0.00     0.124 S 
ATOM     96  O   UNL A   1      44.679  24.936  38.346  1.00  0.00    -0.237 OA
ATOM     97  O   UNL A   1      43.545  24.075  36.323  1.00  0.00    -0.237 OA
ATOM     98  O   UNL A   1      45.963  23.712  36.634  1.00  0.00    -0.744 OA
ENDBRANCH  91  95
ENDBRANCH  65  88
ENDBRANCH  39  40
ENDBRANCH  31  34
ENDBRANCH  29  30
ENDBRANCH  28  29
ENDBRANCH  27  28
ENDBRANCH   1  27
TORSDOF 20
ENDMDL
