MODEL 1
REMARK VINA RESULT:     -10.7      0.000      0.000
REMARK SMILES O=C(NCCCCCCNC(=O)[C@H]1CC[C@H](CNC(=O)c2ccccc2O)O1)c1ccc(-c2c3nc(c(-c4cc(S(=O)(=O)[O-])ccc4F)c4ccc([nH]4)c(-c4cc(S(=O)(=O)[O-])ccc4F)c4nc(c(-c5cc(S(=O)(=O)[O-])ccc5F)c5ccc2[nH]5)C=C4)C=C3)cc1
REMARK SMILES IDX 7 1 6 2 5 3 4 4 3 5 1 6 2 7 29 9 30 10 91 11 31 12 90 13
REMARK SMILES IDX 32 14 33 15 34 16 84 17 35 18 89 19 83 20 85 21 36 22 88 23
REMARK SMILES IDX 82 24 81 25 37 27 69 28 49 29 68 30 50 31 53 32 67 33 86 34
REMARK SMILES IDX 51 35 52 36 66 38 87 39 54 40 38 41 39 42 47 43 40 44 46 45
REMARK SMILES IDX 48 46 45 47 41 48 42 49 43 50 44 51 70 52 71 53 79 54 72 55
REMARK SMILES IDX 78 56 80 57 77 58 73 59 74 60 75 61 76 62 55 63 56 64 64 65
REMARK SMILES IDX 57 66 63 67 65 68 62 69 58 70 59 71 60 72 61 73 8 74 9 75
REMARK SMILES IDX 10 76 11 77 12 79 13 80 14 81 28 82 15 83 16 84 17 85 18 86
REMARK SMILES IDX 19 87 20 89 21 90 22 91 26 92 23 93 25 94 24 95 27 96
REMARK H PARENT 3 8 85 26 53 37 10 78 18 88 27 97
REMARK Flexibility Score: inf
ROOT
ATOM      1  C   UNL A   1      34.771  30.628  28.377  1.00  0.00     0.002 C 
ENDROOT
BRANCH   1   2
ATOM      2  C   UNL A   1      34.910  32.094  27.954  1.00  0.00     0.002 C 
BRANCH   2   3
ATOM      3  C   UNL A   1      33.613  32.904  27.965  1.00  0.00     0.021 C 
BRANCH   3   4
ATOM      4  C   UNL A   1      33.800  34.409  28.092  1.00  0.00     0.116 C 
BRANCH   4   5
ATOM      5  N   UNL A   1      33.143  34.960  29.267  1.00  0.00    -0.352 N 
ATOM      6  O   UNL A   1      32.711  35.192  31.471  1.00  0.00    -0.269 OA
ATOM      7  C   UNL A   1      33.462  34.778  30.592  1.00  0.00     0.251 C 
ATOM      8  H   UNL A   1      32.366  35.539  29.091  1.00  0.00     0.163 HD
BRANCH   7   9
ATOM      9  C   UNL A   1      34.707  34.060  30.951  1.00  0.00     0.039 A 
ATOM     10  C   UNL A   1      34.650  32.882  31.699  1.00  0.00     0.014 A 
ATOM     11  C   UNL A   1      35.941  34.574  30.544  1.00  0.00     0.014 A 
ATOM     12  C   UNL A   1      35.826  32.300  32.158  1.00  0.00     0.010 A 
ATOM     13  C   UNL A   1      37.124  33.936  30.934  1.00  0.00     0.010 A 
ATOM     14  C   UNL A   1      37.077  32.808  31.768  1.00  0.00    -0.014 A 
BRANCH  14  15
ATOM     15  C   UNL A   1      38.306  32.096  32.205  1.00  0.00     0.031 A 
ATOM     16  C   UNL A   1      38.952  32.388  33.531  1.00  0.00     0.074 A 
ATOM     17  C   UNL A   1      38.802  31.129  31.407  1.00  0.00     0.049 A 
ATOM     18  N   UNL A   1      39.992  31.817  34.084  1.00  0.00    -0.248 NA
ATOM     19  C   UNL A   1      38.361  33.466  34.337  1.00  0.00     0.031 C 
ATOM     20  C   UNL A   1      38.264  30.773  30.090  1.00  0.00     0.029 A 
ATOM     21  N   UNL A   1      39.840  30.253  31.587  1.00  0.00    -0.354 N 
ATOM     22  C   UNL A   1      40.185  32.464  35.300  1.00  0.00     0.074 A 
ATOM     23  C   UNL A   1      39.176  33.499  35.383  1.00  0.00     0.031 C 
ATOM     24  C   UNL A   1      38.940  29.721  29.608  1.00  0.00     0.029 A 
ATOM     25  C   UNL A   1      40.000  29.369  30.546  1.00  0.00     0.049 A 
ATOM     26  H   UNL A   1      40.415  30.257  32.386  1.00  0.00     0.167 HD
ATOM     27  C   UNL A   1      41.109  32.207  36.261  1.00  0.00     0.034 A 
ATOM     28  C   UNL A   1      40.906  28.392  30.355  1.00  0.00     0.034 A 
ATOM     29  C   UNL A   1      42.115  31.174  36.156  1.00  0.00     0.049 A 
ATOM     30  C   UNL A   1      41.930  28.141  31.429  1.00  0.00     0.074 A 
ATOM     31  C   UNL A   1      43.104  30.835  37.064  1.00  0.00     0.029 A 
ATOM     32  N   UNL A   1      42.265  30.316  35.074  1.00  0.00    -0.354 N 
ATOM     33  N   UNL A   1      42.091  28.761  32.575  1.00  0.00    -0.248 NA
ATOM     34  C   UNL A   1      42.885  27.053  31.187  1.00  0.00     0.031 C 
ATOM     35  C   UNL A   1      43.881  29.810  36.511  1.00  0.00     0.029 A 
ATOM     36  C   UNL A   1      43.338  29.461  35.285  1.00  0.00     0.049 A 
ATOM     37  H   UNL A   1      41.693  30.313  34.273  1.00  0.00     0.167 HD
ATOM     38  C   UNL A   1      43.165  28.131  33.195  1.00  0.00     0.074 A 
ATOM     39  C   UNL A   1      43.584  27.062  32.312  1.00  0.00     0.031 C 
ATOM     40  C   UNL A   1      43.758  28.416  34.382  1.00  0.00     0.034 A 
BRANCH  27  41
ATOM     41  C   UNL A   1      41.093  33.081  37.492  1.00  0.00     0.023 A 
ATOM     42  C   UNL A   1      40.327  32.747  38.624  1.00  0.00     0.031 A 
ATOM     43  C   UNL A   1      41.843  34.271  37.535  1.00  0.00     0.131 A 
ATOM     44  C   UNL A   1      40.280  33.618  39.723  1.00  0.00     0.055 A 
ATOM     45  C   UNL A   1      41.849  35.099  38.660  1.00  0.00     0.041 A 
ATOM     46  F   UNL A   1      42.578  34.653  36.479  1.00  0.00    -0.206 F 
ATOM     47  C   UNL A   1      41.055  34.781  39.759  1.00  0.00     0.022 A 
BRANCH  44  48
ATOM     48  S   UNL A   1      39.101  33.272  41.056  1.00  0.00     0.124 S 
ATOM     49  O   UNL A   1      39.830  33.753  42.228  1.00  0.00    -0.237 OA
ATOM     50  O   UNL A   1      37.937  34.058  40.662  1.00  0.00    -0.237 OA
ATOM     51  O   UNL A   1      38.926  31.822  40.993  1.00  0.00    -0.744 OA
ENDBRANCH  44  48
ENDBRANCH  27  41
BRANCH  28  52
ATOM     52  C   UNL A   1      40.906  27.606  29.090  1.00  0.00     0.023 A 
ATOM     53  C   UNL A   1      41.874  27.818  28.097  1.00  0.00     0.031 A 
ATOM     54  C   UNL A   1      39.910  26.643  28.844  1.00  0.00     0.131 A 
ATOM     55  C   UNL A   1      41.802  27.110  26.888  1.00  0.00     0.055 A 
ATOM     56  C   UNL A   1      39.874  25.900  27.664  1.00  0.00     0.041 A 
ATOM     57  F   UNL A   1      38.962  26.397  29.765  1.00  0.00    -0.206 F 
ATOM     58  C   UNL A   1      40.817  26.142  26.671  1.00  0.00     0.022 A 
BRANCH  55  59
ATOM     59  S   UNL A   1      42.964  27.534  25.563  1.00  0.00     0.124 S 
ATOM     60  O   UNL A   1      44.066  28.128  26.309  1.00  0.00    -0.237 OA
ATOM     61  O   UNL A   1      43.224  26.231  24.961  1.00  0.00    -0.237 OA
ATOM     62  O   UNL A   1      42.202  28.463  24.728  1.00  0.00    -0.744 OA
ENDBRANCH  55  59
ENDBRANCH  28  52
BRANCH  40  63
ATOM     63  C   UNL A   1      44.911  27.530  34.786  1.00  0.00     0.023 A 
ATOM     64  C   UNL A   1      44.702  26.333  35.495  1.00  0.00     0.031 A 
ATOM     65  C   UNL A   1      46.233  27.911  34.504  1.00  0.00     0.131 A 
ATOM     66  C   UNL A   1      45.800  25.596  35.960  1.00  0.00     0.055 A 
ATOM     67  C   UNL A   1      47.321  27.142  34.917  1.00  0.00     0.041 A 
ATOM     68  F   UNL A   1      46.488  29.046  33.832  1.00  0.00    -0.206 F 
ATOM     69  C   UNL A   1      47.109  25.986  35.664  1.00  0.00     0.022 A 
BRANCH  66  70
ATOM     70  S   UNL A   1      45.498  24.180  37.052  1.00  0.00     0.124 S 
ATOM     71  O   UNL A   1      44.491  24.712  37.966  1.00  0.00    -0.237 OA
ATOM     72  O   UNL A   1      45.035  23.160  36.118  1.00  0.00    -0.237 OA
ATOM     73  O   UNL A   1      46.806  23.925  37.652  1.00  0.00    -0.744 OA
ENDBRANCH  66  70
ENDBRANCH  40  63
ENDBRANCH  14  15
ENDBRANCH   7   9
ENDBRANCH   4   5
ENDBRANCH   3   4
ENDBRANCH   2   3
ENDBRANCH   1   2
BRANCH   1  74
ATOM     74  C   UNL A   1      35.438  29.602  27.448  1.00  0.00     0.021 C 
BRANCH  74  75
ATOM     75  C   UNL A   1      34.461  28.675  26.723  1.00  0.00     0.116 C 
BRANCH  75  76
ATOM     76  N   UNL A   1      33.211  28.560  27.453  1.00  0.00    -0.354 N 
ATOM     77  C   UNL A   1      32.115  27.793  27.180  1.00  0.00     0.249 C 
ATOM     78  H   UNL A   1      33.143  29.117  28.261  1.00  0.00     0.163 HD
ATOM     79  O   UNL A   1      31.114  27.937  27.887  1.00  0.00    -0.272 OA
BRANCH  77  80
ATOM     80  C   UNL A   1      32.195  26.750  26.052  1.00  0.00     0.207 C 
ATOM     81  C   UNL A   1      31.476  25.478  26.485  1.00  0.00     0.045 C 
ATOM     82  O   UNL A   1      31.558  27.206  24.851  1.00  0.00    -0.363 OA
ATOM     83  C   UNL A   1      30.103  25.656  25.877  1.00  0.00     0.037 C 
ATOM     84  C   UNL A   1      30.410  26.382  24.578  1.00  0.00     0.138 C 
BRANCH  84  85
ATOM     85  C   UNL A   1      30.765  25.442  23.416  1.00  0.00     0.148 C 
BRANCH  85  86
ATOM     86  N   UNL A   1      31.751  26.007  22.508  1.00  0.00    -0.349 N 
ATOM     87  C   UNL A   1      33.071  25.660  22.361  1.00  0.00     0.255 C 
ATOM     88  H   UNL A   1      31.429  26.730  21.922  1.00  0.00     0.163 HD
ATOM     89  O   UNL A   1      33.796  26.308  21.608  1.00  0.00    -0.269 OA
BRANCH  87  90
ATOM     90  C   UNL A   1      33.653  24.567  23.168  1.00  0.00     0.081 A 
ATOM     91  C   UNL A   1      34.484  24.935  24.234  1.00  0.00     0.018 A 
ATOM     92  C   UNL A   1      33.437  23.213  22.890  1.00  0.00     0.128 A 
ATOM     93  C   UNL A   1      35.056  23.955  25.045  1.00  0.00     0.001 A 
ATOM     94  C   UNL A   1      34.005  22.232  23.706  1.00  0.00     0.047 A 
ATOM     95  C   UNL A   1      34.809  22.607  24.786  1.00  0.00     0.004 A 
BRANCH  92  96
ATOM     96  O   UNL A   1      32.670  22.838  21.822  1.00  0.00    -0.507 OA
ATOM     97  H   UNL A   1      32.181  23.481  21.349  1.00  0.00     0.293 HD
ENDBRANCH  92  96
ENDBRANCH  87  90
ENDBRANCH  85  86
ENDBRANCH  84  85
ENDBRANCH  77  80
ENDBRANCH  75  76
ENDBRANCH  74  75
ENDBRANCH   1  74
TORSDOF 20
ENDMDL
MODEL 2
REMARK VINA RESULT:     -10.7      1.662      7.958
REMARK SMILES O=C(NCCCCCCNC(=O)[C@H]1CC[C@H](CNC(=O)c2ccccc2O)O1)c1ccc(-c2c3nc(c(-c4cc(S(=O)(=O)[O-])ccc4F)c4ccc([nH]4)c(-c4cc(S(=O)(=O)[O-])ccc4F)c4nc(c(-c5cc(S(=O)(=O)[O-])ccc5F)c5ccc2[nH]5)C=C4)C=C3)cc1
REMARK SMILES IDX 7 1 6 2 5 3 4 4 3 5 1 6 2 7 29 9 30 10 91 11 31 12 90 13
REMARK SMILES IDX 32 14 33 15 34 16 84 17 35 18 89 19 83 20 85 21 36 22 88 23
REMARK SMILES IDX 82 24 81 25 37 27 69 28 49 29 68 30 50 31 53 32 67 33 86 34
REMARK SMILES IDX 51 35 52 36 66 38 87 39 54 40 38 41 39 42 47 43 40 44 46 45
REMARK SMILES IDX 48 46 45 47 41 48 42 49 43 50 44 51 70 52 71 53 79 54 72 55
REMARK SMILES IDX 78 56 80 57 77 58 73 59 74 60 75 61 76 62 55 63 56 64 64 65
REMARK SMILES IDX 57 66 63 67 65 68 62 69 58 70 59 71 60 72 61 73 8 74 9 75
REMARK SMILES IDX 10 76 11 77 12 79 13 80 14 81 28 82 15 83 16 84 17 85 18 86
REMARK SMILES IDX 19 87 20 89 21 90 22 91 26 92 23 93 25 94 24 95 27 96
REMARK H PARENT 3 8 85 26 53 37 10 78 18 88 27 97
REMARK Flexibility Score: inf
ROOT
ATOM      1  C   UNL A   1      32.360  29.924  27.108  1.00  0.00     0.002 C 
ENDROOT
BRANCH   1   2
ATOM      2  C   UNL A   1      31.713  30.985  26.211  1.00  0.00     0.002 C 
BRANCH   2   3
ATOM      3  C   UNL A   1      31.580  32.375  26.834  1.00  0.00     0.021 C 
BRANCH   3   4
ATOM      4  C   UNL A   1      32.877  32.962  27.371  1.00  0.00     0.116 C 
BRANCH   4   5
ATOM      5  N   UNL A   1      32.734  34.347  27.794  1.00  0.00    -0.352 N 
ATOM      6  O   UNL A   1      33.012  36.130  29.150  1.00  0.00    -0.269 OA
ATOM      7  C   UNL A   1      33.359  34.996  28.832  1.00  0.00     0.251 C 
ATOM      8  H   UNL A   1      32.106  34.892  27.267  1.00  0.00     0.163 HD
BRANCH   7   9
ATOM      9  C   UNL A   1      34.439  34.309  29.577  1.00  0.00     0.039 A 
ATOM     10  C   UNL A   1      35.770  34.446  29.176  1.00  0.00     0.014 A 
ATOM     11  C   UNL A   1      34.117  33.513  30.680  1.00  0.00     0.014 A 
ATOM     12  C   UNL A   1      36.756  33.681  29.787  1.00  0.00     0.010 A 
ATOM     13  C   UNL A   1      35.126  32.811  31.350  1.00  0.00     0.010 A 
ATOM     14  C   UNL A   1      36.450  32.867  30.891  1.00  0.00    -0.014 A 
BRANCH  14  15
ATOM     15  C   UNL A   1      37.554  32.140  31.571  1.00  0.00     0.031 A 
ATOM     16  C   UNL A   1      38.307  31.035  30.883  1.00  0.00     0.074 A 
ATOM     17  C   UNL A   1      37.912  32.536  32.809  1.00  0.00     0.049 A 
ATOM     18  N   UNL A   1      39.330  30.342  31.316  1.00  0.00    -0.248 NA
ATOM     19  C   UNL A   1      37.848  30.652  29.540  1.00  0.00     0.031 C 
ATOM     20  C   UNL A   1      37.239  33.587  33.579  1.00  0.00     0.029 A 
ATOM     21  N   UNL A   1      38.933  32.131  33.627  1.00  0.00    -0.354 N 
ATOM     22  C   UNL A   1      39.638  29.439  30.303  1.00  0.00     0.074 A 
ATOM     23  C   UNL A   1      38.664  29.647  29.251  1.00  0.00     0.031 C 
ATOM     24  C   UNL A   1      37.899  33.781  34.729  1.00  0.00     0.029 A 
ATOM     25  C   UNL A   1      38.998  32.826  34.812  1.00  0.00     0.049 A 
ATOM     26  H   UNL A   1      39.562  31.412  33.389  1.00  0.00     0.167 HD
ATOM     27  C   UNL A   1      40.646  28.532  30.254  1.00  0.00     0.034 A 
ATOM     28  C   UNL A   1      39.836  32.703  35.859  1.00  0.00     0.034 A 
ATOM     29  C   UNL A   1      41.603  28.331  31.318  1.00  0.00     0.049 A 
ATOM     30  C   UNL A   1      40.934  31.678  35.783  1.00  0.00     0.074 A 
ATOM     31  C   UNL A   1      42.658  27.435  31.376  1.00  0.00     0.029 A 
ATOM     32  N   UNL A   1      41.620  29.034  32.517  1.00  0.00    -0.354 N 
ATOM     33  N   UNL A   1      41.211  30.837  34.814  1.00  0.00    -0.248 NA
ATOM     34  C   UNL A   1      41.835  31.592  36.937  1.00  0.00     0.031 C 
ATOM     35  C   UNL A   1      43.278  27.559  32.626  1.00  0.00     0.029 A 
ATOM     36  C   UNL A   1      42.654  28.581  33.324  1.00  0.00     0.049 A 
ATOM     37  H   UNL A   1      40.990  29.751  32.759  1.00  0.00     0.167 HD
ATOM     38  C   UNL A   1      42.327  30.125  35.241  1.00  0.00     0.074 A 
ATOM     39  C   UNL A   1      42.691  30.664  36.536  1.00  0.00     0.031 C 
ATOM     40  C   UNL A   1      42.988  29.113  34.624  1.00  0.00     0.034 A 
BRANCH  27  41
ATOM     41  C   UNL A   1      40.741  27.665  29.020  1.00  0.00     0.023 A 
ATOM     42  C   UNL A   1      41.680  27.928  28.005  1.00  0.00     0.031 A 
ATOM     43  C   UNL A   1      39.878  26.568  28.848  1.00  0.00     0.131 A 
ATOM     44  C   UNL A   1      41.693  27.146  26.841  1.00  0.00     0.055 A 
ATOM     45  C   UNL A   1      39.944  25.748  27.719  1.00  0.00     0.041 A 
ATOM     46  F   UNL A   1      38.949  26.278  29.772  1.00  0.00    -0.206 F 
ATOM     47  C   UNL A   1      40.847  26.042  26.701  1.00  0.00     0.022 A 
BRANCH  44  48
ATOM     48  S   UNL A   1      42.749  27.661  25.460  1.00  0.00     0.124 S 
ATOM     49  O   UNL A   1      44.024  27.898  26.135  1.00  0.00    -0.237 OA
ATOM     50  O   UNL A   1      42.703  26.502  24.576  1.00  0.00    -0.237 OA
ATOM     51  O   UNL A   1      42.090  28.862  24.952  1.00  0.00    -0.744 OA
ENDBRANCH  44  48
ENDBRANCH  27  41
BRANCH  28  52
ATOM     52  C   UNL A   1      39.649  33.547  37.072  1.00  0.00     0.023 A 
ATOM     53  C   UNL A   1      39.062  33.031  38.237  1.00  0.00     0.031 A 
ATOM     54  C   UNL A   1      40.034  34.900  37.070  1.00  0.00     0.131 A 
ATOM     55  C   UNL A   1      38.837  33.874  39.337  1.00  0.00     0.055 A 
ATOM     56  C   UNL A   1      39.860  35.720  38.185  1.00  0.00     0.041 A 
ATOM     57  F   UNL A   1      40.606  35.442  35.981  1.00  0.00    -0.206 F 
ATOM     58  C   UNL A   1      39.245  35.210  39.324  1.00  0.00     0.022 A 
BRANCH  55  59
ATOM     59  S   UNL A   1      37.921  33.219  40.758  1.00  0.00     0.124 S 
ATOM     60  O   UNL A   1      38.529  31.905  40.927  1.00  0.00    -0.237 OA
ATOM     61  O   UNL A   1      38.223  34.204  41.791  1.00  0.00    -0.237 OA
ATOM     62  O   UNL A   1      36.535  33.212  40.293  1.00  0.00    -0.744 OA
ENDBRANCH  55  59
ENDBRANCH  28  52
BRANCH  40  63
ATOM     63  C   UNL A   1      44.183  28.549  35.352  1.00  0.00     0.023 A 
ATOM     64  C   UNL A   1      44.045  27.520  36.302  1.00  0.00     0.031 A 
ATOM     65  C   UNL A   1      45.465  29.079  35.132  1.00  0.00     0.131 A 
ATOM     66  C   UNL A   1      45.157  27.104  37.047  1.00  0.00     0.055 A 
ATOM     67  C   UNL A   1      46.579  28.619  35.832  1.00  0.00     0.041 A 
ATOM     68  F   UNL A   1      45.652  30.065  34.238  1.00  0.00    -0.206 F 
ATOM     69  C   UNL A   1      46.427  27.637  36.809  1.00  0.00     0.022 A 
BRANCH  66  70
ATOM     70  S   UNL A   1      44.902  25.933  38.409  1.00  0.00     0.124 S 
ATOM     71  O   UNL A   1      43.823  26.569  39.157  1.00  0.00    -0.237 OA
ATOM     72  O   UNL A   1      44.552  24.706  37.703  1.00  0.00    -0.237 OA
ATOM     73  O   UNL A   1      46.197  25.910  39.087  1.00  0.00    -0.744 OA
ENDBRANCH  66  70
ENDBRANCH  40  63
ENDBRANCH  14  15
ENDBRANCH   7   9
ENDBRANCH   4   5
ENDBRANCH   3   4
ENDBRANCH   2   3
ENDBRANCH   1   2
BRANCH   1  74
ATOM     74  C   UNL A   1      33.817  29.571  26.774  1.00  0.00     0.021 C 
BRANCH  74  75
ATOM     75  C   UNL A   1      33.987  28.289  25.958  1.00  0.00     0.116 C 
BRANCH  75  76
ATOM     76  N   UNL A   1      34.018  28.575  24.535  1.00  0.00    -0.354 N 
ATOM     77  C   UNL A   1      33.367  27.951  23.510  1.00  0.00     0.249 C 
ATOM     78  H   UNL A   1      34.593  29.328  24.271  1.00  0.00     0.163 HD
ATOM     79  O   UNL A   1      33.629  28.300  22.357  1.00  0.00    -0.272 OA
BRANCH  77  80
ATOM     80  C   UNL A   1      32.302  26.891  23.838  1.00  0.00     0.207 C 
ATOM     81  C   UNL A   1      31.608  26.454  22.553  1.00  0.00     0.045 C 
ATOM     82  O   UNL A   1      32.876  25.715  24.426  1.00  0.00    -0.363 OA
ATOM     83  C   UNL A   1      32.372  25.205  22.178  1.00  0.00     0.037 C 
ATOM     84  C   UNL A   1      32.701  24.601  23.532  1.00  0.00     0.138 C 
BRANCH  84  85
ATOM     85  C   UNL A   1      31.586  23.708  24.097  1.00  0.00     0.148 C 
BRANCH  85  86
ATOM     86  N   UNL A   1      31.542  23.705  25.551  1.00  0.00    -0.349 N 
ATOM     87  C   UNL A   1      32.291  22.957  26.425  1.00  0.00     0.255 C 
ATOM     88  H   UNL A   1      30.891  24.320  25.961  1.00  0.00     0.163 HD
ATOM     89  O   UNL A   1      32.060  23.006  27.631  1.00  0.00    -0.269 OA
BRANCH  87  90
ATOM     90  C   UNL A   1      33.319  22.022  25.920  1.00  0.00     0.081 A 
ATOM     91  C   UNL A   1      34.646  22.471  25.926  1.00  0.00     0.018 A 
ATOM     92  C   UNL A   1      33.018  20.752  25.417  1.00  0.00     0.128 A 
ATOM     93  C   UNL A   1      35.669  21.636  25.476  1.00  0.00     0.001 A 
ATOM     94  C   UNL A   1      34.043  19.914  24.973  1.00  0.00     0.047 A 
ATOM     95  C   UNL A   1      35.367  20.357  25.009  1.00  0.00     0.004 A 
BRANCH  92  96
ATOM     96  O   UNL A   1      31.721  20.319  25.357  1.00  0.00    -0.507 OA
ATOM     97  H   UNL A   1      31.356  20.049  24.539  1.00  0.00     0.293 HD
ENDBRANCH  92  96
ENDBRANCH  87  90
ENDBRANCH  85  86
ENDBRANCH  84  85
ENDBRANCH  77  80
ENDBRANCH  75  76
ENDBRANCH  74  75
ENDBRANCH   1  74
TORSDOF 20
ENDMDL
MODEL 3
REMARK VINA RESULT:     -10.5      5.992     10.282
REMARK SMILES O=C(NCCCCCCNC(=O)[C@H]1CC[C@H](CNC(=O)c2ccccc2O)O1)c1ccc(-c2c3nc(c(-c4cc(S(=O)(=O)[O-])ccc4F)c4ccc([nH]4)c(-c4cc(S(=O)(=O)[O-])ccc4F)c4nc(c(-c5cc(S(=O)(=O)[O-])ccc5F)c5ccc2[nH]5)C=C4)C=C3)cc1
REMARK SMILES IDX 7 1 6 2 5 3 4 4 3 5 1 6 2 7 29 9 30 10 91 11 31 12 90 13
REMARK SMILES IDX 32 14 33 15 34 16 84 17 35 18 89 19 83 20 85 21 36 22 88 23
REMARK SMILES IDX 82 24 81 25 37 27 69 28 49 29 68 30 50 31 53 32 67 33 86 34
REMARK SMILES IDX 51 35 52 36 66 38 87 39 54 40 38 41 39 42 47 43 40 44 46 45
REMARK SMILES IDX 48 46 45 47 41 48 42 49 43 50 44 51 70 52 71 53 79 54 72 55
REMARK SMILES IDX 78 56 80 57 77 58 73 59 74 60 75 61 76 62 55 63 56 64 64 65
REMARK SMILES IDX 57 66 63 67 65 68 62 69 58 70 59 71 60 72 61 73 8 74 9 75
REMARK SMILES IDX 10 76 11 77 12 79 13 80 14 81 28 82 15 83 16 84 17 85 18 86
REMARK SMILES IDX 19 87 20 89 21 90 22 91 26 92 23 93 25 94 24 95 27 96
REMARK H PARENT 3 8 85 26 53 37 10 78 18 88 27 97
REMARK Flexibility Score: inf
ROOT
ATOM      1  C   UNL A   1      39.657  22.739  26.400  1.00  0.00     0.002 C 
ENDROOT
BRANCH   1   2
ATOM      2  C   UNL A   1      40.436  22.225  27.615  1.00  0.00     0.002 C 
BRANCH   2   3
ATOM      3  C   UNL A   1      40.874  20.762  27.541  1.00  0.00     0.021 C 
BRANCH   3   4
ATOM      4  C   UNL A   1      40.704  20.112  26.175  1.00  0.00     0.116 C 
BRANCH   4   5
ATOM      5  N   UNL A   1      41.858  19.317  25.784  1.00  0.00    -0.352 N 
ATOM      6  O   UNL A   1      43.961  18.955  25.046  1.00  0.00    -0.269 OA
ATOM      7  C   UNL A   1      43.138  19.739  25.512  1.00  0.00     0.251 C 
ATOM      8  H   UNL A   1      41.702  18.348  25.702  1.00  0.00     0.163 HD
BRANCH   7   9
ATOM      9  C   UNL A   1      43.510  21.149  25.764  1.00  0.00     0.039 A 
ATOM     10  C   UNL A   1      44.030  21.530  27.003  1.00  0.00     0.014 A 
ATOM     11  C   UNL A   1      43.329  22.101  24.757  1.00  0.00     0.014 A 
ATOM     12  C   UNL A   1      44.234  22.877  27.281  1.00  0.00     0.010 A 
ATOM     13  C   UNL A   1      43.619  23.447  25.010  1.00  0.00     0.010 A 
ATOM     14  C   UNL A   1      44.048  23.850  26.284  1.00  0.00    -0.014 A 
BRANCH  14  15
ATOM     15  C   UNL A   1      44.370  25.266  26.599  1.00  0.00     0.031 A 
ATOM     16  C   UNL A   1      43.359  26.178  27.237  1.00  0.00     0.074 A 
ATOM     17  C   UNL A   1      45.620  25.707  26.353  1.00  0.00     0.049 A 
ATOM     18  N   UNL A   1      43.500  27.420  27.627  1.00  0.00    -0.248 NA
ATOM     19  C   UNL A   1      42.014  25.628  27.461  1.00  0.00     0.031 C 
ATOM     20  C   UNL A   1      46.678  24.913  25.719  1.00  0.00     0.029 A 
ATOM     21  N   UNL A   1      46.226  26.905  26.623  1.00  0.00    -0.354 N 
ATOM     22  C   UNL A   1      42.265  27.804  28.139  1.00  0.00     0.074 A 
ATOM     23  C   UNL A   1      41.376  26.673  27.972  1.00  0.00     0.031 C 
ATOM     24  C   UNL A   1      47.813  25.626  25.701  1.00  0.00     0.029 A 
ATOM     25  C   UNL A   1      47.551  26.947  26.258  1.00  0.00     0.049 A 
ATOM     26  H   UNL A   1      45.757  27.664  27.041  1.00  0.00     0.167 HD
ATOM     27  C   UNL A   1      41.913  28.986  28.706  1.00  0.00     0.034 A 
ATOM     28  C   UNL A   1      48.455  27.941  26.344  1.00  0.00     0.034 A 
ATOM     29  C   UNL A   1      42.811  30.108  28.856  1.00  0.00     0.049 A 
ATOM     30  C   UNL A   1      48.032  29.246  26.962  1.00  0.00     0.074 A 
ATOM     31  C   UNL A   1      42.556  31.353  29.407  1.00  0.00     0.029 A 
ATOM     32  N   UNL A   1      44.139  30.125  28.448  1.00  0.00    -0.354 N 
ATOM     33  N   UNL A   1      46.860  29.587  27.446  1.00  0.00    -0.248 NA
ATOM     34  C   UNL A   1      49.055  30.294  27.055  1.00  0.00     0.031 C 
ATOM     35  C   UNL A   1      43.710  32.136  29.285  1.00  0.00     0.029 A 
ATOM     36  C   UNL A   1      44.710  31.360  28.720  1.00  0.00     0.049 A 
ATOM     37  H   UNL A   1      44.609  29.369  28.027  1.00  0.00     0.167 HD
ATOM     38  C   UNL A   1      47.008  30.891  27.907  1.00  0.00     0.074 A 
ATOM     39  C   UNL A   1      48.392  31.256  27.677  1.00  0.00     0.031 C 
ATOM     40  C   UNL A   1      46.085  31.716  28.462  1.00  0.00     0.034 A 
BRANCH  27  41
ATOM     41  C   UNL A   1      40.484  29.133  29.174  1.00  0.00     0.023 A 
ATOM     42  C   UNL A   1      40.145  29.072  30.539  1.00  0.00     0.031 A 
ATOM     43  C   UNL A   1      39.444  29.327  28.248  1.00  0.00     0.131 A 
ATOM     44  C   UNL A   1      38.801  29.141  30.932  1.00  0.00     0.055 A 
ATOM     45  C   UNL A   1      38.114  29.468  28.651  1.00  0.00     0.041 A 
ATOM     46  F   UNL A   1      39.701  29.375  26.931  1.00  0.00    -0.206 F 
ATOM     47  C   UNL A   1      37.784  29.363  30.000  1.00  0.00     0.022 A 
BRANCH  44  48
ATOM     48  S   UNL A   1      38.386  28.819  32.668  1.00  0.00     0.124 S 
ATOM     49  O   UNL A   1      38.996  27.507  32.880  1.00  0.00    -0.237 OA
ATOM     50  O   UNL A   1      39.022  29.936  33.358  1.00  0.00    -0.237 OA
ATOM     51  O   UNL A   1      36.925  28.827  32.680  1.00  0.00    -0.744 OA
ENDBRANCH  44  48
ENDBRANCH  27  41
BRANCH  28  52
ATOM     52  C   UNL A   1      49.831  27.752  25.807  1.00  0.00     0.023 A 
ATOM     53  C   UNL A   1      50.168  28.147  24.504  1.00  0.00     0.031 A 
ATOM     54  C   UNL A   1      50.828  27.142  26.590  1.00  0.00     0.131 A 
ATOM     55  C   UNL A   1      51.454  27.889  24.006  1.00  0.00     0.055 A 
ATOM     56  C   UNL A   1      52.123  26.938  26.111  1.00  0.00     0.041 A 
ATOM     57  F   UNL A   1      50.561  26.750  27.847  1.00  0.00    -0.206 F 
ATOM     58  C   UNL A   1      52.437  27.300  24.805  1.00  0.00     0.022 A 
BRANCH  55  59
ATOM     59  S   UNL A   1      51.800  28.254  22.264  1.00  0.00     0.124 S 
ATOM     60  O   UNL A   1      53.257  28.228  22.236  1.00  0.00    -0.237 OA
ATOM     61  O   UNL A   1      51.125  27.152  21.586  1.00  0.00    -0.237 OA
ATOM     62  O   UNL A   1      51.194  29.569  22.066  1.00  0.00    -0.744 OA
ENDBRANCH  55  59
ENDBRANCH  28  52
BRANCH  40  63
ATOM     63  C   UNL A   1      46.567  33.085  28.872  1.00  0.00     0.023 A 
ATOM     64  C   UNL A   1      46.478  34.186  28.000  1.00  0.00     0.031 A 
ATOM     65  C   UNL A   1      47.168  33.281  30.127  1.00  0.00     0.131 A 
ATOM     66  C   UNL A   1      47.045  35.414  28.366  1.00  0.00     0.055 A 
ATOM     67  C   UNL A   1      47.676  34.522  30.511  1.00  0.00     0.041 A 
ATOM     68  F   UNL A   1      47.281  32.263  30.996  1.00  0.00    -0.206 F 
ATOM     69  C   UNL A   1      47.632  35.594  29.622  1.00  0.00     0.022 A 
BRANCH  66  70
ATOM     70  S   UNL A   1      47.104  36.746  27.136  1.00  0.00     0.124 S 
ATOM     71  O   UNL A   1      46.105  37.678  27.650  1.00  0.00    -0.237 OA
ATOM     72  O   UNL A   1      48.492  37.187  27.222  1.00  0.00    -0.237 OA
ATOM     73  O   UNL A   1      46.743  36.076  25.889  1.00  0.00    -0.744 OA
ENDBRANCH  66  70
ENDBRANCH  40  63
ENDBRANCH  14  15
ENDBRANCH   7   9
ENDBRANCH   4   5
ENDBRANCH   3   4
ENDBRANCH   2   3
ENDBRANCH   1   2
BRANCH   1  74
ATOM     74  C   UNL A   1      38.715  23.923  26.667  1.00  0.00     0.021 C 
BRANCH  74  75
ATOM     75  C   UNL A   1      37.313  23.762  26.079  1.00  0.00     0.116 C 
BRANCH  75  76
ATOM     76  N   UNL A   1      37.373  23.433  24.667  1.00  0.00    -0.354 N 
ATOM     77  C   UNL A   1      36.356  23.240  23.777  1.00  0.00     0.249 C 
ATOM     78  H   UNL A   1      38.280  23.335  24.296  1.00  0.00     0.163 HD
ATOM     79  O   UNL A   1      36.643  22.860  22.639  1.00  0.00    -0.272 OA
BRANCH  77  80
ATOM     80  C   UNL A   1      34.915  23.556  24.210  1.00  0.00     0.207 C 
ATOM     81  C   UNL A   1      34.226  24.372  23.123  1.00  0.00     0.045 C 
ATOM     82  O   UNL A   1      34.136  22.367  24.401  1.00  0.00    -0.363 OA
ATOM     83  C   UNL A   1      33.486  23.312  22.339  1.00  0.00     0.037 C 
ATOM     84  C   UNL A   1      33.085  22.323  23.419  1.00  0.00     0.138 C 
BRANCH  84  85
ATOM     85  C   UNL A   1      31.764  22.676  24.119  1.00  0.00     0.148 C 
BRANCH  85  86
ATOM     86  N   UNL A   1      31.802  22.447  25.555  1.00  0.00    -0.349 N 
ATOM     87  C   UNL A   1      31.846  23.376  26.565  1.00  0.00     0.255 C 
ATOM     88  H   UNL A   1      31.795  21.505  25.839  1.00  0.00     0.163 HD
ATOM     89  O   UNL A   1      31.971  23.010  27.732  1.00  0.00    -0.269 OA
BRANCH  87  90
ATOM     90  C   UNL A   1      31.831  24.821  26.255  1.00  0.00     0.081 A 
ATOM     91  C   UNL A   1      33.049  25.507  26.352  1.00  0.00     0.018 A 
ATOM     92  C   UNL A   1      30.667  25.518  25.911  1.00  0.00     0.128 A 
ATOM     93  C   UNL A   1      33.110  26.870  26.061  1.00  0.00     0.001 A 
ATOM     94  C   UNL A   1      30.729  26.881  25.613  1.00  0.00     0.047 A 
ATOM     95  C   UNL A   1      31.953  27.552  25.683  1.00  0.00     0.004 A 
BRANCH  92  96
ATOM     96  O   UNL A   1      29.462  24.873  25.862  1.00  0.00    -0.507 OA
ATOM     97  H   UNL A   1      29.425  23.942  25.952  1.00  0.00     0.293 HD
ENDBRANCH  92  96
ENDBRANCH  87  90
ENDBRANCH  85  86
ENDBRANCH  84  85
ENDBRANCH  77  80
ENDBRANCH  75  76
ENDBRANCH  74  75
ENDBRANCH   1  74
TORSDOF 20
ENDMDL
