MODEL 1
REMARK VINA RESULT:     -13.0      0.000      0.000
REMARK SMILES O=C(NCCCCCCNC(=O)c1cccc2c1N[C@H](c1ccccc1Br)[C@H]1CC=C[C@H]21)c1ccc(-c2c3nc(c(-c4cc(S(=O)(=O)[O-])ccc4F)c4ccc([nH]4)c(-c4cc(S(=O)(=O)[O-])ccc4F)c4nc(c(-c5cc(S(=O)(=O)[O-])ccc5F)c5ccc2[nH]5)C=C4)C=C3)cc1
REMARK SMILES IDX 5 1 4 2 3 3 1 4 2 5 33 7 34 8 95 9 35 10 94 11 36 12 37 13
REMARK SMILES IDX 38 14 88 15 39 16 93 17 87 18 89 19 40 20 92 21 86 22 85 23
REMARK SMILES IDX 41 25 73 26 53 27 72 28 54 29 57 30 71 31 90 32 55 33 56 34
REMARK SMILES IDX 70 36 91 37 58 38 42 39 43 40 51 41 44 42 50 43 52 44 49 45
REMARK SMILES IDX 45 46 46 47 47 48 48 49 74 50 75 51 83 52 76 53 82 54 84 55
REMARK SMILES IDX 81 56 77 57 78 58 79 59 80 60 59 61 60 62 68 63 61 64 67 65
REMARK SMILES IDX 69 66 66 67 62 68 63 69 64 70 65 71 6 72 7 73 8 74 9 75
REMARK SMILES IDX 10 76 11 77 12 79 13 80 14 81 18 82 15 83 17 84 19 85 16 86
REMARK SMILES IDX 32 87 20 88 28 90 31 91 29 92 30 93 21 94 22 95 26 96 23 97
REMARK SMILES IDX 25 98 27 99 24 100
REMARK H PARENT 3 6 89 24 57 35 10 78 19 89
REMARK Flexibility Score: inf
ROOT
ATOM      1  C   UNL A   1      37.995  20.444  25.049  1.00  0.00     0.021 C 
ENDROOT
BRANCH   1   2
ATOM      2  C   UNL A   1      39.156  20.688  26.007  1.00  0.00     0.116 C 
BRANCH   2   3
ATOM      3  N   UNL A   1      40.099  19.584  26.012  1.00  0.00    -0.352 N 
ATOM      4  O   UNL A   1      42.088  18.559  25.854  1.00  0.00    -0.269 OA
ATOM      5  C   UNL A   1      41.467  19.602  26.055  1.00  0.00     0.251 C 
ATOM      6  H   UNL A   1      39.693  18.688  25.979  1.00  0.00     0.163 HD
BRANCH   5   7
ATOM      7  C   UNL A   1      42.204  20.853  26.345  1.00  0.00     0.039 A 
ATOM      8  C   UNL A   1      42.454  21.186  27.681  1.00  0.00     0.014 A 
ATOM      9  C   UNL A   1      42.562  21.741  25.327  1.00  0.00     0.014 A 
ATOM     10  C   UNL A   1      43.056  22.406  27.998  1.00  0.00     0.010 A 
ATOM     11  C   UNL A   1      43.214  22.933  25.639  1.00  0.00     0.010 A 
ATOM     12  C   UNL A   1      43.432  23.292  26.979  1.00  0.00    -0.014 A 
BRANCH  12  13
ATOM     13  C   UNL A   1      43.952  24.650  27.283  1.00  0.00     0.031 A 
ATOM     14  C   UNL A   1      42.994  25.703  27.773  1.00  0.00     0.074 A 
ATOM     15  C   UNL A   1      45.247  24.950  27.077  1.00  0.00     0.049 A 
ATOM     16  N   UNL A   1      43.197  26.979  27.959  1.00  0.00    -0.248 NA
ATOM     17  C   UNL A   1      41.620  25.263  28.072  1.00  0.00     0.031 C 
ATOM     18  C   UNL A   1      46.262  24.010  26.606  1.00  0.00     0.029 A 
ATOM     19  N   UNL A   1      45.927  26.137  27.215  1.00  0.00    -0.354 N 
ATOM     20  C   UNL A   1      41.974  27.499  28.370  1.00  0.00     0.074 A 
ATOM     21  C   UNL A   1      41.026  26.410  28.370  1.00  0.00     0.031 C 
ATOM     22  C   UNL A   1      47.434  24.655  26.489  1.00  0.00     0.029 A 
ATOM     23  C   UNL A   1      47.246  26.065  26.827  1.00  0.00     0.049 A 
ATOM     24  H   UNL A   1      45.510  26.960  27.558  1.00  0.00     0.167 HD
ATOM     25  C   UNL A   1      41.680  28.769  28.732  1.00  0.00     0.034 A 
ATOM     26  C   UNL A   1      48.187  27.030  26.728  1.00  0.00     0.034 A 
ATOM     27  C   UNL A   1      42.650  29.830  28.775  1.00  0.00     0.049 A 
ATOM     28  C   UNL A   1      47.833  28.441  27.137  1.00  0.00     0.074 A 
ATOM     29  C   UNL A   1      42.458  31.138  29.181  1.00  0.00     0.029 A 
ATOM     30  N   UNL A   1      43.983  29.708  28.419  1.00  0.00    -0.354 N 
ATOM     31  N   UNL A   1      46.687  28.905  27.582  1.00  0.00    -0.248 NA
ATOM     32  C   UNL A   1      48.889  29.460  27.044  1.00  0.00     0.031 C 
ATOM     33  C   UNL A   1      43.662  31.822  29.020  1.00  0.00     0.029 A 
ATOM     34  C   UNL A   1      44.623  30.924  28.580  1.00  0.00     0.049 A 
ATOM     35  H   UNL A   1      44.412  28.881  28.101  1.00  0.00     0.167 HD
ATOM     36  C   UNL A   1      46.896  30.255  27.850  1.00  0.00     0.074 A 
ATOM     37  C   UNL A   1      48.279  30.534  27.533  1.00  0.00     0.031 C 
ATOM     38  C   UNL A   1      46.017  31.179  28.309  1.00  0.00     0.034 A 
BRANCH  25  39
ATOM     39  C   UNL A   1      40.272  29.104  29.147  1.00  0.00     0.023 A 
ATOM     40  C   UNL A   1      39.906  29.021  30.504  1.00  0.00     0.031 A 
ATOM     41  C   UNL A   1      39.265  29.336  28.195  1.00  0.00     0.131 A 
ATOM     42  C   UNL A   1      38.557  29.120  30.866  1.00  0.00     0.055 A 
ATOM     43  C   UNL A   1      37.927  29.477  28.566  1.00  0.00     0.041 A 
ATOM     44  F   UNL A   1      39.567  29.423  26.891  1.00  0.00    -0.206 F 
ATOM     45  C   UNL A   1      37.567  29.353  29.905  1.00  0.00     0.022 A 
BRANCH  42  46
ATOM     46  S   UNL A   1      38.031  28.881  32.585  1.00  0.00     0.124 S 
ATOM     47  O   UNL A   1      39.027  29.664  33.316  1.00  0.00    -0.237 OA
ATOM     48  O   UNL A   1      36.683  29.444  32.572  1.00  0.00    -0.237 OA
ATOM     49  O   UNL A   1      38.114  27.440  32.781  1.00  0.00    -0.744 OA
ENDBRANCH  42  46
ENDBRANCH  25  39
BRANCH  26  50
ATOM     50  C   UNL A   1      49.555  26.670  26.249  1.00  0.00     0.023 A 
ATOM     51  C   UNL A   1      50.037  27.144  25.014  1.00  0.00     0.031 A 
ATOM     52  C   UNL A   1      50.364  25.778  26.972  1.00  0.00     0.131 A 
ATOM     53  C   UNL A   1      51.261  26.677  24.515  1.00  0.00     0.055 A 
ATOM     54  C   UNL A   1      51.614  25.369  26.504  1.00  0.00     0.041 A 
ATOM     55  F   UNL A   1      49.944  25.286  28.148  1.00  0.00    -0.206 F 
ATOM     56  C   UNL A   1      52.060  25.806  25.260  1.00  0.00     0.022 A 
BRANCH  53  57
ATOM     57  S   UNL A   1      51.783  27.073  22.822  1.00  0.00     0.124 S 
ATOM     58  O   UNL A   1      52.806  26.060  22.576  1.00  0.00    -0.237 OA
ATOM     59  O   UNL A   1      50.538  26.905  22.075  1.00  0.00    -0.237 OA
ATOM     60  O   UNL A   1      52.260  28.446  22.920  1.00  0.00    -0.744 OA
ENDBRANCH  53  57
ENDBRANCH  26  50
BRANCH  38  61
ATOM     61  C   UNL A   1      46.485  32.593  28.547  1.00  0.00     0.023 A 
ATOM     62  C   UNL A   1      46.608  33.476  27.456  1.00  0.00     0.031 A 
ATOM     63  C   UNL A   1      47.016  32.985  29.787  1.00  0.00     0.131 A 
ATOM     64  C   UNL A   1      47.310  34.678  27.609  1.00  0.00     0.055 A 
ATOM     65  C   UNL A   1      47.672  34.205  29.946  1.00  0.00     0.041 A 
ATOM     66  F   UNL A   1      46.933  32.170  30.851  1.00  0.00    -0.206 F 
ATOM     67  C   UNL A   1      47.839  35.049  28.850  1.00  0.00     0.022 A 
BRANCH  64  68
ATOM     68  S   UNL A   1      47.658  35.745  26.184  1.00  0.00     0.124 S 
ATOM     69  O   UNL A   1      46.483  36.614  26.162  1.00  0.00    -0.237 OA
ATOM     70  O   UNL A   1      48.904  36.392  26.583  1.00  0.00    -0.237 OA
ATOM     71  O   UNL A   1      47.762  34.816  25.064  1.00  0.00    -0.744 OA
ENDBRANCH  64  68
ENDBRANCH  38  61
ENDBRANCH  12  13
ENDBRANCH   5   7
ENDBRANCH   2   3
ENDBRANCH   1   2
BRANCH   1  72
ATOM     72  C   UNL A   1      37.052  21.632  24.842  1.00  0.00     0.002 C 
BRANCH  72  73
ATOM     73  C   UNL A   1      35.611  21.434  25.321  1.00  0.00     0.002 C 
BRANCH  73  74
ATOM     74  C   UNL A   1      35.226  22.169  26.609  1.00  0.00     0.021 C 
BRANCH  74  75
ATOM     75  C   UNL A   1      34.222  21.441  27.495  1.00  0.00     0.116 C 
BRANCH  75  76
ATOM     76  N   UNL A   1      33.080  22.270  27.839  1.00  0.00    -0.352 N 
ATOM     77  C   UNL A   1      32.164  22.838  26.993  1.00  0.00     0.253 C 
ATOM     78  H   UNL A   1      32.948  22.444  28.799  1.00  0.00     0.163 HD
ATOM     79  O   UNL A   1      31.296  23.586  27.440  1.00  0.00    -0.269 OA
BRANCH  77  80
ATOM     80  C   UNL A   1      32.236  22.586  25.538  1.00  0.00     0.063 A 
ATOM     81  C   UNL A   1      31.951  21.274  25.131  1.00  0.00     0.016 A 
ATOM     82  C   UNL A   1      32.621  23.575  24.608  1.00  0.00     0.051 A 
ATOM     83  C   UNL A   1      32.017  20.929  23.786  1.00  0.00     0.001 A 
ATOM     84  C   UNL A   1      32.699  23.195  23.243  1.00  0.00    -0.017 A 
ATOM     85  N   UNL A   1      32.856  24.900  24.983  1.00  0.00    -0.377 N 
ATOM     86  C   UNL A   1      32.400  21.883  22.846  1.00  0.00     0.006 A 
ATOM     87  C   UNL A   1      33.235  24.224  22.286  1.00  0.00     0.049 C 
ATOM     88  C   UNL A   1      33.112  25.991  24.033  1.00  0.00     0.115 C 
ATOM     89  H   UNL A   1      32.850  25.115  25.944  1.00  0.00     0.161 HD
ATOM     90  C   UNL A   1      32.620  25.580  22.650  1.00  0.00     0.031 C 
ATOM     91  C   UNL A   1      32.918  24.191  20.820  1.00  0.00    -0.023 C 
ATOM     92  C   UNL A   1      32.975  26.454  21.449  1.00  0.00     0.034 C 
ATOM     93  C   UNL A   1      32.816  25.444  20.347  1.00  0.00    -0.030 C 
BRANCH  88  94
ATOM     94  C   UNL A   1      32.659  27.323  24.636  1.00  0.00    -0.011 A 
ATOM     95  C   UNL A   1      33.660  28.030  25.352  1.00  0.00     0.007 A 
ATOM     96  C   UNL A   1      31.401  27.950  24.540  1.00  0.00     0.023 A 
ATOM     97  C   UNL A   1      33.456  29.321  25.848  1.00  0.00     0.000 A 
ATOM     98  C   UNL A   1      31.223  29.274  24.981  1.00  0.00     0.016 A 
ATOM     99  Br  UNL A   1      29.788  27.127  23.963  1.00  0.00    -0.050 Br
ATOM    100  C   UNL A   1      32.248  29.962  25.622  1.00  0.00     0.001 A 
ENDBRANCH  88  94
ENDBRANCH  77  80
ENDBRANCH  75  76
ENDBRANCH  74  75
ENDBRANCH  73  74
ENDBRANCH  72  73
ENDBRANCH   1  72
TORSDOF 17
ENDMDL
MODEL 2
REMARK VINA RESULT:     -12.9      2.390      2.928
REMARK SMILES O=C(NCCCCCCNC(=O)c1cccc2c1N[C@H](c1ccccc1Br)[C@H]1CC=C[C@H]21)c1ccc(-c2c3nc(c(-c4cc(S(=O)(=O)[O-])ccc4F)c4ccc([nH]4)c(-c4cc(S(=O)(=O)[O-])ccc4F)c4nc(c(-c5cc(S(=O)(=O)[O-])ccc5F)c5ccc2[nH]5)C=C4)C=C3)cc1
REMARK SMILES IDX 5 1 4 2 3 3 1 4 2 5 33 7 34 8 95 9 35 10 94 11 36 12 37 13
REMARK SMILES IDX 38 14 88 15 39 16 93 17 87 18 89 19 40 20 92 21 86 22 85 23
REMARK SMILES IDX 41 25 73 26 53 27 72 28 54 29 57 30 71 31 90 32 55 33 56 34
REMARK SMILES IDX 70 36 91 37 58 38 42 39 43 40 51 41 44 42 50 43 52 44 49 45
REMARK SMILES IDX 45 46 46 47 47 48 48 49 74 50 75 51 83 52 76 53 82 54 84 55
REMARK SMILES IDX 81 56 77 57 78 58 79 59 80 60 59 61 60 62 68 63 61 64 67 65
REMARK SMILES IDX 69 66 66 67 62 68 63 69 64 70 65 71 6 72 7 73 8 74 9 75
REMARK SMILES IDX 10 76 11 77 12 79 13 80 14 81 18 82 15 83 17 84 19 85 16 86
REMARK SMILES IDX 32 87 20 88 28 90 31 91 29 92 30 93 21 94 22 95 26 96 23 97
REMARK SMILES IDX 25 98 27 99 24 100
REMARK H PARENT 3 6 89 24 57 35 10 78 19 89
REMARK Flexibility Score: inf
ROOT
ATOM      1  C   UNL A   1      36.720  20.392  24.974  1.00  0.00     0.021 C 
ENDROOT
BRANCH   1   2
ATOM      2  C   UNL A   1      38.115  20.988  25.133  1.00  0.00     0.116 C 
BRANCH   2   3
ATOM      3  N   UNL A   1      39.049  20.040  25.714  1.00  0.00    -0.352 N 
ATOM      4  O   UNL A   1      40.961  19.319  26.640  1.00  0.00    -0.269 OA
ATOM      5  C   UNL A   1      40.212  20.265  26.399  1.00  0.00     0.251 C 
ATOM      6  H   UNL A   1      38.809  19.092  25.597  1.00  0.00     0.163 HD
BRANCH   5   7
ATOM      7  C   UNL A   1      40.576  21.625  26.856  1.00  0.00     0.039 A 
ATOM      8  C   UNL A   1      40.102  22.723  26.129  1.00  0.00     0.014 A 
ATOM      9  C   UNL A   1      41.452  21.825  27.927  1.00  0.00     0.014 A 
ATOM     10  C   UNL A   1      40.507  24.016  26.470  1.00  0.00     0.010 A 
ATOM     11  C   UNL A   1      41.811  23.118  28.303  1.00  0.00     0.010 A 
ATOM     12  C   UNL A   1      41.372  24.222  27.555  1.00  0.00    -0.014 A 
BRANCH  12  13
ATOM     13  C   UNL A   1      41.926  25.565  27.862  1.00  0.00     0.031 A 
ATOM     14  C   UNL A   1      41.055  26.566  28.572  1.00  0.00     0.074 A 
ATOM     15  C   UNL A   1      43.169  25.900  27.469  1.00  0.00     0.049 A 
ATOM     16  N   UNL A   1      41.278  27.831  28.809  1.00  0.00    -0.248 NA
ATOM     17  C   UNL A   1      39.751  26.085  29.059  1.00  0.00     0.031 C 
ATOM     18  C   UNL A   1      44.099  25.010  26.778  1.00  0.00     0.029 A 
ATOM     19  N   UNL A   1      43.855  27.086  27.576  1.00  0.00    -0.354 N 
ATOM     20  C   UNL A   1      40.136  28.302  29.447  1.00  0.00     0.074 A 
ATOM     21  C   UNL A   1      39.206  27.200  29.527  1.00  0.00     0.031 C 
ATOM     22  C   UNL A   1      45.232  25.681  26.516  1.00  0.00     0.029 A 
ATOM     23  C   UNL A   1      45.094  27.062  26.975  1.00  0.00     0.049 A 
ATOM     24  H   UNL A   1      43.495  27.877  28.037  1.00  0.00     0.167 HD
ATOM     25  C   UNL A   1      39.897  29.540  29.937  1.00  0.00     0.034 A 
ATOM     26  C   UNL A   1      46.000  28.047  26.790  1.00  0.00     0.034 A 
ATOM     27  C   UNL A   1      40.855  30.612  29.895  1.00  0.00     0.049 A 
ATOM     28  C   UNL A   1      45.710  29.421  27.347  1.00  0.00     0.074 A 
ATOM     29  C   UNL A   1      40.725  31.887  30.414  1.00  0.00     0.029 A 
ATOM     30  N   UNL A   1      42.113  30.536  29.319  1.00  0.00    -0.354 N 
ATOM     31  N   UNL A   1      44.649  29.835  28.002  1.00  0.00    -0.248 NA
ATOM     32  C   UNL A   1      46.730  30.462  27.153  1.00  0.00     0.031 C 
ATOM     33  C   UNL A   1      41.882  32.600  30.107  1.00  0.00     0.029 A 
ATOM     34  C   UNL A   1      42.763  31.750  29.456  1.00  0.00     0.049 A 
ATOM     35  H   UNL A   1      42.489  29.739  28.880  1.00  0.00     0.167 HD
ATOM     36  C   UNL A   1      44.891  31.169  28.324  1.00  0.00     0.074 A 
ATOM     37  C   UNL A   1      46.202  31.491  27.806  1.00  0.00     0.031 C 
ATOM     38  C   UNL A   1      44.093  32.046  28.981  1.00  0.00     0.034 A 
BRANCH  25  39
ATOM     39  C   UNL A   1      38.573  29.823  30.597  1.00  0.00     0.023 A 
ATOM     40  C   UNL A   1      37.621  30.621  29.937  1.00  0.00     0.031 A 
ATOM     41  C   UNL A   1      38.327  29.451  31.929  1.00  0.00     0.131 A 
ATOM     42  C   UNL A   1      36.486  31.063  30.629  1.00  0.00     0.055 A 
ATOM     43  C   UNL A   1      37.173  29.858  32.601  1.00  0.00     0.041 A 
ATOM     44  F   UNL A   1      39.207  28.690  32.599  1.00  0.00    -0.206 F 
ATOM     45  C   UNL A   1      36.255  30.681  31.955  1.00  0.00     0.022 A 
BRANCH  42  46
ATOM     46  S   UNL A   1      35.306  32.203  29.856  1.00  0.00     0.124 S 
ATOM     47  O   UNL A   1      34.380  32.469  30.957  1.00  0.00    -0.237 OA
ATOM     48  O   UNL A   1      36.166  33.322  29.480  1.00  0.00    -0.237 OA
ATOM     49  O   UNL A   1      34.747  31.434  28.751  1.00  0.00    -0.744 OA
ENDBRANCH  42  46
ENDBRANCH  25  39
BRANCH  26  50
ATOM     50  C   UNL A   1      47.274  27.743  26.073  1.00  0.00     0.023 A 
ATOM     51  C   UNL A   1      47.392  27.955  24.686  1.00  0.00     0.031 A 
ATOM     52  C   UNL A   1      48.359  27.152  26.741  1.00  0.00     0.131 A 
ATOM     53  C   UNL A   1      48.540  27.526  24.007  1.00  0.00     0.055 A 
ATOM     54  C   UNL A   1      49.530  26.789  26.073  1.00  0.00     0.041 A 
ATOM     55  F   UNL A   1      48.291  26.914  28.061  1.00  0.00    -0.206 F 
ATOM     56  C   UNL A   1      49.617  26.960  24.694  1.00  0.00     0.022 A 
BRANCH  53  57
ATOM     57  S   UNL A   1      48.611  27.558  22.193  1.00  0.00     0.124 S 
ATOM     58  O   UNL A   1      49.837  28.314  21.951  1.00  0.00    -0.237 OA
ATOM     59  O   UNL A   1      48.676  26.134  21.869  1.00  0.00    -0.237 OA
ATOM     60  O   UNL A   1      47.371  28.219  21.810  1.00  0.00    -0.744 OA
ENDBRANCH  53  57
ENDBRANCH  26  50
BRANCH  38  61
ATOM     61  C   UNL A   1      44.585  33.448  29.235  1.00  0.00     0.023 A 
ATOM     62  C   UNL A   1      45.250  33.744  30.442  1.00  0.00     0.031 A 
ATOM     63  C   UNL A   1      44.200  34.515  28.407  1.00  0.00     0.131 A 
ATOM     64  C   UNL A   1      45.446  35.077  30.821  1.00  0.00     0.055 A 
ATOM     65  C   UNL A   1      44.443  35.841  28.765  1.00  0.00     0.041 A 
ATOM     66  F   UNL A   1      43.553  34.282  27.253  1.00  0.00    -0.206 F 
ATOM     67  C   UNL A   1      45.050  36.128  29.986  1.00  0.00     0.022 A 
BRANCH  64  68
ATOM     68  S   UNL A   1      46.119  35.496  32.453  1.00  0.00     0.124 S 
ATOM     69  O   UNL A   1      47.265  34.593  32.549  1.00  0.00    -0.237 OA
ATOM     70  O   UNL A   1      46.450  36.909  32.294  1.00  0.00    -0.237 OA
ATOM     71  O   UNL A   1      45.023  35.205  33.372  1.00  0.00    -0.744 OA
ENDBRANCH  64  68
ENDBRANCH  38  61
ENDBRANCH  12  13
ENDBRANCH   5   7
ENDBRANCH   2   3
ENDBRANCH   1   2
BRANCH   1  72
ATOM     72  C   UNL A   1      35.584  21.407  24.823  1.00  0.00     0.002 C 
BRANCH  72  73
ATOM     73  C   UNL A   1      35.831  22.785  25.443  1.00  0.00     0.002 C 
BRANCH  73  74
ATOM     74  C   UNL A   1      35.412  22.946  26.908  1.00  0.00     0.021 C 
BRANCH  74  75
ATOM     75  C   UNL A   1      34.432  21.898  27.420  1.00  0.00     0.116 C 
BRANCH  75  76
ATOM     76  N   UNL A   1      33.154  22.472  27.806  1.00  0.00    -0.352 N 
ATOM     77  C   UNL A   1      32.116  22.843  26.993  1.00  0.00     0.253 C 
ATOM     78  H   UNL A   1      33.019  22.611  28.771  1.00  0.00     0.163 HD
ATOM     79  O   UNL A   1      31.126  23.394  27.472  1.00  0.00    -0.269 OA
BRANCH  77  80
ATOM     80  C   UNL A   1      32.195  22.619  25.534  1.00  0.00     0.063 A 
ATOM     81  C   UNL A   1      31.916  21.313  25.101  1.00  0.00     0.016 A 
ATOM     82  C   UNL A   1      32.579  23.626  24.623  1.00  0.00     0.051 A 
ATOM     83  C   UNL A   1      31.989  20.994  23.750  1.00  0.00     0.001 A 
ATOM     84  C   UNL A   1      32.663  23.271  23.252  1.00  0.00    -0.017 A 
ATOM     85  N   UNL A   1      32.808  24.944  25.024  1.00  0.00    -0.377 N 
ATOM     86  C   UNL A   1      32.371  21.965  22.830  1.00  0.00     0.006 A 
ATOM     87  C   UNL A   1      33.200  24.320  22.315  1.00  0.00     0.049 C 
ATOM     88  C   UNL A   1      33.062  26.054  24.094  1.00  0.00     0.115 C 
ATOM     89  H   UNL A   1      32.798  25.142  25.988  1.00  0.00     0.161 HD
ATOM     90  C   UNL A   1      32.578  25.667  22.702  1.00  0.00     0.031 C 
ATOM     91  C   UNL A   1      32.888  24.313  20.848  1.00  0.00    -0.023 C 
ATOM     92  C   UNL A   1      32.934  26.564  21.519  1.00  0.00     0.034 C 
ATOM     93  C   UNL A   1      32.783  25.574  20.398  1.00  0.00    -0.030 C 
BRANCH  88  94
ATOM     94  C   UNL A   1      32.603  27.372  24.720  1.00  0.00    -0.011 A 
ATOM     95  C   UNL A   1      33.537  27.978  25.601  1.00  0.00     0.007 A 
ATOM     96  C   UNL A   1      31.401  28.076  24.507  1.00  0.00     0.023 A 
ATOM     97  C   UNL A   1      33.335  29.248  26.150  1.00  0.00     0.000 A 
ATOM     98  C   UNL A   1      31.233  29.380  25.007  1.00  0.00     0.016 A 
ATOM     99  Br  UNL A   1      29.836  27.382  23.679  1.00  0.00    -0.050 Br
ATOM    100  C   UNL A   1      32.200  29.969  25.815  1.00  0.00     0.001 A 
ENDBRANCH  88  94
ENDBRANCH  77  80
ENDBRANCH  75  76
ENDBRANCH  74  75
ENDBRANCH  73  74
ENDBRANCH  72  73
ENDBRANCH   1  72
TORSDOF 17
ENDMDL
MODEL 3
REMARK VINA RESULT:     -12.8      2.323      7.848
REMARK SMILES O=C(NCCCCCCNC(=O)c1cccc2c1N[C@H](c1ccccc1Br)[C@H]1CC=C[C@H]21)c1ccc(-c2c3nc(c(-c4cc(S(=O)(=O)[O-])ccc4F)c4ccc([nH]4)c(-c4cc(S(=O)(=O)[O-])ccc4F)c4nc(c(-c5cc(S(=O)(=O)[O-])ccc5F)c5ccc2[nH]5)C=C4)C=C3)cc1
REMARK SMILES IDX 5 1 4 2 3 3 1 4 2 5 33 7 34 8 95 9 35 10 94 11 36 12 37 13
REMARK SMILES IDX 38 14 88 15 39 16 93 17 87 18 89 19 40 20 92 21 86 22 85 23
REMARK SMILES IDX 41 25 73 26 53 27 72 28 54 29 57 30 71 31 90 32 55 33 56 34
REMARK SMILES IDX 70 36 91 37 58 38 42 39 43 40 51 41 44 42 50 43 52 44 49 45
REMARK SMILES IDX 45 46 46 47 47 48 48 49 74 50 75 51 83 52 76 53 82 54 84 55
REMARK SMILES IDX 81 56 77 57 78 58 79 59 80 60 59 61 60 62 68 63 61 64 67 65
REMARK SMILES IDX 69 66 66 67 62 68 63 69 64 70 65 71 6 72 7 73 8 74 9 75
REMARK SMILES IDX 10 76 11 77 12 79 13 80 14 81 18 82 15 83 17 84 19 85 16 86
REMARK SMILES IDX 32 87 20 88 28 90 31 91 29 92 30 93 21 94 22 95 26 96 23 97
REMARK SMILES IDX 25 98 27 99 24 100
REMARK H PARENT 3 6 89 24 57 35 10 78 19 89
REMARK Flexibility Score: inf
ROOT
ATOM      1  C   UNL A   1      39.612  19.852  25.746  1.00  0.00     0.021 C 
ENDROOT
BRANCH   1   2
ATOM      2  C   UNL A   1      40.745  19.741  26.761  1.00  0.00     0.116 C 
BRANCH   2   3
ATOM      3  N   UNL A   1      42.026  19.498  26.122  1.00  0.00    -0.352 N 
ATOM      4  O   UNL A   1      43.930  19.994  25.044  1.00  0.00    -0.269 OA
ATOM      5  C   UNL A   1      43.000  20.384  25.749  1.00  0.00     0.251 C 
ATOM      6  H   UNL A   1      42.223  18.553  25.928  1.00  0.00     0.163 HD
BRANCH   5   7
ATOM      7  C   UNL A   1      42.953  21.797  26.187  1.00  0.00     0.039 A 
ATOM      8  C   UNL A   1      42.841  22.795  25.212  1.00  0.00     0.014 A 
ATOM      9  C   UNL A   1      43.114  22.151  27.530  1.00  0.00     0.014 A 
ATOM     10  C   UNL A   1      42.895  24.142  25.579  1.00  0.00     0.010 A 
ATOM     11  C   UNL A   1      43.111  23.494  27.903  1.00  0.00     0.010 A 
ATOM     12  C   UNL A   1      43.040  24.501  26.927  1.00  0.00    -0.014 A 
BRANCH  12  13
ATOM     13  C   UNL A   1      43.233  25.914  27.337  1.00  0.00     0.031 A 
ATOM     14  C   UNL A   1      44.619  26.500  27.301  1.00  0.00     0.074 A 
ATOM     15  C   UNL A   1      42.196  26.647  27.783  1.00  0.00     0.049 A 
ATOM     16  N   UNL A   1      45.040  27.652  27.747  1.00  0.00    -0.248 NA
ATOM     17  C   UNL A   1      45.677  25.666  26.702  1.00  0.00     0.031 C 
ATOM     18  C   UNL A   1      40.812  26.183  27.860  1.00  0.00     0.029 A 
ATOM     19  N   UNL A   1      42.149  27.929  28.276  1.00  0.00    -0.354 N 
ATOM     20  C   UNL A   1      46.410  27.673  27.508  1.00  0.00     0.074 A 
ATOM     21  C   UNL A   1      46.758  26.404  26.913  1.00  0.00     0.031 C 
ATOM     22  C   UNL A   1      40.052  27.162  28.375  1.00  0.00     0.029 A 
ATOM     23  C   UNL A   1      40.898  28.306  28.712  1.00  0.00     0.049 A 
ATOM     24  H   UNL A   1      42.934  28.521  28.315  1.00  0.00     0.167 HD
ATOM     25  C   UNL A   1      47.290  28.671  27.749  1.00  0.00     0.034 A 
ATOM     26  C   UNL A   1      40.488  29.432  29.337  1.00  0.00     0.034 A 
ATOM     27  C   UNL A   1      46.917  29.948  28.296  1.00  0.00     0.049 A 
ATOM     28  C   UNL A   1      41.490  30.532  29.595  1.00  0.00     0.074 A 
ATOM     29  C   UNL A   1      47.730  31.042  28.526  1.00  0.00     0.029 A 
ATOM     30  N   UNL A   1      45.636  30.307  28.682  1.00  0.00    -0.354 N 
ATOM     31  N   UNL A   1      42.772  30.560  29.308  1.00  0.00    -0.248 NA
ATOM     32  C   UNL A   1      41.003  31.754  30.252  1.00  0.00     0.031 C 
ATOM     33  C   UNL A   1      46.953  32.046  29.100  1.00  0.00     0.029 A 
ATOM     34  C   UNL A   1      45.640  31.603  29.165  1.00  0.00     0.049 A 
ATOM     35  H   UNL A   1      44.842  29.728  28.621  1.00  0.00     0.167 HD
ATOM     36  C   UNL A   1      43.232  31.809  29.717  1.00  0.00     0.074 A 
ATOM     37  C   UNL A   1      42.092  32.516  30.259  1.00  0.00     0.031 C 
ATOM     38  C   UNL A   1      44.486  32.318  29.656  1.00  0.00     0.034 A 
BRANCH  25  39
ATOM     39  C   UNL A   1      48.742  28.466  27.403  1.00  0.00     0.023 A 
ATOM     40  C   UNL A   1      49.158  28.556  26.061  1.00  0.00     0.031 A 
ATOM     41  C   UNL A   1      49.666  28.022  28.362  1.00  0.00     0.131 A 
ATOM     42  C   UNL A   1      50.453  28.157  25.709  1.00  0.00     0.055 A 
ATOM     43  C   UNL A   1      50.970  27.667  28.012  1.00  0.00     0.041 A 
ATOM     44  F   UNL A   1      49.314  27.921  29.654  1.00  0.00    -0.206 F 
ATOM     45  C   UNL A   1      51.362  27.718  26.677  1.00  0.00     0.022 A 
BRANCH  42  46
ATOM     46  S   UNL A   1      50.982  28.128  23.974  1.00  0.00     0.124 S 
ATOM     47  O   UNL A   1      49.726  27.842  23.281  1.00  0.00    -0.237 OA
ATOM     48  O   UNL A   1      51.500  29.482  23.791  1.00  0.00    -0.237 OA
ATOM     49  O   UNL A   1      51.971  27.059  23.926  1.00  0.00    -0.744 OA
ENDBRANCH  42  46
ENDBRANCH  25  39
BRANCH  26  50
ATOM     50  C   UNL A   1      39.052  29.570  29.724  1.00  0.00     0.023 A 
ATOM     51  C   UNL A   1      38.190  30.425  29.011  1.00  0.00     0.031 A 
ATOM     52  C   UNL A   1      38.543  28.923  30.862  1.00  0.00     0.131 A 
ATOM     53  C   UNL A   1      36.888  30.655  29.478  1.00  0.00     0.055 A 
ATOM     54  C   UNL A   1      37.224  29.101  31.284  1.00  0.00     0.041 A 
ATOM     55  F   UNL A   1      39.328  28.110  31.585  1.00  0.00    -0.206 F 
ATOM     56  C   UNL A   1      36.394  29.985  30.600  1.00  0.00     0.022 A 
BRANCH  53  57
ATOM     57  S   UNL A   1      35.847  31.939  28.728  1.00  0.00     0.124 S 
ATOM     58  O   UNL A   1      36.830  32.962  28.382  1.00  0.00    -0.237 OA
ATOM     59  O   UNL A   1      35.257  31.225  27.596  1.00  0.00    -0.237 OA
ATOM     60  O   UNL A   1      34.912  32.290  29.788  1.00  0.00    -0.744 OA
ENDBRANCH  53  57
ENDBRANCH  26  50
BRANCH  38  61
ATOM     61  C   UNL A   1      44.742  33.721  30.147  1.00  0.00     0.023 A 
ATOM     62  C   UNL A   1      44.713  34.793  29.232  1.00  0.00     0.031 A 
ATOM     63  C   UNL A   1      45.231  33.961  31.441  1.00  0.00     0.131 A 
ATOM     64  C   UNL A   1      45.231  36.039  29.604  1.00  0.00     0.055 A 
ATOM     65  C   UNL A   1      45.700  35.218  31.822  1.00  0.00     0.041 A 
ATOM     66  F   UNL A   1      45.289  32.966  32.342  1.00  0.00    -0.206 F 
ATOM     67  C   UNL A   1      45.720  36.259  30.896  1.00  0.00     0.022 A 
BRANCH  64  68
ATOM     68  S   UNL A   1      45.391  37.383  28.395  1.00  0.00     0.124 S 
ATOM     69  O   UNL A   1      44.764  36.801  27.210  1.00  0.00    -0.237 OA
ATOM     70  O   UNL A   1      44.638  38.459  29.033  1.00  0.00    -0.237 OA
ATOM     71  O   UNL A   1      46.830  37.596  28.293  1.00  0.00    -0.744 OA
ENDBRANCH  64  68
ENDBRANCH  38  61
ENDBRANCH  12  13
ENDBRANCH   5   7
ENDBRANCH   2   3
ENDBRANCH   1   2
BRANCH   1  72
ATOM     72  C   UNL A   1      38.850  21.180  25.752  1.00  0.00     0.002 C 
BRANCH  72  73
ATOM     73  C   UNL A   1      39.501  22.321  26.539  1.00  0.00     0.002 C 
BRANCH  73  74
ATOM     74  C   UNL A   1      38.825  23.690  26.416  1.00  0.00     0.021 C 
BRANCH  74  75
ATOM     75  C   UNL A   1      37.362  23.655  25.990  1.00  0.00     0.116 C 
BRANCH  75  76
ATOM     76  N   UNL A   1      37.202  23.689  24.547  1.00  0.00    -0.352 N 
ATOM     77  C   UNL A   1      36.223  23.100  23.791  1.00  0.00     0.253 C 
ATOM     78  H   UNL A   1      37.883  24.198  24.050  1.00  0.00     0.163 HD
ATOM     79  O   UNL A   1      36.275  23.154  22.564  1.00  0.00    -0.269 OA
BRANCH  77  80
ATOM     80  C   UNL A   1      35.119  22.364  24.445  1.00  0.00     0.063 A 
ATOM     81  C   UNL A   1      35.384  21.024  24.765  1.00  0.00     0.016 A 
ATOM     82  C   UNL A   1      33.854  22.939  24.688  1.00  0.00     0.051 A 
ATOM     83  C   UNL A   1      34.402  20.239  25.359  1.00  0.00     0.001 A 
ATOM     84  C   UNL A   1      32.861  22.113  25.278  1.00  0.00    -0.017 A 
ATOM     85  N   UNL A   1      33.584  24.285  24.428  1.00  0.00    -0.377 N 
ATOM     86  C   UNL A   1      33.142  20.778  25.604  1.00  0.00     0.006 A 
ATOM     87  C   UNL A   1      31.484  22.702  25.408  1.00  0.00     0.049 C 
ATOM     88  C   UNL A   1      32.334  24.960  24.801  1.00  0.00     0.115 C 
ATOM     89  H   UNL A   1      34.275  24.812  23.965  1.00  0.00     0.161 HD
ATOM     90  C   UNL A   1      31.629  24.153  25.884  1.00  0.00     0.031 C 
ATOM     91  C   UNL A   1      30.496  22.204  26.422  1.00  0.00    -0.023 C 
ATOM     92  C   UNL A   1      30.203  24.531  26.279  1.00  0.00     0.034 C 
ATOM     93  C   UNL A   1      29.752  23.227  26.874  1.00  0.00    -0.030 C 
BRANCH  88  94
ATOM     94  C   UNL A   1      32.594  26.454  25.014  1.00  0.00    -0.011 A 
ATOM     95  C   UNL A   1      33.640  26.759  25.923  1.00  0.00     0.007 A 
ATOM     96  C   UNL A   1      31.961  27.553  24.401  1.00  0.00     0.023 A 
ATOM     97  C   UNL A   1      34.098  28.063  26.129  1.00  0.00     0.000 A 
ATOM     98  C   UNL A   1      32.470  28.855  24.560  1.00  0.00     0.016 A 
ATOM     99  Br  UNL A   1      30.331  27.498  23.426  1.00  0.00    -0.050 Br
ATOM    100  C   UNL A   1      33.541  29.109  25.410  1.00  0.00     0.001 A 
ENDBRANCH  88  94
ENDBRANCH  77  80
ENDBRANCH  75  76
ENDBRANCH  74  75
ENDBRANCH  73  74
ENDBRANCH  72  73
ENDBRANCH   1  72
TORSDOF 17
ENDMDL
