MODEL 1
REMARK VINA RESULT:     -11.3      0.000      0.000
REMARK SMILES CS(=O)(=O)c1ccc(C2=NN(c3ccc(C(=O)NCCCCCCNC(=O)c4ccc(-c5c6nc(c(-c7cc(S(=O)(=O)[O-])ccc7F)c7ccc([nH]7)c(-c7cc(S(=O)(=O)[O-])ccc7F)c7nc(c(-c8cc(S(=O)(=O)[O-])ccc8F)c8ccc5[nH]8)C=C7)C=C6)cc4)cc3)[C@H](c3ccc(Cl)cc3)C2)cc1
REMARK SMILES IDX 21 1 20 2 19 3 18 4 16 5 17 6 15 8 12 9 13 10 92 11 14 12
REMARK SMILES IDX 91 13 11 14 9 15 10 16 101 17 93 18 8 19 5 20 6 21 103 22
REMARK SMILES IDX 7 23 102 24 2 25 1 26 3 27 4 28 94 29 95 30 100 31 96 32
REMARK SMILES IDX 99 33 97 34 98 35 22 36 23 37 24 38 25 39 26 40 27 42 28 43
REMARK SMILES IDX 29 44 90 45 30 46 89 47 31 48 32 49 33 50 83 51 34 52 88 53
REMARK SMILES IDX 82 54 84 55 35 56 87 57 81 58 80 59 36 61 68 62 48 63 67 64
REMARK SMILES IDX 49 65 52 66 66 67 85 68 50 69 51 70 65 72 86 73 53 74 37 75
REMARK SMILES IDX 38 76 46 77 39 78 45 79 47 80 44 81 40 82 41 83 42 84 43 85
REMARK SMILES IDX 69 86 70 87 78 88 71 89 77 90 79 91 76 92 72 93 73 94 74 95
REMARK SMILES IDX 75 96 54 97 55 98 63 99 56 100 62 101 64 102 61 103 57 104
REMARK SMILES IDX 58 105 59 106 60 107
REMARK H PARENT 18 7 25 41 84 60 52 71
REMARK Flexibility Score: inf
ROOT
ATOM      1  C   UNL A   1      39.698  27.061  28.426  1.00  0.00     0.002 C 
ENDROOT
BRANCH   1   2
ATOM      2  C   UNL A   1      39.778  25.564  28.104  1.00  0.00     0.021 C 
BRANCH   2   3
ATOM      3  C   UNL A   1      39.597  25.261  26.616  1.00  0.00     0.116 C 
BRANCH   3   4
ATOM      4  N   UNL A   1      39.723  23.834  26.379  1.00  0.00    -0.352 N 
ATOM      5  C   UNL A   1      38.806  22.898  25.972  1.00  0.00     0.251 C 
ATOM      6  O   UNL A   1      39.182  21.736  25.819  1.00  0.00    -0.269 OA
ATOM      7  H   UNL A   1      40.626  23.476  26.537  1.00  0.00     0.163 HD
BRANCH   5   8
ATOM      8  C   UNL A   1      37.404  23.262  25.640  1.00  0.00     0.039 A 
ATOM      9  C   UNL A   1      34.675  23.756  25.153  1.00  0.00     0.060 A 
ATOM     10  C   UNL A   1      35.164  23.717  26.461  1.00  0.00     0.029 A 
ATOM     11  C   UNL A   1      35.581  23.636  24.097  1.00  0.00     0.029 A 
ATOM     12  C   UNL A   1      36.519  23.469  26.706  1.00  0.00     0.016 A 
ATOM     13  C   UNL A   1      36.937  23.416  24.335  1.00  0.00     0.016 A 
BRANCH   9  14
ATOM     14  N   UNL A   1      33.335  23.948  24.871  1.00  0.00    -0.257 N 
ATOM     15  C   UNL A   1      31.653  25.223  24.672  1.00  0.00     0.071 C 
ATOM     16  N   UNL A   1      32.936  25.186  24.514  1.00  0.00    -0.176 NA
ATOM     17  C   UNL A   1      31.028  23.986  25.253  1.00  0.00     0.091 C 
ATOM     18  C   UNL A   1      32.255  23.052  25.298  1.00  0.00     0.144 C 
BRANCH  15  19
ATOM     19  C   UNL A   1      30.877  26.412  24.297  1.00  0.00    -0.002 A 
ATOM     20  C   UNL A   1      29.366  28.568  23.404  1.00  0.00     0.067 A 
ATOM     21  C   UNL A   1      28.836  27.280  23.318  1.00  0.00     0.021 A 
ATOM     22  C   UNL A   1      30.644  28.782  23.941  1.00  0.00     0.021 A 
ATOM     23  C   UNL A   1      29.600  26.202  23.760  1.00  0.00     0.011 A 
ATOM     24  C   UNL A   1      31.405  27.699  24.393  1.00  0.00     0.011 A 
BRANCH  20  25
ATOM     25  S   UNL A   1      28.438  29.973  22.837  1.00  0.00     0.175 S 
ATOM     26  C   UNL A   1      29.097  31.386  23.681  1.00  0.00     0.163 C 
ATOM     27  O   UNL A   1      27.074  29.775  23.280  1.00  0.00    -0.224 OA
ATOM     28  O   UNL A   1      28.753  30.136  21.427  1.00  0.00    -0.224 OA
ENDBRANCH  20  25
ENDBRANCH  15  19
BRANCH  18  29
ATOM     29  C   UNL A   1      32.230  21.783  24.444  1.00  0.00    -0.023 A 
ATOM     30  C   UNL A   1      32.113  21.773  23.044  1.00  0.00     0.007 A 
ATOM     31  C   UNL A   1      32.363  20.537  25.093  1.00  0.00     0.007 A 
ATOM     32  C   UNL A   1      32.119  20.566  22.328  1.00  0.00     0.021 A 
ATOM     33  C   UNL A   1      32.402  19.336  24.379  1.00  0.00     0.021 A 
ATOM     34  C   UNL A   1      32.273  19.355  22.996  1.00  0.00     0.041 A 
ATOM     35  Cl  UNL A   1      32.309  17.882  22.112  1.00  0.00    -0.084 Cl
ENDBRANCH  18  29
ENDBRANCH   9  14
ENDBRANCH   5   8
ENDBRANCH   3   4
ENDBRANCH   2   3
ENDBRANCH   1   2
BRANCH   1  36
ATOM     36  C   UNL A   1      39.786  27.395  29.920  1.00  0.00     0.002 C 
BRANCH  36  37
ATOM     37  C   UNL A   1      38.536  27.042  30.730  1.00  0.00     0.021 C 
BRANCH  37  38
ATOM     38  C   UNL A   1      38.544  27.587  32.154  1.00  0.00     0.116 C 
BRANCH  38  39
ATOM     39  N   UNL A   1      37.530  28.614  32.334  1.00  0.00    -0.352 N 
ATOM     40  C   UNL A   1      37.657  29.978  32.269  1.00  0.00     0.251 C 
ATOM     41  H   UNL A   1      36.624  28.282  32.530  1.00  0.00     0.163 HD
ATOM     42  O   UNL A   1      36.766  30.695  32.714  1.00  0.00    -0.269 OA
BRANCH  40  43
ATOM     43  C   UNL A   1      38.874  30.574  31.677  1.00  0.00     0.039 A 
ATOM     44  C   UNL A   1      39.951  30.885  32.509  1.00  0.00     0.014 A 
ATOM     45  C   UNL A   1      38.944  30.839  30.306  1.00  0.00     0.014 A 
ATOM     46  C   UNL A   1      41.118  31.417  31.955  1.00  0.00     0.010 A 
ATOM     47  C   UNL A   1      40.136  31.291  29.747  1.00  0.00     0.010 A 
ATOM     48  C   UNL A   1      41.232  31.595  30.566  1.00  0.00    -0.014 A 
BRANCH  48  49
ATOM     49  C   UNL A   1      42.485  32.116  29.960  1.00  0.00     0.031 A 
ATOM     50  C   UNL A   1      42.666  33.594  29.751  1.00  0.00     0.074 A 
ATOM     51  C   UNL A   1      43.440  31.252  29.560  1.00  0.00     0.049 A 
ATOM     52  N   UNL A   1      43.662  34.238  29.197  1.00  0.00    -0.248 NA
ATOM     53  C   UNL A   1      41.567  34.463  30.200  1.00  0.00     0.031 C 
ATOM     54  C   UNL A   1      43.362  29.794  29.678  1.00  0.00     0.029 A 
ATOM     55  N   UNL A   1      44.661  31.472  28.973  1.00  0.00    -0.354 N 
ATOM     56  C   UNL A   1      43.308  35.583  29.225  1.00  0.00     0.074 A 
ATOM     57  C   UNL A   1      41.974  35.652  29.783  1.00  0.00     0.031 C 
ATOM     58  C   UNL A   1      44.501  29.254  29.214  1.00  0.00     0.029 A 
ATOM     59  C   UNL A   1      45.367  30.318  28.716  1.00  0.00     0.049 A 
ATOM     60  H   UNL A   1      45.000  32.370  28.756  1.00  0.00     0.167 HD
ATOM     61  C   UNL A   1      44.039  36.662  28.848  1.00  0.00     0.034 A 
ATOM     62  C   UNL A   1      46.571  30.138  28.138  1.00  0.00     0.034 A 
ATOM     63  C   UNL A   1      45.369  36.572  28.294  1.00  0.00     0.049 A 
ATOM     64  C   UNL A   1      47.345  31.351  27.682  1.00  0.00     0.074 A 
ATOM     65  C   UNL A   1      46.215  37.599  27.914  1.00  0.00     0.029 A 
ATOM     66  N   UNL A   1      46.045  35.386  28.031  1.00  0.00    -0.354 N 
ATOM     67  N   UNL A   1      47.016  32.620  27.758  1.00  0.00    -0.248 NA
ATOM     68  C   UNL A   1      48.658  31.104  27.074  1.00  0.00     0.031 C 
ATOM     69  C   UNL A   1      47.365  37.036  27.350  1.00  0.00     0.029 A 
ATOM     70  C   UNL A   1      47.280  35.657  27.462  1.00  0.00     0.049 A 
ATOM     71  H   UNL A   1      45.696  34.485  28.221  1.00  0.00     0.167 HD
ATOM     72  C   UNL A   1      48.100  33.324  27.240  1.00  0.00     0.074 A 
ATOM     73  C   UNL A   1      49.095  32.338  26.872  1.00  0.00     0.031 C 
ATOM     74  C   UNL A   1      48.261  34.664  27.089  1.00  0.00     0.034 A 
BRANCH  61  75
ATOM     75  C   UNL A   1      43.398  38.023  28.998  1.00  0.00     0.023 A 
ATOM     76  C   UNL A   1      43.639  38.832  30.123  1.00  0.00     0.031 A 
ATOM     77  C   UNL A   1      42.510  38.507  28.021  1.00  0.00     0.131 A 
ATOM     78  C   UNL A   1      42.939  40.038  30.284  1.00  0.00     0.055 A 
ATOM     79  C   UNL A   1      41.886  39.752  28.143  1.00  0.00     0.041 A 
ATOM     80  F   UNL A   1      42.219  37.773  26.936  1.00  0.00    -0.206 F 
ATOM     81  C   UNL A   1      42.086  40.517  29.288  1.00  0.00     0.022 A 
BRANCH  78  82
ATOM     82  S   UNL A   1      43.037  40.887  31.884  1.00  0.00     0.124 S 
ATOM     83  O   UNL A   1      44.303  41.604  31.760  1.00  0.00    -0.237 OA
ATOM     84  O   UNL A   1      41.833  41.708  31.880  1.00  0.00    -0.237 OA
ATOM     85  O   UNL A   1      43.042  39.792  32.852  1.00  0.00    -0.744 OA
ENDBRANCH  78  82
ENDBRANCH  61  75
BRANCH  62  86
ATOM     86  C   UNL A   1      47.122  28.765  27.948  1.00  0.00     0.023 A 
ATOM     87  C   UNL A   1      46.781  27.999  26.822  1.00  0.00     0.031 A 
ATOM     88  C   UNL A   1      47.959  28.179  28.913  1.00  0.00     0.131 A 
ATOM     89  C   UNL A   1      47.230  26.674  26.714  1.00  0.00     0.055 A 
ATOM     90  C   UNL A   1      48.454  26.881  28.772  1.00  0.00     0.041 A 
ATOM     91  F   UNL A   1      48.318  28.866  30.009  1.00  0.00    -0.206 F 
ATOM     92  C   UNL A   1      48.077  26.115  27.673  1.00  0.00     0.022 A 
BRANCH  89  93
ATOM     93  S   UNL A   1      46.608  25.654  25.349  1.00  0.00     0.124 S 
ATOM     94  O   UNL A   1      46.919  24.309  25.819  1.00  0.00    -0.237 OA
ATOM     95  O   UNL A   1      45.195  26.015  25.321  1.00  0.00    -0.237 OA
ATOM     96  O   UNL A   1      47.388  26.110  24.201  1.00  0.00    -0.744 OA
ENDBRANCH  89  93
ENDBRANCH  62  86
BRANCH  74  97
ATOM     97  C   UNL A   1      49.588  35.139  26.544  1.00  0.00     0.023 A 
ATOM     98  C   UNL A   1      50.730  35.251  27.357  1.00  0.00     0.031 A 
ATOM     99  C   UNL A   1      49.704  35.503  25.191  1.00  0.00     0.131 A 
ATOM    100  C   UNL A   1      51.917  35.777  26.826  1.00  0.00     0.055 A 
ATOM    101  C   UNL A   1      50.908  35.957  24.651  1.00  0.00     0.041 A 
ATOM    102  F   UNL A   1      48.647  35.422  24.367  1.00  0.00    -0.206 F 
ATOM    103  C   UNL A   1      52.020  36.111  25.473  1.00  0.00     0.022 A 
BRANCH 100 104
ATOM    104  S   UNL A   1      53.296  36.124  27.953  1.00  0.00     0.124 S 
ATOM    105  O   UNL A   1      53.100  37.540  28.244  1.00  0.00    -0.237 OA
ATOM    106  O   UNL A   1      53.036  35.205  29.056  1.00  0.00    -0.237 OA
ATOM    107  O   UNL A   1      54.479  35.812  27.153  1.00  0.00    -0.744 OA
ENDBRANCH 100 104
ENDBRANCH  74  97
ENDBRANCH  48  49
ENDBRANCH  40  43
ENDBRANCH  38  39
ENDBRANCH  37  38
ENDBRANCH  36  37
ENDBRANCH   1  36
TORSDOF 20
ENDMDL
MODEL 2
REMARK VINA RESULT:     -11.2      6.119      9.769
REMARK SMILES CS(=O)(=O)c1ccc(C2=NN(c3ccc(C(=O)NCCCCCCNC(=O)c4ccc(-c5c6nc(c(-c7cc(S(=O)(=O)[O-])ccc7F)c7ccc([nH]7)c(-c7cc(S(=O)(=O)[O-])ccc7F)c7nc(c(-c8cc(S(=O)(=O)[O-])ccc8F)c8ccc5[nH]8)C=C7)C=C6)cc4)cc3)[C@H](c3ccc(Cl)cc3)C2)cc1
REMARK SMILES IDX 21 1 20 2 19 3 18 4 16 5 17 6 15 8 12 9 13 10 92 11 14 12
REMARK SMILES IDX 91 13 11 14 9 15 10 16 101 17 93 18 8 19 5 20 6 21 103 22
REMARK SMILES IDX 7 23 102 24 2 25 1 26 3 27 4 28 94 29 95 30 100 31 96 32
REMARK SMILES IDX 99 33 97 34 98 35 22 36 23 37 24 38 25 39 26 40 27 42 28 43
REMARK SMILES IDX 29 44 90 45 30 46 89 47 31 48 32 49 33 50 83 51 34 52 88 53
REMARK SMILES IDX 82 54 84 55 35 56 87 57 81 58 80 59 36 61 68 62 48 63 67 64
REMARK SMILES IDX 49 65 52 66 66 67 85 68 50 69 51 70 65 72 86 73 53 74 37 75
REMARK SMILES IDX 38 76 46 77 39 78 45 79 47 80 44 81 40 82 41 83 42 84 43 85
REMARK SMILES IDX 69 86 70 87 78 88 71 89 77 90 79 91 76 92 72 93 73 94 74 95
REMARK SMILES IDX 75 96 54 97 55 98 63 99 56 100 62 101 64 102 61 103 57 104
REMARK SMILES IDX 58 105 59 106 60 107
REMARK H PARENT 18 7 25 41 84 60 52 71
REMARK Flexibility Score: inf
ROOT
ATOM      1  C   UNL A   1      45.372  24.177  27.558  1.00  0.00     0.002 C 
ENDROOT
BRANCH   1   2
ATOM      2  C   UNL A   1      44.243  25.085  28.056  1.00  0.00     0.021 C 
BRANCH   2   3
ATOM      3  C   UNL A   1      42.854  24.470  27.874  1.00  0.00     0.116 C 
BRANCH   3   4
ATOM      4  N   UNL A   1      42.312  24.837  26.577  1.00  0.00    -0.352 N 
ATOM      5  C   UNL A   1      41.544  25.903  26.184  1.00  0.00     0.251 C 
ATOM      6  O   UNL A   1      41.234  25.997  24.997  1.00  0.00    -0.269 OA
ATOM      7  H   UNL A   1      42.536  24.209  25.853  1.00  0.00     0.163 HD
BRANCH   5   8
ATOM      8  C   UNL A   1      41.149  26.979  27.130  1.00  0.00     0.039 A 
ATOM      9  C   UNL A   1      40.174  29.019  28.809  1.00  0.00     0.060 A 
ATOM     10  C   UNL A   1      39.506  27.794  28.722  1.00  0.00     0.029 A 
ATOM     11  C   UNL A   1      41.378  29.174  28.118  1.00  0.00     0.029 A 
ATOM     12  C   UNL A   1      39.987  26.780  27.887  1.00  0.00     0.016 A 
ATOM     13  C   UNL A   1      41.876  28.156  27.305  1.00  0.00     0.016 A 
BRANCH   9  14
ATOM     14  N   UNL A   1      39.703  30.064  29.584  1.00  0.00    -0.257 N 
ATOM     15  C   UNL A   1      38.522  31.808  29.812  1.00  0.00     0.071 C 
ATOM     16  N   UNL A   1      38.561  30.669  29.200  1.00  0.00    -0.176 NA
ATOM     17  C   UNL A   1      39.723  32.145  30.650  1.00  0.00     0.091 C 
ATOM     18  C   UNL A   1      40.515  30.825  30.539  1.00  0.00     0.144 C 
BRANCH  15  19
ATOM     19  C   UNL A   1      37.362  32.700  29.680  1.00  0.00    -0.002 A 
ATOM     20  C   UNL A   1      35.057  34.248  29.547  1.00  0.00     0.067 A 
ATOM     21  C   UNL A   1      35.493  33.777  30.786  1.00  0.00     0.021 A 
ATOM     22  C   UNL A   1      35.773  33.954  28.376  1.00  0.00     0.021 A 
ATOM     23  C   UNL A   1      36.644  32.996  30.846  1.00  0.00     0.011 A 
ATOM     24  C   UNL A   1      36.935  33.178  28.442  1.00  0.00     0.011 A 
BRANCH  20  25
ATOM     25  S   UNL A   1      33.585  35.234  29.414  1.00  0.00     0.175 S 
ATOM     26  C   UNL A   1      33.235  35.838  31.044  1.00  0.00     0.163 C 
ATOM     27  O   UNL A   1      32.519  34.336  29.024  1.00  0.00    -0.224 OA
ATOM     28  O   UNL A   1      33.931  36.387  28.599  1.00  0.00    -0.224 OA
ENDBRANCH  20  25
ENDBRANCH  15  19
BRANCH  18  29
ATOM     29  C   UNL A   1      40.757  30.018  31.815  1.00  0.00    -0.023 A 
ATOM     30  C   UNL A   1      40.279  30.380  33.085  1.00  0.00     0.007 A 
ATOM     31  C   UNL A   1      41.482  28.810  31.715  1.00  0.00     0.007 A 
ATOM     32  C   UNL A   1      40.524  29.573  34.206  1.00  0.00     0.021 A 
ATOM     33  C   UNL A   1      41.700  27.989  32.825  1.00  0.00     0.021 A 
ATOM     34  C   UNL A   1      41.224  28.378  34.071  1.00  0.00     0.041 A 
ATOM     35  Cl  UNL A   1      41.498  27.380  35.442  1.00  0.00    -0.084 Cl
ENDBRANCH  18  29
ENDBRANCH   9  14
ENDBRANCH   5   8
ENDBRANCH   3   4
ENDBRANCH   2   3
ENDBRANCH   1   2
BRANCH   1  36
ATOM     36  C   UNL A   1      46.774  24.791  27.662  1.00  0.00     0.002 C 
BRANCH  36  37
ATOM     37  C   UNL A   1      47.647  24.608  26.419  1.00  0.00     0.021 C 
BRANCH  37  38
ATOM     38  C   UNL A   1      46.873  24.644  25.105  1.00  0.00     0.116 C 
BRANCH  38  39
ATOM     39  N   UNL A   1      47.471  25.575  24.164  1.00  0.00    -0.352 N 
ATOM     40  C   UNL A   1      47.390  26.944  24.128  1.00  0.00     0.251 C 
ATOM     41  H   UNL A   1      48.012  25.165  23.450  1.00  0.00     0.163 HD
ATOM     42  O   UNL A   1      47.727  27.548  23.113  1.00  0.00    -0.269 OA
BRANCH  40  43
ATOM     43  C   UNL A   1      46.883  27.679  25.306  1.00  0.00     0.039 A 
ATOM     44  C   UNL A   1      45.507  27.733  25.533  1.00  0.00     0.014 A 
ATOM     45  C   UNL A   1      47.765  28.328  26.176  1.00  0.00     0.014 A 
ATOM     46  C   UNL A   1      45.019  28.396  26.661  1.00  0.00     0.010 A 
ATOM     47  C   UNL A   1      47.283  28.916  27.341  1.00  0.00     0.010 A 
ATOM     48  C   UNL A   1      45.904  28.966  27.591  1.00  0.00    -0.014 A 
BRANCH  48  49
ATOM     49  C   UNL A   1      45.400  29.634  28.820  1.00  0.00     0.031 A 
ATOM     50  C   UNL A   1      44.867  31.038  28.751  1.00  0.00     0.074 A 
ATOM     51  C   UNL A   1      45.463  28.988  30.002  1.00  0.00     0.049 A 
ATOM     52  N   UNL A   1      44.428  31.806  29.716  1.00  0.00    -0.248 NA
ATOM     53  C   UNL A   1      44.851  31.675  27.425  1.00  0.00     0.031 C 
ATOM     54  C   UNL A   1      45.993  27.636  30.198  1.00  0.00     0.029 A 
ATOM     55  N   UNL A   1      45.081  29.379  31.260  1.00  0.00    -0.354 N 
ATOM     56  C   UNL A   1      44.090  33.015  29.117  1.00  0.00     0.074 A 
ATOM     57  C   UNL A   1      44.446  32.901  27.718  1.00  0.00     0.031 C 
ATOM     58  C   UNL A   1      45.868  27.299  31.491  1.00  0.00     0.029 A 
ATOM     59  C   UNL A   1      45.301  28.424  32.227  1.00  0.00     0.049 A 
ATOM     60  H   UNL A   1      44.688  30.261  31.454  1.00  0.00     0.167 HD
ATOM     61  C   UNL A   1      43.511  34.108  29.674  1.00  0.00     0.034 A 
ATOM     62  C   UNL A   1      45.079  28.456  33.556  1.00  0.00     0.034 A 
ATOM     63  C   UNL A   1      43.163  34.203  31.072  1.00  0.00     0.049 A 
ATOM     64  C   UNL A   1      44.478  29.700  34.162  1.00  0.00     0.074 A 
ATOM     65  C   UNL A   1      42.539  35.243  31.736  1.00  0.00     0.029 A 
ATOM     66  N   UNL A   1      43.417  33.223  32.025  1.00  0.00    -0.354 N 
ATOM     67  N   UNL A   1      44.122  30.819  33.573  1.00  0.00    -0.248 NA
ATOM     68  C   UNL A   1      44.240  29.680  35.610  1.00  0.00     0.031 C 
ATOM     69  C   UNL A   1      42.487  34.929  33.098  1.00  0.00     0.029 A 
ATOM     70  C   UNL A   1      42.994  33.651  33.274  1.00  0.00     0.049 A 
ATOM     71  H   UNL A   1      43.837  32.351  31.839  1.00  0.00     0.167 HD
ATOM     72  C   UNL A   1      43.582  31.620  34.576  1.00  0.00     0.074 A 
ATOM     73  C   UNL A   1      43.647  30.849  35.800  1.00  0.00     0.031 C 
ATOM     74  C   UNL A   1      43.073  32.876  34.491  1.00  0.00     0.034 A 
BRANCH  61  75
ATOM     75  C   UNL A   1      43.249  35.292  28.772  1.00  0.00     0.023 A 
ATOM     76  C   UNL A   1      44.282  36.158  28.370  1.00  0.00     0.031 A 
ATOM     77  C   UNL A   1      41.945  35.580  28.329  1.00  0.00     0.131 A 
ATOM     78  C   UNL A   1      43.985  37.310  27.627  1.00  0.00     0.055 A 
ATOM     79  C   UNL A   1      41.670  36.679  27.512  1.00  0.00     0.041 A 
ATOM     80  F   UNL A   1      40.911  34.806  28.696  1.00  0.00    -0.206 F 
ATOM     81  C   UNL A   1      42.690  37.562  27.171  1.00  0.00     0.022 A 
BRANCH  78  82
ATOM     82  S   UNL A   1      45.285  38.556  27.407  1.00  0.00     0.124 S 
ATOM     83  O   UNL A   1      45.202  39.293  28.665  1.00  0.00    -0.237 OA
ATOM     84  O   UNL A   1      46.477  37.738  27.221  1.00  0.00    -0.237 OA
ATOM     85  O   UNL A   1      44.848  39.301  26.228  1.00  0.00    -0.744 OA
ENDBRANCH  78  82
ENDBRANCH  61  75
BRANCH  62  86
ATOM     86  C   UNL A   1      45.427  27.283  34.410  1.00  0.00     0.023 A 
ATOM     87  C   UNL A   1      44.663  26.107  34.368  1.00  0.00     0.031 A 
ATOM     88  C   UNL A   1      46.500  27.339  35.318  1.00  0.00     0.131 A 
ATOM     89  C   UNL A   1      44.947  25.055  35.253  1.00  0.00     0.055 A 
ATOM     90  C   UNL A   1      46.817  26.266  36.153  1.00  0.00     0.041 A 
ATOM     91  F   UNL A   1      47.265  28.439  35.399  1.00  0.00    -0.206 F 
ATOM     92  C   UNL A   1      46.029  25.120  36.133  1.00  0.00     0.022 A 
BRANCH  89  93
ATOM     93  S   UNL A   1      43.818  23.636  35.306  1.00  0.00     0.124 S 
ATOM     94  O   UNL A   1      44.723  22.552  35.671  1.00  0.00    -0.237 OA
ATOM     95  O   UNL A   1      42.863  24.048  36.329  1.00  0.00    -0.237 OA
ATOM     96  O   UNL A   1      43.284  23.574  33.948  1.00  0.00    -0.744 OA
ENDBRANCH  89  93
ENDBRANCH  62  86
BRANCH  74  97
ATOM     97  C   UNL A   1      42.500  33.472  35.757  1.00  0.00     0.023 A 
ATOM     98  C   UNL A   1      41.194  33.183  36.190  1.00  0.00     0.031 A 
ATOM     99  C   UNL A   1      43.271  34.358  36.530  1.00  0.00     0.131 A 
ATOM    100  C   UNL A   1      40.676  33.826  37.325  1.00  0.00     0.055 A 
ATOM    101  C   UNL A   1      42.775  34.938  37.698  1.00  0.00     0.041 A 
ATOM    102  F   UNL A   1      44.523  34.675  36.164  1.00  0.00    -0.206 F 
ATOM    103  C   UNL A   1      41.466  34.685  38.094  1.00  0.00     0.022 A 
BRANCH 100 104
ATOM    104  S   UNL A   1      38.919  33.609  37.722  1.00  0.00     0.124 S 
ATOM    105  O   UNL A   1      38.276  34.010  36.475  1.00  0.00    -0.237 OA
ATOM    106  O   UNL A   1      38.846  32.189  38.050  1.00  0.00    -0.237 OA
ATOM    107  O   UNL A   1      38.708  34.516  38.848  1.00  0.00    -0.744 OA
ENDBRANCH 100 104
ENDBRANCH  74  97
ENDBRANCH  48  49
ENDBRANCH  40  43
ENDBRANCH  38  39
ENDBRANCH  37  38
ENDBRANCH  36  37
ENDBRANCH   1  36
TORSDOF 20
ENDMDL
MODEL 3
REMARK VINA RESULT:     -11.0      7.021     10.326
REMARK SMILES CS(=O)(=O)c1ccc(C2=NN(c3ccc(C(=O)NCCCCCCNC(=O)c4ccc(-c5c6nc(c(-c7cc(S(=O)(=O)[O-])ccc7F)c7ccc([nH]7)c(-c7cc(S(=O)(=O)[O-])ccc7F)c7nc(c(-c8cc(S(=O)(=O)[O-])ccc8F)c8ccc5[nH]8)C=C7)C=C6)cc4)cc3)[C@H](c3ccc(Cl)cc3)C2)cc1
REMARK SMILES IDX 21 1 20 2 19 3 18 4 16 5 17 6 15 8 12 9 13 10 92 11 14 12
REMARK SMILES IDX 91 13 11 14 9 15 10 16 101 17 93 18 8 19 5 20 6 21 103 22
REMARK SMILES IDX 7 23 102 24 2 25 1 26 3 27 4 28 94 29 95 30 100 31 96 32
REMARK SMILES IDX 99 33 97 34 98 35 22 36 23 37 24 38 25 39 26 40 27 42 28 43
REMARK SMILES IDX 29 44 90 45 30 46 89 47 31 48 32 49 33 50 83 51 34 52 88 53
REMARK SMILES IDX 82 54 84 55 35 56 87 57 81 58 80 59 36 61 68 62 48 63 67 64
REMARK SMILES IDX 49 65 52 66 66 67 85 68 50 69 51 70 65 72 86 73 53 74 37 75
REMARK SMILES IDX 38 76 46 77 39 78 45 79 47 80 44 81 40 82 41 83 42 84 43 85
REMARK SMILES IDX 69 86 70 87 78 88 71 89 77 90 79 91 76 92 72 93 73 94 74 95
REMARK SMILES IDX 75 96 54 97 55 98 63 99 56 100 62 101 64 102 61 103 57 104
REMARK SMILES IDX 58 105 59 106 60 107
REMARK H PARENT 18 7 25 41 84 60 52 71
REMARK Flexibility Score: inf
ROOT
ATOM      1  C   UNL A   1      36.733  29.893  30.291  1.00  0.00     0.002 C 
ENDROOT
BRANCH   1   2
ATOM      2  C   UNL A   1      37.619  29.446  29.122  1.00  0.00     0.021 C 
BRANCH   2   3
ATOM      3  C   UNL A   1      36.899  29.492  27.773  1.00  0.00     0.116 C 
BRANCH   3   4
ATOM      4  N   UNL A   1      35.761  30.391  27.845  1.00  0.00    -0.352 N 
ATOM      5  C   UNL A   1      34.480  30.272  27.368  1.00  0.00     0.251 C 
ATOM      6  O   UNL A   1      33.684  31.184  27.590  1.00  0.00    -0.269 OA
ATOM      7  H   UNL A   1      35.940  31.234  28.319  1.00  0.00     0.163 HD
BRANCH   5   8
ATOM      8  C   UNL A   1      34.012  29.048  26.667  1.00  0.00     0.039 A 
ATOM      9  C   UNL A   1      33.051  26.880  25.148  1.00  0.00     0.060 A 
ATOM     10  C   UNL A   1      34.017  27.741  24.620  1.00  0.00     0.029 A 
ATOM     11  C   UNL A   1      32.643  27.065  26.472  1.00  0.00     0.029 A 
ATOM     12  C   UNL A   1      34.494  28.820  25.372  1.00  0.00     0.016 A 
ATOM     13  C   UNL A   1      33.135  28.123  27.234  1.00  0.00     0.016 A 
BRANCH   9  14
ATOM     14  N   UNL A   1      32.518  25.832  24.420  1.00  0.00    -0.257 N 
ATOM     15  C   UNL A   1      32.595  23.825  23.744  1.00  0.00     0.071 C 
ATOM     16  N   UNL A   1      32.890  24.579  24.753  1.00  0.00    -0.176 NA
ATOM     17  C   UNL A   1      32.039  24.529  22.538  1.00  0.00     0.091 C 
ATOM     18  C   UNL A   1      31.909  25.963  23.092  1.00  0.00     0.144 C 
BRANCH  15  19
ATOM     19  C   UNL A   1      32.798  22.371  23.801  1.00  0.00    -0.002 A 
ATOM     20  C   UNL A   1      32.971  19.599  23.903  1.00  0.00     0.067 A 
ATOM     21  C   UNL A   1      32.160  20.197  22.938  1.00  0.00     0.021 A 
ATOM     22  C   UNL A   1      33.700  20.380  24.811  1.00  0.00     0.021 A 
ATOM     23  C   UNL A   1      32.071  21.586  22.895  1.00  0.00     0.011 A 
ATOM     24  C   UNL A   1      33.617  21.776  24.759  1.00  0.00     0.011 A 
BRANCH  20  25
ATOM     25  S   UNL A   1      33.105  17.830  24.009  1.00  0.00     0.175 S 
ATOM     26  C   UNL A   1      34.732  17.483  24.622  1.00  0.00     0.163 C 
ATOM     27  O   UNL A   1      33.013  17.325  22.656  1.00  0.00    -0.224 OA
ATOM     28  O   UNL A   1      32.166  17.404  25.035  1.00  0.00    -0.224 OA
ENDBRANCH  20  25
ENDBRANCH  15  19
BRANCH  18  29
ATOM     29  C   UNL A   1      30.512  26.576  23.191  1.00  0.00    -0.023 A 
ATOM     30  C   UNL A   1      29.416  25.954  23.812  1.00  0.00     0.007 A 
ATOM     31  C   UNL A   1      30.307  27.865  22.653  1.00  0.00     0.007 A 
ATOM     32  C   UNL A   1      28.168  26.592  23.882  1.00  0.00     0.021 A 
ATOM     33  C   UNL A   1      29.073  28.515  22.749  1.00  0.00     0.021 A 
ATOM     34  C   UNL A   1      28.004  27.871  23.360  1.00  0.00     0.041 A 
ATOM     35  Cl  UNL A   1      26.481  28.659  23.472  1.00  0.00    -0.084 Cl
ENDBRANCH  18  29
ENDBRANCH   9  14
ENDBRANCH   5   8
ENDBRANCH   3   4
ENDBRANCH   2   3
ENDBRANCH   1   2
BRANCH   1  36
ATOM     36  C   UNL A   1      37.150  31.223  30.931  1.00  0.00     0.002 C 
BRANCH  36  37
ATOM     37  C   UNL A   1      35.986  32.130  31.336  1.00  0.00     0.021 C 
BRANCH  37  38
ATOM     38  C   UNL A   1      36.409  33.538  31.744  1.00  0.00     0.116 C 
BRANCH  38  39
ATOM     39  N   UNL A   1      36.066  33.813  33.129  1.00  0.00    -0.352 N 
ATOM     40  C   UNL A   1      36.576  33.258  34.276  1.00  0.00     0.251 C 
ATOM     41  H   UNL A   1      35.370  34.496  33.264  1.00  0.00     0.163 HD
ATOM     42  O   UNL A   1      35.984  33.407  35.340  1.00  0.00    -0.269 OA
BRANCH  40  43
ATOM     43  C   UNL A   1      37.827  32.471  34.215  1.00  0.00     0.039 A 
ATOM     44  C   UNL A   1      37.800  31.124  34.579  1.00  0.00     0.014 A 
ATOM     45  C   UNL A   1      39.027  33.068  33.816  1.00  0.00     0.014 A 
ATOM     46  C   UNL A   1      38.968  30.363  34.494  1.00  0.00     0.010 A 
ATOM     47  C   UNL A   1      40.168  32.290  33.654  1.00  0.00     0.010 A 
ATOM     48  C   UNL A   1      40.154  30.931  34.001  1.00  0.00    -0.014 A 
BRANCH  48  49
ATOM     49  C   UNL A   1      41.392  30.120  33.861  1.00  0.00     0.031 A 
ATOM     50  C   UNL A   1      41.631  29.314  32.614  1.00  0.00     0.074 A 
ATOM     51  C   UNL A   1      42.279  30.079  34.876  1.00  0.00     0.049 A 
ATOM     52  N   UNL A   1      42.622  28.510  32.324  1.00  0.00    -0.248 NA
ATOM     53  C   UNL A   1      40.603  29.402  31.565  1.00  0.00     0.031 C 
ATOM     54  C   UNL A   1      42.139  30.791  36.149  1.00  0.00     0.029 A 
ATOM     55  N   UNL A   1      43.472  29.413  35.000  1.00  0.00    -0.354 N 
ATOM     56  C   UNL A   1      42.335  27.993  31.064  1.00  0.00     0.074 A 
ATOM     57  C   UNL A   1      41.042  28.518  30.682  1.00  0.00     0.031 C 
ATOM     58  C   UNL A   1      43.220  30.552  36.908  1.00  0.00     0.029 A 
ATOM     59  C   UNL A   1      44.105  29.630  36.203  1.00  0.00     0.049 A 
ATOM     60  H   UNL A   1      43.840  28.832  34.295  1.00  0.00     0.167 HD
ATOM     61  C   UNL A   1      43.093  27.179  30.287  1.00  0.00     0.034 A 
ATOM     62  C   UNL A   1      45.262  29.136  36.686  1.00  0.00     0.034 A 
ATOM     63  C   UNL A   1      44.381  26.665  30.687  1.00  0.00     0.049 A 
ATOM     64  C   UNL A   1      46.065  28.194  35.822  1.00  0.00     0.074 A 
ATOM     65  C   UNL A   1      45.252  25.866  29.966  1.00  0.00     0.029 A 
ATOM     66  N   UNL A   1      44.983  26.892  31.919  1.00  0.00    -0.354 N 
ATOM     67  N   UNL A   1      45.802  27.751  34.614  1.00  0.00    -0.248 NA
ATOM     68  C   UNL A   1      47.326  27.697  36.385  1.00  0.00     0.031 C 
ATOM     69  C   UNL A   1      46.338  25.546  30.788  1.00  0.00     0.029 A 
ATOM     70  C   UNL A   1      46.194  26.220  31.990  1.00  0.00     0.049 A 
ATOM     71  H   UNL A   1      44.604  27.449  32.638  1.00  0.00     0.167 HD
ATOM     72  C   UNL A   1      46.886  26.952  34.259  1.00  0.00     0.074 A 
ATOM     73  C   UNL A   1      47.809  26.989  35.375  1.00  0.00     0.031 C 
ATOM     74  C   UNL A   1      47.102  26.256  33.114  1.00  0.00     0.034 A 
BRANCH  61  75
ATOM     75  C   UNL A   1      42.528  26.776  28.944  1.00  0.00     0.023 A 
ATOM     76  C   UNL A   1      41.956  25.509  28.734  1.00  0.00     0.031 A 
ATOM     77  C   UNL A   1      42.586  27.658  27.850  1.00  0.00     0.131 A 
ATOM     78  C   UNL A   1      41.545  25.127  27.447  1.00  0.00     0.055 A 
ATOM     79  C   UNL A   1      42.091  27.305  26.592  1.00  0.00     0.041 A 
ATOM     80  F   UNL A   1      43.141  28.873  27.979  1.00  0.00    -0.206 F 
ATOM     81  C   UNL A   1      41.583  26.027  26.381  1.00  0.00     0.022 A 
BRANCH  78  82
ATOM     82  S   UNL A   1      41.116  23.389  27.157  1.00  0.00     0.124 S 
ATOM     83  O   UNL A   1      41.589  23.194  25.788  1.00  0.00    -0.237 OA
ATOM     84  O   UNL A   1      41.868  22.700  28.198  1.00  0.00    -0.237 OA
ATOM     85  O   UNL A   1      39.664  23.365  27.315  1.00  0.00    -0.744 OA
ENDBRANCH  78  82
ENDBRANCH  61  75
BRANCH  62  86
ATOM     86  C   UNL A   1      45.735  29.510  38.050  1.00  0.00     0.023 A 
ATOM     87  C   UNL A   1      45.307  28.800  39.183  1.00  0.00     0.031 A 
ATOM     88  C   UNL A   1      46.583  30.614  38.247  1.00  0.00     0.131 A 
ATOM     89  C   UNL A   1      45.684  29.232  40.464  1.00  0.00     0.055 A 
ATOM     90  C   UNL A   1      47.005  31.004  39.520  1.00  0.00     0.041 A 
ATOM     91  F   UNL A   1      47.023  31.329  37.200  1.00  0.00    -0.206 F 
ATOM     92  C   UNL A   1      46.543  30.319  40.640  1.00  0.00     0.022 A 
BRANCH  89  93
ATOM     93  S   UNL A   1      44.952  28.412  41.908  1.00  0.00     0.124 S 
ATOM     94  O   UNL A   1      46.015  28.551  42.896  1.00  0.00    -0.237 OA
ATOM     95  O   UNL A   1      43.754  29.212  42.135  1.00  0.00    -0.237 OA
ATOM     96  O   UNL A   1      44.709  27.050  41.438  1.00  0.00    -0.744 OA
ENDBRANCH  89  93
ENDBRANCH  62  86
BRANCH  74  97
ATOM     97  C   UNL A   1      48.416  25.518  32.995  1.00  0.00     0.023 A 
ATOM     98  C   UNL A   1      48.590  24.220  33.508  1.00  0.00     0.031 A 
ATOM     99  C   UNL A   1      49.516  26.134  32.372  1.00  0.00     0.131 A 
ATOM    100  C   UNL A   1      49.851  23.609  33.448  1.00  0.00     0.055 A 
ATOM    101  C   UNL A   1      50.749  25.491  32.252  1.00  0.00     0.041 A 
ATOM    102  F   UNL A   1      49.411  27.374  31.868  1.00  0.00    -0.206 F 
ATOM    103  C   UNL A   1      50.926  24.227  32.805  1.00  0.00     0.022 A 
BRANCH 100 104
ATOM    104  S   UNL A   1      50.099  22.038  34.321  1.00  0.00     0.124 S 
ATOM    105  O   UNL A   1      48.736  21.690  34.710  1.00  0.00    -0.237 OA
ATOM    106  O   UNL A   1      50.702  21.199  33.291  1.00  0.00    -0.237 OA
ATOM    107  O   UNL A   1      50.986  22.396  35.426  1.00  0.00    -0.744 OA
ENDBRANCH 100 104
ENDBRANCH  74  97
ENDBRANCH  48  49
ENDBRANCH  40  43
ENDBRANCH  38  39
ENDBRANCH  37  38
ENDBRANCH  36  37
ENDBRANCH   1  36
TORSDOF 20
ENDMDL
