MODEL 1
REMARK VINA RESULT:     -12.9      0.000      0.000
REMARK SMILES NC(=O)c1c(-c2ccc(Cl)cc2)csc1NC(=O)[C@H]1[C@@H](C(=O)NCCCCCCNC(=O)c2ccc(-c3c4nc(c(-c5cc(S(=O)(=O)[O-])ccc5F)c5ccc([nH]5)c(-c5cc(S(=O)(=O)[O-])ccc5F)c5nc(c(-c6cc(S(=O)(=O)[O-])ccc6F)c6ccc3[nH]6)C=C5)C=C4)cc2)[C@@H]2CC[C@H]1O2
REMARK SMILES IDX 26 1 25 2 24 3 23 4 21 5 22 6 20 8 19 9 99 10 96 11 98 12
REMARK SMILES IDX 100 13 97 14 17 15 16 16 18 18 15 19 4 20 5 21 13 22 14 23
REMARK SMILES IDX 2 24 1 25 3 28 6 29 7 30 12 31 8 32 11 33 9 34 10 35 27 36
REMARK SMILES IDX 28 37 29 38 30 39 31 40 32 42 33 43 34 44 95 45 35 46 94 47
REMARK SMILES IDX 36 48 37 49 38 50 88 51 39 52 93 53 87 54 89 55 40 56 92 57
REMARK SMILES IDX 86 58 85 59 41 61 73 62 53 63 72 64 54 65 57 66 71 67 90 68
REMARK SMILES IDX 55 69 56 70 70 72 91 73 58 74 42 75 43 76 51 77 44 78 50 79
REMARK SMILES IDX 52 80 49 81 45 82 46 83 47 84 48 85 74 86 75 87 83 88 76 89
REMARK SMILES IDX 82 90 84 91 81 92 77 93 78 94 79 95 80 96 59 97 60 98 68 99
REMARK SMILES IDX 61 100 67 101 69 102 66 103 62 104 63 105 64 106 65 107
REMARK H PARENT 23 7 16 17 1 26 1 27 30 41 89 60 57 71
REMARK Flexibility Score: inf
ROOT
ATOM      1  C   UNL A   1      33.500  29.804  26.780  1.00  0.00     0.002 C 
ENDROOT
BRANCH   1   2
ATOM      2  C   UNL A   1      33.748  28.296  26.874  1.00  0.00     0.021 C 
BRANCH   2   3
ATOM      3  C   UNL A   1      33.035  27.474  25.799  1.00  0.00     0.116 C 
BRANCH   3   4
ATOM      4  N   UNL A   1      32.547  26.209  26.316  1.00  0.00    -0.356 N 
ATOM      5  C   UNL A   1      32.921  24.926  26.084  1.00  0.00     0.226 C 
ATOM      6  O   UNL A   1      32.321  24.051  26.724  1.00  0.00    -0.275 OA
ATOM      7  H   UNL A   1      31.805  26.298  26.957  1.00  0.00     0.163 HD
BRANCH   5   8
ATOM      8  C   UNL A   1      33.953  24.489  25.048  1.00  0.00     0.122 C 
ATOM      9  C   UNL A   1      33.596  23.591  23.846  1.00  0.00     0.123 C 
ATOM     10  C   UNL A   1      34.529  22.385  24.100  1.00  0.00     0.132 C 
ATOM     11  C   UNL A   1      35.124  23.740  25.688  1.00  0.00     0.132 C 
ATOM     12  C   UNL A   1      35.962  22.739  23.693  1.00  0.00     0.035 C 
ATOM     13  O   UNL A   1      34.707  22.370  25.533  1.00  0.00    -0.373 OA
ATOM     14  C   UNL A   1      36.357  23.747  24.779  1.00  0.00     0.035 C 
BRANCH   9  15
ATOM     15  C   UNL A   1      32.129  23.261  23.587  1.00  0.00     0.231 C 
ATOM     16  N   UNL A   1      31.234  24.158  23.072  1.00  0.00    -0.317 N 
ATOM     17  H   UNL A   1      30.366  23.754  22.844  1.00  0.00     0.170 HD
ATOM     18  O   UNL A   1      31.666  22.156  23.884  1.00  0.00    -0.274 OA
BRANCH  16  19
ATOM     19  C   UNL A   1      31.294  25.514  22.803  1.00  0.00     0.108 A 
ATOM     20  C   UNL A   1      30.419  26.492  23.276  1.00  0.00     0.082 A 
ATOM     21  C   UNL A   1      30.706  27.756  22.629  1.00  0.00     0.007 A 
ATOM     22  C   UNL A   1      31.845  27.694  21.850  1.00  0.00     0.076 A 
ATOM     23  S   UNL A   1      32.603  26.184  21.961  1.00  0.00    -0.125 S 
BRANCH  20  24
ATOM     24  C   UNL A   1      29.377  26.161  24.252  1.00  0.00     0.252 C 
ATOM     25  N   UNL A   1      28.076  26.272  23.866  1.00  0.00    -0.365 N 
ATOM     26  H   UNL A   1      27.355  26.056  24.500  1.00  0.00     0.159 HD
ATOM     27  H   UNL A   1      27.857  26.567  22.954  1.00  0.00     0.159 HD
ATOM     28  O   UNL A   1      29.644  25.780  25.390  1.00  0.00    -0.269 OA
ENDBRANCH  20  24
BRANCH  21  29
ATOM     29  C   UNL A   1      30.048  29.045  22.738  1.00  0.00    -0.017 A 
ATOM     30  C   UNL A   1      29.399  29.601  21.628  1.00  0.00     0.010 A 
ATOM     31  C   UNL A   1      30.147  29.771  23.929  1.00  0.00     0.010 A 
ATOM     32  C   UNL A   1      28.873  30.893  21.705  1.00  0.00     0.021 A 
ATOM     33  C   UNL A   1      29.626  31.063  24.001  1.00  0.00     0.021 A 
ATOM     34  C   UNL A   1      28.999  31.622  22.888  1.00  0.00     0.041 A 
ATOM     35  Cl  UNL A   1      28.403  33.233  22.970  1.00  0.00    -0.084 Cl
ENDBRANCH  21  29
ENDBRANCH  16  19
ENDBRANCH   9  15
ENDBRANCH   5   8
ENDBRANCH   3   4
ENDBRANCH   2   3
ENDBRANCH   1   2
BRANCH   1  36
ATOM     36  C   UNL A   1      32.029  30.228  26.838  1.00  0.00     0.002 C 
BRANCH  36  37
ATOM     37  C   UNL A   1      31.784  31.737  26.925  1.00  0.00     0.021 C 
BRANCH  37  38
ATOM     38  C   UNL A   1      33.008  32.571  27.303  1.00  0.00     0.116 C 
BRANCH  38  39
ATOM     39  N   UNL A   1      32.652  33.937  27.654  1.00  0.00    -0.352 N 
ATOM     40  C   UNL A   1      33.138  34.734  28.662  1.00  0.00     0.251 C 
ATOM     41  H   UNL A   1      31.962  34.350  27.087  1.00  0.00     0.163 HD
ATOM     42  O   UNL A   1      32.575  35.790  28.933  1.00  0.00    -0.269 OA
BRANCH  40  43
ATOM     43  C   UNL A   1      34.326  34.305  29.433  1.00  0.00     0.039 A 
ATOM     44  C   UNL A   1      34.143  33.650  30.653  1.00  0.00     0.014 A 
ATOM     45  C   UNL A   1      35.617  34.548  28.952  1.00  0.00     0.014 A 
ATOM     46  C   UNL A   1      35.252  33.171  31.356  1.00  0.00     0.010 A 
ATOM     47  C   UNL A   1      36.716  34.020  29.625  1.00  0.00     0.010 A 
ATOM     48  C   UNL A   1      36.544  33.318  30.828  1.00  0.00    -0.014 A 
BRANCH  48  49
ATOM     49  C   UNL A   1      37.726  32.716  31.497  1.00  0.00     0.031 A 
ATOM     50  C   UNL A   1      38.442  31.553  30.869  1.00  0.00     0.074 A 
ATOM     51  C   UNL A   1      38.098  33.164  32.713  1.00  0.00     0.049 A 
ATOM     52  N   UNL A   1      39.418  30.825  31.348  1.00  0.00    -0.248 NA
ATOM     53  C   UNL A   1      37.978  31.138  29.538  1.00  0.00     0.031 C 
ATOM     54  C   UNL A   1      37.455  34.262  33.440  1.00  0.00     0.029 A 
ATOM     55  N   UNL A   1      39.089  32.742  33.562  1.00  0.00    -0.354 N 
ATOM     56  C   UNL A   1      39.677  29.857  30.384  1.00  0.00     0.074 A 
ATOM     57  C   UNL A   1      38.720  30.063  29.317  1.00  0.00     0.031 C 
ATOM     58  C   UNL A   1      38.074  34.430  34.619  1.00  0.00     0.029 A 
ATOM     59  C   UNL A   1      39.123  33.425  34.756  1.00  0.00     0.049 A 
ATOM     60  H   UNL A   1      39.718  32.017  33.338  1.00  0.00     0.167 HD
ATOM     61  C   UNL A   1      40.637  28.897  30.384  1.00  0.00     0.034 A 
ATOM     62  C   UNL A   1      39.895  33.249  35.847  1.00  0.00     0.034 A 
ATOM     63  C   UNL A   1      41.590  28.715  31.452  1.00  0.00     0.049 A 
ATOM     64  C   UNL A   1      40.930  32.154  35.839  1.00  0.00     0.074 A 
ATOM     65  C   UNL A   1      42.652  27.830  31.518  1.00  0.00     0.029 A 
ATOM     66  N   UNL A   1      41.588  29.420  32.649  1.00  0.00    -0.354 N 
ATOM     67  N   UNL A   1      41.201  31.283  34.894  1.00  0.00    -0.248 NA
ATOM     68  C   UNL A   1      41.762  32.019  37.042  1.00  0.00     0.031 C 
ATOM     69  C   UNL A   1      43.249  27.951  32.779  1.00  0.00     0.029 A 
ATOM     70  C   UNL A   1      42.603  28.959  33.476  1.00  0.00     0.049 A 
ATOM     71  H   UNL A   1      40.959  30.141  32.878  1.00  0.00     0.167 HD
ATOM     72  C   UNL A   1      42.249  30.508  35.384  1.00  0.00     0.074 A 
ATOM     73  C   UNL A   1      42.568  31.025  36.699  1.00  0.00     0.031 C 
ATOM     74  C   UNL A   1      42.891  29.466  34.797  1.00  0.00     0.034 A 
BRANCH  61  75
ATOM     75  C   UNL A   1      40.677  27.955  29.205  1.00  0.00     0.023 A 
ATOM     76  C   UNL A   1      41.596  28.123  28.156  1.00  0.00     0.031 A 
ATOM     77  C   UNL A   1      39.768  26.885  29.119  1.00  0.00     0.131 A 
ATOM     78  C   UNL A   1      41.537  27.286  27.032  1.00  0.00     0.055 A 
ATOM     79  C   UNL A   1      39.766  26.006  28.033  1.00  0.00     0.041 A 
ATOM     80  F   UNL A   1      38.855  26.684  30.081  1.00  0.00    -0.206 F 
ATOM     81  C   UNL A   1      40.645  26.213  26.973  1.00  0.00     0.022 A 
BRANCH  78  82
ATOM     82  S   UNL A   1      42.552  27.703  25.587  1.00  0.00     0.124 S 
ATOM     83  O   UNL A   1      43.873  27.865  26.191  1.00  0.00    -0.237 OA
ATOM     84  O   UNL A   1      42.379  26.535  24.732  1.00  0.00    -0.237 OA
ATOM     85  O   UNL A   1      41.948  28.937  25.088  1.00  0.00    -0.744 OA
ENDBRANCH  78  82
ENDBRANCH  61  75
BRANCH  62  86
ATOM     86  C   UNL A   1      39.701  34.105  37.050  1.00  0.00     0.023 A 
ATOM     87  C   UNL A   1      39.080  33.601  38.204  1.00  0.00     0.031 A 
ATOM     88  C   UNL A   1      40.107  35.452  37.052  1.00  0.00     0.131 A 
ATOM     89  C   UNL A   1      38.851  34.448  39.299  1.00  0.00     0.055 A 
ATOM     90  C   UNL A   1      39.920  36.276  38.162  1.00  0.00     0.041 A 
ATOM     91  F   UNL A   1      40.709  35.982  35.975  1.00  0.00    -0.206 F 
ATOM     92  C   UNL A   1      39.277  35.778  39.291  1.00  0.00     0.022 A 
BRANCH  89  93
ATOM     93  S   UNL A   1      37.919  33.803  40.715  1.00  0.00     0.124 S 
ATOM     94  O   UNL A   1      38.909  32.944  41.355  1.00  0.00    -0.237 OA
ATOM     95  O   UNL A   1      37.572  35.026  41.430  1.00  0.00    -0.237 OA
ATOM     96  O   UNL A   1      36.796  33.106  40.094  1.00  0.00    -0.744 OA
ENDBRANCH  89  93
ENDBRANCH  62  86
BRANCH  74  97
ATOM     97  C   UNL A   1      44.017  28.835  35.576  1.00  0.00     0.023 A 
ATOM     98  C   UNL A   1      43.796  27.740  36.429  1.00  0.00     0.031 A 
ATOM     99  C   UNL A   1      45.325  29.338  35.466  1.00  0.00     0.131 A 
ATOM    100  C   UNL A   1      44.859  27.213  37.177  1.00  0.00     0.055 A 
ATOM    101  C   UNL A   1      46.390  28.775  36.172  1.00  0.00     0.041 A 
ATOM    102  F   UNL A   1      45.589  30.384  34.666  1.00  0.00    -0.206 F 
ATOM    103  C   UNL A   1      46.157  27.712  37.041  1.00  0.00     0.022 A 
BRANCH 100 104
ATOM    104  S   UNL A   1      44.511  25.905  38.384  1.00  0.00     0.124 S 
ATOM    105  O   UNL A   1      43.420  25.181  37.740  1.00  0.00    -0.237 OA
ATOM    106  O   UNL A   1      45.786  25.200  38.460  1.00  0.00    -0.237 OA
ATOM    107  O   UNL A   1      44.140  26.642  39.591  1.00  0.00    -0.744 OA
ENDBRANCH 100 104
ENDBRANCH  74  97
ENDBRANCH  48  49
ENDBRANCH  40  43
ENDBRANCH  38  39
ENDBRANCH  37  38
ENDBRANCH  36  37
ENDBRANCH   1  36
TORSDOF 20
ENDMDL
MODEL 2
REMARK VINA RESULT:     -12.7      5.883     11.637
REMARK SMILES NC(=O)c1c(-c2ccc(Cl)cc2)csc1NC(=O)[C@H]1[C@@H](C(=O)NCCCCCCNC(=O)c2ccc(-c3c4nc(c(-c5cc(S(=O)(=O)[O-])ccc5F)c5ccc([nH]5)c(-c5cc(S(=O)(=O)[O-])ccc5F)c5nc(c(-c6cc(S(=O)(=O)[O-])ccc6F)c6ccc3[nH]6)C=C5)C=C4)cc2)[C@@H]2CC[C@H]1O2
REMARK SMILES IDX 26 1 25 2 24 3 23 4 21 5 22 6 20 8 19 9 99 10 96 11 98 12
REMARK SMILES IDX 100 13 97 14 17 15 16 16 18 18 15 19 4 20 5 21 13 22 14 23
REMARK SMILES IDX 2 24 1 25 3 28 6 29 7 30 12 31 8 32 11 33 9 34 10 35 27 36
REMARK SMILES IDX 28 37 29 38 30 39 31 40 32 42 33 43 34 44 95 45 35 46 94 47
REMARK SMILES IDX 36 48 37 49 38 50 88 51 39 52 93 53 87 54 89 55 40 56 92 57
REMARK SMILES IDX 86 58 85 59 41 61 73 62 53 63 72 64 54 65 57 66 71 67 90 68
REMARK SMILES IDX 55 69 56 70 70 72 91 73 58 74 42 75 43 76 51 77 44 78 50 79
REMARK SMILES IDX 52 80 49 81 45 82 46 83 47 84 48 85 74 86 75 87 83 88 76 89
REMARK SMILES IDX 82 90 84 91 81 92 77 93 78 94 79 95 80 96 59 97 60 98 68 99
REMARK SMILES IDX 61 100 67 101 69 102 66 103 62 104 63 105 64 106 65 107
REMARK H PARENT 23 7 16 17 1 26 1 27 30 41 89 60 57 71
REMARK Flexibility Score: inf
ROOT
ATOM      1  C   UNL A   1      37.457  23.083  25.470  1.00  0.00     0.002 C 
ENDROOT
BRANCH   1   2
ATOM      2  C   UNL A   1      36.270  24.049  25.529  1.00  0.00     0.021 C 
BRANCH   2   3
ATOM      3  C   UNL A   1      35.028  23.567  24.777  1.00  0.00     0.116 C 
BRANCH   3   4
ATOM      4  N   UNL A   1      34.618  24.502  23.748  1.00  0.00    -0.356 N 
ATOM      5  C   UNL A   1      33.867  25.631  23.790  1.00  0.00     0.226 C 
ATOM      6  O   UNL A   1      33.726  26.242  22.721  1.00  0.00    -0.275 OA
ATOM      7  H   UNL A   1      34.946  24.275  22.847  1.00  0.00     0.163 HD
BRANCH   5   8
ATOM      8  C   UNL A   1      33.130  26.146  25.024  1.00  0.00     0.122 C 
ATOM      9  C   UNL A   1      31.592  26.134  25.139  1.00  0.00     0.123 C 
ATOM     10  C   UNL A   1      31.306  27.640  25.333  1.00  0.00     0.132 C 
ATOM     11  C   UNL A   1      33.477  27.605  25.329  1.00  0.00     0.132 C 
ATOM     12  C   UNL A   1      31.632  28.052  26.772  1.00  0.00     0.035 C 
ATOM     13  O   UNL A   1      32.403  28.299  24.664  1.00  0.00    -0.373 OA
ATOM     14  C   UNL A   1      33.162  27.962  26.785  1.00  0.00     0.035 C 
BRANCH   9  15
ATOM     15  C   UNL A   1      30.781  25.431  24.054  1.00  0.00     0.231 C 
ATOM     16  N   UNL A   1      30.666  24.072  23.960  1.00  0.00    -0.317 N 
ATOM     17  H   UNL A   1      30.006  23.783  23.289  1.00  0.00     0.170 HD
ATOM     18  O   UNL A   1      30.219  26.077  23.164  1.00  0.00    -0.274 OA
BRANCH  16  19
ATOM     19  C   UNL A   1      31.281  23.017  24.611  1.00  0.00     0.108 A 
ATOM     20  C   UNL A   1      31.966  21.960  24.012  1.00  0.00     0.082 A 
ATOM     21  C   UNL A   1      32.307  20.971  25.014  1.00  0.00     0.007 A 
ATOM     22  C   UNL A   1      32.008  21.403  26.293  1.00  0.00     0.076 A 
ATOM     23  S   UNL A   1      31.416  22.989  26.300  1.00  0.00    -0.125 S 
BRANCH  20  24
ATOM     24  C   UNL A   1      32.208  21.942  22.567  1.00  0.00     0.252 C 
ATOM     25  N   UNL A   1      31.658  20.934  21.835  1.00  0.00    -0.365 N 
ATOM     26  H   UNL A   1      31.804  20.897  20.863  1.00  0.00     0.159 HD
ATOM     27  H   UNL A   1      31.116  20.244  22.278  1.00  0.00     0.159 HD
ATOM     28  O   UNL A   1      32.875  22.809  22.005  1.00  0.00    -0.269 OA
ENDBRANCH  20  24
BRANCH  21  29
ATOM     29  C   UNL A   1      32.962  19.683  24.887  1.00  0.00    -0.017 A 
ATOM     30  C   UNL A   1      32.249  18.502  25.131  1.00  0.00     0.010 A 
ATOM     31  C   UNL A   1      34.333  19.631  24.614  1.00  0.00     0.010 A 
ATOM     32  C   UNL A   1      32.914  17.273  25.125  1.00  0.00     0.021 A 
ATOM     33  C   UNL A   1      34.995  18.403  24.614  1.00  0.00     0.021 A 
ATOM     34  C   UNL A   1      34.287  17.231  24.878  1.00  0.00     0.041 A 
ATOM     35  Cl  UNL A   1      35.120  15.728  24.925  1.00  0.00    -0.084 Cl
ENDBRANCH  21  29
ENDBRANCH  16  19
ENDBRANCH   9  15
ENDBRANCH   5   8
ENDBRANCH   3   4
ENDBRANCH   2   3
ENDBRANCH   1   2
BRANCH   1  36
ATOM     36  C   UNL A   1      37.279  21.889  24.527  1.00  0.00     0.002 C 
BRANCH  36  37
ATOM     37  C   UNL A   1      38.001  20.606  24.948  1.00  0.00     0.021 C 
BRANCH  37  38
ATOM     38  C   UNL A   1      39.075  20.791  26.020  1.00  0.00     0.116 C 
BRANCH  38  39
ATOM     39  N   UNL A   1      40.030  19.693  26.032  1.00  0.00    -0.352 N 
ATOM     40  C   UNL A   1      41.401  19.730  26.115  1.00  0.00     0.251 C 
ATOM     41  H   UNL A   1      39.637  18.794  25.970  1.00  0.00     0.163 HD
ATOM     42  O   UNL A   1      42.055  18.713  25.907  1.00  0.00    -0.269 OA
BRANCH  40  43
ATOM     43  C   UNL A   1      42.086  21.003  26.434  1.00  0.00     0.039 A 
ATOM     44  C   UNL A   1      42.400  21.883  25.395  1.00  0.00     0.014 A 
ATOM     45  C   UNL A   1      42.416  21.326  27.754  1.00  0.00     0.014 A 
ATOM     46  C   UNL A   1      42.978  23.121  25.688  1.00  0.00     0.010 A 
ATOM     47  C   UNL A   1      42.939  22.583  28.048  1.00  0.00     0.010 A 
ATOM     48  C   UNL A   1      43.215  23.497  27.019  1.00  0.00    -0.014 A 
BRANCH  48  49
ATOM     49  C   UNL A   1      43.719  24.852  27.362  1.00  0.00     0.031 A 
ATOM     50  C   UNL A   1      42.783  25.892  27.912  1.00  0.00     0.074 A 
ATOM     51  C   UNL A   1      45.002  25.169  27.095  1.00  0.00     0.049 A 
ATOM     52  N   UNL A   1      43.007  27.155  28.168  1.00  0.00    -0.248 NA
ATOM     53  C   UNL A   1      41.406  25.456  28.185  1.00  0.00     0.031 C 
ATOM     54  C   UNL A   1      45.995  24.254  26.526  1.00  0.00     0.029 A 
ATOM     55  N   UNL A   1      45.687  26.348  27.245  1.00  0.00    -0.354 N 
ATOM     56  C   UNL A   1      41.796  27.672  28.618  1.00  0.00     0.074 A 
ATOM     57  C   UNL A   1      40.832  26.593  28.552  1.00  0.00     0.031 C 
ATOM     58  C   UNL A   1      47.160  24.905  26.382  1.00  0.00     0.029 A 
ATOM     59  C   UNL A   1      46.988  26.292  26.803  1.00  0.00     0.049 A 
ATOM     60  H   UNL A   1      45.284  27.159  27.633  1.00  0.00     0.167 HD
ATOM     61  C   UNL A   1      41.522  28.925  29.060  1.00  0.00     0.034 A 
ATOM     62  C   UNL A   1      47.931  27.252  26.723  1.00  0.00     0.034 A 
ATOM     63  C   UNL A   1      42.501  29.983  29.130  1.00  0.00     0.049 A 
ATOM     64  C   UNL A   1      47.593  28.645  27.187  1.00  0.00     0.074 A 
ATOM     65  C   UNL A   1      42.351  31.263  29.637  1.00  0.00     0.029 A 
ATOM     66  N   UNL A   1      43.806  29.892  28.665  1.00  0.00    -0.354 N 
ATOM     67  N   UNL A   1      46.459  29.103  27.664  1.00  0.00    -0.248 NA
ATOM     68  C   UNL A   1      48.662  29.650  27.102  1.00  0.00     0.031 C 
ATOM     69  C   UNL A   1      43.542  31.965  29.417  1.00  0.00     0.029 A 
ATOM     70  C   UNL A   1      44.459  31.105  28.835  1.00  0.00     0.049 A 
ATOM     71  H   UNL A   1      44.210  29.085  28.273  1.00  0.00     0.167 HD
ATOM     72  C   UNL A   1      46.685  30.446  27.954  1.00  0.00     0.074 A 
ATOM     73  C   UNL A   1      48.066  30.718  27.611  1.00  0.00     0.031 C 
ATOM     74  C   UNL A   1      45.829  31.368  28.461  1.00  0.00     0.034 A 
BRANCH  61  75
ATOM     75  C   UNL A   1      40.101  29.220  29.472  1.00  0.00     0.023 A 
ATOM     76  C   UNL A   1      39.728  29.324  30.823  1.00  0.00     0.031 A 
ATOM     77  C   UNL A   1      39.097  29.380  28.499  1.00  0.00     0.131 A 
ATOM     78  C   UNL A   1      38.380  29.502  31.167  1.00  0.00     0.055 A 
ATOM     79  C   UNL A   1      37.769  29.635  28.846  1.00  0.00     0.041 A 
ATOM     80  F   UNL A   1      39.388  29.274  27.194  1.00  0.00    -0.206 F 
ATOM     81  C   UNL A   1      37.401  29.683  30.188  1.00  0.00     0.022 A 
BRANCH  78  82
ATOM     82  S   UNL A   1      37.905  29.357  32.911  1.00  0.00     0.124 S 
ATOM     83  O   UNL A   1      36.845  30.359  33.013  1.00  0.00    -0.237 OA
ATOM     84  O   UNL A   1      37.480  27.966  33.008  1.00  0.00    -0.237 OA
ATOM     85  O   UNL A   1      39.133  29.687  33.631  1.00  0.00    -0.744 OA
ENDBRANCH  78  82
ENDBRANCH  61  75
BRANCH  62  86
ATOM     86  C   UNL A   1      49.271  26.942  26.153  1.00  0.00     0.023 A 
ATOM     87  C   UNL A   1      49.608  27.327  24.846  1.00  0.00     0.031 A 
ATOM     88  C   UNL A   1      50.227  26.229  26.900  1.00  0.00     0.131 A 
ATOM     89  C   UNL A   1      50.855  26.965  24.311  1.00  0.00     0.055 A 
ATOM     90  C   UNL A   1      51.483  25.913  26.380  1.00  0.00     0.041 A 
ATOM     91  F   UNL A   1      49.956  25.841  28.156  1.00  0.00    -0.206 F 
ATOM     92  C   UNL A   1      51.798  26.272  25.074  1.00  0.00     0.022 A 
BRANCH  89  93
ATOM     93  S   UNL A   1      51.200  27.354  22.574  1.00  0.00     0.124 S 
ATOM     94  O   UNL A   1      51.290  28.808  22.607  1.00  0.00    -0.237 OA
ATOM     95  O   UNL A   1      52.450  26.636  22.347  1.00  0.00    -0.237 OA
ATOM     96  O   UNL A   1      50.039  26.815  21.869  1.00  0.00    -0.744 OA
ENDBRANCH  89  93
ENDBRANCH  62  86
BRANCH  74  97
ATOM     97  C   UNL A   1      46.379  32.753  28.691  1.00  0.00     0.023 A 
ATOM     98  C   UNL A   1      46.368  33.725  27.675  1.00  0.00     0.031 A 
ATOM     99  C   UNL A   1      46.924  33.103  29.939  1.00  0.00     0.131 A 
ATOM    100  C   UNL A   1      46.936  34.986  27.910  1.00  0.00     0.055 A 
ATOM    101  C   UNL A   1      47.439  34.377  30.183  1.00  0.00     0.041 A 
ATOM    102  F   UNL A   1      46.960  32.211  30.941  1.00  0.00    -0.206 F 
ATOM    103  C   UNL A   1      47.456  35.324  29.163  1.00  0.00     0.022 A 
BRANCH 100 104
ATOM    104  S   UNL A   1      47.048  36.162  26.533  1.00  0.00     0.124 S 
ATOM    105  O   UNL A   1      48.484  36.189  26.274  1.00  0.00    -0.237 OA
ATOM    106  O   UNL A   1      46.228  35.524  25.508  1.00  0.00    -0.237 OA
ATOM    107  O   UNL A   1      46.494  37.395  27.089  1.00  0.00    -0.744 OA
ENDBRANCH 100 104
ENDBRANCH  74  97
ENDBRANCH  48  49
ENDBRANCH  40  43
ENDBRANCH  38  39
ENDBRANCH  37  38
ENDBRANCH  36  37
ENDBRANCH   1  36
TORSDOF 20
ENDMDL
MODEL 3
REMARK VINA RESULT:     -11.6      1.901      7.416
REMARK SMILES NC(=O)c1c(-c2ccc(Cl)cc2)csc1NC(=O)[C@H]1[C@@H](C(=O)NCCCCCCNC(=O)c2ccc(-c3c4nc(c(-c5cc(S(=O)(=O)[O-])ccc5F)c5ccc([nH]5)c(-c5cc(S(=O)(=O)[O-])ccc5F)c5nc(c(-c6cc(S(=O)(=O)[O-])ccc6F)c6ccc3[nH]6)C=C5)C=C4)cc2)[C@@H]2CC[C@H]1O2
REMARK SMILES IDX 26 1 25 2 24 3 23 4 21 5 22 6 20 8 19 9 99 10 96 11 98 12
REMARK SMILES IDX 100 13 97 14 17 15 16 16 18 18 15 19 4 20 5 21 13 22 14 23
REMARK SMILES IDX 2 24 1 25 3 28 6 29 7 30 12 31 8 32 11 33 9 34 10 35 27 36
REMARK SMILES IDX 28 37 29 38 30 39 31 40 32 42 33 43 34 44 95 45 35 46 94 47
REMARK SMILES IDX 36 48 37 49 38 50 88 51 39 52 93 53 87 54 89 55 40 56 92 57
REMARK SMILES IDX 86 58 85 59 41 61 73 62 53 63 72 64 54 65 57 66 71 67 90 68
REMARK SMILES IDX 55 69 56 70 70 72 91 73 58 74 42 75 43 76 51 77 44 78 50 79
REMARK SMILES IDX 52 80 49 81 45 82 46 83 47 84 48 85 74 86 75 87 83 88 76 89
REMARK SMILES IDX 82 90 84 91 81 92 77 93 78 94 79 95 80 96 59 97 60 98 68 99
REMARK SMILES IDX 61 100 67 101 69 102 66 103 62 104 63 105 64 106 65 107
REMARK H PARENT 23 7 16 17 1 26 1 27 30 41 89 60 57 71
REMARK Flexibility Score: inf
ROOT
ATOM      1  C   UNL A   1      32.996  29.345  26.728  1.00  0.00     0.002 C 
ENDROOT
BRANCH   1   2
ATOM      2  C   UNL A   1      33.936  28.142  26.613  1.00  0.00     0.021 C 
BRANCH   2   3
ATOM      3  C   UNL A   1      33.456  27.059  25.646  1.00  0.00     0.116 C 
BRANCH   3   4
ATOM      4  N   UNL A   1      33.207  25.799  26.320  1.00  0.00    -0.356 N 
ATOM      5  C   UNL A   1      33.709  24.553  26.134  1.00  0.00     0.226 C 
ATOM      6  O   UNL A   1      33.315  23.675  26.915  1.00  0.00    -0.275 OA
ATOM      7  H   UNL A   1      32.550  25.859  27.050  1.00  0.00     0.163 HD
BRANCH   5   8
ATOM      8  C   UNL A   1      34.644  24.146  24.997  1.00  0.00     0.122 C 
ATOM      9  C   UNL A   1      34.237  23.134  23.907  1.00  0.00     0.123 C 
ATOM     10  C   UNL A   1      35.318  22.047  24.106  1.00  0.00     0.132 C 
ATOM     11  C   UNL A   1      35.959  23.564  25.520  1.00  0.00     0.132 C 
ATOM     12  C   UNL A   1      36.643  22.511  23.493  1.00  0.00     0.035 C 
ATOM     13  O   UNL A   1      35.675  22.152  25.502  1.00  0.00    -0.373 OA
ATOM     14  C   UNL A   1      37.060  23.627  24.457  1.00  0.00     0.035 C 
BRANCH   9  15
ATOM     15  C   UNL A   1      32.793  22.643  23.863  1.00  0.00     0.231 C 
ATOM     16  N   UNL A   1      31.747  23.416  23.440  1.00  0.00    -0.317 N 
ATOM     17  H   UNL A   1      30.904  22.915  23.349  1.00  0.00     0.170 HD
ATOM     18  O   UNL A   1      32.494  21.515  24.264  1.00  0.00    -0.274 OA
BRANCH  16  19
ATOM     19  C   UNL A   1      31.624  24.755  23.113  1.00  0.00     0.108 A 
ATOM     20  C   UNL A   1      30.778  25.683  23.721  1.00  0.00     0.082 A 
ATOM     21  C   UNL A   1      30.808  26.927  22.979  1.00  0.00     0.007 A 
ATOM     22  C   UNL A   1      31.764  26.915  21.982  1.00  0.00     0.076 A 
ATOM     23  S   UNL A   1      32.665  25.481  21.990  1.00  0.00    -0.125 S 
BRANCH  20  24
ATOM     24  C   UNL A   1      29.994  25.323  24.905  1.00  0.00     0.252 C 
ATOM     25  N   UNL A   1      28.749  25.858  25.039  1.00  0.00    -0.365 N 
ATOM     26  H   UNL A   1      28.200  25.634  25.824  1.00  0.00     0.159 HD
ATOM     27  H   UNL A   1      28.399  26.468  24.351  1.00  0.00     0.159 HD
ATOM     28  O   UNL A   1      30.420  24.552  25.762  1.00  0.00    -0.269 OA
ENDBRANCH  20  24
BRANCH  21  29
ATOM     29  C   UNL A   1      30.070  28.161  23.174  1.00  0.00    -0.017 A 
ATOM     30  C   UNL A   1      28.785  28.306  22.635  1.00  0.00     0.010 A 
ATOM     31  C   UNL A   1      30.686  29.238  23.819  1.00  0.00     0.010 A 
ATOM     32  C   UNL A   1      28.129  29.537  22.722  1.00  0.00     0.021 A 
ATOM     33  C   UNL A   1      30.031  30.467  23.899  1.00  0.00     0.021 A 
ATOM     34  C   UNL A   1      28.760  30.615  23.343  1.00  0.00     0.041 A 
ATOM     35  Cl  UNL A   1      27.981  32.146  23.403  1.00  0.00    -0.084 Cl
ENDBRANCH  21  29
ENDBRANCH  16  19
ENDBRANCH   9  15
ENDBRANCH   5   8
ENDBRANCH   3   4
ENDBRANCH   2   3
ENDBRANCH   1   2
BRANCH   1  36
ATOM     36  C   UNL A   1      33.629  30.614  27.309  1.00  0.00     0.002 C 
BRANCH  36  37
ATOM     37  C   UNL A   1      32.674  31.795  27.502  1.00  0.00     0.021 C 
BRANCH  37  38
ATOM     38  C   UNL A   1      33.259  33.164  27.154  1.00  0.00     0.116 C 
BRANCH  38  39
ATOM     39  N   UNL A   1      33.012  34.146  28.198  1.00  0.00    -0.352 N 
ATOM     40  C   UNL A   1      33.605  34.276  29.431  1.00  0.00     0.251 C 
ATOM     41  H   UNL A   1      32.319  34.813  27.992  1.00  0.00     0.163 HD
ATOM     42  O   UNL A   1      33.127  35.042  30.262  1.00  0.00    -0.269 OA
BRANCH  40  43
ATOM     43  C   UNL A   1      34.805  33.475  29.760  1.00  0.00     0.039 A 
ATOM     44  C   UNL A   1      36.047  33.879  29.263  1.00  0.00     0.014 A 
ATOM     45  C   UNL A   1      34.705  32.331  30.558  1.00  0.00     0.014 A 
ATOM     46  C   UNL A   1      37.200  33.178  29.627  1.00  0.00     0.010 A 
ATOM     47  C   UNL A   1      35.861  31.669  30.965  1.00  0.00     0.010 A 
ATOM     48  C   UNL A   1      37.120  32.092  30.513  1.00  0.00    -0.014 A 
BRANCH  48  49
ATOM     49  C   UNL A   1      38.342  31.406  31.006  1.00  0.00     0.031 A 
ATOM     50  C   UNL A   1      39.018  31.873  32.265  1.00  0.00     0.074 A 
ATOM     51  C   UNL A   1      38.889  30.417  30.270  1.00  0.00     0.049 A 
ATOM     52  N   UNL A   1      40.147  31.477  32.795  1.00  0.00    -0.248 NA
ATOM     53  C   UNL A   1      38.346  32.946  33.010  1.00  0.00     0.031 C 
ATOM     54  C   UNL A   1      38.344  29.903  29.011  1.00  0.00     0.029 A 
ATOM     55  N   UNL A   1      40.032  29.682  30.460  1.00  0.00    -0.354 N 
ATOM     56  C   UNL A   1      40.330  32.262  33.928  1.00  0.00     0.074 A 
ATOM     57  C   UNL A   1      39.219  33.189  33.978  1.00  0.00     0.031 C 
ATOM     58  C   UNL A   1      39.148  28.933  28.547  1.00  0.00     0.029 A 
ATOM     59  C   UNL A   1      40.289  28.788  29.446  1.00  0.00     0.049 A 
ATOM     60  H   UNL A   1      40.614  29.785  31.247  1.00  0.00     0.167 HD
ATOM     61  C   UNL A   1      41.325  32.201  34.848  1.00  0.00     0.034 A 
ATOM     62  C   UNL A   1      41.334  27.960  29.250  1.00  0.00     0.034 A 
ATOM     63  C   UNL A   1      42.418  31.261  34.788  1.00  0.00     0.049 A 
ATOM     64  C   UNL A   1      42.445  27.935  30.267  1.00  0.00     0.074 A 
ATOM     65  C   UNL A   1      43.433  31.058  35.708  1.00  0.00     0.029 A 
ATOM     66  N   UNL A   1      42.650  30.376  33.742  1.00  0.00    -0.354 N 
ATOM     67  N   UNL A   1      42.574  28.644  31.365  1.00  0.00    -0.248 NA
ATOM     68  C   UNL A   1      43.550  26.998  30.019  1.00  0.00     0.031 C 
ATOM     69  C   UNL A   1      44.314  30.103  35.188  1.00  0.00     0.029 A 
ATOM     70  C   UNL A   1      43.815  29.657  33.974  1.00  0.00     0.049 A 
ATOM     71  H   UNL A   1      42.073  30.274  32.952  1.00  0.00     0.167 HD
ATOM     72  C   UNL A   1      43.766  28.224  31.948  1.00  0.00     0.074 A 
ATOM     73  C   UNL A   1      44.308  27.192  31.088  1.00  0.00     0.031 C 
ATOM     74  C   UNL A   1      44.357  28.651  33.092  1.00  0.00     0.034 A 
BRANCH  61  75
ATOM     75  C   UNL A   1      41.287  33.200  35.979  1.00  0.00     0.023 A 
ATOM     76  C   UNL A   1      40.609  32.932  37.180  1.00  0.00     0.031 A 
ATOM     77  C   UNL A   1      41.920  34.449  35.846  1.00  0.00     0.131 A 
ATOM     78  C   UNL A   1      40.515  33.923  38.169  1.00  0.00     0.055 A 
ATOM     79  C   UNL A   1      41.888  35.403  36.865  1.00  0.00     0.041 A 
ATOM     80  F   UNL A   1      42.567  34.770  34.715  1.00  0.00    -0.206 F 
ATOM     81  C   UNL A   1      41.169  35.148  38.030  1.00  0.00     0.022 A 
BRANCH  78  82
ATOM     82  S   UNL A   1      39.408  33.639  39.577  1.00  0.00     0.124 S 
ATOM     83  O   UNL A   1      38.097  33.648  38.930  1.00  0.00    -0.237 OA
ATOM     84  O   UNL A   1      39.863  32.349  40.082  1.00  0.00    -0.237 OA
ATOM     85  O   UNL A   1      39.668  34.779  40.454  1.00  0.00    -0.744 OA
ENDBRANCH  78  82
ENDBRANCH  61  75
BRANCH  62  86
ATOM     86  C   UNL A   1      41.400  27.111  28.028  1.00  0.00     0.023 A 
ATOM     87  C   UNL A   1      41.092  25.743  28.081  1.00  0.00     0.031 A 
ATOM     88  C   UNL A   1      41.800  27.652  26.792  1.00  0.00     0.131 A 
ATOM     89  C   UNL A   1      41.224  24.953  26.928  1.00  0.00     0.055 A 
ATOM     90  C   UNL A   1      41.884  26.872  25.639  1.00  0.00     0.041 A 
ATOM     91  F   UNL A   1      42.102  28.956  26.687  1.00  0.00    -0.206 F 
ATOM     92  C   UNL A   1      41.606  25.510  25.705  1.00  0.00     0.022 A 
BRANCH  89  93
ATOM     93  S   UNL A   1      40.958  23.164  27.066  1.00  0.00     0.124 S 
ATOM     94  O   UNL A   1      39.505  23.074  26.984  1.00  0.00    -0.237 OA
ATOM     95  O   UNL A   1      41.700  22.659  25.916  1.00  0.00    -0.237 OA
ATOM     96  O   UNL A   1      41.532  22.835  28.369  1.00  0.00    -0.744 OA
ENDBRANCH  89  93
ENDBRANCH  62  86
BRANCH  74  97
ATOM     97  C   UNL A   1      45.650  27.980  33.483  1.00  0.00     0.023 A 
ATOM     98  C   UNL A   1      45.662  26.791  34.232  1.00  0.00     0.031 A 
ATOM     99  C   UNL A   1      46.883  28.541  33.106  1.00  0.00     0.131 A 
ATOM    100  C   UNL A   1      46.885  26.224  34.622  1.00  0.00     0.055 A 
ATOM    101  C   UNL A   1      48.096  27.943  33.451  1.00  0.00     0.041 A 
ATOM    102  F   UNL A   1      46.926  29.677  32.392  1.00  0.00    -0.206 F 
ATOM    103  C   UNL A   1      48.101  26.784  34.221  1.00  0.00     0.022 A 
BRANCH 100 104
ATOM    104  S   UNL A   1      46.866  24.780  35.718  1.00  0.00     0.124 S 
ATOM    105  O   UNL A   1      46.476  23.711  34.804  1.00  0.00    -0.237 OA
ATOM    106  O   UNL A   1      48.242  24.734  36.201  1.00  0.00    -0.237 OA
ATOM    107  O   UNL A   1      45.868  25.128  36.728  1.00  0.00    -0.744 OA
ENDBRANCH 100 104
ENDBRANCH  74  97
ENDBRANCH  48  49
ENDBRANCH  40  43
ENDBRANCH  38  39
ENDBRANCH  37  38
ENDBRANCH  36  37
ENDBRANCH   1  36
TORSDOF 20
ENDMDL
