MODEL 1
REMARK VINA RESULT:     -12.2      0.000      0.000
REMARK SMILES O=C(NCCCCCCNC(=O)c1cc(/C=C/c2cc(O)cc(O)c2)ccc1O)c1ccc(-c2c3nc(c(-c4cc(S(=O)(=O)[O-])ccc4F)c4ccc([nH]4)c(-c4cc(S(=O)(=O)[O-])ccc4F)c4nc(c(-c5cc(S(=O)(=O)[O-])ccc5F)c5ccc2[nH]5)C=C4)C=C3)cc1
REMARK SMILES IDX 6 1 5 2 4 3 3 4 1 5 2 6 30 8 31 9 92 10 32 11 91 12 33 13
REMARK SMILES IDX 34 14 35 15 85 16 36 17 90 18 84 19 86 20 37 21 89 22 83 23
REMARK SMILES IDX 82 24 38 26 70 27 50 28 69 29 51 30 54 31 68 32 87 33 52 34
REMARK SMILES IDX 53 35 67 37 88 38 55 39 39 40 40 41 48 42 41 43 47 44 49 45
REMARK SMILES IDX 46 46 42 47 43 48 44 49 45 50 71 51 72 52 80 53 73 54 79 55
REMARK SMILES IDX 81 56 78 57 74 58 75 59 76 60 77 61 56 62 57 63 65 64 58 65
REMARK SMILES IDX 64 66 66 67 63 68 59 69 60 70 61 71 62 72 7 73 8 74 9 75
REMARK SMILES IDX 10 76 11 77 12 79 13 80 14 81 28 82 15 83 27 84 26 85 29 86
REMARK SMILES IDX 16 88 17 89 18 90 19 91 25 92 20 93 23 94 22 95 21 96 24 98
REMARK H PARENT 3 7 86 25 54 36 10 78 29 87 21 97 24 99
REMARK Flexibility Score: inf
ROOT
ATOM      1  C   UNL A   1      31.808  30.401  26.024  1.00  0.00     0.002 C 
ENDROOT
BRANCH   1   2
ATOM      2  C   UNL A   1      31.561  31.825  26.521  1.00  0.00     0.021 C 
BRANCH   2   3
ATOM      3  C   UNL A   1      32.722  32.471  27.267  1.00  0.00     0.116 C 
BRANCH   3   4
ATOM      4  N   UNL A   1      32.481  33.862  27.613  1.00  0.00    -0.352 N 
ATOM      5  O   UNL A   1      32.733  35.776  28.784  1.00  0.00    -0.269 OA
ATOM      6  C   UNL A   1      33.141  34.644  28.531  1.00  0.00     0.251 C 
ATOM      7  H   UNL A   1      31.748  34.303  27.123  1.00  0.00     0.163 HD
BRANCH   6   8
ATOM      8  C   UNL A   1      34.327  34.106  29.236  1.00  0.00     0.039 A 
ATOM      9  C   UNL A   1      35.616  34.430  28.807  1.00  0.00     0.014 A 
ATOM     10  C   UNL A   1      34.149  33.256  30.332  1.00  0.00     0.014 A 
ATOM     11  C   UNL A   1      36.713  33.793  29.372  1.00  0.00     0.010 A 
ATOM     12  C   UNL A   1      35.262  32.684  30.959  1.00  0.00     0.010 A 
ATOM     13  C   UNL A   1      36.553  32.923  30.465  1.00  0.00    -0.014 A 
BRANCH  13  14
ATOM     14  C   UNL A   1      37.766  32.337  31.095  1.00  0.00     0.031 A 
ATOM     15  C   UNL A   1      38.273  32.822  32.426  1.00  0.00     0.074 A 
ATOM     16  C   UNL A   1      38.372  31.304  30.475  1.00  0.00     0.049 A 
ATOM     17  N   UNL A   1      39.272  32.369  33.140  1.00  0.00    -0.248 NA
ATOM     18  C   UNL A   1      37.577  33.967  33.030  1.00  0.00     0.031 C 
ATOM     19  C   UNL A   1      37.977  30.765  29.169  1.00  0.00     0.029 A 
ATOM     20  N   UNL A   1      39.417  30.505  30.859  1.00  0.00    -0.354 N 
ATOM     21  C   UNL A   1      39.331  33.172  34.275  1.00  0.00     0.074 A 
ATOM     22  C   UNL A   1      38.287  34.167  34.131  1.00  0.00     0.031 C 
ATOM     23  C   UNL A   1      38.730  29.692  28.890  1.00  0.00     0.029 A 
ATOM     24  C   UNL A   1      39.701  29.503  29.961  1.00  0.00     0.049 A 
ATOM     25  H   UNL A   1      39.916  30.636  31.698  1.00  0.00     0.167 HD
ATOM     26  C   UNL A   1      40.168  33.079  35.339  1.00  0.00     0.034 A 
ATOM     27  C   UNL A   1      40.645  28.543  29.987  1.00  0.00     0.034 A 
ATOM     28  C   UNL A   1      41.210  32.085  35.462  1.00  0.00     0.049 A 
ATOM     29  C   UNL A   1      41.563  28.468  31.175  1.00  0.00     0.074 A 
ATOM     30  C   UNL A   1      42.118  31.906  36.492  1.00  0.00     0.029 A 
ATOM     31  N   UNL A   1      41.487  31.100  34.520  1.00  0.00    -0.354 N 
ATOM     32  N   UNL A   1      41.597  29.235  32.241  1.00  0.00    -0.248 NA
ATOM     33  C   UNL A   1      42.562  27.394  31.169  1.00  0.00     0.031 C 
ATOM     34  C   UNL A   1      42.973  30.850  36.151  1.00  0.00     0.029 A 
ATOM     35  C   UNL A   1      42.559  30.325  34.938  1.00  0.00     0.049 A 
ATOM     36  H   UNL A   1      40.994  30.972  33.678  1.00  0.00     0.167 HD
ATOM     37  C   UNL A   1      42.622  28.732  33.034  1.00  0.00     0.074 A 
ATOM     38  C   UNL A   1      43.150  27.572  32.343  1.00  0.00     0.031 C 
ATOM     39  C   UNL A   1      43.093  29.190  34.222  1.00  0.00     0.034 A 
BRANCH  26  40
ATOM     40  C   UNL A   1      40.011  34.104  36.438  1.00  0.00     0.023 A 
ATOM     41  C   UNL A   1      39.567  33.744  37.723  1.00  0.00     0.031 A 
ATOM     42  C   UNL A   1      40.300  35.459  36.198  1.00  0.00     0.131 A 
ATOM     43  C   UNL A   1      39.370  34.733  38.700  1.00  0.00     0.055 A 
ATOM     44  C   UNL A   1      40.168  36.429  37.195  1.00  0.00     0.041 A 
ATOM     45  F   UNL A   1      40.710  35.866  34.986  1.00  0.00    -0.206 F 
ATOM     46  C   UNL A   1      39.689  36.069  38.452  1.00  0.00     0.022 A 
BRANCH  43  47
ATOM     47  S   UNL A   1      38.579  34.263  40.264  1.00  0.00     0.124 S 
ATOM     48  O   UNL A   1      39.592  33.397  40.861  1.00  0.00    -0.237 OA
ATOM     49  O   UNL A   1      38.376  35.551  40.917  1.00  0.00    -0.237 OA
ATOM     50  O   UNL A   1      37.357  33.581  39.839  1.00  0.00    -0.744 OA
ENDBRANCH  43  47
ENDBRANCH  26  40
BRANCH  27  51
ATOM     51  C   UNL A   1      40.788  27.602  28.840  1.00  0.00     0.023 A 
ATOM     52  C   UNL A   1      41.746  27.813  27.838  1.00  0.00     0.031 A 
ATOM     53  C   UNL A   1      39.939  26.485  28.720  1.00  0.00     0.131 A 
ATOM     54  C   UNL A   1      41.809  26.943  26.738  1.00  0.00     0.055 A 
ATOM     55  C   UNL A   1      40.041  25.593  27.654  1.00  0.00     0.041 A 
ATOM     56  F   UNL A   1      39.009  26.236  29.656  1.00  0.00    -0.206 F 
ATOM     57  C   UNL A   1      40.972  25.827  26.646  1.00  0.00     0.022 A 
BRANCH  54  58
ATOM     58  S   UNL A   1      42.944  27.338  25.381  1.00  0.00     0.124 S 
ATOM     59  O   UNL A   1      43.036  26.059  24.686  1.00  0.00    -0.237 OA
ATOM     60  O   UNL A   1      42.221  28.396  24.683  1.00  0.00    -0.237 OA
ATOM     61  O   UNL A   1      44.161  27.765  26.068  1.00  0.00    -0.744 OA
ENDBRANCH  54  58
ENDBRANCH  27  51
BRANCH  39  62
ATOM     62  C   UNL A   1      44.228  28.413  34.838  1.00  0.00     0.023 A 
ATOM     63  C   UNL A   1      43.997  27.442  35.830  1.00  0.00     0.031 A 
ATOM     64  C   UNL A   1      45.557  28.680  34.469  1.00  0.00     0.131 A 
ATOM     65  C   UNL A   1      45.082  26.827  36.471  1.00  0.00     0.055 A 
ATOM     66  C   UNL A   1      46.631  28.020  35.068  1.00  0.00     0.041 A 
ATOM     67  F   UNL A   1      45.833  29.598  33.529  1.00  0.00    -0.206 F 
ATOM     68  C   UNL A   1      46.398  27.100  36.087  1.00  0.00     0.022 A 
BRANCH  65  69
ATOM     69  S   UNL A   1      44.754  25.748  37.891  1.00  0.00     0.124 S 
ATOM     70  O   UNL A   1      46.025  25.793  38.607  1.00  0.00    -0.237 OA
ATOM     71  O   UNL A   1      43.633  26.420  38.541  1.00  0.00    -0.237 OA
ATOM     72  O   UNL A   1      44.434  24.461  37.278  1.00  0.00    -0.744 OA
ENDBRANCH  65  69
ENDBRANCH  39  62
ENDBRANCH  13  14
ENDBRANCH   6   8
ENDBRANCH   3   4
ENDBRANCH   2   3
ENDBRANCH   1   2
BRANCH   1  73
ATOM     73  C   UNL A   1      31.845  29.311  27.100  1.00  0.00     0.002 C 
BRANCH  73  74
ATOM     74  C   UNL A   1      33.184  28.591  27.289  1.00  0.00     0.021 C 
BRANCH  74  75
ATOM     75  C   UNL A   1      33.373  27.311  26.476  1.00  0.00     0.116 C 
BRANCH  75  76
ATOM     76  N   UNL A   1      32.439  26.269  26.862  1.00  0.00    -0.352 N 
ATOM     77  C   UNL A   1      31.591  25.546  26.064  1.00  0.00     0.255 C 
ATOM     78  H   UNL A   1      32.413  26.053  27.822  1.00  0.00     0.163 HD
ATOM     79  O   UNL A   1      30.817  24.731  26.561  1.00  0.00    -0.269 OA
BRANCH  77  80
ATOM     80  C   UNL A   1      31.527  25.812  24.612  1.00  0.00     0.082 A 
ATOM     81  C   UNL A   1      31.009  27.056  24.223  1.00  0.00     0.025 A 
ATOM     82  C   UNL A   1      31.925  24.883  23.649  1.00  0.00     0.128 A 
ATOM     83  C   UNL A   1      30.917  27.403  22.870  1.00  0.00    -0.025 A 
ATOM     84  C   UNL A   1      31.851  25.216  22.300  1.00  0.00     0.047 A 
ATOM     85  C   UNL A   1      31.356  26.469  21.917  1.00  0.00     0.012 A 
BRANCH  82  86
ATOM     86  O   UNL A   1      32.385  23.653  24.021  1.00  0.00    -0.507 OA
ATOM     87  H   UNL A   1      32.852  23.550  24.827  1.00  0.00     0.293 HD
ENDBRANCH  82  86
BRANCH  83  88
ATOM     88  C   UNL A   1      30.377  28.692  22.396  1.00  0.00     0.009 C 
ATOM     89  C   UNL A   1      29.337  29.354  22.933  1.00  0.00     0.009 C 
BRANCH  89  90
ATOM     90  C   UNL A   1      28.825  30.623  22.397  1.00  0.00    -0.018 A 
ATOM     91  C   UNL A   1      28.958  31.825  23.106  1.00  0.00     0.054 A 
ATOM     92  C   UNL A   1      28.259  30.641  21.114  1.00  0.00     0.054 A 
ATOM     93  C   UNL A   1      28.511  33.018  22.539  1.00  0.00     0.119 A 
ATOM     94  C   UNL A   1      27.817  31.846  20.568  1.00  0.00     0.119 A 
ATOM     95  C   UNL A   1      27.940  33.036  21.272  1.00  0.00     0.092 A 
BRANCH  93  96
ATOM     96  O   UNL A   1      28.630  34.205  23.203  1.00  0.00    -0.508 OA
ATOM     97  H   UNL A   1      28.023  34.425  23.881  1.00  0.00     0.293 HD
ENDBRANCH  93  96
BRANCH  94  98
ATOM     98  O   UNL A   1      27.257  31.895  19.325  1.00  0.00    -0.508 OA
ATOM     99  H   UNL A   1      27.266  32.696  18.839  1.00  0.00     0.293 HD
ENDBRANCH  94  98
ENDBRANCH  89  90
ENDBRANCH  83  88
ENDBRANCH  77  80
ENDBRANCH  75  76
ENDBRANCH  74  75
ENDBRANCH  73  74
ENDBRANCH   1  73
TORSDOF 21
ENDMDL
MODEL 2
REMARK VINA RESULT:     -12.1      5.936     11.399
REMARK SMILES O=C(NCCCCCCNC(=O)c1cc(/C=C/c2cc(O)cc(O)c2)ccc1O)c1ccc(-c2c3nc(c(-c4cc(S(=O)(=O)[O-])ccc4F)c4ccc([nH]4)c(-c4cc(S(=O)(=O)[O-])ccc4F)c4nc(c(-c5cc(S(=O)(=O)[O-])ccc5F)c5ccc2[nH]5)C=C4)C=C3)cc1
REMARK SMILES IDX 6 1 5 2 4 3 3 4 1 5 2 6 30 8 31 9 92 10 32 11 91 12 33 13
REMARK SMILES IDX 34 14 35 15 85 16 36 17 90 18 84 19 86 20 37 21 89 22 83 23
REMARK SMILES IDX 82 24 38 26 70 27 50 28 69 29 51 30 54 31 68 32 87 33 52 34
REMARK SMILES IDX 53 35 67 37 88 38 55 39 39 40 40 41 48 42 41 43 47 44 49 45
REMARK SMILES IDX 46 46 42 47 43 48 44 49 45 50 71 51 72 52 80 53 73 54 79 55
REMARK SMILES IDX 81 56 78 57 74 58 75 59 76 60 77 61 56 62 57 63 65 64 58 65
REMARK SMILES IDX 64 66 66 67 63 68 59 69 60 70 61 71 62 72 7 73 8 74 9 75
REMARK SMILES IDX 10 76 11 77 12 79 13 80 14 81 28 82 15 83 27 84 26 85 29 86
REMARK SMILES IDX 16 88 17 89 18 90 19 91 25 92 20 93 23 94 22 95 21 96 24 98
REMARK H PARENT 3 7 86 25 54 36 10 78 29 87 21 97 24 99
REMARK Flexibility Score: inf
ROOT
ATOM      1  C   UNL A   1      35.516  23.252  23.476  1.00  0.00     0.002 C 
ENDROOT
BRANCH   1   2
ATOM      2  C   UNL A   1      35.611  22.116  24.493  1.00  0.00     0.021 C 
BRANCH   2   3
ATOM      3  C   UNL A   1      36.665  22.291  25.578  1.00  0.00     0.116 C 
BRANCH   3   4
ATOM      4  N   UNL A   1      37.595  21.177  25.663  1.00  0.00    -0.352 N 
ATOM      5  O   UNL A   1      39.595  20.170  25.952  1.00  0.00    -0.269 OA
ATOM      6  C   UNL A   1      38.916  21.189  26.047  1.00  0.00     0.251 C 
ATOM      7  H   UNL A   1      37.230  20.297  25.413  1.00  0.00     0.163 HD
BRANCH   6   8
ATOM      8  C   UNL A   1      39.523  22.445  26.547  1.00  0.00     0.039 A 
ATOM      9  C   UNL A   1      39.102  23.682  26.056  1.00  0.00     0.014 A 
ATOM     10  C   UNL A   1      40.536  22.383  27.509  1.00  0.00     0.014 A 
ATOM     11  C   UNL A   1      39.789  24.837  26.412  1.00  0.00     0.010 A 
ATOM     12  C   UNL A   1      41.167  23.558  27.934  1.00  0.00     0.010 A 
ATOM     13  C   UNL A   1      40.819  24.792  27.366  1.00  0.00    -0.014 A 
BRANCH  13  14
ATOM     14  C   UNL A   1      41.462  26.068  27.783  1.00  0.00     0.031 A 
ATOM     15  C   UNL A   1      42.859  26.421  27.350  1.00  0.00     0.074 A 
ATOM     16  C   UNL A   1      40.737  26.940  28.509  1.00  0.00     0.049 A 
ATOM     17  N   UNL A   1      43.534  27.522  27.568  1.00  0.00    -0.248 NA
ATOM     18  C   UNL A   1      43.597  25.409  26.580  1.00  0.00     0.031 C 
ATOM     19  C   UNL A   1      39.378  26.692  29.003  1.00  0.00     0.029 A 
ATOM     20  N   UNL A   1      41.014  28.214  28.934  1.00  0.00    -0.354 N 
ATOM     21  C   UNL A   1      44.776  27.337  26.970  1.00  0.00     0.074 A 
ATOM     22  C   UNL A   1      44.773  25.999  26.413  1.00  0.00     0.031 C 
ATOM     23  C   UNL A   1      38.922  27.796  29.610  1.00  0.00     0.029 A 
ATOM     24  C   UNL A   1      39.972  28.807  29.608  1.00  0.00     0.049 A 
ATOM     25  H   UNL A   1      41.876  28.661  28.773  1.00  0.00     0.167 HD
ATOM     26  C   UNL A   1      45.815  28.206  26.884  1.00  0.00     0.034 A 
ATOM     27  C   UNL A   1      39.872  30.026  30.173  1.00  0.00     0.034 A 
ATOM     28  C   UNL A   1      45.806  29.535  27.454  1.00  0.00     0.049 A 
ATOM     29  C   UNL A   1      41.041  30.966  30.068  1.00  0.00     0.074 A 
ATOM     30  C   UNL A   1      46.805  30.493  27.432  1.00  0.00     0.029 A 
ATOM     31  N   UNL A   1      44.742  30.094  28.152  1.00  0.00    -0.354 N 
ATOM     32  N   UNL A   1      42.205  30.772  29.491  1.00  0.00    -0.248 NA
ATOM     33  C   UNL A   1      40.879  32.289  30.680  1.00  0.00     0.031 C 
ATOM     34  C   UNL A   1      46.366  31.607  28.159  1.00  0.00     0.029 A 
ATOM     35  C   UNL A   1      45.068  31.374  28.579  1.00  0.00     0.049 A 
ATOM     36  H   UNL A   1      43.881  29.646  28.321  1.00  0.00     0.167 HD
ATOM     37  C   UNL A   1      42.914  31.955  29.672  1.00  0.00     0.074 A 
ATOM     38  C   UNL A   1      42.031  32.866  30.370  1.00  0.00     0.031 C 
ATOM     39  C   UNL A   1      44.185  32.259  29.301  1.00  0.00     0.034 A 
BRANCH  26  40
ATOM     40  C   UNL A   1      47.063  27.731  26.177  1.00  0.00     0.023 A 
ATOM     41  C   UNL A   1      47.272  27.974  24.808  1.00  0.00     0.031 A 
ATOM     42  C   UNL A   1      48.053  27.017  26.876  1.00  0.00     0.131 A 
ATOM     43  C   UNL A   1      48.412  27.460  24.169  1.00  0.00     0.055 A 
ATOM     44  C   UNL A   1      49.218  26.568  26.250  1.00  0.00     0.041 A 
ATOM     45  F   UNL A   1      47.901  26.739  28.180  1.00  0.00    -0.206 F 
ATOM     46  C   UNL A   1      49.397  26.779  24.886  1.00  0.00     0.022 A 
BRANCH  43  47
ATOM     47  S   UNL A   1      48.530  27.595  22.363  1.00  0.00     0.124 S 
ATOM     48  O   UNL A   1      47.281  28.276  22.033  1.00  0.00    -0.237 OA
ATOM     49  O   UNL A   1      49.749  28.375  22.183  1.00  0.00    -0.237 OA
ATOM     50  O   UNL A   1      48.610  26.204  21.920  1.00  0.00    -0.744 OA
ENDBRANCH  43  47
ENDBRANCH  26  40
BRANCH  27  51
ATOM     51  C   UNL A   1      38.636  30.409  30.911  1.00  0.00     0.023 A 
ATOM     52  C   UNL A   1      37.598  31.112  30.282  1.00  0.00     0.031 A 
ATOM     53  C   UNL A   1      38.491  30.095  32.276  1.00  0.00     0.131 A 
ATOM     54  C   UNL A   1      36.477  31.513  31.026  1.00  0.00     0.055 A 
ATOM     55  C   UNL A   1      37.351  30.448  32.997  1.00  0.00     0.041 A 
ATOM     56  F   UNL A   1      39.454  29.418  32.923  1.00  0.00    -0.206 F 
ATOM     57  C   UNL A   1      36.340  31.175  32.375  1.00  0.00     0.022 A 
BRANCH  54  58
ATOM     58  S   UNL A   1      35.234  32.564  30.225  1.00  0.00     0.124 S 
ATOM     59  O   UNL A   1      34.837  31.742  29.088  1.00  0.00    -0.237 OA
ATOM     60  O   UNL A   1      34.242  32.715  31.284  1.00  0.00    -0.237 OA
ATOM     61  O   UNL A   1      35.977  33.776  29.891  1.00  0.00    -0.744 OA
ENDBRANCH  54  58
ENDBRANCH  27  51
BRANCH  39  62
ATOM     62  C   UNL A   1      44.668  33.644  29.645  1.00  0.00     0.023 A 
ATOM     63  C   UNL A   1      44.463  34.729  28.772  1.00  0.00     0.031 A 
ATOM     64  C   UNL A   1      45.389  33.874  30.829  1.00  0.00     0.131 A 
ATOM     65  C   UNL A   1      45.033  35.977  29.062  1.00  0.00     0.055 A 
ATOM     66  C   UNL A   1      45.904  35.134  31.142  1.00  0.00     0.041 A 
ATOM     67  F   UNL A   1      45.616  32.874  31.695  1.00  0.00    -0.206 F 
ATOM     68  C   UNL A   1      45.741  36.189  30.248  1.00  0.00     0.022 A 
BRANCH  65  69
ATOM     69  S   UNL A   1      44.934  37.289  27.814  1.00  0.00     0.124 S 
ATOM     70  O   UNL A   1      46.257  37.225  27.202  1.00  0.00    -0.237 OA
ATOM     71  O   UNL A   1      43.823  36.841  26.980  1.00  0.00    -0.237 OA
ATOM     72  O   UNL A   1      44.672  38.492  28.601  1.00  0.00    -0.744 OA
ENDBRANCH  65  69
ENDBRANCH  39  62
ENDBRANCH  13  14
ENDBRANCH   6   8
ENDBRANCH   3   4
ENDBRANCH   2   3
ENDBRANCH   1   2
BRANCH   1  73
ATOM     73  C   UNL A   1      34.760  24.503  23.935  1.00  0.00     0.002 C 
BRANCH  73  74
ATOM     74  C   UNL A   1      33.799  25.126  22.916  1.00  0.00     0.021 C 
BRANCH  74  75
ATOM     75  C   UNL A   1      33.075  26.391  23.372  1.00  0.00     0.116 C 
BRANCH  75  76
ATOM     76  N   UNL A   1      31.633  26.278  23.249  1.00  0.00    -0.352 N 
ATOM     77  C   UNL A   1      30.779  25.465  23.948  1.00  0.00     0.255 C 
ATOM     78  H   UNL A   1      31.214  26.862  22.577  1.00  0.00     0.163 HD
ATOM     79  O   UNL A   1      29.579  25.451  23.681  1.00  0.00    -0.269 OA
BRANCH  77  80
ATOM     80  C   UNL A   1      31.306  24.526  24.959  1.00  0.00     0.082 A 
ATOM     81  C   UNL A   1      31.395  23.178  24.580  1.00  0.00     0.025 A 
ATOM     82  C   UNL A   1      31.678  24.921  26.246  1.00  0.00     0.128 A 
ATOM     83  C   UNL A   1      31.890  22.215  25.467  1.00  0.00    -0.025 A 
ATOM     84  C   UNL A   1      32.183  23.978  27.136  1.00  0.00     0.047 A 
ATOM     85  C   UNL A   1      32.292  22.638  26.745  1.00  0.00     0.012 A 
BRANCH  82  86
ATOM     86  O   UNL A   1      31.549  26.222  26.636  1.00  0.00    -0.507 OA
ATOM     87  H   UNL A   1      30.824  26.734  26.332  1.00  0.00     0.293 HD
ENDBRANCH  82  86
BRANCH  83  88
ATOM     88  C   UNL A   1      32.003  20.782  25.131  1.00  0.00     0.009 C 
ATOM     89  C   UNL A   1      32.994  19.960  25.514  1.00  0.00     0.009 C 
BRANCH  89  90
ATOM     90  C   UNL A   1      33.067  18.545  25.123  1.00  0.00    -0.018 A 
ATOM     91  C   UNL A   1      33.688  18.145  23.932  1.00  0.00     0.054 A 
ATOM     92  C   UNL A   1      32.568  17.571  26.000  1.00  0.00     0.054 A 
ATOM     93  C   UNL A   1      33.788  16.788  23.624  1.00  0.00     0.119 A 
ATOM     94  C   UNL A   1      32.677  16.220  25.670  1.00  0.00     0.119 A 
ATOM     95  C   UNL A   1      33.285  15.822  24.487  1.00  0.00     0.092 A 
BRANCH  93  96
ATOM     96  O   UNL A   1      34.391  16.367  22.475  1.00  0.00    -0.508 OA
ATOM     97  H   UNL A   1      35.004  15.659  22.500  1.00  0.00     0.293 HD
ENDBRANCH  93  96
BRANCH  94  98
ATOM     98  O   UNL A   1      32.197  15.249  26.499  1.00  0.00    -0.508 OA
ATOM     99  H   UNL A   1      32.649  15.047  27.295  1.00  0.00     0.293 HD
ENDBRANCH  94  98
ENDBRANCH  89  90
ENDBRANCH  83  88
ENDBRANCH  77  80
ENDBRANCH  75  76
ENDBRANCH  74  75
ENDBRANCH  73  74
ENDBRANCH   1  73
TORSDOF 21
ENDMDL
MODEL 3
REMARK VINA RESULT:     -12.0      2.108      2.826
REMARK SMILES O=C(NCCCCCCNC(=O)c1cc(/C=C/c2cc(O)cc(O)c2)ccc1O)c1ccc(-c2c3nc(c(-c4cc(S(=O)(=O)[O-])ccc4F)c4ccc([nH]4)c(-c4cc(S(=O)(=O)[O-])ccc4F)c4nc(c(-c5cc(S(=O)(=O)[O-])ccc5F)c5ccc2[nH]5)C=C4)C=C3)cc1
REMARK SMILES IDX 6 1 5 2 4 3 3 4 1 5 2 6 30 8 31 9 92 10 32 11 91 12 33 13
REMARK SMILES IDX 34 14 35 15 85 16 36 17 90 18 84 19 86 20 37 21 89 22 83 23
REMARK SMILES IDX 82 24 38 26 70 27 50 28 69 29 51 30 54 31 68 32 87 33 52 34
REMARK SMILES IDX 53 35 67 37 88 38 55 39 39 40 40 41 48 42 41 43 47 44 49 45
REMARK SMILES IDX 46 46 42 47 43 48 44 49 45 50 71 51 72 52 80 53 73 54 79 55
REMARK SMILES IDX 81 56 78 57 74 58 75 59 76 60 77 61 56 62 57 63 65 64 58 65
REMARK SMILES IDX 64 66 66 67 63 68 59 69 60 70 61 71 62 72 7 73 8 74 9 75
REMARK SMILES IDX 10 76 11 77 12 79 13 80 14 81 28 82 15 83 27 84 26 85 29 86
REMARK SMILES IDX 16 88 17 89 18 90 19 91 25 92 20 93 23 94 22 95 21 96 24 98
REMARK H PARENT 3 7 86 25 54 36 10 78 29 87 21 97 24 99
REMARK Flexibility Score: inf
ROOT
ATOM      1  C   UNL A   1      31.881  27.858  26.988  1.00  0.00     0.002 C 
ENDROOT
BRANCH   1   2
ATOM      2  C   UNL A   1      31.630  28.946  25.945  1.00  0.00     0.021 C 
BRANCH   2   3
ATOM      3  C   UNL A   1      32.728  29.992  25.809  1.00  0.00     0.116 C 
BRANCH   3   4
ATOM      4  N   UNL A   1      32.313  31.321  26.228  1.00  0.00    -0.352 N 
ATOM      5  O   UNL A   1      32.358  33.207  27.468  1.00  0.00    -0.269 OA
ATOM      6  C   UNL A   1      32.906  32.157  27.145  1.00  0.00     0.251 C 
ATOM      7  H   UNL A   1      31.498  31.669  25.797  1.00  0.00     0.163 HD
BRANCH   6   8
ATOM      8  C   UNL A   1      34.196  31.770  27.763  1.00  0.00     0.039 A 
ATOM      9  C   UNL A   1      34.390  30.476  28.251  1.00  0.00     0.014 A 
ATOM     10  C   UNL A   1      35.219  32.717  27.869  1.00  0.00     0.014 A 
ATOM     11  C   UNL A   1      35.540  30.174  28.971  1.00  0.00     0.010 A 
ATOM     12  C   UNL A   1      36.415  32.384  28.516  1.00  0.00     0.010 A 
ATOM     13  C   UNL A   1      36.573  31.118  29.100  1.00  0.00    -0.014 A 
BRANCH  13  14
ATOM     14  C   UNL A   1      37.823  30.717  29.801  1.00  0.00     0.031 A 
ATOM     15  C   UNL A   1      38.111  31.162  31.209  1.00  0.00     0.074 A 
ATOM     16  C   UNL A   1      38.670  29.883  29.167  1.00  0.00     0.049 A 
ATOM     17  N   UNL A   1      39.117  30.843  31.983  1.00  0.00    -0.248 NA
ATOM     18  C   UNL A   1      37.153  32.091  31.827  1.00  0.00     0.031 C 
ATOM     19  C   UNL A   1      38.501  29.405  27.791  1.00  0.00     0.029 A 
ATOM     20  N   UNL A   1      39.818  29.266  29.591  1.00  0.00    -0.354 N 
ATOM     21  C   UNL A   1      38.921  31.531  33.176  1.00  0.00     0.074 A 
ATOM     22  C   UNL A   1      37.716  32.318  33.006  1.00  0.00     0.031 C 
ATOM     23  C   UNL A   1      39.473  28.527  27.507  1.00  0.00     0.029 A 
ATOM     24  C   UNL A   1      40.370  28.427  28.652  1.00  0.00     0.049 A 
ATOM     25  H   UNL A   1      40.210  29.409  30.483  1.00  0.00     0.167 HD
ATOM     26  C   UNL A   1      39.669  31.500  34.307  1.00  0.00     0.034 A 
ATOM     27  C   UNL A   1      41.481  27.666  28.698  1.00  0.00     0.034 A 
ATOM     28  C   UNL A   1      40.874  30.717  34.457  1.00  0.00     0.049 A 
ATOM     29  C   UNL A   1      42.294  27.656  29.963  1.00  0.00     0.074 A 
ATOM     30  C   UNL A   1      41.711  30.617  35.556  1.00  0.00     0.029 A 
ATOM     31  N   UNL A   1      41.419  29.896  33.475  1.00  0.00    -0.354 N 
ATOM     32  N   UNL A   1      42.085  28.311  31.082  1.00  0.00    -0.248 NA
ATOM     33  C   UNL A   1      43.483  26.799  29.974  1.00  0.00     0.031 C 
ATOM     34  C   UNL A   1      42.784  29.781  35.222  1.00  0.00     0.029 A 
ATOM     35  C   UNL A   1      42.585  29.304  33.937  1.00  0.00     0.049 A 
ATOM     36  H   UNL A   1      41.032  29.757  32.580  1.00  0.00     0.167 HD
ATOM     37  C   UNL A   1      43.121  27.940  31.932  1.00  0.00     0.074 A 
ATOM     38  C   UNL A   1      43.925  26.973  31.211  1.00  0.00     0.031 C 
ATOM     39  C   UNL A   1      43.391  28.365  33.193  1.00  0.00     0.034 A 
BRANCH  26  40
ATOM     40  C   UNL A   1      39.221  32.366  35.461  1.00  0.00     0.023 A 
ATOM     41  C   UNL A   1      39.671  33.690  35.608  1.00  0.00     0.031 A 
ATOM     42  C   UNL A   1      38.337  31.861  36.433  1.00  0.00     0.131 A 
ATOM     43  C   UNL A   1      39.285  34.443  36.728  1.00  0.00     0.055 A 
ATOM     44  C   UNL A   1      37.902  32.639  37.508  1.00  0.00     0.041 A 
ATOM     45  F   UNL A   1      37.887  30.599  36.356  1.00  0.00    -0.206 F 
ATOM     46  C   UNL A   1      38.386  33.934  37.667  1.00  0.00     0.022 A 
BRANCH  43  47
ATOM     47  S   UNL A   1      40.069  36.057  37.002  1.00  0.00     0.124 S 
ATOM     48  O   UNL A   1      39.308  36.568  38.139  1.00  0.00    -0.237 OA
ATOM     49  O   UNL A   1      41.455  35.694  37.275  1.00  0.00    -0.237 OA
ATOM     50  O   UNL A   1      39.847  36.764  35.742  1.00  0.00    -0.744 OA
ENDBRANCH  43  47
ENDBRANCH  26  40
BRANCH  27  51
ATOM     51  C   UNL A   1      41.902  26.883  27.502  1.00  0.00     0.023 A 
ATOM     52  C   UNL A   1      41.697  25.498  27.427  1.00  0.00     0.031 A 
ATOM     53  C   UNL A   1      42.545  27.517  26.421  1.00  0.00     0.131 A 
ATOM     54  C   UNL A   1      42.165  24.783  26.313  1.00  0.00     0.055 A 
ATOM     55  C   UNL A   1      42.959  26.811  25.293  1.00  0.00     0.041 A 
ATOM     56  F   UNL A   1      42.760  28.843  26.442  1.00  0.00    -0.206 F 
ATOM     57  C   UNL A   1      42.782  25.432  25.240  1.00  0.00     0.022 A 
BRANCH  54  58
ATOM     58  S   UNL A   1      42.033  22.974  26.324  1.00  0.00     0.124 S 
ATOM     59  O   UNL A   1      42.864  22.621  27.469  1.00  0.00    -0.237 OA
ATOM     60  O   UNL A   1      40.596  22.779  26.489  1.00  0.00    -0.237 OA
ATOM     61  O   UNL A   1      42.568  22.587  25.021  1.00  0.00    -0.744 OA
ENDBRANCH  54  58
ENDBRANCH  27  51
BRANCH  39  62
ATOM     62  C   UNL A   1      44.603  27.764  33.857  1.00  0.00     0.023 A 
ATOM     63  C   UNL A   1      44.508  26.598  34.639  1.00  0.00     0.031 A 
ATOM     64  C   UNL A   1      45.857  28.391  33.754  1.00  0.00     0.131 A 
ATOM     65  C   UNL A   1      45.628  26.136  35.344  1.00  0.00     0.055 A 
ATOM     66  C   UNL A   1      46.983  27.892  34.410  1.00  0.00     0.041 A 
ATOM     67  F   UNL A   1      46.004  29.508  33.023  1.00  0.00    -0.206 F 
ATOM     68  C   UNL A   1      46.869  26.768  35.224  1.00  0.00     0.022 A 
BRANCH  65  69
ATOM     69  S   UNL A   1      45.415  24.763  36.510  1.00  0.00     0.124 S 
ATOM     70  O   UNL A   1      46.788  24.509  36.933  1.00  0.00    -0.237 OA
ATOM     71  O   UNL A   1      44.535  25.345  37.518  1.00  0.00    -0.237 OA
ATOM     72  O   UNL A   1      44.813  23.711  35.694  1.00  0.00    -0.744 OA
ENDBRANCH  65  69
ENDBRANCH  39  62
ENDBRANCH  13  14
ENDBRANCH   6   8
ENDBRANCH   3   4
ENDBRANCH   2   3
ENDBRANCH   1   2
BRANCH   1  73
ATOM     73  C   UNL A   1      32.695  26.649  26.516  1.00  0.00     0.002 C 
BRANCH  73  74
ATOM     74  C   UNL A   1      32.005  25.284  26.621  1.00  0.00     0.021 C 
BRANCH  74  75
ATOM     75  C   UNL A   1      30.554  25.233  26.147  1.00  0.00     0.116 C 
BRANCH  75  76
ATOM     76  N   UNL A   1      30.348  24.246  25.104  1.00  0.00    -0.352 N 
ATOM     77  C   UNL A   1      30.837  24.242  23.823  1.00  0.00     0.255 C 
ATOM     78  H   UNL A   1      29.783  23.477  25.349  1.00  0.00     0.163 HD
ATOM     79  O   UNL A   1      30.518  23.350  23.041  1.00  0.00    -0.269 OA
BRANCH  77  80
ATOM     80  C   UNL A   1      31.669  25.364  23.342  1.00  0.00     0.082 A 
ATOM     81  C   UNL A   1      31.000  26.557  23.034  1.00  0.00     0.025 A 
ATOM     82  C   UNL A   1      33.051  25.265  23.161  1.00  0.00     0.128 A 
ATOM     83  C   UNL A   1      31.704  27.678  22.580  1.00  0.00    -0.025 A 
ATOM     84  C   UNL A   1      33.768  26.373  22.720  1.00  0.00     0.047 A 
ATOM     85  C   UNL A   1      33.098  27.570  22.439  1.00  0.00     0.012 A 
BRANCH  82  86
ATOM     86  O   UNL A   1      33.701  24.091  23.413  1.00  0.00    -0.507 OA
ATOM     87  H   UNL A   1      33.329  23.279  23.130  1.00  0.00     0.293 HD
ENDBRANCH  82  86
BRANCH  83  88
ATOM     88  C   UNL A   1      31.059  28.959  22.234  1.00  0.00     0.009 C 
ATOM     89  C   UNL A   1      29.747  29.233  22.341  1.00  0.00     0.009 C 
BRANCH  89  90
ATOM     90  C   UNL A   1      29.157  30.522  21.953  1.00  0.00    -0.018 A 
ATOM     91  C   UNL A   1      28.390  30.656  20.787  1.00  0.00     0.054 A 
ATOM     92  C   UNL A   1      29.304  31.623  22.809  1.00  0.00     0.054 A 
ATOM     93  C   UNL A   1      27.799  31.881  20.483  1.00  0.00     0.119 A 
ATOM     94  C   UNL A   1      28.705  32.839  22.484  1.00  0.00     0.119 A 
ATOM     95  C   UNL A   1      27.952  32.976  21.325  1.00  0.00     0.092 A 
BRANCH  93  96
ATOM     96  O   UNL A   1      27.043  32.042  19.358  1.00  0.00    -0.508 OA
ATOM     97  H   UNL A   1      27.156  31.462  18.631  1.00  0.00     0.293 HD
ENDBRANCH  93  96
BRANCH  94  98
ATOM     98  O   UNL A   1      28.835  33.930  23.293  1.00  0.00    -0.508 OA
ATOM     99  H   UNL A   1      28.636  33.861  24.206  1.00  0.00     0.293 HD
ENDBRANCH  94  98
ENDBRANCH  89  90
ENDBRANCH  83  88
ENDBRANCH  77  80
ENDBRANCH  75  76
ENDBRANCH  74  75
ENDBRANCH  73  74
ENDBRANCH   1  73
TORSDOF 21
ENDMDL
