MODEL 1
REMARK VINA RESULT:      -9.8      0.000      0.000
REMARK SMILES CC(=O)/C=C(/C)NCC(=O)NCCCCCCNC(=O)c1ccc(-c2c3nc(c(-c4cc(S(=O)(=O)[O-])ccc4F)c4ccc([nH]4)c(-c4cc(S(=O)(=O)[O-])ccc4F)c4nc(c(-c5cc(S(=O)(=O)[O-])ccc5F)c5ccc2[nH]5)C=C4)C=C3)cc1
REMARK SMILES IDX 14 1 13 2 12 3 11 4 9 5 10 6 8 8 7 9 5 11 4 12 6 13 2 14
REMARK SMILES IDX 1 15 3 16 15 17 16 18 17 19 18 20 19 21 20 23 21 24 22 25
REMARK SMILES IDX 83 26 23 27 82 28 24 29 25 30 26 31 76 32 27 33 81 34 75 35
REMARK SMILES IDX 77 36 28 37 80 38 74 39 73 40 29 42 61 43 41 44 60 45 42 46
REMARK SMILES IDX 45 47 59 48 78 49 43 50 44 51 58 53 79 54 46 55 30 56 31 57
REMARK SMILES IDX 39 58 32 59 38 60 40 61 37 62 33 63 34 64 35 65 36 66 62 67
REMARK SMILES IDX 63 68 71 69 64 70 70 71 72 72 69 73 65 74 66 75 67 76 68 77
REMARK SMILES IDX 47 78 48 79 56 80 49 81 55 82 57 83 54 84 50 85 51 86 52 87
REMARK SMILES IDX 53 88
REMARK H PARENT 11 7 7 10 18 22 77 41 45 52
REMARK Flexibility Score: inf
ROOT
ATOM      1  C   UNL A   1      32.953  30.108  26.531  1.00  0.00     0.002 C 
ENDROOT
BRANCH   1   2
ATOM      2  C   UNL A   1      32.992  28.632  26.944  1.00  0.00     0.021 C 
BRANCH   2   3
ATOM      3  C   UNL A   1      33.884  27.789  26.036  1.00  0.00     0.116 C 
BRANCH   3   4
ATOM      4  N   UNL A   1      34.119  28.450  24.769  1.00  0.00    -0.355 N 
ATOM      5  C   UNL A   1      33.839  28.060  23.495  1.00  0.00     0.239 C 
ATOM      6  O   UNL A   1      34.227  28.810  22.590  1.00  0.00    -0.273 OA
ATOM      7  H   UNL A   1      34.556  29.330  24.841  1.00  0.00     0.163 HD
BRANCH   5   8
ATOM      8  C   UNL A   1      33.005  26.817  23.149  1.00  0.00     0.213 C 
BRANCH   8   9
ATOM      9  N   UNL A   1      31.605  27.051  22.852  1.00  0.00    -0.380 N 
ATOM     10  H   UNL A   1      31.407  27.053  21.888  1.00  0.00     0.160 HD
BRANCH   9  11
ATOM     11  C   UNL A   1      30.489  27.273  23.641  1.00  0.00     0.011 C 
ATOM     12  C   UNL A   1      29.404  28.067  23.517  1.00  0.00     0.067 C 
ATOM     13  C   UNL A   1      30.588  26.520  24.971  1.00  0.00     0.064 C 
BRANCH  12  14
ATOM     14  C   UNL A   1      28.838  29.084  22.578  1.00  0.00     0.154 C 
ATOM     15  C   UNL A   1      29.662  30.143  21.919  1.00  0.00     0.093 C 
ATOM     16  O   UNL A   1      27.629  29.018  22.338  1.00  0.00    -0.295 OA
ENDBRANCH  12  14
ENDBRANCH   9  11
ENDBRANCH   8   9
ENDBRANCH   5   8
ENDBRANCH   3   4
ENDBRANCH   2   3
ENDBRANCH   1   2
BRANCH   1  17
ATOM     17  C   UNL A   1      31.546  30.713  26.456  1.00  0.00     0.002 C 
BRANCH  17  18
ATOM     18  C   UNL A   1      31.471  32.209  26.774  1.00  0.00     0.021 C 
BRANCH  18  19
ATOM     19  C   UNL A   1      32.810  32.841  27.138  1.00  0.00     0.116 C 
BRANCH  19  20
ATOM     20  N   UNL A   1      32.640  34.150  27.748  1.00  0.00    -0.352 N 
ATOM     21  C   UNL A   1      33.233  34.671  28.873  1.00  0.00     0.251 C 
ATOM     22  H   UNL A   1      32.009  34.750  27.290  1.00  0.00     0.163 HD
ATOM     23  O   UNL A   1      32.797  35.701  29.369  1.00  0.00    -0.269 OA
BRANCH  21  24
ATOM     24  C   UNL A   1      34.383  33.971  29.484  1.00  0.00     0.039 A 
ATOM     25  C   UNL A   1      35.677  34.338  29.109  1.00  0.00     0.014 A 
ATOM     26  C   UNL A   1      34.185  32.953  30.423  1.00  0.00     0.014 A 
ATOM     27  C   UNL A   1      36.772  33.724  29.719  1.00  0.00     0.010 A 
ATOM     28  C   UNL A   1      35.276  32.398  31.083  1.00  0.00     0.010 A 
ATOM     29  C   UNL A   1      36.582  32.775  30.737  1.00  0.00    -0.014 A 
BRANCH  29  30
ATOM     30  C   UNL A   1      37.738  32.163  31.444  1.00  0.00     0.031 A 
ATOM     31  C   UNL A   1      38.523  31.056  30.793  1.00  0.00     0.074 A 
ATOM     32  C   UNL A   1      38.047  32.572  32.692  1.00  0.00     0.049 A 
ATOM     33  N   UNL A   1      39.516  30.353  31.274  1.00  0.00    -0.248 NA
ATOM     34  C   UNL A   1      38.119  30.673  29.432  1.00  0.00     0.031 C 
ATOM     35  C   UNL A   1      37.339  33.614  33.439  1.00  0.00     0.029 A 
ATOM     36  N   UNL A   1      39.031  32.158  33.556  1.00  0.00    -0.354 N 
ATOM     37  C   UNL A   1      39.851  29.440  30.279  1.00  0.00     0.074 A 
ATOM     38  C   UNL A   1      38.911  29.638  29.196  1.00  0.00     0.031 C 
ATOM     39  C   UNL A   1      37.929  33.778  34.633  1.00  0.00     0.029 A 
ATOM     40  C   UNL A   1      39.021  32.818  34.763  1.00  0.00     0.049 A 
ATOM     41  H   UNL A   1      39.682  31.455  33.332  1.00  0.00     0.167 HD
ATOM     42  C   UNL A   1      40.865  28.540  30.260  1.00  0.00     0.034 A 
ATOM     43  C   UNL A   1      39.794  32.658  35.857  1.00  0.00     0.034 A 
ATOM     44  C   UNL A   1      41.797  28.361  31.347  1.00  0.00     0.049 A 
ATOM     45  C   UNL A   1      40.883  31.615  35.829  1.00  0.00     0.074 A 
ATOM     46  C   UNL A   1      42.887  27.510  31.415  1.00  0.00     0.029 A 
ATOM     47  N   UNL A   1      41.747  29.036  32.561  1.00  0.00    -0.354 N 
ATOM     48  N   UNL A   1      41.217  30.793  34.860  1.00  0.00    -0.248 NA
ATOM     49  C   UNL A   1      41.707  31.486  37.038  1.00  0.00     0.031 C 
ATOM     50  C   UNL A   1      43.445  27.612  32.693  1.00  0.00     0.029 A 
ATOM     51  C   UNL A   1      42.763  28.593  33.395  1.00  0.00     0.049 A 
ATOM     52  H   UNL A   1      41.086  29.727  32.794  1.00  0.00     0.167 HD
ATOM     53  C   UNL A   1      42.312  30.075  35.334  1.00  0.00     0.074 A 
ATOM     54  C   UNL A   1      42.592  30.574  36.665  1.00  0.00     0.031 C 
ATOM     55  C   UNL A   1      43.025  29.093  34.724  1.00  0.00     0.034 A 
BRANCH  42  56
ATOM     56  C   UNL A   1      40.999  27.665  29.037  1.00  0.00     0.023 A 
ATOM     57  C   UNL A   1      41.986  27.902  28.063  1.00  0.00     0.031 A 
ATOM     58  C   UNL A   1      40.122  26.585  28.832  1.00  0.00     0.131 A 
ATOM     59  C   UNL A   1      42.026  27.118  26.899  1.00  0.00     0.055 A 
ATOM     60  C   UNL A   1      40.223  25.755  27.714  1.00  0.00     0.041 A 
ATOM     61  F   UNL A   1      39.145  26.321  29.714  1.00  0.00    -0.206 F 
ATOM     62  C   UNL A   1      41.169  26.028  26.731  1.00  0.00     0.022 A 
BRANCH  59  63
ATOM     63  S   UNL A   1      43.117  27.634  25.545  1.00  0.00     0.124 S 
ATOM     64  O   UNL A   1      43.627  26.348  25.073  1.00  0.00    -0.237 OA
ATOM     65  O   UNL A   1      42.201  28.327  24.647  1.00  0.00    -0.237 OA
ATOM     66  O   UNL A   1      44.106  28.482  26.207  1.00  0.00    -0.744 OA
ENDBRANCH  59  63
ENDBRANCH  42  56
BRANCH  43  67
ATOM     67  C   UNL A   1      39.564  33.485  37.078  1.00  0.00     0.023 A 
ATOM     68  C   UNL A   1      40.311  34.649  37.316  1.00  0.00     0.031 A 
ATOM     69  C   UNL A   1      38.637  33.088  38.059  1.00  0.00     0.131 A 
ATOM     70  C   UNL A   1      40.163  35.342  38.528  1.00  0.00     0.055 A 
ATOM     71  C   UNL A   1      38.446  33.817  39.234  1.00  0.00     0.041 A 
ATOM     72  F   UNL A   1      37.894  31.982  37.886  1.00  0.00    -0.206 F 
ATOM     73  C   UNL A   1      39.224  34.943  39.481  1.00  0.00     0.022 A 
BRANCH  70  74
ATOM     74  S   UNL A   1      41.299  36.710  38.888  1.00  0.00     0.124 S 
ATOM     75  O   UNL A   1      40.371  37.798  39.169  1.00  0.00    -0.237 OA
ATOM     76  O   UNL A   1      42.045  36.191  40.030  1.00  0.00    -0.237 OA
ATOM     77  O   UNL A   1      42.069  36.846  37.654  1.00  0.00    -0.744 OA
ENDBRANCH  70  74
ENDBRANCH  43  67
BRANCH  55  78
ATOM     78  C   UNL A   1      44.209  28.532  35.478  1.00  0.00     0.023 A 
ATOM     79  C   UNL A   1      44.067  27.497  36.418  1.00  0.00     0.031 A 
ATOM     80  C   UNL A   1      45.497  29.051  35.255  1.00  0.00     0.131 A 
ATOM     81  C   UNL A   1      45.183  27.056  37.147  1.00  0.00     0.055 A 
ATOM     82  C   UNL A   1      46.615  28.560  35.932  1.00  0.00     0.041 A 
ATOM     83  F   UNL A   1      45.692  30.043  34.372  1.00  0.00    -0.206 F 
ATOM     84  C   UNL A   1      46.458  27.567  36.894  1.00  0.00     0.022 A 
BRANCH  81  85
ATOM     85  S   UNL A   1      44.928  25.878  38.501  1.00  0.00     0.124 S 
ATOM     86  O   UNL A   1      44.056  26.631  39.398  1.00  0.00    -0.237 OA
ATOM     87  O   UNL A   1      44.314  24.744  37.818  1.00  0.00    -0.237 OA
ATOM     88  O   UNL A   1      46.279  25.638  39.005  1.00  0.00    -0.744 OA
ENDBRANCH  81  85
ENDBRANCH  55  78
ENDBRANCH  29  30
ENDBRANCH  21  24
ENDBRANCH  19  20
ENDBRANCH  18  19
ENDBRANCH  17  18
ENDBRANCH   1  17
TORSDOF 19
ENDMDL
MODEL 2
REMARK VINA RESULT:      -9.8      1.941      8.100
REMARK SMILES CC(=O)/C=C(/C)NCC(=O)NCCCCCCNC(=O)c1ccc(-c2c3nc(c(-c4cc(S(=O)(=O)[O-])ccc4F)c4ccc([nH]4)c(-c4cc(S(=O)(=O)[O-])ccc4F)c4nc(c(-c5cc(S(=O)(=O)[O-])ccc5F)c5ccc2[nH]5)C=C4)C=C3)cc1
REMARK SMILES IDX 14 1 13 2 12 3 11 4 9 5 10 6 8 8 7 9 5 11 4 12 6 13 2 14
REMARK SMILES IDX 1 15 3 16 15 17 16 18 17 19 18 20 19 21 20 23 21 24 22 25
REMARK SMILES IDX 83 26 23 27 82 28 24 29 25 30 26 31 76 32 27 33 81 34 75 35
REMARK SMILES IDX 77 36 28 37 80 38 74 39 73 40 29 42 61 43 41 44 60 45 42 46
REMARK SMILES IDX 45 47 59 48 78 49 43 50 44 51 58 53 79 54 46 55 30 56 31 57
REMARK SMILES IDX 39 58 32 59 38 60 40 61 37 62 33 63 34 64 35 65 36 66 62 67
REMARK SMILES IDX 63 68 71 69 64 70 70 71 72 72 69 73 65 74 66 75 67 76 68 77
REMARK SMILES IDX 47 78 48 79 56 80 49 81 55 82 57 83 54 84 50 85 51 86 52 87
REMARK SMILES IDX 53 88
REMARK H PARENT 11 7 7 10 18 22 77 41 45 52
REMARK Flexibility Score: inf
ROOT
ATOM      1  C   UNL A   1      35.278  31.193  28.546  1.00  0.00     0.002 C 
ENDROOT
BRANCH   1   2
ATOM      2  C   UNL A   1      35.562  30.013  27.609  1.00  0.00     0.021 C 
BRANCH   2   3
ATOM      3  C   UNL A   1      34.336  29.132  27.382  1.00  0.00     0.116 C 
BRANCH   3   4
ATOM      4  N   UNL A   1      33.116  29.912  27.407  1.00  0.00    -0.355 N 
ATOM      5  C   UNL A   1      32.224  30.205  26.422  1.00  0.00     0.239 C 
ATOM      6  O   UNL A   1      31.297  30.967  26.724  1.00  0.00    -0.273 OA
ATOM      7  H   UNL A   1      32.893  30.295  28.287  1.00  0.00     0.163 HD
BRANCH   5   8
ATOM      8  C   UNL A   1      32.266  29.575  25.020  1.00  0.00     0.213 C 
BRANCH   8   9
ATOM      9  N   UNL A   1      31.070  29.733  24.215  1.00  0.00    -0.380 N 
ATOM     10  H   UNL A   1      30.767  30.667  24.149  1.00  0.00     0.160 HD
BRANCH   9  11
ATOM     11  C   UNL A   1      30.267  28.846  23.520  1.00  0.00     0.011 C 
ATOM     12  C   UNL A   1      29.171  28.993  22.744  1.00  0.00     0.067 C 
ATOM     13  C   UNL A   1      30.673  27.395  23.793  1.00  0.00     0.064 C 
BRANCH  12  14
ATOM     14  C   UNL A   1      28.262  30.072  22.251  1.00  0.00     0.154 C 
ATOM     15  C   UNL A   1      27.653  31.106  23.144  1.00  0.00     0.093 C 
ATOM     16  O   UNL A   1      28.026  30.101  21.040  1.00  0.00    -0.295 OA
ENDBRANCH  12  14
ENDBRANCH   9  11
ENDBRANCH   8   9
ENDBRANCH   5   8
ENDBRANCH   3   4
ENDBRANCH   2   3
ENDBRANCH   1   2
BRANCH   1  17
ATOM     17  C   UNL A   1      35.228  32.560  27.852  1.00  0.00     0.002 C 
BRANCH  17  18
ATOM     18  C   UNL A   1      33.909  33.320  28.022  1.00  0.00     0.021 C 
BRANCH  18  19
ATOM     19  C   UNL A   1      34.072  34.824  28.218  1.00  0.00     0.116 C 
BRANCH  19  20
ATOM     20  N   UNL A   1      33.431  35.281  29.440  1.00  0.00    -0.352 N 
ATOM     21  C   UNL A   1      33.647  34.885  30.737  1.00  0.00     0.251 C 
ATOM     22  H   UNL A   1      32.742  35.973  29.321  1.00  0.00     0.163 HD
ATOM     23  O   UNL A   1      32.853  35.209  31.612  1.00  0.00    -0.269 OA
BRANCH  21  24
ATOM     24  C   UNL A   1      34.827  34.056  31.063  1.00  0.00     0.039 A 
ATOM     25  C   UNL A   1      36.100  34.537  30.748  1.00  0.00     0.014 A 
ATOM     26  C   UNL A   1      34.679  32.807  31.674  1.00  0.00     0.014 A 
ATOM     27  C   UNL A   1      37.225  33.790  31.100  1.00  0.00     0.010 A 
ATOM     28  C   UNL A   1      35.803  32.102  32.091  1.00  0.00     0.010 A 
ATOM     29  C   UNL A   1      37.089  32.584  31.806  1.00  0.00    -0.014 A 
BRANCH  29  30
ATOM     30  C   UNL A   1      38.280  31.812  32.248  1.00  0.00     0.031 A 
ATOM     31  C   UNL A   1      38.951  32.141  33.554  1.00  0.00     0.074 A 
ATOM     32  C   UNL A   1      38.785  30.850  31.449  1.00  0.00     0.049 A 
ATOM     33  N   UNL A   1      40.035  31.630  34.079  1.00  0.00    -0.248 NA
ATOM     34  C   UNL A   1      38.335  33.203  34.364  1.00  0.00     0.031 C 
ATOM     35  C   UNL A   1      38.240  30.463  30.146  1.00  0.00     0.029 A 
ATOM     36  N   UNL A   1      39.871  30.025  31.610  1.00  0.00    -0.354 N 
ATOM     37  C   UNL A   1      40.236  32.312  35.275  1.00  0.00     0.074 A 
ATOM     38  C   UNL A   1      39.197  33.316  35.363  1.00  0.00     0.031 C 
ATOM     39  C   UNL A   1      38.974  29.460  29.641  1.00  0.00     0.029 A 
ATOM     40  C   UNL A   1      40.075  29.166  30.555  1.00  0.00     0.049 A 
ATOM     41  H   UNL A   1      40.449  30.047  32.406  1.00  0.00     0.167 HD
ATOM     42  C   UNL A   1      41.182  32.102  36.224  1.00  0.00     0.034 A 
ATOM     43  C   UNL A   1      41.046  28.256  30.340  1.00  0.00     0.034 A 
ATOM     44  C   UNL A   1      42.206  31.091  36.122  1.00  0.00     0.049 A 
ATOM     45  C   UNL A   1      42.116  28.076  31.388  1.00  0.00     0.074 A 
ATOM     46  C   UNL A   1      43.187  30.763  37.043  1.00  0.00     0.029 A 
ATOM     47  N   UNL A   1      42.392  30.249  35.031  1.00  0.00    -0.354 N 
ATOM     48  N   UNL A   1      42.263  28.697  32.536  1.00  0.00    -0.248 NA
ATOM     49  C   UNL A   1      43.146  27.065  31.115  1.00  0.00     0.031 C 
ATOM     50  C   UNL A   1      44.009  29.783  36.479  1.00  0.00     0.029 A 
ATOM     51  C   UNL A   1      43.492  29.431  35.243  1.00  0.00     0.049 A 
ATOM     52  H   UNL A   1      41.826  30.237  34.227  1.00  0.00     0.167 HD
ATOM     53  C   UNL A   1      43.381  28.124  33.136  1.00  0.00     0.074 A 
ATOM     54  C   UNL A   1      43.858  27.098  32.231  1.00  0.00     0.031 C 
ATOM     55  C   UNL A   1      43.962  28.417  34.327  1.00  0.00     0.034 A 
BRANCH  42  56
ATOM     56  C   UNL A   1      41.165  33.000  37.437  1.00  0.00     0.023 A 
ATOM     57  C   UNL A   1      40.426  32.673  38.589  1.00  0.00     0.031 A 
ATOM     58  C   UNL A   1      41.890  34.206  37.443  1.00  0.00     0.131 A 
ATOM     59  C   UNL A   1      40.369  33.573  39.664  1.00  0.00     0.055 A 
ATOM     60  C   UNL A   1      41.898  35.055  38.551  1.00  0.00     0.041 A 
ATOM     61  F   UNL A   1      42.597  34.584  36.366  1.00  0.00    -0.206 F 
ATOM     62  C   UNL A   1      41.123  34.749  39.665  1.00  0.00     0.022 A 
BRANCH  59  63
ATOM     63  S   UNL A   1      39.183  33.253  40.999  1.00  0.00     0.124 S 
ATOM     64  O   UNL A   1      38.624  31.966  40.593  1.00  0.00    -0.237 OA
ATOM     65  O   UNL A   1      40.036  33.235  42.181  1.00  0.00    -0.237 OA
ATOM     66  O   UNL A   1      38.258  34.381  40.913  1.00  0.00    -0.744 OA
ENDBRANCH  59  63
ENDBRANCH  42  56
BRANCH  43  67
ATOM     67  C   UNL A   1      41.073  27.454  29.080  1.00  0.00     0.023 A 
ATOM     68  C   UNL A   1      42.050  27.682  28.098  1.00  0.00     0.031 A 
ATOM     69  C   UNL A   1      40.083  26.491  28.812  1.00  0.00     0.131 A 
ATOM     70  C   UNL A   1      41.982  27.001  26.872  1.00  0.00     0.055 A 
ATOM     71  C   UNL A   1      40.059  25.770  27.617  1.00  0.00     0.041 A 
ATOM     72  F   UNL A   1      39.123  26.232  29.715  1.00  0.00    -0.206 F 
ATOM     73  C   UNL A   1      41.003  26.036  26.631  1.00  0.00     0.022 A 
BRANCH  70  74
ATOM     74  S   UNL A   1      43.129  27.482  25.551  1.00  0.00     0.124 S 
ATOM     75  O   UNL A   1      44.107  28.277  26.284  1.00  0.00    -0.237 OA
ATOM     76  O   UNL A   1      43.590  26.186  25.064  1.00  0.00    -0.237 OA
ATOM     77  O   UNL A   1      42.284  28.230  24.623  1.00  0.00    -0.744 OA
ENDBRANCH  70  74
ENDBRANCH  43  67
BRANCH  55  78
ATOM     78  C   UNL A   1      45.149  27.578  34.740  1.00  0.00     0.023 A 
ATOM     79  C   UNL A   1      44.994  26.352  35.409  1.00  0.00     0.031 A 
ATOM     80  C   UNL A   1      46.456  28.021  34.468  1.00  0.00     0.131 A 
ATOM     81  C   UNL A   1      46.126  25.641  35.838  1.00  0.00     0.055 A 
ATOM     82  C   UNL A   1      47.578  27.276  34.834  1.00  0.00     0.041 A 
ATOM     83  F   UNL A   1      46.665  29.187  33.836  1.00  0.00    -0.206 F 
ATOM     84  C   UNL A   1      47.416  26.085  35.536  1.00  0.00     0.022 A 
BRANCH  81  85
ATOM     85  S   UNL A   1      45.891  24.180  36.885  1.00  0.00     0.124 S 
ATOM     86  O   UNL A   1      46.995  23.324  36.464  1.00  0.00    -0.237 OA
ATOM     87  O   UNL A   1      45.993  24.738  38.229  1.00  0.00    -0.237 OA
ATOM     88  O   UNL A   1      44.560  23.703  36.513  1.00  0.00    -0.744 OA
ENDBRANCH  81  85
ENDBRANCH  55  78
ENDBRANCH  29  30
ENDBRANCH  21  24
ENDBRANCH  19  20
ENDBRANCH  18  19
ENDBRANCH  17  18
ENDBRANCH   1  17
TORSDOF 19
ENDMDL
MODEL 3
REMARK VINA RESULT:      -9.7      6.073     11.069
REMARK SMILES CC(=O)/C=C(/C)NCC(=O)NCCCCCCNC(=O)c1ccc(-c2c3nc(c(-c4cc(S(=O)(=O)[O-])ccc4F)c4ccc([nH]4)c(-c4cc(S(=O)(=O)[O-])ccc4F)c4nc(c(-c5cc(S(=O)(=O)[O-])ccc5F)c5ccc2[nH]5)C=C4)C=C3)cc1
REMARK SMILES IDX 14 1 13 2 12 3 11 4 9 5 10 6 8 8 7 9 5 11 4 12 6 13 2 14
REMARK SMILES IDX 1 15 3 16 15 17 16 18 17 19 18 20 19 21 20 23 21 24 22 25
REMARK SMILES IDX 83 26 23 27 82 28 24 29 25 30 26 31 76 32 27 33 81 34 75 35
REMARK SMILES IDX 77 36 28 37 80 38 74 39 73 40 29 42 61 43 41 44 60 45 42 46
REMARK SMILES IDX 45 47 59 48 78 49 43 50 44 51 58 53 79 54 46 55 30 56 31 57
REMARK SMILES IDX 39 58 32 59 38 60 40 61 37 62 33 63 34 64 35 65 36 66 62 67
REMARK SMILES IDX 63 68 71 69 64 70 70 71 72 72 69 73 65 74 66 75 67 76 68 77
REMARK SMILES IDX 47 78 48 79 56 80 49 81 55 82 57 83 54 84 50 85 51 86 52 87
REMARK SMILES IDX 53 88
REMARK H PARENT 11 7 7 10 18 22 77 41 45 52
REMARK Flexibility Score: inf
ROOT
ATOM      1  C   UNL A   1      35.008  23.340  26.366  1.00  0.00     0.002 C 
ENDROOT
BRANCH   1   2
ATOM      2  C   UNL A   1      34.278  22.043  26.736  1.00  0.00     0.021 C 
BRANCH   2   3
ATOM      3  C   UNL A   1      33.258  22.240  27.854  1.00  0.00     0.116 C 
BRANCH   3   4
ATOM      4  N   UNL A   1      31.903  22.203  27.344  1.00  0.00    -0.355 N 
ATOM      5  C   UNL A   1      31.102  23.194  26.867  1.00  0.00     0.239 C 
ATOM      6  O   UNL A   1      29.946  22.874  26.563  1.00  0.00    -0.273 OA
ATOM      7  H   UNL A   1      31.491  21.308  27.342  1.00  0.00     0.163 HD
BRANCH   5   8
ATOM      8  C   UNL A   1      31.587  24.630  26.607  1.00  0.00     0.213 C 
BRANCH   8   9
ATOM      9  N   UNL A   1      30.575  25.577  26.185  1.00  0.00    -0.380 N 
ATOM     10  H   UNL A   1      29.739  25.510  26.701  1.00  0.00     0.160 HD
BRANCH   9  11
ATOM     11  C   UNL A   1      30.537  26.557  25.207  1.00  0.00     0.011 C 
ATOM     12  C   UNL A   1      31.238  27.693  25.000  1.00  0.00     0.067 C 
ATOM     13  C   UNL A   1      29.379  26.327  24.232  1.00  0.00     0.064 C 
BRANCH  12  14
ATOM     14  C   UNL A   1      32.328  28.491  25.639  1.00  0.00     0.154 C 
ATOM     15  C   UNL A   1      33.707  27.960  25.874  1.00  0.00     0.093 C 
ATOM     16  O   UNL A   1      32.059  29.650  25.971  1.00  0.00    -0.295 OA
ENDBRANCH  12  14
ENDBRANCH   9  11
ENDBRANCH   8   9
ENDBRANCH   5   8
ENDBRANCH   3   4
ENDBRANCH   2   3
ENDBRANCH   1   2
BRANCH   1  17
ATOM     17  C   UNL A   1      35.313  23.496  24.871  1.00  0.00     0.002 C 
BRANCH  17  18
ATOM     18  C   UNL A   1      35.733  22.205  24.162  1.00  0.00     0.021 C 
BRANCH  18  19
ATOM     19  C   UNL A   1      37.241  22.020  24.035  1.00  0.00     0.116 C 
BRANCH  19  20
ATOM     20  N   UNL A   1      37.716  20.899  24.830  1.00  0.00    -0.352 N 
ATOM     21  C   UNL A   1      38.755  20.845  25.726  1.00  0.00     0.251 C 
ATOM     22  H   UNL A   1      37.222  20.057  24.707  1.00  0.00     0.163 HD
ATOM     23  O   UNL A   1      39.157  19.761  26.127  1.00  0.00    -0.269 OA
BRANCH  21  24
ATOM     24  C   UNL A   1      39.392  22.100  26.184  1.00  0.00     0.039 A 
ATOM     25  C   UNL A   1      40.717  22.066  26.620  1.00  0.00     0.014 A 
ATOM     26  C   UNL A   1      38.680  23.303  26.186  1.00  0.00     0.014 A 
ATOM     27  C   UNL A   1      41.347  23.252  27.003  1.00  0.00     0.010 A 
ATOM     28  C   UNL A   1      39.333  24.493  26.495  1.00  0.00     0.010 A 
ATOM     29  C   UNL A   1      40.673  24.480  26.910  1.00  0.00    -0.014 A 
BRANCH  29  30
ATOM     30  C   UNL A   1      41.352  25.759  27.247  1.00  0.00     0.031 A 
ATOM     31  C   UNL A   1      40.638  26.801  28.064  1.00  0.00     0.074 A 
ATOM     32  C   UNL A   1      42.592  25.999  26.774  1.00  0.00     0.049 A 
ATOM     33  N   UNL A   1      41.034  28.001  28.404  1.00  0.00    -0.248 NA
ATOM     34  C   UNL A   1      39.289  26.457  28.540  1.00  0.00     0.031 C 
ATOM     35  C   UNL A   1      43.373  25.078  25.945  1.00  0.00     0.029 A 
ATOM     36  N   UNL A   1      43.413  27.090  26.917  1.00  0.00    -0.354 N 
ATOM     37  C   UNL A   1      39.983  28.558  29.126  1.00  0.00     0.074 A 
ATOM     38  C   UNL A   1      38.909  27.587  29.116  1.00  0.00     0.031 C 
ATOM     39  C   UNL A   1      44.567  25.629  25.679  1.00  0.00     0.029 A 
ATOM     40  C   UNL A   1      44.621  26.963  26.269  1.00  0.00     0.049 A 
ATOM     41  H   UNL A   1      43.161  27.888  27.435  1.00  0.00     0.167 HD
ATOM     42  C   UNL A   1      39.930  29.756  29.759  1.00  0.00     0.034 A 
ATOM     43  C   UNL A   1      45.647  27.829  26.150  1.00  0.00     0.034 A 
ATOM     44  C   UNL A   1      41.013  30.708  29.762  1.00  0.00     0.049 A 
ATOM     45  C   UNL A   1      45.543  29.176  26.822  1.00  0.00     0.074 A 
ATOM     46  C   UNL A   1      41.082  31.932  30.408  1.00  0.00     0.029 A 
ATOM     47  N   UNL A   1      42.215  30.553  29.081  1.00  0.00    -0.354 N 
ATOM     48  N   UNL A   1      44.560  29.667  27.541  1.00  0.00    -0.248 NA
ATOM     49  C   UNL A   1      46.690  30.080  26.675  1.00  0.00     0.031 C 
ATOM     50  C   UNL A   1      42.287  32.548  30.054  1.00  0.00     0.029 A 
ATOM     51  C   UNL A   1      43.013  31.673  29.261  1.00  0.00     0.049 A 
ATOM     52  H   UNL A   1      42.463  29.763  28.549  1.00  0.00     0.167 HD
ATOM     53  C   UNL A   1      44.989  30.924  27.960  1.00  0.00     0.074 A 
ATOM     54  C   UNL A   1      46.324  31.105  27.429  1.00  0.00     0.031 C 
ATOM     55  C   UNL A   1      44.340  31.845  28.718  1.00  0.00     0.034 A 
BRANCH  42  56
ATOM     56  C   UNL A   1      38.649  30.110  30.475  1.00  0.00     0.023 A 
ATOM     57  C   UNL A   1      37.624  30.838  29.843  1.00  0.00     0.031 A 
ATOM     58  C   UNL A   1      38.450  29.724  31.814  1.00  0.00     0.131 A 
ATOM     59  C   UNL A   1      36.485  31.219  30.568  1.00  0.00     0.055 A 
ATOM     60  C   UNL A   1      37.274  30.032  32.502  1.00  0.00     0.041 A 
ATOM     61  F   UNL A   1      39.399  29.047  32.479  1.00  0.00    -0.206 F 
ATOM     62  C   UNL A   1      36.290  30.797  31.884  1.00  0.00     0.022 A 
BRANCH  59  63
ATOM     63  S   UNL A   1      35.329  32.393  29.809  1.00  0.00     0.124 S 
ATOM     64  O   UNL A   1      36.226  33.483  29.427  1.00  0.00    -0.237 OA
ATOM     65  O   UNL A   1      34.764  31.617  28.712  1.00  0.00    -0.237 OA
ATOM     66  O   UNL A   1      34.402  32.711  30.893  1.00  0.00    -0.744 OA
ENDBRANCH  59  63
ENDBRANCH  42  56
BRANCH  43  67
ATOM     67  C   UNL A   1      46.857  27.470  25.353  1.00  0.00     0.023 A 
ATOM     68  C   UNL A   1      46.999  27.892  24.021  1.00  0.00     0.031 A 
ATOM     69  C   UNL A   1      47.861  26.644  25.890  1.00  0.00     0.131 A 
ATOM     70  C   UNL A   1      48.085  27.441  23.255  1.00  0.00     0.055 A 
ATOM     71  C   UNL A   1      48.974  26.251  25.144  1.00  0.00     0.041 A 
ATOM     72  F   UNL A   1      47.778  26.208  27.158  1.00  0.00    -0.206 F 
ATOM     73  C   UNL A   1      49.081  26.637  23.811  1.00  0.00     0.022 A 
BRANCH  70  74
ATOM     74  S   UNL A   1      48.116  27.830  21.483  1.00  0.00     0.124 S 
ATOM     75  O   UNL A   1      49.208  28.794  21.412  1.00  0.00    -0.237 OA
ATOM     76  O   UNL A   1      48.374  26.522  20.890  1.00  0.00    -0.237 OA
ATOM     77  O   UNL A   1      46.783  28.374  21.232  1.00  0.00    -0.744 OA
ENDBRANCH  70  74
ENDBRANCH  43  67
BRANCH  55  78
ATOM     78  C   UNL A   1      45.092  33.112  29.057  1.00  0.00     0.023 A 
ATOM     79  C   UNL A   1      44.998  34.266  28.261  1.00  0.00     0.031 A 
ATOM     80  C   UNL A   1      45.923  33.156  30.190  1.00  0.00     0.131 A 
ATOM     81  C   UNL A   1      45.770  35.396  28.573  1.00  0.00     0.055 A 
ATOM     82  C   UNL A   1      46.634  34.307  30.536  1.00  0.00     0.041 A 
ATOM     83  F   UNL A   1      46.055  32.083  30.985  1.00  0.00    -0.206 F 
ATOM     84  C   UNL A   1      46.572  35.430  29.717  1.00  0.00     0.022 A 
BRANCH  81  85
ATOM     85  S   UNL A   1      45.792  36.784  27.407  1.00  0.00     0.124 S 
ATOM     86  O   UNL A   1      46.212  37.891  28.261  1.00  0.00    -0.237 OA
ATOM     87  O   UNL A   1      46.763  36.342  26.412  1.00  0.00    -0.237 OA
ATOM     88  O   UNL A   1      44.410  36.856  26.934  1.00  0.00    -0.744 OA
ENDBRANCH  81  85
ENDBRANCH  55  78
ENDBRANCH  29  30
ENDBRANCH  21  24
ENDBRANCH  19  20
ENDBRANCH  18  19
ENDBRANCH  17  18
ENDBRANCH   1  17
TORSDOF 19
ENDMDL
