MODEL 1
REMARK VINA RESULT:     -10.9      0.000      0.000
REMARK SMILES COc1ccc(OC)c(/C=N/[NH+]=C2/NC(=O)[C@@H](CC(=O)NCCCCCCNC(=O)c3ccc(-c4c5nc(c(-c6cc(S(=O)(=O)[O-])ccc6F)c6ccc([nH]6)c(-c6cc(S(=O)(=O)[O-])ccc6F)c6nc(c(-c7cc(S(=O)(=O)[O-])ccc7F)c7ccc4[nH]7)C=C6)C=C5)cc3)S2)c1
REMARK SMILES IDX 24 1 23 2 22 3 21 4 19 5 20 6 18 8 17 9 12 10 13 11 14 13
REMARK SMILES IDX 94 14 15 15 16 17 11 18 10 19 9 20 3 21 4 22 95 23 5 24 6 25
REMARK SMILES IDX 2 26 1 27 7 28 8 29 25 30 26 31 27 32 28 33 29 34 30 36
REMARK SMILES IDX 31 37 32 38 93 39 33 40 92 41 34 42 35 43 36 44 86 45 37 46
REMARK SMILES IDX 91 47 85 48 87 49 38 50 90 51 84 52 83 53 39 55 71 56 51 57
REMARK SMILES IDX 70 58 52 59 55 60 69 61 88 62 53 63 54 64 68 66 89 67 56 68
REMARK SMILES IDX 40 69 41 70 49 71 42 72 48 73 50 74 47 75 43 76 44 77 45 78
REMARK SMILES IDX 46 79 72 80 73 81 81 82 74 83 80 84 82 85 79 86 75 87 76 88
REMARK SMILES IDX 77 89 78 90 57 91 58 92 66 93 59 94 65 95 67 96 64 97 60 98
REMARK SMILES IDX 61 99 62 100 63 101
REMARK H PARENT 21 7 12 12 14 16 28 35 87 54 55 65
REMARK Flexibility Score: inf
ROOT
ATOM      1  C   UNL A   1      31.215  27.823  27.519  1.00  0.00     0.002 C 
ENDROOT
BRANCH   1   2
ATOM      2  C   UNL A   1      31.482  26.505  26.788  1.00  0.00     0.021 C 
BRANCH   2   3
ATOM      3  C   UNL A   1      30.300  25.976  25.977  1.00  0.00     0.116 C 
BRANCH   3   4
ATOM      4  N   UNL A   1      29.912  24.657  26.445  1.00  0.00    -0.356 N 
ATOM      5  C   UNL A   1      30.518  23.448  26.324  1.00  0.00     0.221 C 
ATOM      6  O   UNL A   1      29.941  22.471  26.806  1.00  0.00    -0.275 OA
ATOM      7  H   UNL A   1      29.058  24.636  26.935  1.00  0.00     0.163 HD
BRANCH   5   8
ATOM      8  C   UNL A   1      31.867  23.303  25.641  1.00  0.00     0.127 C 
BRANCH   8   9
ATOM      9  C   UNL A   1      31.853  23.006  24.140  1.00  0.00     0.183 C 
ATOM     10  N   UNL A   1      32.319  26.131  22.025  1.00  0.00    -0.142 N 
ATOM     11  C   UNL A   1      32.224  24.952  22.534  1.00  0.00     0.337 C 
ATOM     12  H   UNL A   1      33.189  26.535  21.803  1.00  0.00     0.343 HD
ATOM     13  N   UNL A   1      33.337  24.210  22.727  1.00  0.00    -0.202 N 
ATOM     14  S   UNL A   1      30.822  24.114  23.126  1.00  0.00    -0.020 SA
ATOM     15  C   UNL A   1      33.244  23.129  23.550  1.00  0.00     0.322 C 
ATOM     16  H   UNL A   1      34.187  24.444  22.287  1.00  0.00     0.316 HD
ATOM     17  O   UNL A   1      34.190  22.419  23.844  1.00  0.00    -0.246 OA
BRANCH  10  18
ATOM     18  N   UNL A   1      31.121  26.796  21.807  1.00  0.00    -0.093 NA
ATOM     19  C   UNL A   1      30.792  27.595  22.771  1.00  0.00     0.170 C 
BRANCH  19  20
ATOM     20  C   UNL A   1      29.664  28.520  22.599  1.00  0.00     0.042 A 
ATOM     21  C   UNL A   1      28.970  30.760  21.981  1.00  0.00     0.119 A 
ATOM     22  C   UNL A   1      27.708  30.498  22.508  1.00  0.00     0.050 A 
ATOM     23  C   UNL A   1      29.956  29.773  22.024  1.00  0.00     0.060 A 
ATOM     24  C   UNL A   1      27.412  29.240  23.031  1.00  0.00     0.051 A 
ATOM     25  C   UNL A   1      28.375  28.226  23.070  1.00  0.00     0.128 A 
BRANCH  21  26
ATOM     26  O   UNL A   1      29.165  32.045  21.554  1.00  0.00    -0.497 OA
ATOM     27  C   UNL A   1      27.989  32.720  21.126  1.00  0.00     0.278 C 
ENDBRANCH  21  26
BRANCH  25  28
ATOM     28  O   UNL A   1      27.885  27.073  23.615  1.00  0.00    -0.496 OA
ATOM     29  C   UNL A   1      26.557  27.035  24.120  1.00  0.00     0.278 C 
ENDBRANCH  25  28
ENDBRANCH  19  20
ENDBRANCH  10  18
ENDBRANCH   8   9
ENDBRANCH   5   8
ENDBRANCH   3   4
ENDBRANCH   2   3
ENDBRANCH   1   2
BRANCH   1  30
ATOM     30  C   UNL A   1      31.916  29.044  26.921  1.00  0.00     0.002 C 
BRANCH  30  31
ATOM     31  C   UNL A   1      33.144  28.731  26.063  1.00  0.00     0.021 C 
BRANCH  31  32
ATOM     32  C   UNL A   1      34.392  29.539  26.410  1.00  0.00     0.116 C 
BRANCH  32  33
ATOM     33  N   UNL A   1      34.059  30.839  26.966  1.00  0.00    -0.352 N 
ATOM     34  C   UNL A   1      34.605  31.482  28.050  1.00  0.00     0.251 C 
ATOM     35  H   UNL A   1      33.341  31.327  26.502  1.00  0.00     0.163 HD
ATOM     36  O   UNL A   1      34.039  32.460  28.530  1.00  0.00    -0.269 OA
BRANCH  34  37
ATOM     37  C   UNL A   1      35.862  30.977  28.641  1.00  0.00     0.039 A 
ATOM     38  C   UNL A   1      35.809  29.911  29.543  1.00  0.00     0.014 A 
ATOM     39  C   UNL A   1      37.091  31.552  28.303  1.00  0.00     0.014 A 
ATOM     40  C   UNL A   1      36.995  29.384  30.059  1.00  0.00     0.010 A 
ATOM     41  C   UNL A   1      38.274  30.976  28.758  1.00  0.00     0.010 A 
ATOM     42  C   UNL A   1      38.239  29.888  29.645  1.00  0.00    -0.014 A 
BRANCH  42  43
ATOM     43  C   UNL A   1      39.511  29.287  30.128  1.00  0.00     0.031 A 
ATOM     44  C   UNL A   1      40.255  29.910  31.276  1.00  0.00     0.074 A 
ATOM     45  C   UNL A   1      40.026  28.220  29.487  1.00  0.00     0.049 A 
ATOM     46  N   UNL A   1      41.404  29.568  31.802  1.00  0.00    -0.248 NA
ATOM     47  C   UNL A   1      39.641  31.094  31.892  1.00  0.00     0.031 C 
ATOM     48  C   UNL A   1      39.425  27.564  28.324  1.00  0.00     0.029 A 
ATOM     49  N   UNL A   1      41.177  27.507  29.710  1.00  0.00    -0.354 N 
ATOM     50  C   UNL A   1      41.659  30.505  32.798  1.00  0.00     0.074 A 
ATOM     51  C   UNL A   1      40.575  31.464  32.753  1.00  0.00     0.031 C 
ATOM     52  C   UNL A   1      40.203  26.538  27.946  1.00  0.00     0.029 A 
ATOM     53  C   UNL A   1      41.380  26.490  28.806  1.00  0.00     0.049 A 
ATOM     54  H   UNL A   1      41.799  27.705  30.448  1.00  0.00     0.167 HD
ATOM     55  C   UNL A   1      42.690  30.547  33.679  1.00  0.00     0.034 A 
ATOM     56  C   UNL A   1      42.408  25.628  28.669  1.00  0.00     0.034 A 
ATOM     57  C   UNL A   1      43.758  29.576  33.706  1.00  0.00     0.049 A 
ATOM     58  C   UNL A   1      43.551  25.697  29.648  1.00  0.00     0.074 A 
ATOM     59  C   UNL A   1      44.808  29.474  34.601  1.00  0.00     0.029 A 
ATOM     60  N   UNL A   1      43.928  28.551  32.781  1.00  0.00    -0.354 N 
ATOM     61  N   UNL A   1      43.739  26.538  30.639  1.00  0.00    -0.248 NA
ATOM     62  C   UNL A   1      44.611  24.693  29.500  1.00  0.00     0.031 C 
ATOM     63  C   UNL A   1      45.657  28.448  34.169  1.00  0.00     0.029 A 
ATOM     64  C   UNL A   1      45.090  27.845  33.056  1.00  0.00     0.049 A 
ATOM     65  H   UNL A   1      43.313  28.356  32.037  1.00  0.00     0.167 HD
ATOM     66  C   UNL A   1      44.932  26.151  31.246  1.00  0.00     0.074 A 
ATOM     67  C   UNL A   1      45.405  24.991  30.518  1.00  0.00     0.031 C 
ATOM     68  C   UNL A   1      45.571  26.703  32.309  1.00  0.00     0.034 A 
BRANCH  55  69
ATOM     69  C   UNL A   1      42.723  31.705  34.654  1.00  0.00     0.023 A 
ATOM     70  C   UNL A   1      42.140  31.618  35.932  1.00  0.00     0.031 A 
ATOM     71  C   UNL A   1      43.298  32.933  34.281  1.00  0.00     0.131 A 
ATOM     72  C   UNL A   1      42.054  32.759  36.744  1.00  0.00     0.055 A 
ATOM     73  C   UNL A   1      43.297  34.039  35.135  1.00  0.00     0.041 A 
ATOM     74  F   UNL A   1      43.854  33.089  33.070  1.00  0.00    -0.206 F 
ATOM     75  C   UNL A   1      42.652  33.962  36.366  1.00  0.00     0.022 A 
BRANCH  72  76
ATOM     76  S   UNL A   1      40.984  32.697  38.208  1.00  0.00     0.124 S 
ATOM     77  O   UNL A   1      41.785  31.889  39.125  1.00  0.00    -0.237 OA
ATOM     78  O   UNL A   1      40.843  34.106  38.554  1.00  0.00    -0.237 OA
ATOM     79  O   UNL A   1      39.769  32.048  37.719  1.00  0.00    -0.744 OA
ENDBRANCH  72  76
ENDBRANCH  55  69
BRANCH  56  80
ATOM     80  C   UNL A   1      42.410  24.649  27.544  1.00  0.00     0.023 A 
ATOM     81  C   UNL A   1      41.614  23.494  27.575  1.00  0.00     0.031 A 
ATOM     82  C   UNL A   1      43.217  24.865  26.412  1.00  0.00     0.131 A 
ATOM     83  C   UNL A   1      41.662  22.584  26.506  1.00  0.00     0.055 A 
ATOM     84  C   UNL A   1      43.223  23.984  25.329  1.00  0.00     0.041 A 
ATOM     85  F   UNL A   1      43.991  25.959  26.328  1.00  0.00    -0.206 F 
ATOM     86  C   UNL A   1      42.448  22.830  25.377  1.00  0.00     0.022 A 
BRANCH  83  87
ATOM     87  S   UNL A   1      40.720  21.039  26.632  1.00  0.00     0.124 S 
ATOM     88  O   UNL A   1      40.835  20.736  28.054  1.00  0.00    -0.237 OA
ATOM     89  O   UNL A   1      39.400  21.450  26.167  1.00  0.00    -0.237 OA
ATOM     90  O   UNL A   1      41.437  20.130  25.740  1.00  0.00    -0.744 OA
ENDBRANCH  83  87
ENDBRANCH  56  80
BRANCH  68  91
ATOM     91  C   UNL A   1      46.844  26.033  32.770  1.00  0.00     0.023 A 
ATOM     92  C   UNL A   1      48.092  26.331  32.194  1.00  0.00     0.031 A 
ATOM     93  C   UNL A   1      46.806  25.072  33.797  1.00  0.00     0.131 A 
ATOM     94  C   UNL A   1      49.239  25.636  32.609  1.00  0.00     0.055 A 
ATOM     95  C   UNL A   1      47.961  24.435  34.253  1.00  0.00     0.041 A 
ATOM     96  F   UNL A   1      45.643  24.740  34.381  1.00  0.00    -0.206 F 
ATOM     97  C   UNL A   1      49.185  24.706  33.648  1.00  0.00     0.022 A 
BRANCH  94  98
ATOM     98  S   UNL A   1      50.788  25.890  31.700  1.00  0.00     0.124 S 
ATOM     99  O   UNL A   1      50.754  24.796  30.734  1.00  0.00    -0.237 OA
ATOM    100  O   UNL A   1      50.613  27.231  31.152  1.00  0.00    -0.237 OA
ATOM    101  O   UNL A   1      51.815  25.772  32.734  1.00  0.00    -0.744 OA
ENDBRANCH  94  98
ENDBRANCH  68  91
ENDBRANCH  42  43
ENDBRANCH  34  37
ENDBRANCH  32  33
ENDBRANCH  31  32
ENDBRANCH  30  31
ENDBRANCH   1  30
TORSDOF 21
ENDMDL
MODEL 2
REMARK VINA RESULT:     -10.8      3.343      5.686
REMARK SMILES COc1ccc(OC)c(/C=N/[NH+]=C2/NC(=O)[C@@H](CC(=O)NCCCCCCNC(=O)c3ccc(-c4c5nc(c(-c6cc(S(=O)(=O)[O-])ccc6F)c6ccc([nH]6)c(-c6cc(S(=O)(=O)[O-])ccc6F)c6nc(c(-c7cc(S(=O)(=O)[O-])ccc7F)c7ccc4[nH]7)C=C6)C=C5)cc3)S2)c1
REMARK SMILES IDX 24 1 23 2 22 3 21 4 19 5 20 6 18 8 17 9 12 10 13 11 14 13
REMARK SMILES IDX 94 14 15 15 16 17 11 18 10 19 9 20 3 21 4 22 95 23 5 24 6 25
REMARK SMILES IDX 2 26 1 27 7 28 8 29 25 30 26 31 27 32 28 33 29 34 30 36
REMARK SMILES IDX 31 37 32 38 93 39 33 40 92 41 34 42 35 43 36 44 86 45 37 46
REMARK SMILES IDX 91 47 85 48 87 49 38 50 90 51 84 52 83 53 39 55 71 56 51 57
REMARK SMILES IDX 70 58 52 59 55 60 69 61 88 62 53 63 54 64 68 66 89 67 56 68
REMARK SMILES IDX 40 69 41 70 49 71 42 72 48 73 50 74 47 75 43 76 44 77 45 78
REMARK SMILES IDX 46 79 72 80 73 81 81 82 74 83 80 84 82 85 79 86 75 87 76 88
REMARK SMILES IDX 77 89 78 90 57 91 58 92 66 93 59 94 65 95 67 96 64 97 60 98
REMARK SMILES IDX 61 99 62 100 63 101
REMARK H PARENT 21 7 12 12 14 16 28 35 87 54 55 65
REMARK Flexibility Score: inf
ROOT
ATOM      1  C   UNL A   1      34.602  31.498  28.310  1.00  0.00     0.002 C 
ENDROOT
BRANCH   1   2
ATOM      2  C   UNL A   1      33.576  30.936  27.322  1.00  0.00     0.021 C 
BRANCH   2   3
ATOM      3  C   UNL A   1      33.805  29.477  26.929  1.00  0.00     0.116 C 
BRANCH   3   4
ATOM      4  N   UNL A   1      34.192  29.383  25.532  1.00  0.00    -0.356 N 
ATOM      5  C   UNL A   1      33.473  29.087  24.419  1.00  0.00     0.221 C 
ATOM      6  O   UNL A   1      34.076  29.053  23.344  1.00  0.00    -0.275 OA
ATOM      7  H   UNL A   1      35.145  29.564  25.363  1.00  0.00     0.163 HD
BRANCH   5   8
ATOM      8  C   UNL A   1      31.978  28.829  24.487  1.00  0.00     0.127 C 
BRANCH   8   9
ATOM      9  C   UNL A   1      31.312  28.279  23.224  1.00  0.00     0.183 C 
ATOM     10  N   UNL A   1      29.903  24.781  23.715  1.00  0.00    -0.142 N 
ATOM     11  C   UNL A   1      30.232  25.972  23.350  1.00  0.00     0.337 C 
ATOM     12  H   UNL A   1      29.024  24.580  24.107  1.00  0.00     0.343 HD
ATOM     13  N   UNL A   1      29.335  26.978  23.451  1.00  0.00    -0.202 N 
ATOM     14  S   UNL A   1      31.759  26.570  22.777  1.00  0.00    -0.020 SA
ATOM     15  C   UNL A   1      29.804  28.255  23.372  1.00  0.00     0.322 C 
ATOM     16  H   UNL A   1      28.377  26.795  23.578  1.00  0.00     0.316 HD
ATOM     17  O   UNL A   1      29.102  29.243  23.504  1.00  0.00    -0.246 OA
BRANCH  10  18
ATOM     18  N   UNL A   1      30.865  23.800  23.520  1.00  0.00    -0.093 NA
ATOM     19  C   UNL A   1      31.502  23.481  24.600  1.00  0.00     0.170 C 
BRANCH  19  20
ATOM     20  C   UNL A   1      32.401  22.319  24.600  1.00  0.00     0.042 A 
ATOM     21  C   UNL A   1      32.611  19.932  24.973  1.00  0.00     0.119 A 
ATOM     22  C   UNL A   1      33.997  20.065  24.954  1.00  0.00     0.050 A 
ATOM     23  C   UNL A   1      31.804  21.058  24.796  1.00  0.00     0.060 A 
ATOM     24  C   UNL A   1      34.580  21.308  24.710  1.00  0.00     0.051 A 
ATOM     25  C   UNL A   1      33.796  22.451  24.512  1.00  0.00     0.128 A 
BRANCH  21  26
ATOM     26  O   UNL A   1      32.152  18.680  25.282  1.00  0.00    -0.497 OA
ATOM     27  C   UNL A   1      33.148  17.665  25.303  1.00  0.00     0.278 C 
ENDBRANCH  21  26
BRANCH  25  28
ATOM     28  O   UNL A   1      34.557  23.562  24.287  1.00  0.00    -0.496 OA
ATOM     29  C   UNL A   1      35.524  23.968  25.246  1.00  0.00     0.278 C 
ENDBRANCH  25  28
ENDBRANCH  19  20
ENDBRANCH  10  18
ENDBRANCH   8   9
ENDBRANCH   5   8
ENDBRANCH   3   4
ENDBRANCH   2   3
ENDBRANCH   1   2
BRANCH   1  30
ATOM     30  C   UNL A   1      35.342  32.746  27.829  1.00  0.00     0.002 C 
BRANCH  30  31
ATOM     31  C   UNL A   1      34.603  34.067  28.055  1.00  0.00     0.021 C 
BRANCH  31  32
ATOM     32  C   UNL A   1      33.223  33.930  28.694  1.00  0.00     0.116 C 
BRANCH  32  33
ATOM     33  N   UNL A   1      33.031  34.879  29.777  1.00  0.00    -0.352 N 
ATOM     34  C   UNL A   1      33.623  34.910  31.017  1.00  0.00     0.251 C 
ATOM     35  H   UNL A   1      32.386  35.601  29.598  1.00  0.00     0.163 HD
ATOM     36  O   UNL A   1      33.163  35.632  31.896  1.00  0.00    -0.269 OA
BRANCH  34  37
ATOM     37  C   UNL A   1      34.798  34.055  31.285  1.00  0.00     0.039 A 
ATOM     38  C   UNL A   1      36.075  34.545  30.999  1.00  0.00     0.014 A 
ATOM     39  C   UNL A   1      34.640  32.774  31.822  1.00  0.00     0.014 A 
ATOM     40  C   UNL A   1      37.196  33.771  31.308  1.00  0.00     0.010 A 
ATOM     41  C   UNL A   1      35.760  32.037  32.199  1.00  0.00     0.010 A 
ATOM     42  C   UNL A   1      37.050  32.526  31.942  1.00  0.00    -0.014 A 
BRANCH  42  43
ATOM     43  C   UNL A   1      38.238  31.727  32.345  1.00  0.00     0.031 A 
ATOM     44  C   UNL A   1      38.966  32.043  33.621  1.00  0.00     0.074 A 
ATOM     45  C   UNL A   1      38.697  30.761  31.526  1.00  0.00     0.049 A 
ATOM     46  N   UNL A   1      40.052  31.501  34.113  1.00  0.00    -0.248 NA
ATOM     47  C   UNL A   1      38.420  33.138  34.435  1.00  0.00     0.031 C 
ATOM     48  C   UNL A   1      38.110  30.401  30.234  1.00  0.00     0.029 A 
ATOM     49  N   UNL A   1      39.771  29.914  31.648  1.00  0.00    -0.354 N 
ATOM     50  C   UNL A   1      40.328  32.199  35.284  1.00  0.00     0.074 A 
ATOM     51  C   UNL A   1      39.332  33.245  35.388  1.00  0.00     0.031 C 
ATOM     52  C   UNL A   1      38.819  29.400  29.691  1.00  0.00     0.029 A 
ATOM     53  C   UNL A   1      39.938  29.077  30.569  1.00  0.00     0.049 A 
ATOM     54  H   UNL A   1      40.365  29.906  32.433  1.00  0.00     0.167 HD
ATOM     55  C   UNL A   1      41.308  31.974  36.195  1.00  0.00     0.034 A 
ATOM     56  C   UNL A   1      40.896  28.165  30.304  1.00  0.00     0.034 A 
ATOM     57  C   UNL A   1      42.288  30.921  36.071  1.00  0.00     0.049 A 
ATOM     58  C   UNL A   1      41.984  27.937  31.321  1.00  0.00     0.074 A 
ATOM     59  C   UNL A   1      43.274  30.550  36.968  1.00  0.00     0.029 A 
ATOM     60  N   UNL A   1      42.423  30.083  34.968  1.00  0.00    -0.354 N 
ATOM     61  N   UNL A   1      42.186  28.549  32.465  1.00  0.00    -0.248 NA
ATOM     62  C   UNL A   1      42.963  26.886  31.017  1.00  0.00     0.031 C 
ATOM     63  C   UNL A   1      44.056  29.553  36.374  1.00  0.00     0.029 A 
ATOM     64  C   UNL A   1      43.504  29.231  35.143  1.00  0.00     0.049 A 
ATOM     65  H   UNL A   1      41.836  30.093  34.178  1.00  0.00     0.167 HD
ATOM     66  C   UNL A   1      43.306  27.943  33.028  1.00  0.00     0.074 A 
ATOM     67  C   UNL A   1      43.721  26.906  32.105  1.00  0.00     0.031 C 
ATOM     68  C   UNL A   1      43.929  28.217  34.204  1.00  0.00     0.034 A 
BRANCH  55  69
ATOM     69  C   UNL A   1      41.383  32.913  37.381  1.00  0.00     0.023 A 
ATOM     70  C   UNL A   1      40.713  32.642  38.588  1.00  0.00     0.031 A 
ATOM     71  C   UNL A   1      42.091  34.124  37.285  1.00  0.00     0.131 A 
ATOM     72  C   UNL A   1      40.678  33.608  39.604  1.00  0.00     0.055 A 
ATOM     73  C   UNL A   1      42.135  35.039  38.340  1.00  0.00     0.041 A 
ATOM     74  F   UNL A   1      42.736  34.453  36.155  1.00  0.00    -0.206 F 
ATOM     75  C   UNL A   1      41.407  34.794  39.500  1.00  0.00     0.022 A 
BRANCH  72  76
ATOM     76  S   UNL A   1      39.515  33.375  40.977  1.00  0.00     0.124 S 
ATOM     77  O   UNL A   1      40.157  34.142  42.042  1.00  0.00    -0.237 OA
ATOM     78  O   UNL A   1      38.280  33.934  40.441  1.00  0.00    -0.237 OA
ATOM     79  O   UNL A   1      39.510  31.927  41.181  1.00  0.00    -0.744 OA
ENDBRANCH  72  76
ENDBRANCH  55  69
BRANCH  56  80
ATOM     80  C   UNL A   1      40.879  27.428  29.008  1.00  0.00     0.023 A 
ATOM     81  C   UNL A   1      41.789  27.725  27.982  1.00  0.00     0.031 A 
ATOM     82  C   UNL A   1      39.941  26.404  28.782  1.00  0.00     0.131 A 
ATOM     83  C   UNL A   1      41.725  27.024  26.767  1.00  0.00     0.055 A 
ATOM     84  C   UNL A   1      39.913  25.676  27.592  1.00  0.00     0.041 A 
ATOM     85  F   UNL A   1      39.053  26.075  29.734  1.00  0.00    -0.206 F 
ATOM     86  C   UNL A   1      40.804  25.991  26.571  1.00  0.00     0.022 A 
BRANCH  83  87
ATOM     87  S   UNL A   1      42.830  27.517  25.415  1.00  0.00     0.124 S 
ATOM     88  O   UNL A   1      44.028  27.920  26.143  1.00  0.00    -0.237 OA
ATOM     89  O   UNL A   1      42.932  26.284  24.642  1.00  0.00    -0.237 OA
ATOM     90  O   UNL A   1      42.103  28.602  24.760  1.00  0.00    -0.744 OA
ENDBRANCH  83  87
ENDBRANCH  56  80
BRANCH  68  91
ATOM     91  C   UNL A   1      45.113  27.354  34.571  1.00  0.00     0.023 A 
ATOM     92  C   UNL A   1      44.966  26.161  35.301  1.00  0.00     0.031 A 
ATOM     93  C   UNL A   1      46.412  27.736  34.192  1.00  0.00     0.131 A 
ATOM     94  C   UNL A   1      46.101  25.424  35.677  1.00  0.00     0.055 A 
ATOM     95  C   UNL A   1      47.531  26.963  34.508  1.00  0.00     0.041 A 
ATOM     96  F   UNL A   1      46.617  28.869  33.499  1.00  0.00    -0.206 F 
ATOM     97  C   UNL A   1      47.379  25.807  35.267  1.00  0.00     0.022 A 
BRANCH  94  98
ATOM     98  S   UNL A   1      45.893  24.013  36.797  1.00  0.00     0.124 S 
ATOM     99  O   UNL A   1      44.909  23.204  36.084  1.00  0.00    -0.237 OA
ATOM    100  O   UNL A   1      47.243  23.464  36.863  1.00  0.00    -0.237 OA
ATOM    101  O   UNL A   1      45.412  24.626  38.033  1.00  0.00    -0.744 OA
ENDBRANCH  94  98
ENDBRANCH  68  91
ENDBRANCH  42  43
ENDBRANCH  34  37
ENDBRANCH  32  33
ENDBRANCH  31  32
ENDBRANCH  30  31
ENDBRANCH   1  30
TORSDOF 21
ENDMDL
MODEL 3
REMARK VINA RESULT:     -10.2      1.961      2.235
REMARK SMILES COc1ccc(OC)c(/C=N/[NH+]=C2/NC(=O)[C@@H](CC(=O)NCCCCCCNC(=O)c3ccc(-c4c5nc(c(-c6cc(S(=O)(=O)[O-])ccc6F)c6ccc([nH]6)c(-c6cc(S(=O)(=O)[O-])ccc6F)c6nc(c(-c7cc(S(=O)(=O)[O-])ccc7F)c7ccc4[nH]7)C=C6)C=C5)cc3)S2)c1
REMARK SMILES IDX 24 1 23 2 22 3 21 4 19 5 20 6 18 8 17 9 12 10 13 11 14 13
REMARK SMILES IDX 94 14 15 15 16 17 11 18 10 19 9 20 3 21 4 22 95 23 5 24 6 25
REMARK SMILES IDX 2 26 1 27 7 28 8 29 25 30 26 31 27 32 28 33 29 34 30 36
REMARK SMILES IDX 31 37 32 38 93 39 33 40 92 41 34 42 35 43 36 44 86 45 37 46
REMARK SMILES IDX 91 47 85 48 87 49 38 50 90 51 84 52 83 53 39 55 71 56 51 57
REMARK SMILES IDX 70 58 52 59 55 60 69 61 88 62 53 63 54 64 68 66 89 67 56 68
REMARK SMILES IDX 40 69 41 70 49 71 42 72 48 73 50 74 47 75 43 76 44 77 45 78
REMARK SMILES IDX 46 79 72 80 73 81 81 82 74 83 80 84 82 85 79 86 75 87 76 88
REMARK SMILES IDX 77 89 78 90 57 91 58 92 66 93 59 94 65 95 67 96 64 97 60 98
REMARK SMILES IDX 61 99 62 100 63 101
REMARK H PARENT 21 7 12 12 14 16 28 35 87 54 55 65
REMARK Flexibility Score: inf
ROOT
ATOM      1  C   UNL A   1      31.890  28.643  27.640  1.00  0.00     0.002 C 
ENDROOT
BRANCH   1   2
ATOM      2  C   UNL A   1      32.460  27.379  26.991  1.00  0.00     0.021 C 
BRANCH   2   3
ATOM      3  C   UNL A   1      31.446  26.562  26.190  1.00  0.00     0.116 C 
BRANCH   3   4
ATOM      4  N   UNL A   1      31.174  25.299  26.853  1.00  0.00    -0.356 N 
ATOM      5  C   UNL A   1      31.739  24.072  26.712  1.00  0.00     0.221 C 
ATOM      6  O   UNL A   1      31.284  23.154  27.399  1.00  0.00    -0.275 OA
ATOM      7  H   UNL A   1      30.452  25.340  27.521  1.00  0.00     0.163 HD
BRANCH   5   8
ATOM      8  C   UNL A   1      32.900  23.838  25.762  1.00  0.00     0.127 C 
BRANCH   8   9
ATOM      9  C   UNL A   1      32.556  23.311  24.367  1.00  0.00     0.183 C 
ATOM     10  N   UNL A   1      32.337  26.077  21.767  1.00  0.00    -0.142 N 
ATOM     11  C   UNL A   1      32.430  24.990  22.451  1.00  0.00     0.337 C 
ATOM     12  H   UNL A   1      33.106  26.460  21.289  1.00  0.00     0.343 HD
ATOM     13  N   UNL A   1      33.600  24.312  22.480  1.00  0.00    -0.202 N 
ATOM     14  S   UNL A   1      31.255  24.224  23.476  1.00  0.00    -0.020 SA
ATOM     15  C   UNL A   1      33.762  23.371  23.451  1.00  0.00     0.322 C 
ATOM     16  H   UNL A   1      34.309  24.493  21.822  1.00  0.00     0.316 HD
ATOM     17  O   UNL A   1      34.791  22.736  23.612  1.00  0.00    -0.246 OA
BRANCH  10  18
ATOM     18  N   UNL A   1      31.084  26.674  21.746  1.00  0.00    -0.093 NA
ATOM     19  C   UNL A   1      30.966  27.654  22.583  1.00  0.00     0.170 C 
BRANCH  19  20
ATOM     20  C   UNL A   1      29.776  28.515  22.534  1.00  0.00     0.042 A 
ATOM     21  C   UNL A   1      28.927  30.764  22.214  1.00  0.00     0.119 A 
ATOM     22  C   UNL A   1      27.690  30.351  22.704  1.00  0.00     0.050 A 
ATOM     23  C   UNL A   1      29.978  29.848  22.126  1.00  0.00     0.060 A 
ATOM     24  C   UNL A   1      27.485  29.018  23.059  1.00  0.00     0.051 A 
ATOM     25  C   UNL A   1      28.515  28.075  22.965  1.00  0.00     0.128 A 
BRANCH  21  26
ATOM     26  O   UNL A   1      29.031  32.103  21.957  1.00  0.00    -0.497 OA
ATOM     27  C   UNL A   1      27.969  32.650  21.184  1.00  0.00     0.278 C 
ENDBRANCH  21  26
BRANCH  25  28
ATOM     28  O   UNL A   1      28.109  26.831  23.356  1.00  0.00    -0.496 OA
ATOM     29  C   UNL A   1      28.448  26.347  24.649  1.00  0.00     0.278 C 
ENDBRANCH  25  28
ENDBRANCH  19  20
ENDBRANCH  10  18
ENDBRANCH   8   9
ENDBRANCH   5   8
ENDBRANCH   3   4
ENDBRANCH   2   3
ENDBRANCH   1   2
BRANCH   1  30
ATOM     30  C   UNL A   1      32.651  29.929  27.320  1.00  0.00     0.002 C 
BRANCH  30  31
ATOM     31  C   UNL A   1      34.028  29.728  26.681  1.00  0.00     0.021 C 
BRANCH  31  32
ATOM     32  C   UNL A   1      35.137  30.604  27.256  1.00  0.00     0.116 C 
BRANCH  32  33
ATOM     33  N   UNL A   1      34.626  31.557  28.228  1.00  0.00    -0.352 N 
ATOM     34  C   UNL A   1      35.070  31.816  29.502  1.00  0.00     0.251 C 
ATOM     35  H   UNL A   1      33.854  32.091  27.932  1.00  0.00     0.163 HD
ATOM     36  O   UNL A   1      34.373  32.471  30.271  1.00  0.00    -0.269 OA
BRANCH  34  37
ATOM     37  C   UNL A   1      36.378  31.285  29.941  1.00  0.00     0.039 A 
ATOM     38  C   UNL A   1      36.413  30.137  30.735  1.00  0.00     0.014 A 
ATOM     39  C   UNL A   1      37.567  31.918  29.566  1.00  0.00     0.014 A 
ATOM     40  C   UNL A   1      37.644  29.590  31.103  1.00  0.00     0.010 A 
ATOM     41  C   UNL A   1      38.791  31.329  29.869  1.00  0.00     0.010 A 
ATOM     42  C   UNL A   1      38.843  30.160  30.645  1.00  0.00    -0.014 A 
BRANCH  42  43
ATOM     43  C   UNL A   1      40.159  29.544  30.966  1.00  0.00     0.031 A 
ATOM     44  C   UNL A   1      40.949  30.022  32.152  1.00  0.00     0.074 A 
ATOM     45  C   UNL A   1      40.668  28.602  30.149  1.00  0.00     0.049 A 
ATOM     46  N   UNL A   1      42.136  29.652  32.560  1.00  0.00    -0.248 NA
ATOM     47  C   UNL A   1      40.336  31.080  32.968  1.00  0.00     0.031 C 
ATOM     48  C   UNL A   1      40.021  28.099  28.936  1.00  0.00     0.029 A 
ATOM     49  N   UNL A   1      41.852  27.909  30.204  1.00  0.00    -0.354 N 
ATOM     50  C   UNL A   1      42.420  30.443  33.669  1.00  0.00     0.074 A 
ATOM     51  C   UNL A   1      41.307  31.356  33.823  1.00  0.00     0.031 C 
ATOM     52  C   UNL A   1      40.806  27.170  28.370  1.00  0.00     0.029 A 
ATOM     53  C   UNL A   1      42.032  27.042  29.151  1.00  0.00     0.049 A 
ATOM     54  H   UNL A   1      42.509  28.021  30.928  1.00  0.00     0.167 HD
ATOM     55  C   UNL A   1      43.499  30.397  34.491  1.00  0.00     0.034 A 
ATOM     56  C   UNL A   1      43.076  26.249  28.834  1.00  0.00     0.034 A 
ATOM     57  C   UNL A   1      44.596  29.474  34.318  1.00  0.00     0.049 A 
ATOM     58  C   UNL A   1      44.272  26.220  29.750  1.00  0.00     0.074 A 
ATOM     59  C   UNL A   1      45.699  29.283  35.132  1.00  0.00     0.029 A 
ATOM     60  N   UNL A   1      44.743  28.601  33.245  1.00  0.00    -0.354 N 
ATOM     61  N   UNL A   1      44.491  26.915  30.843  1.00  0.00    -0.248 NA
ATOM     62  C   UNL A   1      45.351  25.289  29.400  1.00  0.00     0.031 C 
ATOM     63  C   UNL A   1      46.551  28.364  34.509  1.00  0.00     0.029 A 
ATOM     64  C   UNL A   1      45.940  27.907  33.351  1.00  0.00     0.049 A 
ATOM     65  H   UNL A   1      44.092  28.492  32.514  1.00  0.00     0.167 HD
ATOM     66  C   UNL A   1      45.728  26.490  31.322  1.00  0.00     0.074 A 
ATOM     67  C   UNL A   1      46.193  25.466  30.408  1.00  0.00     0.031 C 
ATOM     68  C   UNL A   1      46.410  26.906  32.420  1.00  0.00     0.034 A 
BRANCH  55  69
ATOM     69  C   UNL A   1      43.553  31.401  35.623  1.00  0.00     0.023 A 
ATOM     70  C   UNL A   1      44.223  32.632  35.493  1.00  0.00     0.031 A 
ATOM     71  C   UNL A   1      42.972  31.102  36.868  1.00  0.00     0.131 A 
ATOM     72  C   UNL A   1      44.384  33.464  36.610  1.00  0.00     0.055 A 
ATOM     73  C   UNL A   1      43.051  31.981  37.950  1.00  0.00     0.041 A 
ATOM     74  F   UNL A   1      42.335  29.937  37.064  1.00  0.00    -0.206 F 
ATOM     75  C   UNL A   1      43.780  33.161  37.832  1.00  0.00     0.022 A 
BRANCH  72  76
ATOM     76  S   UNL A   1      45.552  34.847  36.494  1.00  0.00     0.124 S 
ATOM     77  O   UNL A   1      45.531  35.133  35.061  1.00  0.00    -0.237 OA
ATOM     78  O   UNL A   1      44.938  35.851  37.356  1.00  0.00    -0.237 OA
ATOM     79  O   UNL A   1      46.805  34.280  36.989  1.00  0.00    -0.744 OA
ENDBRANCH  72  76
ENDBRANCH  55  69
BRANCH  56  80
ATOM     80  C   UNL A   1      43.042  25.446  27.578  1.00  0.00     0.023 A 
ATOM     81  C   UNL A   1      42.519  24.144  27.554  1.00  0.00     0.031 A 
ATOM     82  C   UNL A   1      43.538  25.981  26.375  1.00  0.00     0.131 A 
ATOM     83  C   UNL A   1      42.528  23.410  26.357  1.00  0.00     0.055 A 
ATOM     84  C   UNL A   1      43.497  25.266  25.176  1.00  0.00     0.041 A 
ATOM     85  F   UNL A   1      44.042  27.224  26.342  1.00  0.00    -0.206 F 
ATOM     86  C   UNL A   1      42.998  23.968  25.165  1.00  0.00     0.022 A 
BRANCH  83  87
ATOM     87  S   UNL A   1      41.962  21.686  26.385  1.00  0.00     0.124 S 
ATOM     88  O   UNL A   1      42.268  21.296  27.757  1.00  0.00    -0.237 OA
ATOM     89  O   UNL A   1      40.547  21.826  26.058  1.00  0.00    -0.237 OA
ATOM     90  O   UNL A   1      42.777  21.044  25.356  1.00  0.00    -0.744 OA
ENDBRANCH  83  87
ENDBRANCH  56  80
BRANCH  68  91
ATOM     91  C   UNL A   1      47.728  26.225  32.709  1.00  0.00     0.023 A 
ATOM     92  C   UNL A   1      47.812  25.088  33.532  1.00  0.00     0.031 A 
ATOM     93  C   UNL A   1      48.920  26.727  32.157  1.00  0.00     0.131 A 
ATOM     94  C   UNL A   1      49.065  24.527  33.826  1.00  0.00     0.055 A 
ATOM     95  C   UNL A   1      50.156  26.123  32.396  1.00  0.00     0.041 A 
ATOM     96  F   UNL A   1      48.904  27.814  31.368  1.00  0.00    -0.206 F 
ATOM     97  C   UNL A   1      50.234  25.024  33.246  1.00  0.00     0.022 A 
BRANCH  94  98
ATOM     98  S   UNL A   1      49.158  23.199  35.059  1.00  0.00     0.124 S 
ATOM     99  O   UNL A   1      48.690  23.874  36.265  1.00  0.00    -0.237 OA
ATOM    100  O   UNL A   1      48.262  22.192  34.502  1.00  0.00    -0.237 OA
ATOM    101  O   UNL A   1      50.574  22.835  35.062  1.00  0.00    -0.744 OA
ENDBRANCH  94  98
ENDBRANCH  68  91
ENDBRANCH  42  43
ENDBRANCH  34  37
ENDBRANCH  32  33
ENDBRANCH  31  32
ENDBRANCH  30  31
ENDBRANCH   1  30
TORSDOF 21
ENDMDL
