MODEL 1
REMARK VINA RESULT:     -11.3      0.000      0.000
REMARK SMILES Cc1cc(C(=O)N2C[C@@H](C(=O)NCCCCCCNC(=O)c3ccc(-c4c5nc(c(-c6cc(S(=O)(=O)[O-])ccc6F)c6ccc([nH]6)c(-c6cc(S(=O)(=O)[O-])ccc6F)c6nc(c(-c7cc(S(=O)(=O)[O-])ccc7F)c7ccc4[nH]7)C=C6)C=C5)cc3)[C@H](C3CC3)C2)sc1C
REMARK SMILES IDX 16 1 15 2 14 3 13 4 12 5 10 6 11 7 9 9 7 10 8 11 89 12 85 13
REMARK SMILES IDX 5 14 6 15 4 16 1 17 2 18 3 19 91 20 90 21 92 22 86 23 87 24
REMARK SMILES IDX 88 25 17 26 18 27 19 28 20 29 21 31 22 32 23 33 84 34 24 35
REMARK SMILES IDX 83 36 25 37 26 38 27 39 77 40 28 41 82 42 76 43 78 44 29 45
REMARK SMILES IDX 81 46 75 47 74 48 30 50 62 51 42 52 61 53 43 54 46 55 60 56
REMARK SMILES IDX 79 57 44 58 45 59 59 61 80 62 47 63 31 64 32 65 40 66 33 67
REMARK SMILES IDX 39 68 41 69 38 70 34 71 35 72 36 73 37 74 63 75 64 76 72 77
REMARK SMILES IDX 65 78 71 79 73 80 70 81 66 82 67 83 68 84 69 85 48 86 49 87
REMARK SMILES IDX 57 88 50 89 56 90 58 91 55 92 51 93 52 94 53 95 54 96
REMARK H PARENT 12 8 19 30 78 49 46 60
REMARK Flexibility Score: inf
ROOT
ATOM      1  C   UNL A   1      31.776  29.105  25.950  1.00  0.00     0.002 C 
ENDROOT
BRANCH   1   2
ATOM      2  C   UNL A   1      33.128  28.472  25.607  1.00  0.00     0.002 C 
BRANCH   2   3
ATOM      3  C   UNL A   1      33.718  28.838  24.244  1.00  0.00     0.021 C 
BRANCH   3   4
ATOM      4  C   UNL A   1      32.734  28.845  23.082  1.00  0.00     0.116 C 
BRANCH   4   5
ATOM      5  N   UNL A   1      33.056  27.895  22.036  1.00  0.00    -0.356 N 
ATOM      6  C   UNL A   1      32.920  26.537  22.033  1.00  0.00     0.225 C 
ATOM      7  O   UNL A   1      33.144  25.935  20.980  1.00  0.00    -0.275 OA
ATOM      8  H   UNL A   1      33.426  28.284  21.211  1.00  0.00     0.163 HD
BRANCH   6   9
ATOM      9  C   UNL A   1      32.521  25.803  23.300  1.00  0.00     0.103 C 
ATOM     10  N   UNL A   1      32.382  23.696  24.263  1.00  0.00    -0.337 N 
ATOM     11  C   UNL A   1      33.194  24.431  23.315  1.00  0.00     0.133 C 
ATOM     12  C   UNL A   1      30.997  24.084  24.120  1.00  0.00     0.124 C 
ATOM     13  C   UNL A   1      31.016  25.439  23.370  1.00  0.00     0.026 C 
BRANCH  10  14
ATOM     14  C   UNL A   1      32.739  22.783  25.239  1.00  0.00     0.263 C 
ATOM     15  O   UNL A   1      33.068  23.203  26.352  1.00  0.00    -0.268 OA
BRANCH  14  16
ATOM     16  C   UNL A   1      32.840  21.359  24.922  1.00  0.00     0.093 A 
ATOM     17  C   UNL A   1      32.280  18.555  22.463  1.00  0.00     0.045 C 
ATOM     18  C   UNL A   1      32.573  19.368  23.681  1.00  0.00    -0.037 A 
ATOM     19  C   UNL A   1      32.658  20.800  23.669  1.00  0.00     0.029 A 
ATOM     20  C   UNL A   1      32.752  18.877  24.963  1.00  0.00     0.005 A 
ATOM     21  S   UNL A   1      32.924  20.132  26.107  1.00  0.00    -0.135 S 
ATOM     22  C   UNL A   1      32.746  17.458  25.428  1.00  0.00     0.056 C 
ENDBRANCH  14  16
ENDBRANCH  10  14
BRANCH  13  23
ATOM     23  C   UNL A   1      30.075  26.408  24.054  1.00  0.00    -0.005 C 
ATOM     24  C   UNL A   1      29.428  27.600  23.391  1.00  0.00     0.004 C 
ATOM     25  C   UNL A   1      28.597  26.404  23.773  1.00  0.00     0.004 C 
ENDBRANCH  13  23
ENDBRANCH   6   9
ENDBRANCH   4   5
ENDBRANCH   3   4
ENDBRANCH   2   3
ENDBRANCH   1   2
BRANCH   1  26
ATOM     26  C   UNL A   1      31.752  30.631  26.057  1.00  0.00     0.021 C 
BRANCH  26  27
ATOM     27  C   UNL A   1      32.751  31.239  27.036  1.00  0.00     0.116 C 
BRANCH  27  28
ATOM     28  N   UNL A   1      32.541  32.662  27.235  1.00  0.00    -0.352 N 
ATOM     29  C   UNL A   1      33.211  33.539  28.052  1.00  0.00     0.251 C 
ATOM     30  H   UNL A   1      31.810  33.055  26.707  1.00  0.00     0.163 HD
ATOM     31  O   UNL A   1      32.770  34.672  28.212  1.00  0.00    -0.269 OA
BRANCH  29  32
ATOM     32  C   UNL A   1      34.440  33.110  28.755  1.00  0.00     0.039 A 
ATOM     33  C   UNL A   1      34.318  32.399  29.951  1.00  0.00     0.014 A 
ATOM     34  C   UNL A   1      35.708  33.413  28.248  1.00  0.00     0.014 A 
ATOM     35  C   UNL A   1      35.463  31.940  30.606  1.00  0.00     0.010 A 
ATOM     36  C   UNL A   1      36.844  32.889  28.862  1.00  0.00     0.010 A 
ATOM     37  C   UNL A   1      36.735  32.150  30.050  1.00  0.00    -0.014 A 
BRANCH  37  38
ATOM     38  C   UNL A   1      37.959  31.613  30.702  1.00  0.00     0.031 A 
ATOM     39  C   UNL A   1      38.793  30.573  30.004  1.00  0.00     0.074 A 
ATOM     40  C   UNL A   1      38.290  32.024  31.943  1.00  0.00     0.049 A 
ATOM     41  N   UNL A   1      39.849  29.932  30.434  1.00  0.00    -0.248 NA
ATOM     42  C   UNL A   1      38.364  30.182  28.652  1.00  0.00     0.031 C 
ATOM     43  C   UNL A   1      37.543  33.005  32.733  1.00  0.00     0.029 A 
ATOM     44  N   UNL A   1      39.333  31.666  32.761  1.00  0.00    -0.354 N 
ATOM     45  C   UNL A   1      40.205  29.056  29.412  1.00  0.00     0.074 A 
ATOM     46  C   UNL A   1      39.211  29.204  28.371  1.00  0.00     0.031 C 
ATOM     47  C   UNL A   1      38.167  33.191  33.907  1.00  0.00     0.029 A 
ATOM     48  C   UNL A   1      39.325  32.305  33.980  1.00  0.00     0.049 A 
ATOM     49  H   UNL A   1      40.022  31.014  32.499  1.00  0.00     0.167 HD
ATOM     50  C   UNL A   1      41.275  28.226  29.341  1.00  0.00     0.034 A 
ATOM     51  C   UNL A   1      40.146  32.180  35.041  1.00  0.00     0.034 A 
ATOM     52  C   UNL A   1      42.260  28.095  30.387  1.00  0.00     0.049 A 
ATOM     53  C   UNL A   1      41.303  31.215  34.956  1.00  0.00     0.074 A 
ATOM     54  C   UNL A   1      43.407  27.321  30.400  1.00  0.00     0.029 A 
ATOM     55  N   UNL A   1      42.210  28.747  31.614  1.00  0.00    -0.354 N 
ATOM     56  N   UNL A   1      41.653  30.429  33.963  1.00  0.00    -0.248 NA
ATOM     57  C   UNL A   1      42.179  31.127  36.131  1.00  0.00     0.031 C 
ATOM     58  C   UNL A   1      44.004  27.440  31.658  1.00  0.00     0.029 A 
ATOM     59  C   UNL A   1      43.285  28.360  32.403  1.00  0.00     0.049 A 
ATOM     60  H   UNL A   1      41.514  29.388  31.884  1.00  0.00     0.167 HD
ATOM     61  C   UNL A   1      42.810  29.779  34.384  1.00  0.00     0.074 A 
ATOM     62  C   UNL A   1      43.106  30.278  35.711  1.00  0.00     0.031 C 
ATOM     63  C   UNL A   1      43.563  28.856  33.731  1.00  0.00     0.034 A 
BRANCH  50  64
ATOM     64  C   UNL A   1      41.413  27.373  28.100  1.00  0.00     0.023 A 
ATOM     65  C   UNL A   1      41.021  26.022  28.084  1.00  0.00     0.031 A 
ATOM     66  C   UNL A   1      41.966  27.908  26.923  1.00  0.00     0.131 A 
ATOM     67  C   UNL A   1      41.261  25.235  26.947  1.00  0.00     0.055 A 
ATOM     68  C   UNL A   1      42.119  27.143  25.765  1.00  0.00     0.041 A 
ATOM     69  F   UNL A   1      42.381  29.184  26.882  1.00  0.00    -0.206 F 
ATOM     70  C   UNL A   1      41.782  25.793  25.778  1.00  0.00     0.022 A 
BRANCH  67  71
ATOM     71  S   UNL A   1      41.030  23.441  27.073  1.00  0.00     0.124 S 
ATOM     72  O   UNL A   1      41.754  22.968  25.896  1.00  0.00    -0.237 OA
ATOM     73  O   UNL A   1      41.636  23.134  28.363  1.00  0.00    -0.237 OA
ATOM     74  O   UNL A   1      39.579  23.277  27.009  1.00  0.00    -0.744 OA
ENDBRANCH  67  71
ENDBRANCH  50  64
BRANCH  51  75
ATOM     75  C   UNL A   1      39.905  32.971  36.283  1.00  0.00     0.023 A 
ATOM     76  C   UNL A   1      39.035  32.505  37.282  1.00  0.00     0.031 A 
ATOM     77  C   UNL A   1      40.503  34.231  36.468  1.00  0.00     0.131 A 
ATOM     78  C   UNL A   1      38.747  33.314  38.393  1.00  0.00     0.055 A 
ATOM     79  C   UNL A   1      40.262  35.004  37.605  1.00  0.00     0.041 A 
ATOM     80  F   UNL A   1      41.345  34.726  35.547  1.00  0.00    -0.206 F 
ATOM     81  C   UNL A   1      39.367  34.552  38.570  1.00  0.00     0.022 A 
BRANCH  78  82
ATOM     82  S   UNL A   1      37.471  32.763  39.558  1.00  0.00     0.124 S 
ATOM     83  O   UNL A   1      37.981  31.456  39.959  1.00  0.00    -0.237 OA
ATOM     84  O   UNL A   1      37.515  33.810  40.574  1.00  0.00    -0.237 OA
ATOM     85  O   UNL A   1      36.257  32.737  38.746  1.00  0.00    -0.744 OA
ENDBRANCH  78  82
ENDBRANCH  51  75
BRANCH  63  86
ATOM     86  C   UNL A   1      44.808  28.363  34.431  1.00  0.00     0.023 A 
ATOM     87  C   UNL A   1      44.797  27.220  35.249  1.00  0.00     0.031 A 
ATOM     88  C   UNL A   1      46.023  29.057  34.282  1.00  0.00     0.131 A 
ATOM     89  C   UNL A   1      45.961  26.840  35.935  1.00  0.00     0.055 A 
ATOM     90  C   UNL A   1      47.194  28.634  34.912  1.00  0.00     0.041 A 
ATOM     91  F   UNL A   1      46.092  30.158  33.518  1.00  0.00    -0.206 F 
ATOM     92  C   UNL A   1      47.165  27.527  35.755  1.00  0.00     0.022 A 
BRANCH  89  93
ATOM     93  S   UNL A   1      45.857  25.495  37.147  1.00  0.00     0.124 S 
ATOM     94  O   UNL A   1      45.614  24.337  36.294  1.00  0.00    -0.237 OA
ATOM     95  O   UNL A   1      47.168  25.550  37.788  1.00  0.00    -0.237 OA
ATOM     96  O   UNL A   1      44.736  25.886  37.999  1.00  0.00    -0.744 OA
ENDBRANCH  89  93
ENDBRANCH  63  86
ENDBRANCH  37  38
ENDBRANCH  29  32
ENDBRANCH  27  28
ENDBRANCH  26  27
ENDBRANCH   1  26
TORSDOF 19
ENDMDL
MODEL 2
REMARK VINA RESULT:     -11.2      1.805      2.103
REMARK SMILES Cc1cc(C(=O)N2C[C@@H](C(=O)NCCCCCCNC(=O)c3ccc(-c4c5nc(c(-c6cc(S(=O)(=O)[O-])ccc6F)c6ccc([nH]6)c(-c6cc(S(=O)(=O)[O-])ccc6F)c6nc(c(-c7cc(S(=O)(=O)[O-])ccc7F)c7ccc4[nH]7)C=C6)C=C5)cc3)[C@H](C3CC3)C2)sc1C
REMARK SMILES IDX 16 1 15 2 14 3 13 4 12 5 10 6 11 7 9 9 7 10 8 11 89 12 85 13
REMARK SMILES IDX 5 14 6 15 4 16 1 17 2 18 3 19 91 20 90 21 92 22 86 23 87 24
REMARK SMILES IDX 88 25 17 26 18 27 19 28 20 29 21 31 22 32 23 33 84 34 24 35
REMARK SMILES IDX 83 36 25 37 26 38 27 39 77 40 28 41 82 42 76 43 78 44 29 45
REMARK SMILES IDX 81 46 75 47 74 48 30 50 62 51 42 52 61 53 43 54 46 55 60 56
REMARK SMILES IDX 79 57 44 58 45 59 59 61 80 62 47 63 31 64 32 65 40 66 33 67
REMARK SMILES IDX 39 68 41 69 38 70 34 71 35 72 36 73 37 74 63 75 64 76 72 77
REMARK SMILES IDX 65 78 71 79 73 80 70 81 66 82 67 83 68 84 69 85 48 86 49 87
REMARK SMILES IDX 57 88 50 89 56 90 58 91 55 92 51 93 52 94 53 95 54 96
REMARK H PARENT 12 8 19 30 78 49 46 60
REMARK Flexibility Score: inf
ROOT
ATOM      1  C   UNL A   1      31.853  29.252  26.691  1.00  0.00     0.002 C 
ENDROOT
BRANCH   1   2
ATOM      2  C   UNL A   1      32.881  28.439  25.898  1.00  0.00     0.002 C 
BRANCH   2   3
ATOM      3  C   UNL A   1      33.368  29.060  24.588  1.00  0.00     0.021 C 
BRANCH   3   4
ATOM      4  C   UNL A   1      32.449  28.868  23.389  1.00  0.00     0.116 C 
BRANCH   4   5
ATOM      5  N   UNL A   1      33.006  28.019  22.355  1.00  0.00    -0.356 N 
ATOM      6  C   UNL A   1      32.992  26.658  22.257  1.00  0.00     0.225 C 
ATOM      7  O   UNL A   1      33.423  26.148  21.220  1.00  0.00    -0.275 OA
ATOM      8  H   UNL A   1      33.457  28.491  21.618  1.00  0.00     0.163 HD
BRANCH   6   9
ATOM      9  C   UNL A   1      32.477  25.812  23.407  1.00  0.00     0.103 C 
ATOM     10  N   UNL A   1      32.162  23.622  24.108  1.00  0.00    -0.337 N 
ATOM     11  C   UNL A   1      33.069  24.407  23.298  1.00  0.00     0.133 C 
ATOM     12  C   UNL A   1      30.812  24.110  23.937  1.00  0.00     0.124 C 
ATOM     13  C   UNL A   1      30.953  25.537  23.353  1.00  0.00     0.026 C 
BRANCH  10  14
ATOM     14  C   UNL A   1      32.408  22.583  24.988  1.00  0.00     0.263 C 
ATOM     15  O   UNL A   1      32.319  22.800  26.200  1.00  0.00    -0.268 OA
BRANCH  14  16
ATOM     16  C   UNL A   1      32.878  21.289  24.496  1.00  0.00     0.093 A 
ATOM     17  C   UNL A   1      32.257  18.215  22.402  1.00  0.00     0.045 C 
ATOM     18  C   UNL A   1      32.806  19.220  23.361  1.00  0.00    -0.037 A 
ATOM     19  C   UNL A   1      32.293  20.555  23.479  1.00  0.00     0.029 A 
ATOM     20  C   UNL A   1      33.821  19.002  24.275  1.00  0.00     0.005 A 
ATOM     21  S   UNL A   1      34.065  20.352  25.291  1.00  0.00    -0.135 S 
ATOM     22  C   UNL A   1      34.631  17.766  24.493  1.00  0.00     0.056 C 
ENDBRANCH  14  16
ENDBRANCH  10  14
BRANCH  13  23
ATOM     23  C   UNL A   1      30.027  26.480  24.094  1.00  0.00    -0.005 C 
ATOM     24  C   UNL A   1      29.392  27.714  23.501  1.00  0.00     0.004 C 
ATOM     25  C   UNL A   1      28.548  26.509  23.821  1.00  0.00     0.004 C 
ENDBRANCH  13  23
ENDBRANCH   6   9
ENDBRANCH   4   5
ENDBRANCH   3   4
ENDBRANCH   2   3
ENDBRANCH   1   2
BRANCH   1  26
ATOM     26  C   UNL A   1      31.903  30.770  26.506  1.00  0.00     0.021 C 
BRANCH  26  27
ATOM     27  C   UNL A   1      33.079  31.476  27.171  1.00  0.00     0.116 C 
BRANCH  27  28
ATOM     28  N   UNL A   1      32.814  32.880  27.428  1.00  0.00    -0.352 N 
ATOM     29  C   UNL A   1      33.395  33.729  28.337  1.00  0.00     0.251 C 
ATOM     30  H   UNL A   1      32.113  33.283  26.867  1.00  0.00     0.163 HD
ATOM     31  O   UNL A   1      32.910  34.840  28.522  1.00  0.00    -0.269 OA
BRANCH  29  32
ATOM     32  C   UNL A   1      34.581  33.294  29.107  1.00  0.00     0.039 A 
ATOM     33  C   UNL A   1      34.397  32.455  30.210  1.00  0.00     0.014 A 
ATOM     34  C   UNL A   1      35.868  33.715  28.757  1.00  0.00     0.014 A 
ATOM     35  C   UNL A   1      35.505  31.991  30.922  1.00  0.00     0.010 A 
ATOM     36  C   UNL A   1      36.975  33.190  29.421  1.00  0.00     0.010 A 
ATOM     37  C   UNL A   1      36.806  32.325  30.513  1.00  0.00    -0.014 A 
BRANCH  37  38
ATOM     38  C   UNL A   1      37.999  31.789  31.222  1.00  0.00     0.031 A 
ATOM     39  C   UNL A   1      38.833  30.708  30.587  1.00  0.00     0.074 A 
ATOM     40  C   UNL A   1      38.298  32.236  32.458  1.00  0.00     0.049 A 
ATOM     41  N   UNL A   1      39.861  30.063  31.072  1.00  0.00    -0.248 NA
ATOM     42  C   UNL A   1      38.438  30.280  29.236  1.00  0.00     0.031 C 
ATOM     43  C   UNL A   1      37.547  33.258  33.190  1.00  0.00     0.029 A 
ATOM     44  N   UNL A   1      39.308  31.887  33.321  1.00  0.00    -0.354 N 
ATOM     45  C   UNL A   1      40.231  29.146  30.093  1.00  0.00     0.074 A 
ATOM     46  C   UNL A   1      39.274  29.276  29.017  1.00  0.00     0.031 C 
ATOM     47  C   UNL A   1      38.138  33.473  34.376  1.00  0.00     0.029 A 
ATOM     48  C   UNL A   1      39.275  32.568  34.516  1.00  0.00     0.049 A 
ATOM     49  H   UNL A   1      39.991  31.213  33.103  1.00  0.00     0.167 HD
ATOM     50  C   UNL A   1      41.286  28.293  30.084  1.00  0.00     0.034 A 
ATOM     51  C   UNL A   1      40.060  32.464  35.607  1.00  0.00     0.034 A 
ATOM     52  C   UNL A   1      42.235  28.180  31.166  1.00  0.00     0.049 A 
ATOM     53  C   UNL A   1      41.198  31.475  35.593  1.00  0.00     0.074 A 
ATOM     54  C   UNL A   1      43.365  27.385  31.242  1.00  0.00     0.029 A 
ATOM     55  N   UNL A   1      42.160  28.875  32.367  1.00  0.00    -0.354 N 
ATOM     56  N   UNL A   1      41.563  30.648  34.639  1.00  0.00    -0.248 NA
ATOM     57  C   UNL A   1      42.035  31.411  36.797  1.00  0.00     0.031 C 
ATOM     58  C   UNL A   1      43.925  27.537  32.514  1.00  0.00     0.029 A 
ATOM     59  C   UNL A   1      43.201  28.495  33.203  1.00  0.00     0.049 A 
ATOM     60  H   UNL A   1      41.469  29.538  32.593  1.00  0.00     0.167 HD
ATOM     61  C   UNL A   1      42.693  29.991  35.119  1.00  0.00     0.074 A 
ATOM     62  C   UNL A   1      42.958  30.531  36.436  1.00  0.00     0.031 C 
ATOM     63  C   UNL A   1      43.447  29.032  34.522  1.00  0.00     0.034 A 
BRANCH  50  64
ATOM     64  C   UNL A   1      41.446  27.394  28.879  1.00  0.00     0.023 A 
ATOM     65  C   UNL A   1      42.440  27.624  27.911  1.00  0.00     0.031 A 
ATOM     66  C   UNL A   1      40.577  26.306  28.680  1.00  0.00     0.131 A 
ATOM     67  C   UNL A   1      42.490  26.832  26.755  1.00  0.00     0.055 A 
ATOM     68  C   UNL A   1      40.690  25.466  27.571  1.00  0.00     0.041 A 
ATOM     69  F   UNL A   1      39.593  26.048  29.555  1.00  0.00    -0.206 F 
ATOM     70  C   UNL A   1      41.641  25.736  26.591  1.00  0.00     0.022 A 
BRANCH  67  71
ATOM     71  S   UNL A   1      43.577  27.350  25.398  1.00  0.00     0.124 S 
ATOM     72  O   UNL A   1      44.374  28.392  26.042  1.00  0.00    -0.237 OA
ATOM     73  O   UNL A   1      44.282  26.117  25.069  1.00  0.00    -0.237 OA
ATOM     74  O   UNL A   1      42.646  27.830  24.378  1.00  0.00    -0.744 OA
ENDBRANCH  67  71
ENDBRANCH  50  64
BRANCH  51  75
ATOM     75  C   UNL A   1      39.795  33.303  36.813  1.00  0.00     0.023 A 
ATOM     76  C   UNL A   1      39.063  32.799  37.900  1.00  0.00     0.031 A 
ATOM     77  C   UNL A   1      40.229  34.640  36.876  1.00  0.00     0.131 A 
ATOM     78  C   UNL A   1      38.742  33.639  38.977  1.00  0.00     0.055 A 
ATOM     79  C   UNL A   1      39.960  35.453  37.978  1.00  0.00     0.041 A 
ATOM     80  F   UNL A   1      40.935  35.174  35.866  1.00  0.00    -0.206 F 
ATOM     81  C   UNL A   1      39.200  34.958  39.032  1.00  0.00     0.022 A 
BRANCH  78  82
ATOM     82  S   UNL A   1      37.631  33.011  40.266  1.00  0.00     0.124 S 
ATOM     83  O   UNL A   1      36.398  32.800  39.516  1.00  0.00    -0.237 OA
ATOM     84  O   UNL A   1      38.329  31.808  40.709  1.00  0.00    -0.237 OA
ATOM     85  O   UNL A   1      37.591  34.099  41.240  1.00  0.00    -0.744 OA
ENDBRANCH  78  82
ENDBRANCH  51  75
BRANCH  63  86
ATOM     86  C   UNL A   1      44.660  28.540  35.277  1.00  0.00     0.023 A 
ATOM     87  C   UNL A   1      45.918  29.154  35.142  1.00  0.00     0.031 A 
ATOM     88  C   UNL A   1      44.554  27.433  36.139  1.00  0.00     0.131 A 
ATOM     89  C   UNL A   1      47.031  28.619  35.809  1.00  0.00     0.055 A 
ATOM     90  C   UNL A   1      45.651  26.949  36.854  1.00  0.00     0.041 A 
ATOM     91  F   UNL A   1      43.379  26.805  36.304  1.00  0.00    -0.206 F 
ATOM     92  C   UNL A   1      46.901  27.534  36.681  1.00  0.00     0.022 A 
BRANCH  89  93
ATOM     93  S   UNL A   1      48.673  29.297  35.444  1.00  0.00     0.124 S 
ATOM     94  O   UNL A   1      49.553  28.266  35.984  1.00  0.00    -0.237 OA
ATOM     95  O   UNL A   1      48.647  29.413  33.989  1.00  0.00    -0.237 OA
ATOM     96  O   UNL A   1      48.689  30.567  36.166  1.00  0.00    -0.744 OA
ENDBRANCH  89  93
ENDBRANCH  63  86
ENDBRANCH  37  38
ENDBRANCH  29  32
ENDBRANCH  27  28
ENDBRANCH  26  27
ENDBRANCH   1  26
TORSDOF 19
ENDMDL
MODEL 3
REMARK VINA RESULT:     -11.1      2.045      7.760
REMARK SMILES Cc1cc(C(=O)N2C[C@@H](C(=O)NCCCCCCNC(=O)c3ccc(-c4c5nc(c(-c6cc(S(=O)(=O)[O-])ccc6F)c6ccc([nH]6)c(-c6cc(S(=O)(=O)[O-])ccc6F)c6nc(c(-c7cc(S(=O)(=O)[O-])ccc7F)c7ccc4[nH]7)C=C6)C=C5)cc3)[C@H](C3CC3)C2)sc1C
REMARK SMILES IDX 16 1 15 2 14 3 13 4 12 5 10 6 11 7 9 9 7 10 8 11 89 12 85 13
REMARK SMILES IDX 5 14 6 15 4 16 1 17 2 18 3 19 91 20 90 21 92 22 86 23 87 24
REMARK SMILES IDX 88 25 17 26 18 27 19 28 20 29 21 31 22 32 23 33 84 34 24 35
REMARK SMILES IDX 83 36 25 37 26 38 27 39 77 40 28 41 82 42 76 43 78 44 29 45
REMARK SMILES IDX 81 46 75 47 74 48 30 50 62 51 42 52 61 53 43 54 46 55 60 56
REMARK SMILES IDX 79 57 44 58 45 59 59 61 80 62 47 63 31 64 32 65 40 66 33 67
REMARK SMILES IDX 39 68 41 69 38 70 34 71 35 72 36 73 37 74 63 75 64 76 72 77
REMARK SMILES IDX 65 78 71 79 73 80 70 81 66 82 67 83 68 84 69 85 48 86 49 87
REMARK SMILES IDX 57 88 50 89 56 90 58 91 55 92 51 93 52 94 53 95 54 96
REMARK H PARENT 12 8 19 30 78 49 46 60
REMARK Flexibility Score: inf
ROOT
ATOM      1  C   UNL A   1      35.183  32.528  28.356  1.00  0.00     0.002 C 
ENDROOT
BRANCH   1   2
ATOM      2  C   UNL A   1      34.823  31.054  28.573  1.00  0.00     0.002 C 
BRANCH   2   3
ATOM      3  C   UNL A   1      35.273  30.082  27.482  1.00  0.00     0.021 C 
BRANCH   3   4
ATOM      4  C   UNL A   1      34.165  29.264  26.833  1.00  0.00     0.116 C 
BRANCH   4   5
ATOM      5  N   UNL A   1      34.369  29.021  25.418  1.00  0.00    -0.356 N 
ATOM      6  C   UNL A   1      33.740  28.130  24.598  1.00  0.00     0.225 C 
ATOM      7  O   UNL A   1      33.988  28.180  23.391  1.00  0.00    -0.275 OA
ATOM      8  H   UNL A   1      35.058  29.578  24.989  1.00  0.00     0.163 HD
BRANCH   6   9
ATOM      9  C   UNL A   1      32.782  27.103  25.172  1.00  0.00     0.103 C 
ATOM     10  N   UNL A   1      32.450  24.823  25.454  1.00  0.00    -0.337 N 
ATOM     11  C   UNL A   1      33.529  25.786  25.384  1.00  0.00     0.133 C 
ATOM     12  C   UNL A   1      31.406  25.195  24.526  1.00  0.00     0.124 C 
ATOM     13  C   UNL A   1      31.646  26.690  24.202  1.00  0.00     0.026 C 
BRANCH  10  14
ATOM     14  C   UNL A   1      32.284  23.712  26.263  1.00  0.00     0.263 C 
ATOM     15  O   UNL A   1      31.658  23.837  27.319  1.00  0.00    -0.268 OA
BRANCH  14  16
ATOM     16  C   UNL A   1      32.939  22.448  25.930  1.00  0.00     0.093 A 
ATOM     17  C   UNL A   1      36.108  20.571  25.121  1.00  0.00     0.045 C 
ATOM     18  C   UNL A   1      34.686  20.978  25.329  1.00  0.00    -0.037 A 
ATOM     19  C   UNL A   1      34.305  22.228  25.923  1.00  0.00     0.029 A 
ATOM     20  C   UNL A   1      33.569  20.255  24.950  1.00  0.00     0.005 A 
ATOM     21  S   UNL A   1      32.124  21.120  25.229  1.00  0.00    -0.135 S 
ATOM     22  C   UNL A   1      33.504  18.910  24.303  1.00  0.00     0.056 C 
ENDBRANCH  14  16
ENDBRANCH  10  14
BRANCH  13  23
ATOM     23  C   UNL A   1      30.332  27.439  24.276  1.00  0.00    -0.005 C 
ATOM     24  C   UNL A   1      29.623  28.062  23.097  1.00  0.00     0.004 C 
ATOM     25  C   UNL A   1      29.051  26.838  23.762  1.00  0.00     0.004 C 
ENDBRANCH  13  23
ENDBRANCH   6   9
ENDBRANCH   4   5
ENDBRANCH   3   4
ENDBRANCH   2   3
ENDBRANCH   1   2
BRANCH   1  26
ATOM     26  C   UNL A   1      34.020  33.467  28.033  1.00  0.00     0.021 C 
BRANCH  26  27
ATOM     27  C   UNL A   1      34.226  34.928  28.420  1.00  0.00     0.116 C 
BRANCH  27  28
ATOM     28  N   UNL A   1      33.399  35.328  29.545  1.00  0.00    -0.352 N 
ATOM     29  C   UNL A   1      33.514  35.002  30.874  1.00  0.00     0.251 C 
ATOM     30  H   UNL A   1      32.646  35.921  29.322  1.00  0.00     0.163 HD
ATOM     31  O   UNL A   1      32.611  35.300  31.649  1.00  0.00    -0.269 OA
BRANCH  29  32
ATOM     32  C   UNL A   1      34.705  34.271  31.361  1.00  0.00     0.039 A 
ATOM     33  C   UNL A   1      34.526  33.037  31.991  1.00  0.00     0.014 A 
ATOM     34  C   UNL A   1      35.991  34.798  31.209  1.00  0.00     0.014 A 
ATOM     35  C   UNL A   1      35.638  32.306  32.415  1.00  0.00     0.010 A 
ATOM     36  C   UNL A   1      37.101  34.033  31.562  1.00  0.00     0.010 A 
ATOM     37  C   UNL A   1      36.937  32.780  32.172  1.00  0.00    -0.014 A 
BRANCH  37  38
ATOM     38  C   UNL A   1      38.133  31.984  32.559  1.00  0.00     0.031 A 
ATOM     39  C   UNL A   1      38.857  32.285  33.843  1.00  0.00     0.074 A 
ATOM     40  C   UNL A   1      38.596  31.028  31.729  1.00  0.00     0.049 A 
ATOM     41  N   UNL A   1      39.955  31.756  34.319  1.00  0.00    -0.248 NA
ATOM     42  C   UNL A   1      38.284  33.342  34.691  1.00  0.00     0.031 C 
ATOM     43  C   UNL A   1      37.998  30.665  30.442  1.00  0.00     0.029 A 
ATOM     44  N   UNL A   1      39.678  30.190  31.838  1.00  0.00    -0.354 N 
ATOM     45  C   UNL A   1      40.210  32.421  35.515  1.00  0.00     0.074 A 
ATOM     46  C   UNL A   1      39.188  33.435  35.655  1.00  0.00     0.031 C 
ATOM     47  C   UNL A   1      38.703  29.662  29.897  1.00  0.00     0.029 A 
ATOM     48  C   UNL A   1      39.834  29.345  30.762  1.00  0.00     0.049 A 
ATOM     49  H   UNL A   1      40.285  30.194  32.612  1.00  0.00     0.167 HD
ATOM     50  C   UNL A   1      41.190  32.188  36.423  1.00  0.00     0.034 A 
ATOM     51  C   UNL A   1      40.788  28.431  30.496  1.00  0.00     0.034 A 
ATOM     52  C   UNL A   1      42.199  31.168  36.269  1.00  0.00     0.049 A 
ATOM     53  C   UNL A   1      41.896  28.222  31.499  1.00  0.00     0.074 A 
ATOM     54  C   UNL A   1      43.209  30.815  37.147  1.00  0.00     0.029 A 
ATOM     55  N   UNL A   1      42.334  30.341  35.160  1.00  0.00    -0.354 N 
ATOM     56  N   UNL A   1      42.095  28.827  32.648  1.00  0.00    -0.248 NA
ATOM     57  C   UNL A   1      42.901  27.204  31.172  1.00  0.00     0.031 C 
ATOM     58  C   UNL A   1      44.001  29.837  36.537  1.00  0.00     0.029 A 
ATOM     59  C   UNL A   1      43.435  29.509  35.316  1.00  0.00     0.049 A 
ATOM     60  H   UNL A   1      41.738  30.346  34.377  1.00  0.00     0.167 HD
ATOM     61  C   UNL A   1      43.231  28.235  33.195  1.00  0.00     0.074 A 
ATOM     62  C   UNL A   1      43.660  27.217  32.259  1.00  0.00     0.031 C 
ATOM     63  C   UNL A   1      43.860  28.506  34.368  1.00  0.00     0.034 A 
BRANCH  50  64
ATOM     64  C   UNL A   1      41.234  33.077  37.645  1.00  0.00     0.023 A 
ATOM     65  C   UNL A   1      40.481  32.789  38.797  1.00  0.00     0.031 A 
ATOM     66  C   UNL A   1      42.021  34.243  37.652  1.00  0.00     0.131 A 
ATOM     67  C   UNL A   1      40.467  33.692  39.870  1.00  0.00     0.055 A 
ATOM     68  C   UNL A   1      42.073  35.092  38.759  1.00  0.00     0.041 A 
ATOM     69  F   UNL A   1      42.744  34.585  36.574  1.00  0.00    -0.206 F 
ATOM     70  C   UNL A   1      41.280  34.828  39.872  1.00  0.00     0.022 A 
BRANCH  67  71
ATOM     71  S   UNL A   1      39.253  33.442  41.195  1.00  0.00     0.124 S 
ATOM     72  O   UNL A   1      39.866  32.354  41.953  1.00  0.00    -0.237 OA
ATOM     73  O   UNL A   1      39.229  34.745  41.851  1.00  0.00    -0.237 OA
ATOM     74  O   UNL A   1      38.033  33.080  40.477  1.00  0.00    -0.744 OA
ENDBRANCH  67  71
ENDBRANCH  50  64
BRANCH  51  75
ATOM     75  C   UNL A   1      40.756  27.651  29.224  1.00  0.00     0.023 A 
ATOM     76  C   UNL A   1      41.657  27.925  28.183  1.00  0.00     0.031 A 
ATOM     77  C   UNL A   1      39.790  26.651  29.012  1.00  0.00     0.131 A 
ATOM     78  C   UNL A   1      41.540  27.246  26.959  1.00  0.00     0.055 A 
ATOM     79  C   UNL A   1      39.718  25.935  27.815  1.00  0.00     0.041 A 
ATOM     80  F   UNL A   1      38.904  26.345  29.973  1.00  0.00    -0.206 F 
ATOM     81  C   UNL A   1      40.589  26.242  26.774  1.00  0.00     0.022 A 
BRANCH  78  82
ATOM     82  S   UNL A   1      42.593  27.766  25.577  1.00  0.00     0.124 S 
ATOM     83  O   UNL A   1      41.881  28.942  25.089  1.00  0.00    -0.237 OA
ATOM     84  O   UNL A   1      43.868  28.015  26.242  1.00  0.00    -0.237 OA
ATOM     85  O   UNL A   1      42.574  26.609  24.683  1.00  0.00    -0.744 OA
ENDBRANCH  78  82
ENDBRANCH  51  75
BRANCH  63  86
ATOM     86  C   UNL A   1      45.055  27.651  34.722  1.00  0.00     0.023 A 
ATOM     87  C   UNL A   1      44.919  26.435  35.415  1.00  0.00     0.031 A 
ATOM     88  C   UNL A   1      46.351  28.067  34.366  1.00  0.00     0.131 A 
ATOM     89  C   UNL A   1      46.062  25.710  35.785  1.00  0.00     0.055 A 
ATOM     90  C   UNL A   1      47.479  27.305  34.675  1.00  0.00     0.041 A 
ATOM     91  F   UNL A   1      46.542  29.220  33.707  1.00  0.00    -0.206 F 
ATOM     92  C   UNL A   1      47.340  26.126  35.400  1.00  0.00     0.022 A 
BRANCH  89  93
ATOM     93  S   UNL A   1      45.866  24.265  36.864  1.00  0.00     0.124 S 
ATOM     94  O   UNL A   1      47.208  23.693  36.850  1.00  0.00    -0.237 OA
ATOM     95  O   UNL A   1      45.445  24.871  38.124  1.00  0.00    -0.237 OA
ATOM     96  O   UNL A   1      44.844  23.469  36.189  1.00  0.00    -0.744 OA
ENDBRANCH  89  93
ENDBRANCH  63  86
ENDBRANCH  37  38
ENDBRANCH  29  32
ENDBRANCH  27  28
ENDBRANCH  26  27
ENDBRANCH   1  26
TORSDOF 19
ENDMDL
