MODEL 1
REMARK VINA RESULT:     -11.4      0.000      0.000
REMARK SMILES Cc1c(CC(=O)N[C@H](CO)C(=O)NCCCCCCNC(=O)c2ccc(-c3c4nc(c(-c5cc(S(=O)(=O)[O-])ccc5F)c5ccc([nH]5)c(-c5cc(S(=O)(=O)[O-])ccc5F)c5nc(c(-c6cc(S(=O)(=O)[O-])ccc6F)c6ccc3[nH]6)C=C5)C=C4)cc2)cc(-c2ccc(S(C)(=O)=O)cc2)n1-c1cccc(F)c1
REMARK SMILES IDX 15 1 14 2 13 3 11 4 12 5 8 7 7 8 5 9 6 10 4 12 3 13 1 14
REMARK SMILES IDX 2 15 98 16 86 17 87 18 99 19 100 20 105 21 101 22 103 23
REMARK SMILES IDX 102 24 104 25 88 26 89 27 97 28 90 29 96 30 91 31 92 32
REMARK SMILES IDX 93 33 94 34 95 35 9 36 10 37 16 39 17 40 18 41 19 42 20 43
REMARK SMILES IDX 21 44 22 46 23 47 24 48 85 49 25 50 84 51 26 52 27 53 28 54
REMARK SMILES IDX 78 55 29 56 83 57 77 58 79 59 30 60 82 61 76 62 75 63 31 65
REMARK SMILES IDX 63 66 43 67 62 68 44 69 47 70 61 71 80 72 45 73 46 74 60 76
REMARK SMILES IDX 81 77 48 78 32 79 33 80 41 81 34 82 40 83 42 84 39 85 35 86
REMARK SMILES IDX 36 87 37 88 38 89 64 90 65 91 73 92 66 93 72 94 74 95 71 96
REMARK SMILES IDX 67 97 68 98 69 99 70 100 49 101 50 102 58 103 51 104 57 105
REMARK SMILES IDX 59 106 56 107 52 108 53 109 54 110 55 111
REMARK H PARENT 13 6 7 11 10 38 20 45 79 64 47 75
REMARK Flexibility Score: inf
ROOT
ATOM      1  C   UNL A   1      34.698  23.271  23.452  1.00  0.00     0.021 C 
ENDROOT
BRANCH   1   2
ATOM      2  C   UNL A   1      34.492  24.678  24.000  1.00  0.00     0.116 C 
BRANCH   2   3
ATOM      3  N   UNL A   1      33.169  25.127  23.634  1.00  0.00    -0.354 N 
ATOM      4  C   UNL A   1      32.537  26.264  24.047  1.00  0.00     0.244 C 
ATOM      5  O   UNL A   1      31.329  26.180  24.284  1.00  0.00    -0.273 OA
ATOM      6  H   UNL A   1      32.666  24.547  23.018  1.00  0.00     0.163 HD
BRANCH   4   7
ATOM      7  C   UNL A   1      33.314  27.567  24.317  1.00  0.00     0.197 C 
BRANCH   7   8
ATOM      8  N   UNL A   1      32.657  28.452  25.292  1.00  0.00    -0.342 N 
ATOM      9  C   UNL A   1      33.195  29.144  26.337  1.00  0.00     0.225 C 
ATOM     10  O   UNL A   1      32.429  29.823  27.026  1.00  0.00    -0.275 OA
ATOM     11  H   UNL A   1      31.685  28.560  25.174  1.00  0.00     0.164 HD
BRANCH   9  12
ATOM     12  C   UNL A   1      34.690  29.124  26.615  1.00  0.00     0.137 C 
BRANCH  12  13
ATOM     13  C   UNL A   1      35.144  30.138  27.622  1.00  0.00    -0.017 A 
ATOM     14  C   UNL A   1      37.693  29.709  27.663  1.00  0.00     0.065 C 
ATOM     15  C   UNL A   1      36.440  30.441  28.029  1.00  0.00     0.024 A 
ATOM     16  N   UNL A   1      36.382  31.528  28.903  1.00  0.00    -0.313 N 
ATOM     17  C   UNL A   1      34.279  30.982  28.362  1.00  0.00     0.033 A 
ATOM     18  C   UNL A   1      35.042  31.873  29.096  1.00  0.00     0.053 A 
BRANCH  16  19
ATOM     19  C   UNL A   1      37.485  32.194  29.505  1.00  0.00     0.049 A 
ATOM     20  C   UNL A   1      38.050  31.673  30.678  1.00  0.00     0.027 A 
ATOM     21  C   UNL A   1      37.966  33.391  28.965  1.00  0.00     0.065 A 
ATOM     22  C   UNL A   1      39.103  32.343  31.305  1.00  0.00     0.005 A 
ATOM     23  C   UNL A   1      39.005  34.052  29.611  1.00  0.00     0.125 A 
ATOM     24  C   UNL A   1      39.579  33.538  30.770  1.00  0.00     0.039 A 
ATOM     25  F   UNL A   1      39.455  35.213  29.115  1.00  0.00    -0.207 F 
ENDBRANCH  16  19
BRANCH  18  26
ATOM     26  C   UNL A   1      34.550  33.082  29.773  1.00  0.00    -0.001 A 
ATOM     27  C   UNL A   1      33.944  34.121  29.047  1.00  0.00     0.011 A 
ATOM     28  C   UNL A   1      34.605  33.177  31.169  1.00  0.00     0.011 A 
ATOM     29  C   UNL A   1      33.432  35.248  29.695  1.00  0.00     0.021 A 
ATOM     30  C   UNL A   1      34.097  34.301  31.827  1.00  0.00     0.021 A 
ATOM     31  C   UNL A   1      33.523  35.335  31.086  1.00  0.00     0.067 A 
BRANCH  31  32
ATOM     32  S   UNL A   1      32.851  36.758  31.910  1.00  0.00     0.175 S 
ATOM     33  C   UNL A   1      33.929  37.007  33.296  1.00  0.00     0.163 C 
ATOM     34  O   UNL A   1      32.980  37.882  31.022  1.00  0.00    -0.224 OA
ATOM     35  O   UNL A   1      31.547  36.374  32.453  1.00  0.00    -0.224 OA
ENDBRANCH  31  32
ENDBRANCH  18  26
ENDBRANCH  12  13
ENDBRANCH   9  12
ENDBRANCH   7   8
BRANCH   7  36
ATOM     36  C   UNL A   1      33.560  28.288  22.980  1.00  0.00     0.191 C 
BRANCH  36  37
ATOM     37  O   UNL A   1      32.979  27.591  21.883  1.00  0.00    -0.394 OA
ATOM     38  H   UNL A   1      32.760  28.221  21.179  1.00  0.00     0.210 HD
ENDBRANCH  36  37
ENDBRANCH   7  36
ENDBRANCH   4   7
ENDBRANCH   2   3
ENDBRANCH   1   2
BRANCH   1  39
ATOM     39  C   UNL A   1      35.183  22.251  24.493  1.00  0.00     0.002 C 
BRANCH  39  40
ATOM     40  C   UNL A   1      36.278  22.741  25.446  1.00  0.00     0.002 C 
BRANCH  40  41
ATOM     41  C   UNL A   1      37.725  22.407  25.052  1.00  0.00     0.021 C 
BRANCH  41  42
ATOM     42  C   UNL A   1      38.703  22.033  26.179  1.00  0.00     0.116 C 
BRANCH  42  43
ATOM     43  N   UNL A   1      39.817  21.214  25.797  1.00  0.00    -0.352 N 
ATOM     44  C   UNL A   1      41.115  21.348  26.266  1.00  0.00     0.251 C 
ATOM     45  H   UNL A   1      39.646  20.495  25.145  1.00  0.00     0.163 HD
ATOM     46  O   UNL A   1      41.960  20.554  25.865  1.00  0.00    -0.269 OA
BRANCH  44  47
ATOM     47  C   UNL A   1      41.495  22.497  27.173  1.00  0.00     0.039 A 
ATOM     48  C   UNL A   1      40.940  23.737  26.917  1.00  0.00     0.014 A 
ATOM     49  C   UNL A   1      42.494  22.443  28.163  1.00  0.00     0.014 A 
ATOM     50  C   UNL A   1      41.355  24.875  27.663  1.00  0.00     0.010 A 
ATOM     51  C   UNL A   1      42.979  23.633  28.857  1.00  0.00     0.010 A 
ATOM     52  C   UNL A   1      42.444  24.911  28.613  1.00  0.00    -0.014 A 
BRANCH  52  53
ATOM     53  C   UNL A   1      43.161  26.349  28.818  1.00  0.00     0.031 A 
ATOM     54  C   UNL A   1      44.272  26.013  29.763  1.00  0.00     0.074 A 
ATOM     55  C   UNL A   1      43.051  27.713  28.531  1.00  0.00     0.049 A 
ATOM     56  N   UNL A   1      43.998  25.431  30.898  1.00  0.00    -0.248 NA
ATOM     57  C   UNL A   1      45.663  25.877  29.326  1.00  0.00     0.031 C 
ATOM     58  C   UNL A   1      41.958  28.411  27.837  1.00  0.00     0.029 A 
ATOM     59  N   UNL A   1      43.912  28.832  28.796  1.00  0.00    -0.354 N 
ATOM     60  C   UNL A   1      45.200  25.082  31.461  1.00  0.00     0.074 A 
ATOM     61  C   UNL A   1      46.152  25.179  30.359  1.00  0.00     0.031 C 
ATOM     62  C   UNL A   1      42.258  29.725  27.603  1.00  0.00     0.029 A 
ATOM     63  C   UNL A   1      43.561  30.088  28.166  1.00  0.00     0.049 A 
ATOM     64  H   UNL A   1      44.703  28.749  29.377  1.00  0.00     0.167 HD
ATOM     65  C   UNL A   1      45.388  25.478  32.754  1.00  0.00     0.034 A 
ATOM     66  C   UNL A   1      44.204  31.332  28.149  1.00  0.00     0.034 A 
ATOM     67  C   UNL A   1      46.105  26.725  32.807  1.00  0.00     0.049 A 
ATOM     68  C   UNL A   1      45.007  31.402  29.368  1.00  0.00     0.074 A 
ATOM     69  C   UNL A   1      47.266  27.155  32.197  1.00  0.00     0.029 A 
ATOM     70  N   UNL A   1      45.375  27.855  33.120  1.00  0.00    -0.354 N 
ATOM     71  N   UNL A   1      44.474  31.593  30.532  1.00  0.00    -0.248 NA
ATOM     72  C   UNL A   1      46.459  31.279  29.347  1.00  0.00     0.031 C 
ATOM     73  C   UNL A   1      46.947  28.438  31.702  1.00  0.00     0.029 A 
ATOM     74  C   UNL A   1      45.812  28.915  32.351  1.00  0.00     0.049 A 
ATOM     75  H   UNL A   1      44.654  27.899  33.789  1.00  0.00     0.167 HD
ATOM     76  C   UNL A   1      45.401  31.057  31.371  1.00  0.00     0.074 A 
ATOM     77  C   UNL A   1      46.664  31.161  30.661  1.00  0.00     0.031 C 
ATOM     78  C   UNL A   1      44.977  30.097  32.232  1.00  0.00     0.034 A 
BRANCH  65  79
ATOM     79  C   UNL A   1      44.267  25.107  33.683  1.00  0.00     0.023 A 
ATOM     80  C   UNL A   1      43.807  26.061  34.601  1.00  0.00     0.031 A 
ATOM     81  C   UNL A   1      43.718  23.809  33.757  1.00  0.00     0.131 A 
ATOM     82  C   UNL A   1      42.880  25.690  35.590  1.00  0.00     0.055 A 
ATOM     83  C   UNL A   1      42.847  23.429  34.775  1.00  0.00     0.041 A 
ATOM     84  F   UNL A   1      44.008  22.886  32.824  1.00  0.00    -0.206 F 
ATOM     85  C   UNL A   1      42.429  24.371  35.707  1.00  0.00     0.022 A 
BRANCH  82  86
ATOM     86  S   UNL A   1      42.240  26.969  36.703  1.00  0.00     0.124 S 
ATOM     87  O   UNL A   1      43.219  26.966  37.785  1.00  0.00    -0.237 OA
ATOM     88  O   UNL A   1      42.250  28.154  35.850  1.00  0.00    -0.237 OA
ATOM     89  O   UNL A   1      40.909  26.483  37.065  1.00  0.00    -0.744 OA
ENDBRANCH  82  86
ENDBRANCH  65  79
BRANCH  66  90
ATOM     90  C   UNL A   1      44.266  32.699  27.408  1.00  0.00     0.023 A 
ATOM     91  C   UNL A   1      43.736  33.928  27.980  1.00  0.00     0.031 A 
ATOM     92  C   UNL A   1      45.165  32.899  26.353  1.00  0.00     0.131 A 
ATOM     93  C   UNL A   1      44.141  35.224  27.541  1.00  0.00     0.055 A 
ATOM     94  C   UNL A   1      45.555  34.189  25.914  1.00  0.00     0.041 A 
ATOM     95  F   UNL A   1      45.780  31.853  25.785  1.00  0.00    -0.206 F 
ATOM     96  C   UNL A   1      45.065  35.348  26.512  1.00  0.00     0.022 A 
BRANCH  93  97
ATOM     97  S   UNL A   1      43.635  36.779  28.410  1.00  0.00     0.124 S 
ATOM     98  O   UNL A   1      44.638  36.908  29.459  1.00  0.00    -0.237 OA
ATOM     99  O   UNL A   1      43.670  37.774  27.345  1.00  0.00    -0.237 OA
ATOM    100  O   UNL A   1      42.285  36.474  28.896  1.00  0.00    -0.744 OA
ENDBRANCH  93  97
ENDBRANCH  66  90
BRANCH  78 101
ATOM    101  C   UNL A   1      43.601  30.292  32.874  1.00  0.00     0.023 A 
ATOM    102  C   UNL A   1      42.470  29.444  32.722  1.00  0.00     0.031 A 
ATOM    103  C   UNL A   1      43.392  31.472  33.607  1.00  0.00     0.131 A 
ATOM    104  C   UNL A   1      41.207  29.809  33.237  1.00  0.00     0.055 A 
ATOM    105  C   UNL A   1      42.154  31.811  34.159  1.00  0.00     0.041 A 
ATOM    106  F   UNL A   1      44.399  32.341  33.791  1.00  0.00    -0.206 F 
ATOM    107  C   UNL A   1      41.051  30.991  33.960  1.00  0.00     0.022 A 
BRANCH 104 108
ATOM    108  S   UNL A   1      39.727  28.795  32.888  1.00  0.00     0.124 S 
ATOM    109  O   UNL A   1      40.085  27.480  33.406  1.00  0.00    -0.237 OA
ATOM    110  O   UNL A   1      38.676  29.502  33.615  1.00  0.00    -0.237 OA
ATOM    111  O   UNL A   1      39.607  28.858  31.429  1.00  0.00    -0.744 OA
ENDBRANCH 104 108
ENDBRANCH  78 101
ENDBRANCH  52  53
ENDBRANCH  44  47
ENDBRANCH  42  43
ENDBRANCH  41  42
ENDBRANCH  40  41
ENDBRANCH  39  40
ENDBRANCH   1  39
TORSDOF 24
ENDMDL
MODEL 2
REMARK VINA RESULT:     -11.0      3.491      5.659
REMARK SMILES Cc1c(CC(=O)N[C@H](CO)C(=O)NCCCCCCNC(=O)c2ccc(-c3c4nc(c(-c5cc(S(=O)(=O)[O-])ccc5F)c5ccc([nH]5)c(-c5cc(S(=O)(=O)[O-])ccc5F)c5nc(c(-c6cc(S(=O)(=O)[O-])ccc6F)c6ccc3[nH]6)C=C5)C=C4)cc2)cc(-c2ccc(S(C)(=O)=O)cc2)n1-c1cccc(F)c1
REMARK SMILES IDX 15 1 14 2 13 3 11 4 12 5 8 7 7 8 5 9 6 10 4 12 3 13 1 14
REMARK SMILES IDX 2 15 98 16 86 17 87 18 99 19 100 20 105 21 101 22 103 23
REMARK SMILES IDX 102 24 104 25 88 26 89 27 97 28 90 29 96 30 91 31 92 32
REMARK SMILES IDX 93 33 94 34 95 35 9 36 10 37 16 39 17 40 18 41 19 42 20 43
REMARK SMILES IDX 21 44 22 46 23 47 24 48 85 49 25 50 84 51 26 52 27 53 28 54
REMARK SMILES IDX 78 55 29 56 83 57 77 58 79 59 30 60 82 61 76 62 75 63 31 65
REMARK SMILES IDX 63 66 43 67 62 68 44 69 47 70 61 71 80 72 45 73 46 74 60 76
REMARK SMILES IDX 81 77 48 78 32 79 33 80 41 81 34 82 40 83 42 84 39 85 35 86
REMARK SMILES IDX 36 87 37 88 38 89 64 90 65 91 73 92 66 93 72 94 74 95 71 96
REMARK SMILES IDX 67 97 68 98 69 99 70 100 49 101 50 102 58 103 51 104 57 105
REMARK SMILES IDX 59 106 56 107 52 108 53 109 54 110 55 111
REMARK H PARENT 13 6 7 11 10 38 20 45 79 64 47 75
REMARK Flexibility Score: inf
ROOT
ATOM      1  C   UNL A   1      36.258  22.359  24.722  1.00  0.00     0.021 C 
ENDROOT
BRANCH   1   2
ATOM      2  C   UNL A   1      35.265  21.441  25.425  1.00  0.00     0.116 C 
BRANCH   2   3
ATOM      3  N   UNL A   1      35.496  20.085  24.983  1.00  0.00    -0.354 N 
ATOM      4  C   UNL A   1      34.559  19.129  24.722  1.00  0.00     0.244 C 
ATOM      5  O   UNL A   1      34.825  17.973  25.066  1.00  0.00    -0.273 OA
ATOM      6  H   UNL A   1      36.436  19.822  24.855  1.00  0.00     0.163 HD
BRANCH   4   7
ATOM      7  C   UNL A   1      33.183  19.487  24.129  1.00  0.00     0.197 C 
BRANCH   7   8
ATOM      8  N   UNL A   1      32.259  20.084  25.107  1.00  0.00    -0.342 N 
ATOM      9  C   UNL A   1      31.700  21.327  25.126  1.00  0.00     0.225 C 
ATOM     10  O   UNL A   1      30.950  21.601  26.068  1.00  0.00    -0.275 OA
ATOM     11  H   UNL A   1      32.008  19.499  25.860  1.00  0.00     0.164 HD
BRANCH   9  12
ATOM     12  C   UNL A   1      31.945  22.324  24.005  1.00  0.00     0.137 C 
BRANCH  12  13
ATOM     13  C   UNL A   1      31.672  23.751  24.377  1.00  0.00    -0.017 A 
ATOM     14  C   UNL A   1      33.317  24.089  26.342  1.00  0.00     0.065 C 
ATOM     15  C   UNL A   1      32.304  24.537  25.336  1.00  0.00     0.024 A 
ATOM     16  N   UNL A   1      31.788  25.832  25.251  1.00  0.00    -0.313 N 
ATOM     17  C   UNL A   1      30.670  24.560  23.786  1.00  0.00     0.033 A 
ATOM     18  C   UNL A   1      30.786  25.848  24.278  1.00  0.00     0.053 A 
BRANCH  16  19
ATOM     19  C   UNL A   1      32.200  26.962  26.010  1.00  0.00     0.049 A 
ATOM     20  C   UNL A   1      31.313  27.533  26.934  1.00  0.00     0.027 A 
ATOM     21  C   UNL A   1      33.456  27.536  25.794  1.00  0.00     0.065 A 
ATOM     22  C   UNL A   1      31.688  28.671  27.651  1.00  0.00     0.005 A 
ATOM     23  C   UNL A   1      33.806  28.678  26.507  1.00  0.00     0.125 A 
ATOM     24  C   UNL A   1      32.938  29.246  27.434  1.00  0.00     0.039 A 
ATOM     25  F   UNL A   1      34.998  29.249  26.288  1.00  0.00    -0.207 F 
ENDBRANCH  16  19
BRANCH  18  26
ATOM     26  C   UNL A   1      30.133  27.047  23.730  1.00  0.00    -0.001 A 
ATOM     27  C   UNL A   1      30.881  28.043  23.081  1.00  0.00     0.011 A 
ATOM     28  C   UNL A   1      28.739  27.170  23.776  1.00  0.00     0.011 A 
ATOM     29  C   UNL A   1      30.256  29.159  22.516  1.00  0.00     0.021 A 
ATOM     30  C   UNL A   1      28.105  28.283  23.216  1.00  0.00     0.021 A 
ATOM     31  C   UNL A   1      28.867  29.276  22.599  1.00  0.00     0.067 A 
BRANCH  31  32
ATOM     32  S   UNL A   1      28.072  30.684  21.861  1.00  0.00     0.175 S 
ATOM     33  C   UNL A   1      29.234  32.005  22.085  1.00  0.00     0.163 C 
ATOM     34  O   UNL A   1      27.939  30.425  20.453  1.00  0.00    -0.224 OA
ATOM     35  O   UNL A   1      26.904  31.005  22.681  1.00  0.00    -0.224 OA
ENDBRANCH  31  32
ENDBRANCH  18  26
ENDBRANCH  12  13
ENDBRANCH   9  12
ENDBRANCH   7   8
BRANCH   7  36
ATOM     36  C   UNL A   1      32.577  18.232  23.477  1.00  0.00     0.191 C 
BRANCH  36  37
ATOM     37  O   UNL A   1      31.930  17.394  24.431  1.00  0.00    -0.394 OA
ATOM     38  H   UNL A   1      31.101  17.808  24.716  1.00  0.00     0.210 HD
ENDBRANCH  36  37
ENDBRANCH   7  36
ENDBRANCH   4   7
ENDBRANCH   2   3
ENDBRANCH   1   2
BRANCH   1  39
ATOM     39  C   UNL A   1      36.567  23.657  25.482  1.00  0.00     0.002 C 
BRANCH  39  40
ATOM     40  C   UNL A   1      37.996  23.790  26.020  1.00  0.00     0.002 C 
BRANCH  40  41
ATOM     41  C   UNL A   1      38.838  22.505  26.044  1.00  0.00     0.021 C 
BRANCH  41  42
ATOM     42  C   UNL A   1      40.039  22.456  27.002  1.00  0.00     0.116 C 
BRANCH  42  43
ATOM     43  N   UNL A   1      40.636  21.166  27.197  1.00  0.00    -0.352 N 
ATOM     44  C   UNL A   1      41.921  20.934  27.665  1.00  0.00     0.251 C 
ATOM     45  H   UNL A   1      40.087  20.378  26.979  1.00  0.00     0.163 HD
ATOM     46  O   UNL A   1      42.284  19.771  27.803  1.00  0.00    -0.269 OA
BRANCH  44  47
ATOM     47  C   UNL A   1      42.875  22.081  27.909  1.00  0.00     0.039 A 
ATOM     48  C   UNL A   1      42.839  22.706  29.142  1.00  0.00     0.014 A 
ATOM     49  C   UNL A   1      43.690  22.673  26.925  1.00  0.00     0.014 A 
ATOM     50  C   UNL A   1      43.627  23.864  29.382  1.00  0.00     0.010 A 
ATOM     51  C   UNL A   1      44.422  23.915  27.153  1.00  0.00     0.010 A 
ATOM     52  C   UNL A   1      44.398  24.581  28.391  1.00  0.00    -0.014 A 
BRANCH  52  53
ATOM     53  C   UNL A   1      44.642  26.156  28.683  1.00  0.00     0.031 A 
ATOM     54  C   UNL A   1      45.771  26.120  29.666  1.00  0.00     0.074 A 
ATOM     55  C   UNL A   1      44.137  27.437  28.443  1.00  0.00     0.049 A 
ATOM     56  N   UNL A   1      45.648  25.427  30.764  1.00  0.00    -0.248 NA
ATOM     57  C   UNL A   1      47.152  26.428  29.289  1.00  0.00     0.031 C 
ATOM     58  C   UNL A   1      42.908  27.810  27.726  1.00  0.00     0.029 A 
ATOM     59  N   UNL A   1      44.613  28.747  28.790  1.00  0.00    -0.354 N 
ATOM     60  C   UNL A   1      46.879  25.425  31.369  1.00  0.00     0.074 A 
ATOM     61  C   UNL A   1      47.794  25.858  30.317  1.00  0.00     0.031 C 
ATOM     62  C   UNL A   1      42.807  29.164  27.556  1.00  0.00     0.029 A 
ATOM     63  C   UNL A   1      43.921  29.871  28.192  1.00  0.00     0.049 A 
ATOM     64  H   UNL A   1      45.372  28.875  29.404  1.00  0.00     0.167 HD
ATOM     65  C   UNL A   1      46.897  25.795  32.683  1.00  0.00     0.034 A 
ATOM     66  C   UNL A   1      44.160  31.249  28.252  1.00  0.00     0.034 A 
ATOM     67  C   UNL A   1      47.203  27.195  32.816  1.00  0.00     0.049 A 
ATOM     68  C   UNL A   1      44.865  31.495  29.509  1.00  0.00     0.074 A 
ATOM     69  C   UNL A   1      48.202  27.981  32.278  1.00  0.00     0.029 A 
ATOM     70  N   UNL A   1      46.157  28.038  33.138  1.00  0.00    -0.354 N 
ATOM     71  N   UNL A   1      44.261  31.460  30.654  1.00  0.00    -0.248 NA
ATOM     72  C   UNL A   1      46.287  31.813  29.551  1.00  0.00     0.031 C 
ATOM     73  C   UNL A   1      47.528  29.134  31.817  1.00  0.00     0.029 A 
ATOM     74  C   UNL A   1      46.281  29.217  32.430  1.00  0.00     0.049 A 
ATOM     75  H   UNL A   1      45.435  27.830  33.774  1.00  0.00     0.167 HD
ATOM     76  C   UNL A   1      45.278  31.185  31.514  1.00  0.00     0.074 A 
ATOM     77  C   UNL A   1      46.474  31.696  30.867  1.00  0.00     0.031 C 
ATOM     78  C   UNL A   1      45.134  30.100  32.317  1.00  0.00     0.034 A 
BRANCH  65  79
ATOM     79  C   UNL A   1      45.909  25.059  33.545  1.00  0.00     0.023 A 
ATOM     80  C   UNL A   1      46.374  24.028  34.372  1.00  0.00     0.031 A 
ATOM     81  C   UNL A   1      44.517  25.279  33.489  1.00  0.00     0.131 A 
ATOM     82  C   UNL A   1      45.454  23.215  35.058  1.00  0.00     0.055 A 
ATOM     83  C   UNL A   1      43.607  24.435  34.121  1.00  0.00     0.041 A 
ATOM     84  F   UNL A   1      44.014  26.335  32.828  1.00  0.00    -0.206 F 
ATOM     85  C   UNL A   1      44.075  23.387  34.905  1.00  0.00     0.022 A 
BRANCH  82  86
ATOM     86  S   UNL A   1      46.090  21.949  36.188  1.00  0.00     0.124 S 
ATOM     87  O   UNL A   1      45.386  20.749  35.746  1.00  0.00    -0.237 OA
ATOM     88  O   UNL A   1      47.523  21.975  35.907  1.00  0.00    -0.237 OA
ATOM     89  O   UNL A   1      45.714  22.441  37.512  1.00  0.00    -0.744 OA
ENDBRANCH  82  86
ENDBRANCH  65  79
BRANCH  66  90
ATOM     90  C   UNL A   1      43.834  32.608  27.567  1.00  0.00     0.023 A 
ATOM     91  C   UNL A   1      43.347  33.764  28.305  1.00  0.00     0.031 A 
ATOM     92  C   UNL A   1      44.351  32.913  26.302  1.00  0.00     0.131 A 
ATOM     93  C   UNL A   1      43.442  35.098  27.807  1.00  0.00     0.055 A 
ATOM     94  C   UNL A   1      44.433  34.238  25.808  1.00  0.00     0.041 A 
ATOM     95  F   UNL A   1      44.897  31.949  25.548  1.00  0.00    -0.206 F 
ATOM     96  C   UNL A   1      44.001  35.331  26.558  1.00  0.00     0.022 A 
BRANCH  93  97
ATOM     97  S   UNL A   1      43.025  36.581  28.833  1.00  0.00     0.124 S 
ATOM     98  O   UNL A   1      41.587  36.718  28.640  1.00  0.00    -0.237 OA
ATOM     99  O   UNL A   1      43.472  36.192  30.166  1.00  0.00    -0.237 OA
ATOM    100  O   UNL A   1      43.822  37.652  28.226  1.00  0.00    -0.744 OA
ENDBRANCH  93  97
ENDBRANCH  66  90
BRANCH  78 101
ATOM    101  C   UNL A   1      43.742  29.842  32.901  1.00  0.00     0.023 A 
ATOM    102  C   UNL A   1      42.631  29.276  32.219  1.00  0.00     0.031 A 
ATOM    103  C   UNL A   1      43.497  30.296  34.208  1.00  0.00     0.131 A 
ATOM    104  C   UNL A   1      41.351  29.231  32.815  1.00  0.00     0.055 A 
ATOM    105  C   UNL A   1      42.243  30.207  34.816  1.00  0.00     0.041 A 
ATOM    106  F   UNL A   1      44.483  30.858  34.925  1.00  0.00    -0.206 F 
ATOM    107  C   UNL A   1      41.160  29.693  34.116  1.00  0.00     0.022 A 
BRANCH 104 108
ATOM    108  S   UNL A   1      39.898  28.660  31.865  1.00  0.00     0.124 S 
ATOM    109  O   UNL A   1      39.195  29.896  31.542  1.00  0.00    -0.237 OA
ATOM    110  O   UNL A   1      40.508  27.961  30.737  1.00  0.00    -0.237 OA
ATOM    111  O   UNL A   1      39.192  27.793  32.811  1.00  0.00    -0.744 OA
ENDBRANCH 104 108
ENDBRANCH  78 101
ENDBRANCH  52  53
ENDBRANCH  44  47
ENDBRANCH  42  43
ENDBRANCH  41  42
ENDBRANCH  40  41
ENDBRANCH  39  40
ENDBRANCH   1  39
TORSDOF 24
ENDMDL
MODEL 3
REMARK VINA RESULT:     -10.8      4.401      9.868
REMARK SMILES Cc1c(CC(=O)N[C@H](CO)C(=O)NCCCCCCNC(=O)c2ccc(-c3c4nc(c(-c5cc(S(=O)(=O)[O-])ccc5F)c5ccc([nH]5)c(-c5cc(S(=O)(=O)[O-])ccc5F)c5nc(c(-c6cc(S(=O)(=O)[O-])ccc6F)c6ccc3[nH]6)C=C5)C=C4)cc2)cc(-c2ccc(S(C)(=O)=O)cc2)n1-c1cccc(F)c1
REMARK SMILES IDX 15 1 14 2 13 3 11 4 12 5 8 7 7 8 5 9 6 10 4 12 3 13 1 14
REMARK SMILES IDX 2 15 98 16 86 17 87 18 99 19 100 20 105 21 101 22 103 23
REMARK SMILES IDX 102 24 104 25 88 26 89 27 97 28 90 29 96 30 91 31 92 32
REMARK SMILES IDX 93 33 94 34 95 35 9 36 10 37 16 39 17 40 18 41 19 42 20 43
REMARK SMILES IDX 21 44 22 46 23 47 24 48 85 49 25 50 84 51 26 52 27 53 28 54
REMARK SMILES IDX 78 55 29 56 83 57 77 58 79 59 30 60 82 61 76 62 75 63 31 65
REMARK SMILES IDX 63 66 43 67 62 68 44 69 47 70 61 71 80 72 45 73 46 74 60 76
REMARK SMILES IDX 81 77 48 78 32 79 33 80 41 81 34 82 40 83 42 84 39 85 35 86
REMARK SMILES IDX 36 87 37 88 38 89 64 90 65 91 73 92 66 93 72 94 74 95 71 96
REMARK SMILES IDX 67 97 68 98 69 99 70 100 49 101 50 102 58 103 51 104 57 105
REMARK SMILES IDX 59 106 56 107 52 108 53 109 54 110 55 111
REMARK H PARENT 13 6 7 11 10 38 20 45 79 64 47 75
REMARK Flexibility Score: inf
ROOT
ATOM      1  C   UNL A   1      35.113  24.134  25.250  1.00  0.00     0.021 C 
ENDROOT
BRANCH   1   2
ATOM      2  C   UNL A   1      35.308  22.890  26.109  1.00  0.00     0.116 C 
BRANCH   2   3
ATOM      3  N   UNL A   1      35.505  21.754  25.240  1.00  0.00    -0.354 N 
ATOM      4  C   UNL A   1      34.760  20.613  25.186  1.00  0.00     0.244 C 
ATOM      5  O   UNL A   1      35.367  19.552  25.014  1.00  0.00    -0.273 OA
ATOM      6  H   UNL A   1      36.265  21.809  24.615  1.00  0.00     0.163 HD
BRANCH   4   7
ATOM      7  C   UNL A   1      33.240  20.628  25.442  1.00  0.00     0.197 C 
BRANCH   7   8
ATOM      8  N   UNL A   1      32.862  21.306  26.692  1.00  0.00    -0.342 N 
ATOM      9  C   UNL A   1      31.795  22.113  26.954  1.00  0.00     0.225 C 
ATOM     10  O   UNL A   1      31.694  22.575  28.094  1.00  0.00    -0.275 OA
ATOM     11  H   UNL A   1      33.470  21.156  27.453  1.00  0.00     0.164 HD
BRANCH   9  12
ATOM     12  C   UNL A   1      30.737  22.395  25.898  1.00  0.00     0.137 C 
BRANCH  12  13
ATOM     13  C   UNL A   1      30.986  23.632  25.088  1.00  0.00    -0.017 A 
ATOM     14  C   UNL A   1      32.689  22.765  23.346  1.00  0.00     0.065 C 
ATOM     15  C   UNL A   1      31.773  23.783  23.950  1.00  0.00     0.024 A 
ATOM     16  N   UNL A   1      31.615  25.088  23.479  1.00  0.00    -0.313 N 
ATOM     17  C   UNL A   1      30.441  24.908  25.376  1.00  0.00     0.033 A 
ATOM     18  C   UNL A   1      30.776  25.779  24.356  1.00  0.00     0.053 A 
BRANCH  16  19
ATOM     19  C   UNL A   1      32.195  25.643  22.304  1.00  0.00     0.049 A 
ATOM     20  C   UNL A   1      33.170  26.644  22.422  1.00  0.00     0.027 A 
ATOM     21  C   UNL A   1      31.754  25.237  21.041  1.00  0.00     0.065 A 
ATOM     22  C   UNL A   1      33.712  27.230  21.276  1.00  0.00     0.005 A 
ATOM     23  C   UNL A   1      32.295  25.842  19.912  1.00  0.00     0.125 A 
ATOM     24  C   UNL A   1      33.270  26.829  20.018  1.00  0.00     0.039 A 
ATOM     25  F   UNL A   1      31.860  25.477  18.698  1.00  0.00    -0.207 F 
ENDBRANCH  16  19
BRANCH  18  26
ATOM     26  C   UNL A   1      30.189  27.108  24.123  1.00  0.00    -0.001 A 
ATOM     27  C   UNL A   1      30.888  28.277  24.469  1.00  0.00     0.011 A 
ATOM     28  C   UNL A   1      28.954  27.226  23.474  1.00  0.00     0.011 A 
ATOM     29  C   UNL A   1      30.352  29.540  24.202  1.00  0.00     0.021 A 
ATOM     30  C   UNL A   1      28.409  28.484  23.205  1.00  0.00     0.021 A 
ATOM     31  C   UNL A   1      29.105  29.634  23.579  1.00  0.00     0.067 A 
BRANCH  31  32
ATOM     32  S   UNL A   1      28.437  31.241  23.221  1.00  0.00     0.175 S 
ATOM     33  C   UNL A   1      28.523  31.363  21.454  1.00  0.00     0.163 C 
ATOM     34  O   UNL A   1      27.053  31.238  23.614  1.00  0.00    -0.224 OA
ATOM     35  O   UNL A   1      29.370  32.232  23.759  1.00  0.00    -0.224 OA
ENDBRANCH  31  32
ENDBRANCH  18  26
ENDBRANCH  12  13
ENDBRANCH   9  12
ENDBRANCH   7   8
BRANCH   7  36
ATOM     36  C   UNL A   1      32.712  19.183  25.404  1.00  0.00     0.191 C 
BRANCH  36  37
ATOM     37  O   UNL A   1      33.000  18.478  26.608  1.00  0.00    -0.394 OA
ATOM     38  H   UNL A   1      33.639  17.772  26.424  1.00  0.00     0.210 HD
ENDBRANCH  36  37
ENDBRANCH   7  36
ENDBRANCH   4   7
ENDBRANCH   2   3
ENDBRANCH   1   2
BRANCH   1  39
ATOM     39  C   UNL A   1      34.160  25.177  25.853  1.00  0.00     0.002 C 
BRANCH  39  40
ATOM     40  C   UNL A   1      34.819  26.459  26.372  1.00  0.00     0.002 C 
BRANCH  40  41
ATOM     41  C   UNL A   1      33.954  27.729  26.348  1.00  0.00     0.021 C 
BRANCH  41  42
ATOM     42  C   UNL A   1      34.630  29.044  25.925  1.00  0.00     0.116 C 
BRANCH  42  43
ATOM     43  N   UNL A   1      34.239  30.215  26.657  1.00  0.00    -0.352 N 
ATOM     44  C   UNL A   1      34.992  30.840  27.639  1.00  0.00     0.251 C 
ATOM     45  H   UNL A   1      33.361  30.607  26.444  1.00  0.00     0.163 HD
ATOM     46  O   UNL A   1      34.535  31.851  28.162  1.00  0.00    -0.269 OA
BRANCH  44  47
ATOM     47  C   UNL A   1      36.295  30.239  28.115  1.00  0.00     0.039 A 
ATOM     48  C   UNL A   1      37.289  30.017  27.179  1.00  0.00     0.014 A 
ATOM     49  C   UNL A   1      36.524  29.738  29.410  1.00  0.00     0.014 A 
ATOM     50  C   UNL A   1      38.486  29.344  27.550  1.00  0.00     0.010 A 
ATOM     51  C   UNL A   1      37.715  28.967  29.757  1.00  0.00     0.010 A 
ATOM     52  C   UNL A   1      38.739  28.713  28.826  1.00  0.00    -0.014 A 
BRANCH  52  53
ATOM     53  C   UNL A   1      39.797  27.487  28.815  1.00  0.00     0.031 A 
ATOM     54  C   UNL A   1      40.737  27.874  29.913  1.00  0.00     0.074 A 
ATOM     55  C   UNL A   1      40.177  26.334  28.121  1.00  0.00     0.049 A 
ATOM     56  N   UNL A   1      41.327  29.037  29.876  1.00  0.00    -0.248 NA
ATOM     57  C   UNL A   1      40.700  27.250  31.238  1.00  0.00     0.031 C 
ATOM     58  C   UNL A   1      39.623  25.804  26.865  1.00  0.00     0.029 A 
ATOM     59  N   UNL A   1      41.174  25.332  28.379  1.00  0.00    -0.354 N 
ATOM     60  C   UNL A   1      41.969  29.192  31.079  1.00  0.00     0.074 A 
ATOM     61  C   UNL A   1      41.365  28.177  31.938  1.00  0.00     0.031 C 
ATOM     62  C   UNL A   1      40.139  24.575  26.558  1.00  0.00     0.029 A 
ATOM     63  C   UNL A   1      41.148  24.156  27.533  1.00  0.00     0.049 A 
ATOM     64  H   UNL A   1      41.840  25.439  29.095  1.00  0.00     0.167 HD
ATOM     65  C   UNL A   1      43.287  29.539  31.009  1.00  0.00     0.034 A 
ATOM     66  C   UNL A   1      41.907  22.979  27.553  1.00  0.00     0.034 A 
ATOM     67  C   UNL A   1      44.127  28.373  31.090  1.00  0.00     0.049 A 
ATOM     68  C   UNL A   1      43.183  23.318  28.183  1.00  0.00     0.074 A 
ATOM     69  C   UNL A   1      44.152  27.306  31.966  1.00  0.00     0.029 A 
ATOM     70  N   UNL A   1      44.721  27.945  29.919  1.00  0.00    -0.354 N 
ATOM     71  N   UNL A   1      44.093  24.002  27.567  1.00  0.00    -0.248 NA
ATOM     72  C   UNL A   1      43.516  22.892  29.536  1.00  0.00     0.031 C 
ATOM     73  C   UNL A   1      44.260  26.172  31.130  1.00  0.00     0.029 A 
ATOM     74  C   UNL A   1      44.709  26.565  29.873  1.00  0.00     0.049 A 
ATOM     75  H   UNL A   1      45.096  28.533  29.224  1.00  0.00     0.167 HD
ATOM     76  C   UNL A   1      44.798  24.546  28.595  1.00  0.00     0.074 A 
ATOM     77  C   UNL A   1      44.611  23.635  29.710  1.00  0.00     0.031 C 
ATOM     78  C   UNL A   1      44.937  25.896  28.605  1.00  0.00     0.034 A 
BRANCH  65  79
ATOM     79  C   UNL A   1      43.568  30.725  30.130  1.00  0.00     0.023 A 
ATOM     80  C   UNL A   1      44.550  30.609  29.137  1.00  0.00     0.031 A 
ATOM     81  C   UNL A   1      42.970  31.989  30.318  1.00  0.00     0.131 A 
ATOM     82  C   UNL A   1      44.950  31.747  28.414  1.00  0.00     0.055 A 
ATOM     83  C   UNL A   1      43.411  33.125  29.644  1.00  0.00     0.041 A 
ATOM     84  F   UNL A   1      41.928  32.139  31.152  1.00  0.00    -0.206 F 
ATOM     85  C   UNL A   1      44.416  33.010  28.690  1.00  0.00     0.022 A 
BRANCH  82  86
ATOM     86  S   UNL A   1      46.157  31.547  27.077  1.00  0.00     0.124 S 
ATOM     87  O   UNL A   1      47.079  32.653  27.314  1.00  0.00    -0.237 OA
ATOM     88  O   UNL A   1      46.694  30.214  27.342  1.00  0.00    -0.237 OA
ATOM     89  O   UNL A   1      45.353  31.654  25.861  1.00  0.00    -0.744 OA
ENDBRANCH  82  86
ENDBRANCH  65  79
BRANCH  66  90
ATOM     90  C   UNL A   1      41.960  21.513  27.034  1.00  0.00     0.023 A 
ATOM     91  C   UNL A   1      42.866  21.085  25.978  1.00  0.00     0.031 A 
ATOM     92  C   UNL A   1      41.437  20.465  27.801  1.00  0.00     0.131 A 
ATOM     93  C   UNL A   1      43.234  19.720  25.780  1.00  0.00     0.055 A 
ATOM     94  C   UNL A   1      41.798  19.110  27.592  1.00  0.00     0.041 A 
ATOM     95  F   UNL A   1      40.646  20.727  28.850  1.00  0.00    -0.206 F 
ATOM     96  C   UNL A   1      42.705  18.735  26.602  1.00  0.00     0.022 A 
BRANCH  93  97
ATOM     97  S   UNL A   1      44.549  19.203  24.584  1.00  0.00     0.124 S 
ATOM     98  O   UNL A   1      44.808  20.425  23.834  1.00  0.00    -0.237 OA
ATOM     99  O   UNL A   1      45.618  18.733  25.457  1.00  0.00    -0.237 OA
ATOM    100  O   UNL A   1      43.904  18.140  23.806  1.00  0.00    -0.744 OA
ENDBRANCH  93  97
ENDBRANCH  66  90
BRANCH  78 101
ATOM    101  C   UNL A   1      45.177  26.584  27.258  1.00  0.00     0.023 A 
ATOM    102  C   UNL A   1      46.354  26.498  26.463  1.00  0.00     0.031 A 
ATOM    103  C   UNL A   1      44.187  27.467  26.798  1.00  0.00     0.131 A 
ATOM    104  C   UNL A   1      46.521  27.301  25.314  1.00  0.00     0.055 A 
ATOM    105  C   UNL A   1      44.331  28.226  25.634  1.00  0.00     0.041 A 
ATOM    106  F   UNL A   1      43.047  27.624  27.490  1.00  0.00    -0.206 F 
ATOM    107  C   UNL A   1      45.506  28.162  24.897  1.00  0.00     0.022 A 
BRANCH 104 108
ATOM    108  S   UNL A   1      48.104  27.308  24.401  1.00  0.00     0.124 S 
ATOM    109  O   UNL A   1      48.681  26.005  24.712  1.00  0.00    -0.237 OA
ATOM    110  O   UNL A   1      47.676  27.501  23.018  1.00  0.00    -0.237 OA
ATOM    111  O   UNL A   1      48.827  28.442  24.980  1.00  0.00    -0.744 OA
ENDBRANCH 104 108
ENDBRANCH  78 101
ENDBRANCH  52  53
ENDBRANCH  44  47
ENDBRANCH  42  43
ENDBRANCH  41  42
ENDBRANCH  40  41
ENDBRANCH  39  40
ENDBRANCH   1  39
TORSDOF 24
ENDMDL
