MODEL 1
REMARK VINA RESULT:     -12.2      0.000      0.000
REMARK SMILES Cc1cccc(C(=O)NCCCCCCNC(=O)c2ccc(-c3c4nc(c(-c5cc(S(=O)(=O)[O-])ccc5F)c5ccc([nH]5)c(-c5cc(S(=O)(=O)[O-])ccc5F)c5nc(c(-c6cc(S(=O)(=O)[O-])ccc6F)c6ccc3[nH]6)C=C5)C=C4)cc2)c1OC[C@@H]1C[C@H]2CC[C@@H]1C2
REMARK SMILES IDX 12 1 11 2 10 3 9 4 7 5 8 6 6 8 1 9 2 10 3 11 82 12 4 13 5 14
REMARK SMILES IDX 83 15 84 16 85 17 86 18 90 19 87 20 89 21 91 22 88 23 13 24
REMARK SMILES IDX 14 25 15 26 16 27 17 28 18 30 19 31 20 32 81 33 21 34 80 35
REMARK SMILES IDX 22 36 23 37 24 38 74 39 25 40 79 41 73 42 75 43 26 44 78 45
REMARK SMILES IDX 72 46 71 47 27 49 59 50 39 51 58 52 40 53 43 54 57 55 76 56
REMARK SMILES IDX 41 57 42 58 56 60 77 61 44 62 28 63 29 64 37 65 30 66 36 67
REMARK SMILES IDX 38 68 35 69 31 70 32 71 33 72 34 73 60 74 61 75 69 76 62 77
REMARK SMILES IDX 68 78 70 79 67 80 63 81 64 82 65 83 66 84 45 85 46 86 54 87
REMARK SMILES IDX 47 88 53 89 55 90 52 91 48 92 49 93 50 94 51 95
REMARK H PARENT 9 7 16 29 75 48 43 59
REMARK Flexibility Score: inf
ROOT
ATOM      1  C   UNL A   1      33.373  28.975  25.977  1.00  0.00     0.002 C 
ENDROOT
BRANCH   1   2
ATOM      2  C   UNL A   1      32.870  27.781  26.801  1.00  0.00     0.021 C 
BRANCH   2   3
ATOM      3  C   UNL A   1      31.434  27.927  27.313  1.00  0.00     0.116 C 
BRANCH   3   4
ATOM      4  N   UNL A   1      30.745  26.665  27.234  1.00  0.00    -0.352 N 
ATOM      5  C   UNL A   1      30.416  25.847  26.195  1.00  0.00     0.255 C 
ATOM      6  O   UNL A   1      29.805  24.814  26.501  1.00  0.00    -0.269 OA
ATOM      7  H   UNL A   1      30.452  26.323  28.110  1.00  0.00     0.163 HD
BRANCH   5   8
ATOM      8  C   UNL A   1      30.776  26.027  24.750  1.00  0.00     0.082 A 
ATOM      9  C   UNL A   1      33.653  25.921  22.228  1.00  0.00     0.048 C 
ATOM     10  C   UNL A   1      32.289  26.106  22.844  1.00  0.00    -0.008 A 
ATOM     11  C   UNL A   1      31.516  27.140  22.283  1.00  0.00     0.007 A 
ATOM     12  C   UNL A   1      31.855  25.461  24.029  1.00  0.00     0.134 A 
ATOM     13  C   UNL A   1      30.376  27.604  22.916  1.00  0.00     0.001 A 
ATOM     14  C   UNL A   1      30.036  27.075  24.154  1.00  0.00     0.018 A 
BRANCH  12  15
ATOM     15  O   UNL A   1      32.527  24.393  24.545  1.00  0.00    -0.492 OA
BRANCH  15  16
ATOM     16  C   UNL A   1      33.650  24.607  25.436  1.00  0.00     0.233 C 
BRANCH  16  17
ATOM     17  C   UNL A   1      34.697  23.475  25.608  1.00  0.00     0.030 C 
ATOM     18  C   UNL A   1      36.156  23.971  25.374  1.00  0.00     0.011 C 
ATOM     19  C   UNL A   1      34.587  22.388  24.499  1.00  0.00    -0.004 C 
ATOM     20  C   UNL A   1      36.680  23.079  24.233  1.00  0.00    -0.010 C 
ATOM     21  C   UNL A   1      35.413  21.158  24.917  1.00  0.00     0.004 C 
ATOM     22  C   UNL A   1      35.439  22.952  23.360  1.00  0.00     0.007 C 
ATOM     23  C   UNL A   1      36.858  21.641  24.745  1.00  0.00     0.004 C 
ENDBRANCH  16  17
ENDBRANCH  15  16
ENDBRANCH  12  15
ENDBRANCH   5   8
ENDBRANCH   3   4
ENDBRANCH   2   3
ENDBRANCH   1   2
BRANCH   1  24
ATOM     24  C   UNL A   1      32.621  30.298  26.192  1.00  0.00     0.002 C 
BRANCH  24  25
ATOM     25  C   UNL A   1      33.179  31.212  27.284  1.00  0.00     0.021 C 
BRANCH  25  26
ATOM     26  C   UNL A   1      34.643  30.940  27.614  1.00  0.00     0.116 C 
BRANCH  26  27
ATOM     27  N   UNL A   1      35.069  31.525  28.882  1.00  0.00    -0.352 N 
ATOM     28  C   UNL A   1      36.002  31.050  29.788  1.00  0.00     0.251 C 
ATOM     29  H   UNL A   1      34.633  32.373  29.125  1.00  0.00     0.163 HD
ATOM     30  O   UNL A   1      36.232  31.627  30.836  1.00  0.00    -0.269 OA
BRANCH  28  31
ATOM     31  C   UNL A   1      36.819  29.879  29.393  1.00  0.00     0.039 A 
ATOM     32  C   UNL A   1      37.127  28.954  30.396  1.00  0.00     0.014 A 
ATOM     33  C   UNL A   1      37.464  29.837  28.160  1.00  0.00     0.014 A 
ATOM     34  C   UNL A   1      38.247  28.142  30.247  1.00  0.00     0.010 A 
ATOM     35  C   UNL A   1      38.622  29.090  28.044  1.00  0.00     0.010 A 
ATOM     36  C   UNL A   1      39.051  28.299  29.116  1.00  0.00    -0.014 A 
BRANCH  36  37
ATOM     37  C   UNL A   1      40.430  27.823  29.074  1.00  0.00     0.031 A 
ATOM     38  C   UNL A   1      40.769  26.480  28.571  1.00  0.00     0.074 A 
ATOM     39  C   UNL A   1      41.431  28.611  29.530  1.00  0.00     0.049 A 
ATOM     40  N   UNL A   1      41.762  25.786  29.019  1.00  0.00    -0.248 NA
ATOM     41  C   UNL A   1      39.995  25.793  27.545  1.00  0.00     0.031 C 
ATOM     42  C   UNL A   1      42.866  28.379  29.403  1.00  0.00     0.029 A 
ATOM     43  N   UNL A   1      41.326  29.669  30.429  1.00  0.00    -0.354 N 
ATOM     44  C   UNL A   1      41.930  24.717  28.177  1.00  0.00     0.074 A 
ATOM     45  C   UNL A   1      40.764  24.722  27.319  1.00  0.00     0.031 C 
ATOM     46  C   UNL A   1      43.500  29.066  30.366  1.00  0.00     0.029 A 
ATOM     47  C   UNL A   1      42.490  29.665  31.219  1.00  0.00     0.049 A 
ATOM     48  H   UNL A   1      40.576  30.302  30.499  1.00  0.00     0.167 HD
ATOM     49  C   UNL A   1      43.093  24.010  28.189  1.00  0.00     0.034 A 
ATOM     50  C   UNL A   1      42.415  29.540  32.575  1.00  0.00     0.034 A 
ATOM     51  C   UNL A   1      44.066  24.529  29.146  1.00  0.00     0.049 A 
ATOM     52  C   UNL A   1      43.098  28.302  33.130  1.00  0.00     0.074 A 
ATOM     53  C   UNL A   1      45.218  25.292  29.038  1.00  0.00     0.029 A 
ATOM     54  N   UNL A   1      43.770  24.482  30.497  1.00  0.00    -0.354 N 
ATOM     55  N   UNL A   1      43.712  27.401  32.411  1.00  0.00    -0.248 NA
ATOM     56  C   UNL A   1      43.044  27.934  34.544  1.00  0.00     0.031 C 
ATOM     57  C   UNL A   1      45.621  25.681  30.347  1.00  0.00     0.029 A 
ATOM     58  C   UNL A   1      44.723  25.143  31.249  1.00  0.00     0.049 A 
ATOM     59  H   UNL A   1      42.980  24.033  30.874  1.00  0.00     0.167 HD
ATOM     60  C   UNL A   1      44.035  26.325  33.203  1.00  0.00     0.074 A 
ATOM     61  C   UNL A   1      43.606  26.712  34.535  1.00  0.00     0.031 C 
ATOM     62  C   UNL A   1      44.570  25.173  32.695  1.00  0.00     0.034 A 
BRANCH  49  63
ATOM     63  C   UNL A   1      43.424  22.997  27.130  1.00  0.00     0.023 A 
ATOM     64  C   UNL A   1      42.771  21.750  27.127  1.00  0.00     0.031 A 
ATOM     65  C   UNL A   1      44.381  23.195  26.117  1.00  0.00     0.131 A 
ATOM     66  C   UNL A   1      43.142  20.735  26.229  1.00  0.00     0.055 A 
ATOM     67  C   UNL A   1      44.791  22.168  25.256  1.00  0.00     0.041 A 
ATOM     68  F   UNL A   1      44.942  24.398  25.916  1.00  0.00    -0.206 F 
ATOM     69  C   UNL A   1      44.179  20.923  25.320  1.00  0.00     0.022 A 
BRANCH  66  70
ATOM     70  S   UNL A   1      42.244  19.161  26.271  1.00  0.00     0.124 S 
ATOM     71  O   UNL A   1      43.048  18.321  25.390  1.00  0.00    -0.237 OA
ATOM     72  O   UNL A   1      42.278  18.825  27.691  1.00  0.00    -0.237 OA
ATOM     73  O   UNL A   1      40.922  19.512  25.751  1.00  0.00    -0.744 OA
ENDBRANCH  66  70
ENDBRANCH  49  63
BRANCH  50  74
ATOM     74  C   UNL A   1      41.198  30.184  33.151  1.00  0.00     0.023 A 
ATOM     75  C   UNL A   1      41.172  31.595  33.228  1.00  0.00     0.031 A 
ATOM     76  C   UNL A   1      39.983  29.499  33.273  1.00  0.00     0.131 A 
ATOM     77  C   UNL A   1      39.949  32.277  33.291  1.00  0.00     0.055 A 
ATOM     78  C   UNL A   1      38.767  30.184  33.385  1.00  0.00     0.041 A 
ATOM     79  F   UNL A   1      39.935  28.162  33.165  1.00  0.00    -0.206 F 
ATOM     80  C   UNL A   1      38.743  31.578  33.353  1.00  0.00     0.022 A 
BRANCH  77  81
ATOM     81  S   UNL A   1      39.919  34.077  33.047  1.00  0.00     0.124 S 
ATOM     82  O   UNL A   1      38.531  34.311  32.666  1.00  0.00    -0.237 OA
ATOM     83  O   UNL A   1      40.315  34.591  34.356  1.00  0.00    -0.237 OA
ATOM     84  O   UNL A   1      40.907  34.287  31.990  1.00  0.00    -0.744 OA
ENDBRANCH  77  81
ENDBRANCH  50  74
BRANCH  62  85
ATOM     85  C   UNL A   1      44.946  23.951  33.511  1.00  0.00     0.023 A 
ATOM     86  C   UNL A   1      46.277  23.594  33.778  1.00  0.00     0.031 A 
ATOM     87  C   UNL A   1      43.963  23.050  33.996  1.00  0.00     0.131 A 
ATOM     88  C   UNL A   1      46.583  22.470  34.569  1.00  0.00     0.055 A 
ATOM     89  C   UNL A   1      44.274  21.896  34.720  1.00  0.00     0.041 A 
ATOM     90  F   UNL A   1      42.653  23.259  33.813  1.00  0.00    -0.206 F 
ATOM     91  C   UNL A   1      45.591  21.609  35.030  1.00  0.00     0.022 A 
BRANCH  88  92
ATOM     92  S   UNL A   1      48.310  22.182  35.037  1.00  0.00     0.124 S 
ATOM     93  O   UNL A   1      49.019  23.198  34.268  1.00  0.00    -0.237 OA
ATOM     94  O   UNL A   1      48.265  22.395  36.482  1.00  0.00    -0.237 OA
ATOM     95  O   UNL A   1      48.556  20.802  34.622  1.00  0.00    -0.744 OA
ENDBRANCH  88  92
ENDBRANCH  62  85
ENDBRANCH  36  37
ENDBRANCH  28  31
ENDBRANCH  26  27
ENDBRANCH  25  26
ENDBRANCH  24  25
ENDBRANCH   1  24
TORSDOF 19
ENDMDL
MODEL 2
REMARK VINA RESULT:     -12.2      1.572      3.608
REMARK SMILES Cc1cccc(C(=O)NCCCCCCNC(=O)c2ccc(-c3c4nc(c(-c5cc(S(=O)(=O)[O-])ccc5F)c5ccc([nH]5)c(-c5cc(S(=O)(=O)[O-])ccc5F)c5nc(c(-c6cc(S(=O)(=O)[O-])ccc6F)c6ccc3[nH]6)C=C5)C=C4)cc2)c1OC[C@@H]1C[C@H]2CC[C@@H]1C2
REMARK SMILES IDX 12 1 11 2 10 3 9 4 7 5 8 6 6 8 1 9 2 10 3 11 82 12 4 13 5 14
REMARK SMILES IDX 83 15 84 16 85 17 86 18 90 19 87 20 89 21 91 22 88 23 13 24
REMARK SMILES IDX 14 25 15 26 16 27 17 28 18 30 19 31 20 32 81 33 21 34 80 35
REMARK SMILES IDX 22 36 23 37 24 38 74 39 25 40 79 41 73 42 75 43 26 44 78 45
REMARK SMILES IDX 72 46 71 47 27 49 59 50 39 51 58 52 40 53 43 54 57 55 76 56
REMARK SMILES IDX 41 57 42 58 56 60 77 61 44 62 28 63 29 64 37 65 30 66 36 67
REMARK SMILES IDX 38 68 35 69 31 70 32 71 33 72 34 73 60 74 61 75 69 76 62 77
REMARK SMILES IDX 68 78 70 79 67 80 63 81 64 82 65 83 66 84 45 85 46 86 54 87
REMARK SMILES IDX 47 88 53 89 55 90 52 91 48 92 49 93 50 94 51 95
REMARK H PARENT 9 7 16 29 75 48 43 59
REMARK Flexibility Score: inf
ROOT
ATOM      1  C   UNL A   1      33.928  29.028  25.241  1.00  0.00     0.002 C 
ENDROOT
BRANCH   1   2
ATOM      2  C   UNL A   1      33.566  28.008  24.152  1.00  0.00     0.021 C 
BRANCH   2   3
ATOM      3  C   UNL A   1      33.267  28.625  22.782  1.00  0.00     0.116 C 
BRANCH   3   4
ATOM      4  N   UNL A   1      33.398  27.633  21.748  1.00  0.00    -0.352 N 
ATOM      5  C   UNL A   1      32.972  26.343  21.635  1.00  0.00     0.255 C 
ATOM      6  O   UNL A   1      33.272  25.770  20.579  1.00  0.00    -0.269 OA
ATOM      7  H   UNL A   1      33.896  27.950  20.961  1.00  0.00     0.163 HD
BRANCH   5   8
ATOM      8  C   UNL A   1      32.125  25.580  22.611  1.00  0.00     0.082 A 
ATOM      9  C   UNL A   1      29.530  25.919  25.403  1.00  0.00     0.048 C 
ATOM     10  C   UNL A   1      30.518  25.338  24.424  1.00  0.00    -0.008 A 
ATOM     11  C   UNL A   1      31.218  24.206  24.884  1.00  0.00     0.007 A 
ATOM     12  C   UNL A   1      30.902  25.964  23.212  1.00  0.00     0.134 A 
ATOM     13  C   UNL A   1      32.338  23.740  24.217  1.00  0.00     0.001 A 
ATOM     14  C   UNL A   1      32.803  24.445  23.115  1.00  0.00     0.018 A 
BRANCH  12  15
ATOM     15  O   UNL A   1      30.187  26.999  22.688  1.00  0.00    -0.492 OA
BRANCH  15  16
ATOM     16  C   UNL A   1      29.915  28.172  23.497  1.00  0.00     0.233 C 
BRANCH  16  17
ATOM     17  C   UNL A   1      29.655  29.527  22.788  1.00  0.00     0.030 C 
ATOM     18  C   UNL A   1      29.510  30.709  23.794  1.00  0.00     0.011 C 
ATOM     19  C   UNL A   1      28.265  29.578  22.089  1.00  0.00    -0.004 C 
ATOM     20  C   UNL A   1      28.115  31.290  23.494  1.00  0.00    -0.010 C 
ATOM     21  C   UNL A   1      28.219  30.795  21.148  1.00  0.00     0.004 C 
ATOM     22  C   UNL A   1      27.320  30.024  23.207  1.00  0.00     0.007 C 
ATOM     23  C   UNL A   1      28.130  31.977  22.120  1.00  0.00     0.004 C 
ENDBRANCH  16  17
ENDBRANCH  15  16
ENDBRANCH  12  15
ENDBRANCH   5   8
ENDBRANCH   3   4
ENDBRANCH   2   3
ENDBRANCH   1   2
BRANCH   1  24
ATOM     24  C   UNL A   1      32.747  29.807  25.843  1.00  0.00     0.002 C 
BRANCH  24  25
ATOM     25  C   UNL A   1      33.063  30.644  27.084  1.00  0.00     0.021 C 
BRANCH  25  26
ATOM     26  C   UNL A   1      34.196  30.070  27.931  1.00  0.00     0.116 C 
BRANCH  26  27
ATOM     27  N   UNL A   1      34.946  31.088  28.659  1.00  0.00    -0.352 N 
ATOM     28  C   UNL A   1      36.229  31.018  29.176  1.00  0.00     0.251 C 
ATOM     29  H   UNL A   1      34.476  31.941  28.803  1.00  0.00     0.163 HD
ATOM     30  O   UNL A   1      36.720  31.940  29.803  1.00  0.00    -0.269 OA
BRANCH  28  31
ATOM     31  C   UNL A   1      37.050  29.833  28.836  1.00  0.00     0.039 A 
ATOM     32  C   UNL A   1      37.335  28.940  29.874  1.00  0.00     0.014 A 
ATOM     33  C   UNL A   1      37.721  29.751  27.618  1.00  0.00     0.014 A 
ATOM     34  C   UNL A   1      38.456  28.121  29.774  1.00  0.00     0.010 A 
ATOM     35  C   UNL A   1      38.878  28.997  27.550  1.00  0.00     0.010 A 
ATOM     36  C   UNL A   1      39.283  28.241  28.655  1.00  0.00    -0.014 A 
BRANCH  36  37
ATOM     37  C   UNL A   1      40.661  27.760  28.657  1.00  0.00     0.031 A 
ATOM     38  C   UNL A   1      41.004  26.394  28.225  1.00  0.00     0.074 A 
ATOM     39  C   UNL A   1      41.657  28.567  29.090  1.00  0.00     0.049 A 
ATOM     40  N   UNL A   1      41.989  25.720  28.720  1.00  0.00    -0.248 NA
ATOM     41  C   UNL A   1      40.244  25.660  27.221  1.00  0.00     0.031 C 
ATOM     42  C   UNL A   1      43.094  28.327  28.996  1.00  0.00     0.029 A 
ATOM     43  N   UNL A   1      41.542  29.667  29.936  1.00  0.00    -0.354 N 
ATOM     44  C   UNL A   1      42.166  24.612  27.933  1.00  0.00     0.074 A 
ATOM     45  C   UNL A   1      41.013  24.577  27.059  1.00  0.00     0.031 C 
ATOM     46  C   UNL A   1      43.715  29.057  29.934  1.00  0.00     0.029 A 
ATOM     47  C   UNL A   1      42.693  29.698  30.742  1.00  0.00     0.049 A 
ATOM     48  H   UNL A   1      40.793  30.305  29.964  1.00  0.00     0.167 HD
ATOM     49  C   UNL A   1      43.327  23.904  27.996  1.00  0.00     0.034 A 
ATOM     50  C   UNL A   1      42.598  29.639  32.102  1.00  0.00     0.034 A 
ATOM     51  C   UNL A   1      44.287  24.466  28.942  1.00  0.00     0.049 A 
ATOM     52  C   UNL A   1      43.269  28.428  32.725  1.00  0.00     0.074 A 
ATOM     53  C   UNL A   1      45.442  25.220  28.815  1.00  0.00     0.029 A 
ATOM     54  N   UNL A   1      43.971  24.484  30.289  1.00  0.00    -0.354 N 
ATOM     55  N   UNL A   1      43.891  27.492  32.060  1.00  0.00    -0.248 NA
ATOM     56  C   UNL A   1      43.193  28.128  34.155  1.00  0.00     0.031 C 
ATOM     57  C   UNL A   1      45.826  25.672  30.110  1.00  0.00     0.029 A 
ATOM     58  C   UNL A   1      44.913  25.179  31.023  1.00  0.00     0.049 A 
ATOM     59  H   UNL A   1      43.173  24.056  30.676  1.00  0.00     0.167 HD
ATOM     60  C   UNL A   1      44.200  26.455  32.908  1.00  0.00     0.074 A 
ATOM     61  C   UNL A   1      43.752  26.907  34.212  1.00  0.00     0.031 C 
ATOM     62  C   UNL A   1      44.739  25.279  32.464  1.00  0.00     0.034 A 
BRANCH  49  63
ATOM     63  C   UNL A   1      43.671  22.840  26.992  1.00  0.00     0.023 A 
ATOM     64  C   UNL A   1      42.983  21.612  27.012  1.00  0.00     0.031 A 
ATOM     65  C   UNL A   1      44.673  22.971  26.012  1.00  0.00     0.131 A 
ATOM     66  C   UNL A   1      43.361  20.552  26.170  1.00  0.00     0.055 A 
ATOM     67  C   UNL A   1      45.087  21.900  25.210  1.00  0.00     0.041 A 
ATOM     68  F   UNL A   1      45.276  24.150  25.788  1.00  0.00    -0.206 F 
ATOM     69  C   UNL A   1      44.439  20.676  25.297  1.00  0.00     0.022 A 
BRANCH  66  70
ATOM     70  S   UNL A   1      42.417  19.005  26.237  1.00  0.00     0.124 S 
ATOM     71  O   UNL A   1      43.184  18.135  25.352  1.00  0.00    -0.237 OA
ATOM     72  O   UNL A   1      42.461  18.680  27.659  1.00  0.00    -0.237 OA
ATOM     73  O   UNL A   1      41.100  19.391  25.731  1.00  0.00    -0.744 OA
ENDBRANCH  66  70
ENDBRANCH  49  63
BRANCH  50  74
ATOM     74  C   UNL A   1      41.375  30.313  32.627  1.00  0.00     0.023 A 
ATOM     75  C   UNL A   1      41.364  31.725  32.667  1.00  0.00     0.031 A 
ATOM     76  C   UNL A   1      40.147  29.646  32.734  1.00  0.00     0.131 A 
ATOM     77  C   UNL A   1      40.149  32.423  32.679  1.00  0.00     0.055 A 
ATOM     78  C   UNL A   1      38.938  30.348  32.795  1.00  0.00     0.041 A 
ATOM     79  F   UNL A   1      40.086  28.307  32.658  1.00  0.00    -0.206 F 
ATOM     80  C   UNL A   1      38.932  31.741  32.727  1.00  0.00     0.022 A 
BRANCH  77  81
ATOM     81  S   UNL A   1      40.148  34.217  32.389  1.00  0.00     0.124 S 
ATOM     82  O   UNL A   1      38.833  34.607  32.885  1.00  0.00    -0.237 OA
ATOM     83  O   UNL A   1      41.287  34.677  33.180  1.00  0.00    -0.237 OA
ATOM     84  O   UNL A   1      40.334  34.320  30.943  1.00  0.00    -0.744 OA
ENDBRANCH  77  81
ENDBRANCH  50  74
BRANCH  62  85
ATOM     85  C   UNL A   1      45.099  24.097  33.343  1.00  0.00     0.023 A 
ATOM     86  C   UNL A   1      46.364  23.945  33.933  1.00  0.00     0.031 A 
ATOM     87  C   UNL A   1      44.191  23.030  33.563  1.00  0.00     0.131 A 
ATOM     88  C   UNL A   1      46.648  22.849  34.772  1.00  0.00     0.055 A 
ATOM     89  C   UNL A   1      44.500  21.909  34.337  1.00  0.00     0.041 A 
ATOM     90  F   UNL A   1      42.950  23.035  33.058  1.00  0.00    -0.206 F 
ATOM     91  C   UNL A   1      45.729  21.821  34.965  1.00  0.00     0.022 A 
BRANCH  88  92
ATOM     92  S   UNL A   1      48.229  22.819  35.656  1.00  0.00     0.124 S 
ATOM     93  O   UNL A   1      49.096  22.100  34.729  1.00  0.00    -0.237 OA
ATOM     94  O   UNL A   1      48.508  24.244  35.812  1.00  0.00    -0.237 OA
ATOM     95  O   UNL A   1      47.919  22.110  36.896  1.00  0.00    -0.744 OA
ENDBRANCH  88  92
ENDBRANCH  62  85
ENDBRANCH  36  37
ENDBRANCH  28  31
ENDBRANCH  26  27
ENDBRANCH  25  26
ENDBRANCH  24  25
ENDBRANCH   1  24
TORSDOF 19
ENDMDL
MODEL 3
REMARK VINA RESULT:     -11.9      1.663      2.168
REMARK SMILES Cc1cccc(C(=O)NCCCCCCNC(=O)c2ccc(-c3c4nc(c(-c5cc(S(=O)(=O)[O-])ccc5F)c5ccc([nH]5)c(-c5cc(S(=O)(=O)[O-])ccc5F)c5nc(c(-c6cc(S(=O)(=O)[O-])ccc6F)c6ccc3[nH]6)C=C5)C=C4)cc2)c1OC[C@@H]1C[C@H]2CC[C@@H]1C2
REMARK SMILES IDX 12 1 11 2 10 3 9 4 7 5 8 6 6 8 1 9 2 10 3 11 82 12 4 13 5 14
REMARK SMILES IDX 83 15 84 16 85 17 86 18 90 19 87 20 89 21 91 22 88 23 13 24
REMARK SMILES IDX 14 25 15 26 16 27 17 28 18 30 19 31 20 32 81 33 21 34 80 35
REMARK SMILES IDX 22 36 23 37 24 38 74 39 25 40 79 41 73 42 75 43 26 44 78 45
REMARK SMILES IDX 72 46 71 47 27 49 59 50 39 51 58 52 40 53 43 54 57 55 76 56
REMARK SMILES IDX 41 57 42 58 56 60 77 61 44 62 28 63 29 64 37 65 30 66 36 67
REMARK SMILES IDX 38 68 35 69 31 70 32 71 33 72 34 73 60 74 61 75 69 76 62 77
REMARK SMILES IDX 68 78 70 79 67 80 63 81 64 82 65 83 66 84 45 85 46 86 54 87
REMARK SMILES IDX 47 88 53 89 55 90 52 91 48 92 49 93 50 94 51 95
REMARK H PARENT 9 7 16 29 75 48 43 59
REMARK Flexibility Score: inf
ROOT
ATOM      1  C   UNL A   1      32.696  26.739  26.387  1.00  0.00     0.002 C 
ENDROOT
BRANCH   1   2
ATOM      2  C   UNL A   1      32.035  25.381  26.665  1.00  0.00     0.021 C 
BRANCH   2   3
ATOM      3  C   UNL A   1      30.566  25.294  26.237  1.00  0.00     0.116 C 
BRANCH   3   4
ATOM      4  N   UNL A   1      30.442  24.524  25.028  1.00  0.00    -0.352 N 
ATOM      5  C   UNL A   1      30.564  24.837  23.707  1.00  0.00     0.255 C 
ATOM      6  O   UNL A   1      30.384  23.901  22.917  1.00  0.00    -0.269 OA
ATOM      7  H   UNL A   1      30.226  23.577  25.187  1.00  0.00     0.163 HD
BRANCH   5   8
ATOM      8  C   UNL A   1      30.960  26.161  23.122  1.00  0.00     0.082 A 
ATOM      9  C   UNL A   1      33.876  28.588  22.621  1.00  0.00     0.048 C 
ATOM     10  C   UNL A   1      32.497  27.981  22.617  1.00  0.00    -0.008 A 
ATOM     11  C   UNL A   1      31.439  28.901  22.752  1.00  0.00     0.007 A 
ATOM     12  C   UNL A   1      32.237  26.590  22.686  1.00  0.00     0.134 A 
ATOM     13  C   UNL A   1      30.155  28.474  23.041  1.00  0.00     0.001 A 
ATOM     14  C   UNL A   1      29.931  27.122  23.260  1.00  0.00     0.018 A 
BRANCH  12  15
ATOM     15  O   UNL A   1      33.219  25.671  22.461  1.00  0.00    -0.492 OA
BRANCH  15  16
ATOM     16  C   UNL A   1      34.050  25.219  23.560  1.00  0.00     0.233 C 
BRANCH  16  17
ATOM     17  C   UNL A   1      34.581  23.761  23.547  1.00  0.00     0.030 C 
ATOM     18  C   UNL A   1      33.673  22.789  24.359  1.00  0.00     0.011 C 
ATOM     19  C   UNL A   1      35.922  23.607  24.321  1.00  0.00    -0.004 C 
ATOM     20  C   UNL A   1      34.616  22.187  25.419  1.00  0.00    -0.010 C 
ATOM     21  C   UNL A   1      36.543  22.239  23.987  1.00  0.00     0.004 C 
ATOM     22  C   UNL A   1      35.477  23.393  25.769  1.00  0.00     0.007 C 
ATOM     23  C   UNL A   1      35.631  21.258  24.735  1.00  0.00     0.004 C 
ENDBRANCH  16  17
ENDBRANCH  15  16
ENDBRANCH  12  15
ENDBRANCH   5   8
ENDBRANCH   3   4
ENDBRANCH   2   3
ENDBRANCH   1   2
BRANCH   1  24
ATOM     24  C   UNL A   1      31.754  27.953  26.393  1.00  0.00     0.002 C 
BRANCH  24  25
ATOM     25  C   UNL A   1      32.187  29.129  27.271  1.00  0.00     0.021 C 
BRANCH  25  26
ATOM     26  C   UNL A   1      33.700  29.237  27.437  1.00  0.00     0.116 C 
BRANCH  26  27
ATOM     27  N   UNL A   1      34.126  30.488  28.059  1.00  0.00    -0.352 N 
ATOM     28  C   UNL A   1      35.362  30.818  28.587  1.00  0.00     0.251 C 
ATOM     29  H   UNL A   1      33.440  31.191  28.109  1.00  0.00     0.163 HD
ATOM     30  O   UNL A   1      35.567  31.896  29.116  1.00  0.00    -0.269 OA
BRANCH  28  31
ATOM     31  C   UNL A   1      36.481  29.870  28.379  1.00  0.00     0.039 A 
ATOM     32  C   UNL A   1      36.840  29.064  29.465  1.00  0.00     0.014 A 
ATOM     33  C   UNL A   1      37.301  29.962  27.257  1.00  0.00     0.014 A 
ATOM     34  C   UNL A   1      38.128  28.542  29.524  1.00  0.00     0.010 A 
ATOM     35  C   UNL A   1      38.605  29.513  27.350  1.00  0.00     0.010 A 
ATOM     36  C   UNL A   1      39.037  28.868  28.515  1.00  0.00    -0.014 A 
BRANCH  36  37
ATOM     37  C   UNL A   1      40.479  28.736  28.699  1.00  0.00     0.031 A 
ATOM     38  C   UNL A   1      41.239  27.635  28.081  1.00  0.00     0.074 A 
ATOM     39  C   UNL A   1      41.144  29.621  29.476  1.00  0.00     0.049 A 
ATOM     40  N   UNL A   1      42.288  27.109  28.621  1.00  0.00    -0.248 NA
ATOM     41  C   UNL A   1      40.861  27.012  26.819  1.00  0.00     0.031 C 
ATOM     42  C   UNL A   1      42.590  29.752  29.628  1.00  0.00     0.029 A 
ATOM     43  N   UNL A   1      40.613  30.423  30.483  1.00  0.00    -0.354 N 
ATOM     44  C   UNL A   1      42.873  26.299  27.682  1.00  0.00     0.074 A 
ATOM     45  C   UNL A   1      41.911  26.212  26.603  1.00  0.00     0.031 C 
ATOM     46  C   UNL A   1      42.847  30.354  30.799  1.00  0.00     0.029 A 
ATOM     47  C   UNL A   1      41.584  30.523  31.495  1.00  0.00     0.049 A 
ATOM     48  H   UNL A   1      39.723  30.842  30.486  1.00  0.00     0.167 HD
ATOM     49  C   UNL A   1      44.160  25.887  27.836  1.00  0.00     0.034 A 
ATOM     50  C   UNL A   1      41.314  30.112  32.768  1.00  0.00     0.034 A 
ATOM     51  C   UNL A   1      44.784  26.408  29.048  1.00  0.00     0.049 A 
ATOM     52  C   UNL A   1      42.193  28.976  33.260  1.00  0.00     0.074 A 
ATOM     53  C   UNL A   1      45.697  27.418  29.310  1.00  0.00     0.029 A 
ATOM     54  N   UNL A   1      44.285  26.022  30.280  1.00  0.00    -0.354 N 
ATOM     55  N   UNL A   1      43.135  28.403  32.562  1.00  0.00    -0.248 NA
ATOM     56  C   UNL A   1      41.997  28.326  34.556  1.00  0.00     0.031 C 
ATOM     57  C   UNL A   1      45.753  27.616  30.719  1.00  0.00     0.029 A 
ATOM     58  C   UNL A   1      44.887  26.716  31.312  1.00  0.00     0.049 A 
ATOM     59  H   UNL A   1      43.588  25.339  30.404  1.00  0.00     0.167 HD
ATOM     60  C   UNL A   1      43.590  27.290  33.230  1.00  0.00     0.074 A 
ATOM     61  C   UNL A   1      42.852  27.292  34.480  1.00  0.00     0.031 C 
ATOM     62  C   UNL A   1      44.487  26.417  32.678  1.00  0.00     0.034 A 
BRANCH  49  63
ATOM     63  C   UNL A   1      44.922  25.211  26.730  1.00  0.00     0.023 A 
ATOM     64  C   UNL A   1      44.637  23.873  26.402  1.00  0.00     0.031 A 
ATOM     65  C   UNL A   1      45.946  25.826  25.985  1.00  0.00     0.131 A 
ATOM     66  C   UNL A   1      45.409  23.173  25.460  1.00  0.00     0.055 A 
ATOM     67  C   UNL A   1      46.753  25.116  25.085  1.00  0.00     0.041 A 
ATOM     68  F   UNL A   1      46.190  27.142  26.091  1.00  0.00    -0.206 F 
ATOM     69  C   UNL A   1      46.495  23.776  24.830  1.00  0.00     0.022 A 
BRANCH  66  70
ATOM     70  S   UNL A   1      44.971  21.457  25.073  1.00  0.00     0.124 S 
ATOM     71  O   UNL A   1      44.630  21.535  23.657  1.00  0.00    -0.237 OA
ATOM     72  O   UNL A   1      46.201  20.744  25.402  1.00  0.00    -0.237 OA
ATOM     73  O   UNL A   1      43.844  21.187  25.964  1.00  0.00    -0.744 OA
ENDBRANCH  66  70
ENDBRANCH  49  63
BRANCH  50  74
ATOM     74  C   UNL A   1      39.891  30.333  33.158  1.00  0.00     0.023 A 
ATOM     75  C   UNL A   1      39.476  31.659  33.416  1.00  0.00     0.031 A 
ATOM     76  C   UNL A   1      38.901  29.369  32.933  1.00  0.00     0.131 A 
ATOM     77  C   UNL A   1      38.122  32.008  33.314  1.00  0.00     0.055 A 
ATOM     78  C   UNL A   1      37.545  29.713  32.881  1.00  0.00     0.041 A 
ATOM     79  F   UNL A   1      39.232  28.102  32.640  1.00  0.00    -0.206 F 
ATOM     80  C   UNL A   1      37.154  31.043  33.031  1.00  0.00     0.022 A 
BRANCH  77  81
ATOM     81  S   UNL A   1      37.651  33.763  33.312  1.00  0.00     0.124 S 
ATOM     82  O   UNL A   1      37.545  34.053  34.737  1.00  0.00    -0.237 OA
ATOM     83  O   UNL A   1      38.765  34.400  32.615  1.00  0.00    -0.237 OA
ATOM     84  O   UNL A   1      36.391  33.769  32.571  1.00  0.00    -0.744 OA
ENDBRANCH  77  81
ENDBRANCH  50  74
BRANCH  62  85
ATOM     85  C   UNL A   1      45.025  25.173  33.359  1.00  0.00     0.023 A 
ATOM     86  C   UNL A   1      46.395  24.960  33.582  1.00  0.00     0.031 A 
ATOM     87  C   UNL A   1      44.171  24.111  33.749  1.00  0.00     0.131 A 
ATOM     88  C   UNL A   1      46.852  23.806  34.248  1.00  0.00     0.055 A 
ATOM     89  C   UNL A   1      44.634  22.935  34.345  1.00  0.00     0.041 A 
ATOM     90  F   UNL A   1      42.841  24.172  33.593  1.00  0.00    -0.206 F 
ATOM     91  C   UNL A   1      45.981  22.784  34.618  1.00  0.00     0.022 A 
BRANCH  88  92
ATOM     92  S   UNL A   1      48.608  23.689  34.677  1.00  0.00     0.124 S 
ATOM     93  O   UNL A   1      48.649  24.286  36.008  1.00  0.00    -0.237 OA
ATOM     94  O   UNL A   1      48.832  22.247  34.620  1.00  0.00    -0.237 OA
ATOM     95  O   UNL A   1      49.273  24.461  33.629  1.00  0.00    -0.744 OA
ENDBRANCH  88  92
ENDBRANCH  62  85
ENDBRANCH  36  37
ENDBRANCH  28  31
ENDBRANCH  26  27
ENDBRANCH  25  26
ENDBRANCH  24  25
ENDBRANCH   1  24
TORSDOF 19
ENDMDL
