MODEL 1
REMARK VINA RESULT:     -12.4      0.000      0.000
REMARK SMILES CC(=O)Nc1ccc(/C=N/c2ccccc2C(=O)NCCCCCCNC(=O)c2ccc(-c3c4nc(c(-c5cc(S(=O)(=O)[O-])ccc5F)c5ccc([nH]5)c(-c5cc(S(=O)(=O)[O-])ccc5F)c5nc(c(-c6cc(S(=O)(=O)[O-])ccc6F)c6ccc3[nH]6)C=C5)C=C4)cc2)cc1
REMARK SMILES IDX 22 1 21 2 20 3 19 4 17 5 18 6 16 8 11 9 12 10 13 11 15 12
REMARK SMILES IDX 14 13 10 14 9 15 8 16 5 17 6 18 93 19 7 20 92 21 4 22 1 23
REMARK SMILES IDX 2 24 3 25 23 27 24 28 25 29 26 30 27 31 28 33 29 34 30 35
REMARK SMILES IDX 91 36 31 37 90 38 32 39 33 40 34 41 84 42 35 43 89 44 83 45
REMARK SMILES IDX 85 46 36 47 88 48 82 49 81 50 37 52 69 53 49 54 68 55 50 56
REMARK SMILES IDX 53 57 67 58 86 59 51 60 52 61 66 63 87 64 54 65 38 66 39 67
REMARK SMILES IDX 47 68 40 69 46 70 48 71 45 72 41 73 42 74 43 75 44 76 70 77
REMARK SMILES IDX 71 78 79 79 72 80 78 81 80 82 77 83 73 84 74 85 75 86 76 87
REMARK SMILES IDX 55 88 56 89 64 90 57 91 63 92 65 93 62 94 58 95 59 96 60 97
REMARK SMILES IDX 61 98
REMARK H PARENT 19 7 4 26 26 32 85 51 53 62
REMARK Flexibility Score: inf
ROOT
ATOM      1  C   UNL A   1      32.682  29.639  26.427  1.00  0.00     0.002 C 
ENDROOT
BRANCH   1   2
ATOM      2  C   UNL A   1      33.472  28.816  25.402  1.00  0.00     0.021 C 
BRANCH   2   3
ATOM      3  C   UNL A   1      33.870  27.386  25.761  1.00  0.00     0.116 C 
BRANCH   3   4
ATOM      4  N   UNL A   1      34.143  26.518  24.637  1.00  0.00    -0.352 N 
ATOM      5  C   UNL A   1      33.479  25.383  24.236  1.00  0.00     0.253 C 
ATOM      6  O   UNL A   1      33.819  24.858  23.172  1.00  0.00    -0.269 OA
ATOM      7  H   UNL A   1      34.912  26.778  24.080  1.00  0.00     0.163 HD
BRANCH   5   8
ATOM      8  C   UNL A   1      32.434  24.701  25.050  1.00  0.00     0.065 A 
ATOM      9  C   UNL A   1      31.141  25.191  25.321  1.00  0.00     0.076 A 
ATOM     10  C   UNL A   1      30.269  24.405  26.092  1.00  0.00     0.029 A 
ATOM     11  C   UNL A   1      30.636  23.139  26.550  1.00  0.00     0.002 A 
ATOM     12  C   UNL A   1      32.785  23.410  25.499  1.00  0.00     0.016 A 
ATOM     13  C   UNL A   1      31.894  22.636  26.246  1.00  0.00     0.001 A 
BRANCH   9  14
ATOM     14  N   UNL A   1      30.657  26.452  24.946  1.00  0.00    -0.255 NA
ATOM     15  C   UNL A   1      29.870  26.530  23.922  1.00  0.00     0.119 C 
BRANCH  15  16
ATOM     16  C   UNL A   1      29.443  27.851  23.421  1.00  0.00    -0.007 A 
ATOM     17  C   UNL A   1      28.538  30.176  22.124  1.00  0.00     0.041 A 
ATOM     18  C   UNL A   1      29.910  29.895  22.216  1.00  0.00     0.027 A 
ATOM     19  C   UNL A   1      27.635  29.295  22.727  1.00  0.00     0.027 A 
ATOM     20  C   UNL A   1      30.363  28.737  22.858  1.00  0.00     0.012 A 
ATOM     21  C   UNL A   1      28.082  28.139  23.381  1.00  0.00     0.012 A 
BRANCH  17  22
ATOM     22  N   UNL A   1      28.176  31.275  21.327  1.00  0.00    -0.326 N 
ATOM     23  C   UNL A   1      28.771  33.237  22.754  1.00  0.00     0.114 C 
ATOM     24  C   UNL A   1      28.123  32.618  21.553  1.00  0.00     0.221 C 
ATOM     25  O   UNL A   1      27.551  33.335  20.729  1.00  0.00    -0.275 OA
ATOM     26  H   UNL A   1      27.904  31.023  20.415  1.00  0.00     0.169 HD
ENDBRANCH  17  22
ENDBRANCH  15  16
ENDBRANCH   9  14
ENDBRANCH   5   8
ENDBRANCH   3   4
ENDBRANCH   2   3
ENDBRANCH   1   2
BRANCH   1  27
ATOM     27  C   UNL A   1      31.562  30.563  25.939  1.00  0.00     0.002 C 
BRANCH  27  28
ATOM     28  C   UNL A   1      31.488  31.974  26.518  1.00  0.00     0.021 C 
BRANCH  28  29
ATOM     29  C   UNL A   1      32.739  32.547  27.171  1.00  0.00     0.116 C 
BRANCH  29  30
ATOM     30  N   UNL A   1      32.566  33.917  27.609  1.00  0.00    -0.352 N 
ATOM     31  C   UNL A   1      33.137  34.650  28.624  1.00  0.00     0.251 C 
ATOM     32  H   UNL A   1      31.910  34.424  27.077  1.00  0.00     0.163 HD
ATOM     33  O   UNL A   1      32.681  35.777  28.826  1.00  0.00    -0.269 OA
BRANCH  31  34
ATOM     34  C   UNL A   1      34.257  34.152  29.479  1.00  0.00     0.039 A 
ATOM     35  C   UNL A   1      35.569  34.439  29.071  1.00  0.00     0.014 A 
ATOM     36  C   UNL A   1      34.078  33.336  30.597  1.00  0.00     0.014 A 
ATOM     37  C   UNL A   1      36.675  33.948  29.780  1.00  0.00     0.010 A 
ATOM     38  C   UNL A   1      35.181  32.895  31.346  1.00  0.00     0.010 A 
ATOM     39  C   UNL A   1      36.494  33.174  30.932  1.00  0.00    -0.014 A 
BRANCH  39  40
ATOM     40  C   UNL A   1      37.654  32.566  31.646  1.00  0.00     0.031 A 
ATOM     41  C   UNL A   1      38.389  31.405  31.022  1.00  0.00     0.074 A 
ATOM     42  C   UNL A   1      38.044  33.018  32.853  1.00  0.00     0.049 A 
ATOM     43  N   UNL A   1      39.362  30.674  31.505  1.00  0.00    -0.248 NA
ATOM     44  C   UNL A   1      37.945  31.002  29.680  1.00  0.00     0.031 C 
ATOM     45  C   UNL A   1      37.431  34.131  33.579  1.00  0.00     0.029 A 
ATOM     46  N   UNL A   1      39.045  32.587  33.692  1.00  0.00    -0.354 N 
ATOM     47  C   UNL A   1      39.643  29.720  30.531  1.00  0.00     0.074 A 
ATOM     48  C   UNL A   1      38.687  29.928  29.463  1.00  0.00     0.031 C 
ATOM     49  C   UNL A   1      38.060  34.286  34.756  1.00  0.00     0.029 A 
ATOM     50  C   UNL A   1      39.104  33.272  34.884  1.00  0.00     0.049 A 
ATOM     51  H   UNL A   1      39.660  31.854  33.462  1.00  0.00     0.167 HD
ATOM     52  C   UNL A   1      40.619  28.776  30.511  1.00  0.00     0.034 A 
ATOM     53  C   UNL A   1      39.896  33.096  35.962  1.00  0.00     0.034 A 
ATOM     54  C   UNL A   1      41.571  28.573  31.576  1.00  0.00     0.049 A 
ATOM     55  C   UNL A   1      40.951  32.017  35.942  1.00  0.00     0.074 A 
ATOM     56  C   UNL A   1      42.609  27.658  31.647  1.00  0.00     0.029 A 
ATOM     57  N   UNL A   1      41.602  29.294  32.763  1.00  0.00    -0.354 N 
ATOM     58  N   UNL A   1      41.214  31.135  35.005  1.00  0.00    -0.248 NA
ATOM     59  C   UNL A   1      41.826  31.922  37.119  1.00  0.00     0.031 C 
ATOM     60  C   UNL A   1      43.228  27.786  32.897  1.00  0.00     0.029 A 
ATOM     61  C   UNL A   1      42.623  28.829  33.580  1.00  0.00     0.049 A 
ATOM     62  H   UNL A   1      40.989  30.029  32.992  1.00  0.00     0.167 HD
ATOM     63  C   UNL A   1      42.302  30.400  35.471  1.00  0.00     0.074 A 
ATOM     64  C   UNL A   1      42.652  30.947  36.766  1.00  0.00     0.031 C 
ATOM     65  C   UNL A   1      42.958  29.370  34.876  1.00  0.00     0.034 A 
BRANCH  52  66
ATOM     66  C   UNL A   1      40.670  27.873  29.300  1.00  0.00     0.023 A 
ATOM     67  C   UNL A   1      41.611  28.072  28.273  1.00  0.00     0.031 A 
ATOM     68  C   UNL A   1      39.729  26.840  29.135  1.00  0.00     0.131 A 
ATOM     69  C   UNL A   1      41.527  27.325  27.090  1.00  0.00     0.055 A 
ATOM     70  C   UNL A   1      39.710  26.038  27.992  1.00  0.00     0.041 A 
ATOM     71  F   UNL A   1      38.795  26.610  30.070  1.00  0.00    -0.206 F 
ATOM     72  C   UNL A   1      40.598  26.292  26.951  1.00  0.00     0.022 A 
BRANCH  69  73
ATOM     73  S   UNL A   1      42.529  27.844  25.669  1.00  0.00     0.124 S 
ATOM     74  O   UNL A   1      41.809  29.034  25.221  1.00  0.00    -0.237 OA
ATOM     75  O   UNL A   1      43.836  28.073  26.271  1.00  0.00    -0.237 OA
ATOM     76  O   UNL A   1      42.450  26.702  24.759  1.00  0.00    -0.744 OA
ENDBRANCH  69  73
ENDBRANCH  52  66
BRANCH  53  77
ATOM     77  C   UNL A   1      39.708  33.943  37.174  1.00  0.00     0.023 A 
ATOM     78  C   UNL A   1      39.025  33.464  38.303  1.00  0.00     0.031 A 
ATOM     79  C   UNL A   1      40.181  35.268  37.198  1.00  0.00     0.131 A 
ATOM     80  C   UNL A   1      38.799  34.317  39.396  1.00  0.00     0.055 A 
ATOM     81  C   UNL A   1      39.992  36.098  38.304  1.00  0.00     0.041 A 
ATOM     82  F   UNL A   1      40.844  35.771  36.144  1.00  0.00    -0.206 F 
ATOM     83  C   UNL A   1      39.288  35.626  39.408  1.00  0.00     0.022 A 
BRANCH  80  84
ATOM     84  S   UNL A   1      37.799  33.710  40.783  1.00  0.00     0.124 S 
ATOM     85  O   UNL A   1      38.759  32.879  41.499  1.00  0.00    -0.237 OA
ATOM     86  O   UNL A   1      37.408  34.952  41.439  1.00  0.00    -0.237 OA
ATOM     87  O   UNL A   1      36.712  32.986  40.127  1.00  0.00    -0.744 OA
ENDBRANCH  80  84
ENDBRANCH  53  77
BRANCH  65  88
ATOM     88  C   UNL A   1      44.149  28.797  35.606  1.00  0.00     0.023 A 
ATOM     89  C   UNL A   1      44.022  27.735  36.519  1.00  0.00     0.031 A 
ATOM     90  C   UNL A   1      45.432  29.331  35.387  1.00  0.00     0.131 A 
ATOM     91  C   UNL A   1      45.151  27.273  37.216  1.00  0.00     0.055 A 
ATOM     92  C   UNL A   1      46.558  28.833  36.044  1.00  0.00     0.041 A 
ATOM     93  F   UNL A   1      45.612  30.346  34.527  1.00  0.00    -0.206 F 
ATOM     94  C   UNL A   1      46.419  27.806  36.973  1.00  0.00     0.022 A 
BRANCH  91  95
ATOM     95  S   UNL A   1      44.928  26.016  38.505  1.00  0.00     0.124 S 
ATOM     96  O   UNL A   1      46.307  25.720  38.882  1.00  0.00    -0.237 OA
ATOM     97  O   UNL A   1      44.134  26.727  39.501  1.00  0.00    -0.237 OA
ATOM     98  O   UNL A   1      44.229  24.934  37.813  1.00  0.00    -0.744 OA
ENDBRANCH  91  95
ENDBRANCH  65  88
ENDBRANCH  39  40
ENDBRANCH  31  34
ENDBRANCH  29  30
ENDBRANCH  28  29
ENDBRANCH  27  28
ENDBRANCH   1  27
TORSDOF 19
ENDMDL
MODEL 2
REMARK VINA RESULT:     -12.1      5.039      8.764
REMARK SMILES CC(=O)Nc1ccc(/C=N/c2ccccc2C(=O)NCCCCCCNC(=O)c2ccc(-c3c4nc(c(-c5cc(S(=O)(=O)[O-])ccc5F)c5ccc([nH]5)c(-c5cc(S(=O)(=O)[O-])ccc5F)c5nc(c(-c6cc(S(=O)(=O)[O-])ccc6F)c6ccc3[nH]6)C=C5)C=C4)cc2)cc1
REMARK SMILES IDX 22 1 21 2 20 3 19 4 17 5 18 6 16 8 11 9 12 10 13 11 15 12
REMARK SMILES IDX 14 13 10 14 9 15 8 16 5 17 6 18 93 19 7 20 92 21 4 22 1 23
REMARK SMILES IDX 2 24 3 25 23 27 24 28 25 29 26 30 27 31 28 33 29 34 30 35
REMARK SMILES IDX 91 36 31 37 90 38 32 39 33 40 34 41 84 42 35 43 89 44 83 45
REMARK SMILES IDX 85 46 36 47 88 48 82 49 81 50 37 52 69 53 49 54 68 55 50 56
REMARK SMILES IDX 53 57 67 58 86 59 51 60 52 61 66 63 87 64 54 65 38 66 39 67
REMARK SMILES IDX 47 68 40 69 46 70 48 71 45 72 41 73 42 74 43 75 44 76 70 77
REMARK SMILES IDX 71 78 79 79 72 80 78 81 80 82 77 83 73 84 74 85 75 86 76 87
REMARK SMILES IDX 55 88 56 89 64 90 57 91 63 92 65 93 62 94 58 95 59 96 60 97
REMARK SMILES IDX 61 98
REMARK H PARENT 19 7 4 26 26 32 85 51 53 62
REMARK Flexibility Score: inf
ROOT
ATOM      1  C   UNL A   1      34.608  24.514  23.626  1.00  0.00     0.002 C 
ENDROOT
BRANCH   1   2
ATOM      2  C   UNL A   1      33.542  24.986  22.629  1.00  0.00     0.021 C 
BRANCH   2   3
ATOM      3  C   UNL A   1      33.304  26.485  22.468  1.00  0.00     0.116 C 
BRANCH   3   4
ATOM      4  N   UNL A   1      31.952  26.864  22.121  1.00  0.00    -0.352 N 
ATOM      5  C   UNL A   1      31.072  27.665  22.809  1.00  0.00     0.253 C 
ATOM      6  O   UNL A   1      30.000  27.947  22.266  1.00  0.00    -0.269 OA
ATOM      7  H   UNL A   1      31.615  26.496  21.272  1.00  0.00     0.163 HD
BRANCH   5   8
ATOM      8  C   UNL A   1      31.299  28.143  24.202  1.00  0.00     0.065 A 
ATOM      9  C   UNL A   1      31.474  27.331  25.340  1.00  0.00     0.076 A 
ATOM     10  C   UNL A   1      31.701  27.949  26.582  1.00  0.00     0.029 A 
ATOM     11  C   UNL A   1      31.803  29.335  26.701  1.00  0.00     0.002 A 
ATOM     12  C   UNL A   1      31.429  29.541  24.332  1.00  0.00     0.016 A 
ATOM     13  C   UNL A   1      31.676  30.134  25.573  1.00  0.00     0.001 A 
BRANCH   9  14
ATOM     14  N   UNL A   1      31.368  25.933  25.364  1.00  0.00    -0.255 NA
ATOM     15  C   UNL A   1      32.141  25.270  26.162  1.00  0.00     0.119 C 
BRANCH  15  16
ATOM     16  C   UNL A   1      32.147  23.795  26.122  1.00  0.00    -0.007 A 
ATOM     17  C   UNL A   1      32.502  21.020  25.835  1.00  0.00     0.041 A 
ATOM     18  C   UNL A   1      31.614  21.718  25.004  1.00  0.00     0.027 A 
ATOM     19  C   UNL A   1      33.177  21.728  26.835  1.00  0.00     0.027 A 
ATOM     20  C   UNL A   1      31.437  23.100  25.142  1.00  0.00     0.012 A 
ATOM     21  C   UNL A   1      32.996  23.110  26.986  1.00  0.00     0.012 A 
BRANCH  17  22
ATOM     22  N   UNL A   1      32.728  19.670  25.517  1.00  0.00    -0.326 N 
ATOM     23  C   UNL A   1      35.092  19.663  24.708  1.00  0.00     0.114 C 
ATOM     24  C   UNL A   1      33.759  19.011  24.916  1.00  0.00     0.221 C 
ATOM     25  O   UNL A   1      33.590  17.842  24.565  1.00  0.00    -0.275 OA
ATOM     26  H   UNL A   1      31.989  19.077  25.783  1.00  0.00     0.169 HD
ENDBRANCH  17  22
ENDBRANCH  15  16
ENDBRANCH   9  14
ENDBRANCH   5   8
ENDBRANCH   3   4
ENDBRANCH   2   3
ENDBRANCH   1   2
BRANCH   1  27
ATOM     27  C   UNL A   1      35.211  23.114  23.467  1.00  0.00     0.002 C 
BRANCH  27  28
ATOM     28  C   UNL A   1      36.629  22.878  23.982  1.00  0.00     0.021 C 
BRANCH  28  29
ATOM     29  C   UNL A   1      36.851  22.856  25.489  1.00  0.00     0.116 C 
BRANCH  29  30
ATOM     30  N   UNL A   1      38.054  22.143  25.869  1.00  0.00    -0.352 N 
ATOM     31  C   UNL A   1      39.238  22.551  26.439  1.00  0.00     0.251 C 
ATOM     32  H   UNL A   1      38.017  21.176  25.684  1.00  0.00     0.163 HD
ATOM     33  O   UNL A   1      40.136  21.712  26.525  1.00  0.00    -0.269 OA
BRANCH  31  34
ATOM     34  C   UNL A   1      39.484  23.937  26.939  1.00  0.00     0.039 A 
ATOM     35  C   UNL A   1      40.060  24.860  26.052  1.00  0.00     0.014 A 
ATOM     36  C   UNL A   1      39.274  24.337  28.261  1.00  0.00     0.014 A 
ATOM     37  C   UNL A   1      40.388  26.160  26.465  1.00  0.00     0.010 A 
ATOM     38  C   UNL A   1      39.542  25.655  28.661  1.00  0.00     0.010 A 
ATOM     39  C   UNL A   1      40.127  26.576  27.775  1.00  0.00    -0.014 A 
BRANCH  39  40
ATOM     40  C   UNL A   1      40.552  27.921  28.260  1.00  0.00     0.031 A 
ATOM     41  C   UNL A   1      42.022  28.232  28.402  1.00  0.00     0.074 A 
ATOM     42  C   UNL A   1      39.646  28.858  28.600  1.00  0.00     0.049 A 
ATOM     43  N   UNL A   1      42.608  29.299  28.885  1.00  0.00    -0.248 NA
ATOM     44  C   UNL A   1      42.953  27.184  27.961  1.00  0.00     0.031 C 
ATOM     45  C   UNL A   1      38.194  28.701  28.515  1.00  0.00     0.029 A 
ATOM     46  N   UNL A   1      39.814  30.129  29.098  1.00  0.00    -0.354 N 
ATOM     47  C   UNL A   1      43.975  29.049  28.812  1.00  0.00     0.074 A 
ATOM     48  C   UNL A   1      44.122  27.701  28.303  1.00  0.00     0.031 C 
ATOM     49  C   UNL A   1      37.605  29.825  28.957  1.00  0.00     0.029 A 
ATOM     50  C   UNL A   1      38.633  30.775  29.380  1.00  0.00     0.049 A 
ATOM     51  H   UNL A   1      40.698  30.537  29.242  1.00  0.00     0.167 HD
ATOM     52  C   UNL A   1      45.015  29.868  29.114  1.00  0.00     0.034 A 
ATOM     53  C   UNL A   1      38.400  31.985  29.929  1.00  0.00     0.034 A 
ATOM     54  C   UNL A   1      44.867  31.213  29.619  1.00  0.00     0.049 A 
ATOM     55  C   UNL A   1      39.566  32.872  30.296  1.00  0.00     0.074 A 
ATOM     56  C   UNL A   1      45.852  32.132  29.939  1.00  0.00     0.029 A 
ATOM     57  N   UNL A   1      43.651  31.833  29.883  1.00  0.00    -0.354 N 
ATOM     58  N   UNL A   1      40.852  32.626  30.204  1.00  0.00    -0.248 NA
ATOM     59  C   UNL A   1      39.245  34.204  30.827  1.00  0.00     0.031 C 
ATOM     60  C   UNL A   1      45.237  33.281  30.450  1.00  0.00     0.029 A 
ATOM     61  C   UNL A   1      43.864  33.110  30.384  1.00  0.00     0.049 A 
ATOM     62  H   UNL A   1      42.767  31.426  29.736  1.00  0.00     0.167 HD
ATOM     63  C   UNL A   1      41.492  33.785  30.641  1.00  0.00     0.074 A 
ATOM     64  C   UNL A   1      40.451  34.731  30.985  1.00  0.00     0.031 C 
ATOM     65  C   UNL A   1      42.821  34.044  30.738  1.00  0.00     0.034 A 
BRANCH  52  66
ATOM     66  C   UNL A   1      46.405  29.304  28.932  1.00  0.00     0.023 A 
ATOM     67  C   UNL A   1      46.987  29.182  27.657  1.00  0.00     0.031 A 
ATOM     68  C   UNL A   1      47.134  28.822  30.034  1.00  0.00     0.131 A 
ATOM     69  C   UNL A   1      48.205  28.504  27.503  1.00  0.00     0.055 A 
ATOM     70  C   UNL A   1      48.390  28.231  29.883  1.00  0.00     0.041 A 
ATOM     71  F   UNL A   1      46.627  28.895  31.274  1.00  0.00    -0.206 F 
ATOM     72  C   UNL A   1      48.924  28.049  28.611  1.00  0.00     0.022 A 
BRANCH  69  73
ATOM     73  S   UNL A   1      48.746  28.069  25.827  1.00  0.00     0.124 S 
ATOM     74  O   UNL A   1      49.981  28.841  25.707  1.00  0.00    -0.237 OA
ATOM     75  O   UNL A   1      48.900  26.623  25.911  1.00  0.00    -0.237 OA
ATOM     76  O   UNL A   1      47.648  28.534  24.981  1.00  0.00    -0.744 OA
ENDBRANCH  69  73
ENDBRANCH  52  66
BRANCH  53  77
ATOM     77  C   UNL A   1      37.003  32.429  30.197  1.00  0.00     0.023 A 
ATOM     78  C   UNL A   1      36.262  33.133  29.235  1.00  0.00     0.031 A 
ATOM     79  C   UNL A   1      36.405  32.186  31.447  1.00  0.00     0.131 A 
ATOM     80  C   UNL A   1      34.977  33.604  29.551  1.00  0.00     0.055 A 
ATOM     81  C   UNL A   1      35.111  32.619  31.741  1.00  0.00     0.041 A 
ATOM     82  F   UNL A   1      37.072  31.514  32.400  1.00  0.00    -0.206 F 
ATOM     83  C   UNL A   1      34.393  33.342  30.793  1.00  0.00     0.022 A 
BRANCH  80  84
ATOM     84  S   UNL A   1      34.098  34.623  28.334  1.00  0.00     0.124 S 
ATOM     85  O   UNL A   1      32.830  33.912  28.212  1.00  0.00    -0.237 OA
ATOM     86  O   UNL A   1      34.048  35.918  29.003  1.00  0.00    -0.237 OA
ATOM     87  O   UNL A   1      34.962  34.566  27.156  1.00  0.00    -0.744 OA
ENDBRANCH  80  84
ENDBRANCH  53  77
BRANCH  65  88
ATOM     88  C   UNL A   1      43.223  35.425  31.198  1.00  0.00     0.023 A 
ATOM     89  C   UNL A   1      43.256  35.775  32.560  1.00  0.00     0.031 A 
ATOM     90  C   UNL A   1      43.569  36.408  30.254  1.00  0.00     0.131 A 
ATOM     91  C   UNL A   1      43.582  37.088  32.937  1.00  0.00     0.055 A 
ATOM     92  C   UNL A   1      43.943  37.697  30.637  1.00  0.00     0.041 A 
ATOM     93  F   UNL A   1      43.554  36.130  28.941  1.00  0.00    -0.206 F 
ATOM     94  C   UNL A   1      43.939  38.047  31.984  1.00  0.00     0.022 A 
BRANCH  91  95
ATOM     95  S   UNL A   1      43.458  37.552  34.686  1.00  0.00     0.124 S 
ATOM     96  O   UNL A   1      44.521  36.755  35.288  1.00  0.00    -0.237 OA
ATOM     97  O   UNL A   1      43.687  38.993  34.644  1.00  0.00    -0.237 OA
ATOM     98  O   UNL A   1      42.100  37.153  35.053  1.00  0.00    -0.744 OA
ENDBRANCH  91  95
ENDBRANCH  65  88
ENDBRANCH  39  40
ENDBRANCH  31  34
ENDBRANCH  29  30
ENDBRANCH  28  29
ENDBRANCH  27  28
ENDBRANCH   1  27
TORSDOF 19
ENDMDL
MODEL 3
REMARK VINA RESULT:     -12.0      5.926      9.744
REMARK SMILES CC(=O)Nc1ccc(/C=N/c2ccccc2C(=O)NCCCCCCNC(=O)c2ccc(-c3c4nc(c(-c5cc(S(=O)(=O)[O-])ccc5F)c5ccc([nH]5)c(-c5cc(S(=O)(=O)[O-])ccc5F)c5nc(c(-c6cc(S(=O)(=O)[O-])ccc6F)c6ccc3[nH]6)C=C5)C=C4)cc2)cc1
REMARK SMILES IDX 22 1 21 2 20 3 19 4 17 5 18 6 16 8 11 9 12 10 13 11 15 12
REMARK SMILES IDX 14 13 10 14 9 15 8 16 5 17 6 18 93 19 7 20 92 21 4 22 1 23
REMARK SMILES IDX 2 24 3 25 23 27 24 28 25 29 26 30 27 31 28 33 29 34 30 35
REMARK SMILES IDX 91 36 31 37 90 38 32 39 33 40 34 41 84 42 35 43 89 44 83 45
REMARK SMILES IDX 85 46 36 47 88 48 82 49 81 50 37 52 69 53 49 54 68 55 50 56
REMARK SMILES IDX 53 57 67 58 86 59 51 60 52 61 66 63 87 64 54 65 38 66 39 67
REMARK SMILES IDX 47 68 40 69 46 70 48 71 45 72 41 73 42 74 43 75 44 76 70 77
REMARK SMILES IDX 71 78 79 79 72 80 78 81 80 82 77 83 73 84 74 85 75 86 76 87
REMARK SMILES IDX 55 88 56 89 64 90 57 91 63 92 65 93 62 94 58 95 59 96 60 97
REMARK SMILES IDX 61 98
REMARK H PARENT 19 7 4 26 26 32 85 51 53 62
REMARK Flexibility Score: inf
ROOT
ATOM      1  C   UNL A   1      35.735  23.372  26.248  1.00  0.00     0.002 C 
ENDROOT
BRANCH   1   2
ATOM      2  C   UNL A   1      35.007  24.368  25.336  1.00  0.00     0.021 C 
BRANCH   2   3
ATOM      3  C   UNL A   1      34.435  25.641  25.954  1.00  0.00     0.116 C 
BRANCH   3   4
ATOM      4  N   UNL A   1      32.993  25.679  26.071  1.00  0.00    -0.352 N 
ATOM      5  C   UNL A   1      32.039  25.398  25.122  1.00  0.00     0.253 C 
ATOM      6  O   UNL A   1      30.857  25.386  25.477  1.00  0.00    -0.269 OA
ATOM      7  H   UNL A   1      32.648  25.942  26.955  1.00  0.00     0.163 HD
BRANCH   5   8
ATOM      8  C   UNL A   1      32.339  25.193  23.677  1.00  0.00     0.065 A 
ATOM      9  C   UNL A   1      32.388  23.956  23.006  1.00  0.00     0.076 A 
ATOM     10  C   UNL A   1      32.664  23.944  21.629  1.00  0.00     0.029 A 
ATOM     11  C   UNL A   1      32.842  25.125  20.909  1.00  0.00     0.002 A 
ATOM     12  C   UNL A   1      32.497  26.381  22.934  1.00  0.00     0.016 A 
ATOM     13  C   UNL A   1      32.749  26.349  21.560  1.00  0.00     0.001 A 
BRANCH   9  14
ATOM     14  N   UNL A   1      32.255  22.699  23.613  1.00  0.00    -0.255 NA
ATOM     15  C   UNL A   1      32.710  21.661  22.987  1.00  0.00     0.119 C 
BRANCH  15  16
ATOM     16  C   UNL A   1      32.475  20.311  23.534  1.00  0.00    -0.007 A 
ATOM     17  C   UNL A   1      32.429  17.720  24.625  1.00  0.00     0.041 A 
ATOM     18  C   UNL A   1      32.350  17.914  23.238  1.00  0.00     0.027 A 
ATOM     19  C   UNL A   1      32.491  18.844  25.454  1.00  0.00     0.027 A 
ATOM     20  C   UNL A   1      32.376  19.202  22.692  1.00  0.00     0.012 A 
ATOM     21  C   UNL A   1      32.506  20.138  24.914  1.00  0.00     0.012 A 
BRANCH  17  22
ATOM     22  N   UNL A   1      32.555  16.391  25.065  1.00  0.00    -0.326 N 
ATOM     23  C   UNL A   1      35.028  16.061  25.183  1.00  0.00     0.114 C 
ATOM     24  C   UNL A   1      33.619  15.553  25.217  1.00  0.00     0.221 C 
ATOM     25  O   UNL A   1      33.406  14.355  25.417  1.00  0.00    -0.275 OA
ATOM     26  H   UNL A   1      31.696  15.979  25.316  1.00  0.00     0.169 HD
ENDBRANCH  17  22
ENDBRANCH  15  16
ENDBRANCH   9  14
ENDBRANCH   5   8
ENDBRANCH   3   4
ENDBRANCH   2   3
ENDBRANCH   1   2
BRANCH   1  27
ATOM     27  C   UNL A   1      35.346  21.890  26.195  1.00  0.00     0.002 C 
BRANCH  27  28
ATOM     28  C   UNL A   1      36.131  20.972  25.261  1.00  0.00     0.021 C 
BRANCH  28  29
ATOM     29  C   UNL A   1      37.575  21.339  24.942  1.00  0.00     0.116 C 
BRANCH  29  30
ATOM     30  N   UNL A   1      38.531  20.443  25.560  1.00  0.00    -0.352 N 
ATOM     31  C   UNL A   1      39.670  20.662  26.300  1.00  0.00     0.251 C 
ATOM     32  H   UNL A   1      38.325  19.489  25.426  1.00  0.00     0.163 HD
ATOM     33  O   UNL A   1      40.351  19.676  26.585  1.00  0.00    -0.269 OA
BRANCH  31  34
ATOM     34  C   UNL A   1      40.116  22.013  26.758  1.00  0.00     0.039 A 
ATOM     35  C   UNL A   1      39.506  23.135  26.175  1.00  0.00     0.014 A 
ATOM     36  C   UNL A   1      41.170  22.224  27.649  1.00  0.00     0.014 A 
ATOM     37  C   UNL A   1      39.917  24.437  26.498  1.00  0.00     0.010 A 
ATOM     38  C   UNL A   1      41.541  23.525  28.023  1.00  0.00     0.010 A 
ATOM     39  C   UNL A   1      40.937  24.648  27.433  1.00  0.00    -0.014 A 
BRANCH  39  40
ATOM     40  C   UNL A   1      41.452  26.018  27.721  1.00  0.00     0.031 A 
ATOM     41  C   UNL A   1      42.833  26.409  27.255  1.00  0.00     0.074 A 
ATOM     42  C   UNL A   1      40.714  26.908  28.413  1.00  0.00     0.049 A 
ATOM     43  N   UNL A   1      43.508  27.511  27.473  1.00  0.00    -0.248 NA
ATOM     44  C   UNL A   1      43.557  25.409  26.459  1.00  0.00     0.031 C 
ATOM     45  C   UNL A   1      39.364  26.672  28.926  1.00  0.00     0.029 A 
ATOM     46  N   UNL A   1      41.004  28.190  28.817  1.00  0.00    -0.354 N 
ATOM     47  C   UNL A   1      44.738  27.334  26.846  1.00  0.00     0.074 A 
ATOM     48  C   UNL A   1      44.735  25.991  26.302  1.00  0.00     0.031 C 
ATOM     49  C   UNL A   1      38.949  27.767  29.585  1.00  0.00     0.029 A 
ATOM     50  C   UNL A   1      40.007  28.774  29.565  1.00  0.00     0.049 A 
ATOM     51  H   UNL A   1      41.846  28.647  28.594  1.00  0.00     0.167 HD
ATOM     52  C   UNL A   1      45.765  28.211  26.709  1.00  0.00     0.034 A 
ATOM     53  C   UNL A   1      39.956  29.975  30.178  1.00  0.00     0.034 A 
ATOM     54  C   UNL A   1      45.765  29.550  27.249  1.00  0.00     0.049 A 
ATOM     55  C   UNL A   1      41.121  30.926  30.051  1.00  0.00     0.074 A 
ATOM     56  C   UNL A   1      46.745  30.523  27.153  1.00  0.00     0.029 A 
ATOM     57  N   UNL A   1      44.731  30.105  27.994  1.00  0.00    -0.354 N 
ATOM     58  N   UNL A   1      42.269  30.749  29.439  1.00  0.00    -0.248 NA
ATOM     59  C   UNL A   1      40.974  32.244  30.684  1.00  0.00     0.031 C 
ATOM     60  C   UNL A   1      46.332  31.643  27.886  1.00  0.00     0.029 A 
ATOM     61  C   UNL A   1      45.062  31.396  28.383  1.00  0.00     0.049 A 
ATOM     62  H   UNL A   1      43.887  29.650  28.214  1.00  0.00     0.167 HD
ATOM     63  C   UNL A   1      42.969  31.945  29.593  1.00  0.00     0.074 A 
ATOM     64  C   UNL A   1      42.110  32.836  30.345  1.00  0.00     0.031 C 
ATOM     65  C   UNL A   1      44.207  32.276  29.144  1.00  0.00     0.034 A 
BRANCH  52  66
ATOM     66  C   UNL A   1      46.988  27.721  25.968  1.00  0.00     0.023 A 
ATOM     67  C   UNL A   1      47.214  28.055  24.620  1.00  0.00     0.031 A 
ATOM     68  C   UNL A   1      47.907  26.858  26.592  1.00  0.00     0.131 A 
ATOM     69  C   UNL A   1      48.265  27.452  23.915  1.00  0.00     0.055 A 
ATOM     70  C   UNL A   1      49.006  26.334  25.908  1.00  0.00     0.041 A 
ATOM     71  F   UNL A   1      47.739  26.489  27.871  1.00  0.00    -0.206 F 
ATOM     72  C   UNL A   1      49.178  26.612  24.555  1.00  0.00     0.022 A 
BRANCH  69  73
ATOM     73  S   UNL A   1      48.313  27.640  22.111  1.00  0.00     0.124 S 
ATOM     74  O   UNL A   1      48.527  26.260  21.678  1.00  0.00    -0.237 OA
ATOM     75  O   UNL A   1      47.005  28.208  21.817  1.00  0.00    -0.237 OA
ATOM     76  O   UNL A   1      49.449  28.534  21.890  1.00  0.00    -0.744 OA
ENDBRANCH  69  73
ENDBRANCH  52  66
BRANCH  53  77
ATOM     77  C   UNL A   1      38.768  30.346  30.998  1.00  0.00     0.023 A 
ATOM     78  C   UNL A   1      37.679  31.035  30.440  1.00  0.00     0.031 A 
ATOM     79  C   UNL A   1      38.728  30.045  32.372  1.00  0.00     0.131 A 
ATOM     80  C   UNL A   1      36.613  31.437  31.261  1.00  0.00     0.055 A 
ATOM     81  C   UNL A   1      37.645  30.408  33.175  1.00  0.00     0.041 A 
ATOM     82  F   UNL A   1      39.743  29.384  32.952  1.00  0.00    -0.206 F 
ATOM     83  C   UNL A   1      36.583  31.118  32.622  1.00  0.00     0.022 A 
BRANCH  80  84
ATOM     84  S   UNL A   1      35.286  32.440  30.537  1.00  0.00     0.124 S 
ATOM     85  O   UNL A   1      35.939  33.735  30.390  1.00  0.00    -0.237 OA
ATOM     86  O   UNL A   1      35.001  31.719  29.301  1.00  0.00    -0.237 OA
ATOM     87  O   UNL A   1      34.228  32.384  31.545  1.00  0.00    -0.744 OA
ENDBRANCH  80  84
ENDBRANCH  53  77
BRANCH  65  88
ATOM     88  C   UNL A   1      44.687  33.681  29.420  1.00  0.00     0.023 A 
ATOM     89  C   UNL A   1      44.350  34.760  28.584  1.00  0.00     0.031 A 
ATOM     90  C   UNL A   1      45.504  33.939  30.536  1.00  0.00     0.131 A 
ATOM     91  C   UNL A   1      44.866  36.039  28.849  1.00  0.00     0.055 A 
ATOM     92  C   UNL A   1      45.972  35.223  30.824  1.00  0.00     0.041 A 
ATOM     93  F   UNL A   1      45.859  32.947  31.367  1.00  0.00    -0.206 F 
ATOM     94  C   UNL A   1      45.663  36.279  29.972  1.00  0.00     0.022 A 
BRANCH  91  95
ATOM     95  S   UNL A   1      44.546  37.374  27.663  1.00  0.00     0.124 S 
ATOM     96  O   UNL A   1      45.875  37.613  27.109  1.00  0.00    -0.237 OA
ATOM     97  O   UNL A   1      43.578  36.763  26.758  1.00  0.00    -0.237 OA
ATOM     98  O   UNL A   1      44.018  38.454  28.496  1.00  0.00    -0.744 OA
ENDBRANCH  91  95
ENDBRANCH  65  88
ENDBRANCH  39  40
ENDBRANCH  31  34
ENDBRANCH  29  30
ENDBRANCH  28  29
ENDBRANCH  27  28
ENDBRANCH   1  27
TORSDOF 19
ENDMDL
