MODEL 1
REMARK VINA RESULT:     -11.2      0.000      0.000
REMARK SMILES C[C@H]1CCN1c1cc(C(=O)NCCCCCCNC(=O)c2ccc(-c3c4nc(c(-c5cc(S(=O)(=O)[O-])ccc5F)c5ccc([nH]5)c(-c5cc(S(=O)(=O)[O-])ccc5F)c5nc(c(-c6cc(S(=O)(=O)[O-])ccc6F)c6ccc3[nH]6)C=C5)C=C4)cc2)ccc1Cl
REMARK SMILES IDX 15 1 14 2 13 3 12 4 11 5 9 6 10 7 8 9 6 10 7 11 86 12 85 13
REMARK SMILES IDX 87 14 84 15 5 16 1 17 2 18 3 19 4 20 16 21 17 22 18 23 19 24
REMARK SMILES IDX 20 26 21 27 22 28 83 29 23 30 82 31 24 32 25 33 26 34 76 35
REMARK SMILES IDX 27 36 81 37 75 38 77 39 28 40 80 41 74 42 73 43 29 45 61 46
REMARK SMILES IDX 41 47 60 48 42 49 45 50 59 51 78 52 43 53 44 54 58 56 79 57
REMARK SMILES IDX 46 58 30 59 31 60 39 61 32 62 38 63 40 64 37 65 33 66 34 67
REMARK SMILES IDX 35 68 36 69 62 70 63 71 71 72 64 73 70 74 72 75 69 76 65 77
REMARK SMILES IDX 66 78 67 79 68 80 47 81 48 82 56 83 49 84 55 85 57 86 54 87
REMARK SMILES IDX 50 88 51 89 52 90 53 91
REMARK H PARENT 11 8 18 25 77 44 45 55
REMARK Flexibility Score: inf
ROOT
ATOM      1  C   UNL A   1      32.096  27.537  25.324  1.00  0.00     0.002 C 
ENDROOT
BRANCH   1   2
ATOM      2  C   UNL A   1      31.315  28.590  24.526  1.00  0.00     0.002 C 
BRANCH   2   3
ATOM      3  C   UNL A   1      31.723  28.717  23.050  1.00  0.00     0.021 C 
BRANCH   3   4
ATOM      4  C   UNL A   1      33.170  28.291  22.787  1.00  0.00     0.116 C 
BRANCH   4   5
ATOM      5  N   UNL A   1      33.219  27.382  21.660  1.00  0.00    -0.352 N 
ATOM      6  C   UNL A   1      32.952  26.053  21.488  1.00  0.00     0.251 C 
ATOM      7  O   UNL A   1      33.147  25.601  20.357  1.00  0.00    -0.269 OA
ATOM      8  H   UNL A   1      33.512  27.822  20.829  1.00  0.00     0.163 HD
BRANCH   6   9
ATOM      9  C   UNL A   1      32.413  25.140  22.540  1.00  0.00     0.041 A 
ATOM     10  C   UNL A   1      33.029  23.587  24.366  1.00  0.00     0.057 A 
ATOM     11  C   UNL A   1      33.370  24.495  23.344  1.00  0.00     0.041 A 
ATOM     12  C   UNL A   1      31.668  23.323  24.575  1.00  0.00     0.064 A 
ATOM     13  C   UNL A   1      30.701  23.974  23.801  1.00  0.00     0.023 A 
ATOM     14  Cl  UNL A   1      31.082  22.307  25.843  1.00  0.00    -0.082 Cl
ATOM     15  C   UNL A   1      31.069  24.898  22.815  1.00  0.00     0.015 A 
BRANCH  10  16
ATOM     16  N   UNL A   1      34.096  23.057  25.114  1.00  0.00    -0.367 N 
ATOM     17  C   UNL A   1      36.071  21.836  24.409  1.00  0.00     0.031 C 
ATOM     18  C   UNL A   1      34.726  21.773  25.115  1.00  0.00     0.081 C 
ATOM     19  C   UNL A   1      34.760  21.849  26.647  1.00  0.00     0.046 C 
ATOM     20  C   UNL A   1      34.328  23.306  26.506  1.00  0.00     0.119 C 
ENDBRANCH  10  16
ENDBRANCH   6   9
ENDBRANCH   4   5
ENDBRANCH   3   4
ENDBRANCH   2   3
ENDBRANCH   1   2
BRANCH   1  21
ATOM     21  C   UNL A   1      32.834  28.076  26.553  1.00  0.00     0.021 C 
BRANCH  21  22
ATOM     22  C   UNL A   1      34.028  28.966  26.223  1.00  0.00     0.116 C 
BRANCH  22  23
ATOM     23  N   UNL A   1      33.796  30.342  26.632  1.00  0.00    -0.352 N 
ATOM     24  C   UNL A   1      34.424  31.076  27.606  1.00  0.00     0.251 C 
ATOM     25  H   UNL A   1      33.086  30.814  26.139  1.00  0.00     0.163 HD
ATOM     26  O   UNL A   1      33.928  32.129  27.991  1.00  0.00    -0.269 OA
BRANCH  24  27
ATOM     27  C   UNL A   1      35.690  30.584  28.194  1.00  0.00     0.039 A 
ATOM     28  C   UNL A   1      35.641  29.789  29.340  1.00  0.00     0.014 A 
ATOM     29  C   UNL A   1      36.920  30.918  27.621  1.00  0.00     0.014 A 
ATOM     30  C   UNL A   1      36.825  29.283  29.881  1.00  0.00     0.010 A 
ATOM     31  C   UNL A   1      38.092  30.352  28.117  1.00  0.00     0.010 A 
ATOM     32  C   UNL A   1      38.058  29.534  29.255  1.00  0.00    -0.014 A 
BRANCH  32  33
ATOM     33  C   UNL A   1      39.321  28.955  29.783  1.00  0.00     0.031 A 
ATOM     34  C   UNL A   1      40.004  29.586  30.966  1.00  0.00     0.074 A 
ATOM     35  C   UNL A   1      39.880  27.899  29.161  1.00  0.00     0.049 A 
ATOM     36  N   UNL A   1      41.144  29.275  31.527  1.00  0.00    -0.248 NA
ATOM     37  C   UNL A   1      39.326  30.737  31.581  1.00  0.00     0.031 C 
ATOM     38  C   UNL A   1      39.329  27.223  27.983  1.00  0.00     0.029 A 
ATOM     39  N   UNL A   1      41.037  27.209  29.424  1.00  0.00    -0.354 N 
ATOM     40  C   UNL A   1      41.326  30.197  32.554  1.00  0.00     0.074 A 
ATOM     41  C   UNL A   1      40.210  31.116  32.492  1.00  0.00     0.031 C 
ATOM     42  C   UNL A   1      40.132  26.203  27.643  1.00  0.00     0.029 A 
ATOM     43  C   UNL A   1      41.282  26.180  28.543  1.00  0.00     0.049 A 
ATOM     44  H   UNL A   1      41.636  27.429  30.173  1.00  0.00     0.167 HD
ATOM     45  C   UNL A   1      42.319  30.256  33.475  1.00  0.00     0.034 A 
ATOM     46  C   UNL A   1      42.320  25.324  28.459  1.00  0.00     0.034 A 
ATOM     47  C   UNL A   1      43.421  29.325  33.524  1.00  0.00     0.049 A 
ATOM     48  C   UNL A   1      43.433  25.433  29.472  1.00  0.00     0.074 A 
ATOM     49  C   UNL A   1      44.454  29.259  34.442  1.00  0.00     0.029 A 
ATOM     50  N   UNL A   1      43.640  28.300  32.610  1.00  0.00    -0.354 N 
ATOM     51  N   UNL A   1      43.565  26.281  30.467  1.00  0.00    -0.248 NA
ATOM     52  C   UNL A   1      44.530  24.464  29.358  1.00  0.00     0.031 C 
ATOM     53  C   UNL A   1      45.336  28.250  34.041  1.00  0.00     0.029 A 
ATOM     54  C   UNL A   1      44.810  27.624  32.922  1.00  0.00     0.049 A 
ATOM     55  H   UNL A   1      43.051  28.086  31.850  1.00  0.00     0.167 HD
ATOM     56  C   UNL A   1      44.744  25.921  31.116  1.00  0.00     0.074 A 
ATOM     57  C   UNL A   1      45.273  24.775  30.408  1.00  0.00     0.031 C 
ATOM     58  C   UNL A   1      45.333  26.486  32.202  1.00  0.00     0.034 A 
BRANCH  45  59
ATOM     59  C   UNL A   1      42.270  31.381  34.482  1.00  0.00     0.023 A 
ATOM     60  C   UNL A   1      41.336  31.393  35.532  1.00  0.00     0.031 A 
ATOM     61  C   UNL A   1      43.155  32.470  34.380  1.00  0.00     0.131 A 
ATOM     62  C   UNL A   1      41.254  32.502  36.387  1.00  0.00     0.055 A 
ATOM     63  C   UNL A   1      43.126  33.530  35.287  1.00  0.00     0.041 A 
ATOM     64  F   UNL A   1      44.056  32.528  33.386  1.00  0.00    -0.206 F 
ATOM     65  C   UNL A   1      42.161  33.559  36.289  1.00  0.00     0.022 A 
BRANCH  62  66
ATOM     66  S   UNL A   1      39.849  32.614  37.529  1.00  0.00     0.124 S 
ATOM     67  O   UNL A   1      40.498  32.390  38.819  1.00  0.00    -0.237 OA
ATOM     68  O   UNL A   1      39.353  33.964  37.289  1.00  0.00    -0.237 OA
ATOM     69  O   UNL A   1      38.965  31.536  37.091  1.00  0.00    -0.744 OA
ENDBRANCH  62  66
ENDBRANCH  45  59
BRANCH  46  70
ATOM     70  C   UNL A   1      42.373  24.301  27.376  1.00  0.00     0.023 A 
ATOM     71  C   UNL A   1      41.601  23.131  27.448  1.00  0.00     0.031 A 
ATOM     72  C   UNL A   1      43.231  24.456  26.271  1.00  0.00     0.131 A 
ATOM     73  C   UNL A   1      41.738  22.139  26.464  1.00  0.00     0.055 A 
ATOM     74  C   UNL A   1      43.321  23.494  25.265  1.00  0.00     0.041 A 
ATOM     75  F   UNL A   1      43.989  25.557  26.151  1.00  0.00    -0.206 F 
ATOM     76  C   UNL A   1      42.582  22.319  25.366  1.00  0.00     0.022 A 
BRANCH  73  77
ATOM     77  S   UNL A   1      40.869  20.564  26.692  1.00  0.00     0.124 S 
ATOM     78  O   UNL A   1      41.750  19.635  25.994  1.00  0.00    -0.237 OA
ATOM     79  O   UNL A   1      40.833  20.446  28.146  1.00  0.00    -0.237 OA
ATOM     80  O   UNL A   1      39.573  20.796  26.055  1.00  0.00    -0.744 OA
ENDBRANCH  73  77
ENDBRANCH  46  70
BRANCH  58  81
ATOM     81  C   UNL A   1      46.595  25.835  32.716  1.00  0.00     0.023 A 
ATOM     82  C   UNL A   1      47.848  26.070  32.124  1.00  0.00     0.031 A 
ATOM     83  C   UNL A   1      46.538  24.956  33.813  1.00  0.00     0.131 A 
ATOM     84  C   UNL A   1      48.982  25.391  32.593  1.00  0.00     0.055 A 
ATOM     85  C   UNL A   1      47.680  24.335  34.319  1.00  0.00     0.041 A 
ATOM     86  F   UNL A   1      45.368  24.690  34.416  1.00  0.00    -0.206 F 
ATOM     87  C   UNL A   1      48.909  24.540  33.699  1.00  0.00     0.022 A 
BRANCH  84  88
ATOM     88  S   UNL A   1      50.538  25.557  31.677  1.00  0.00     0.124 S 
ATOM     89  O   UNL A   1      50.142  26.403  30.557  1.00  0.00    -0.237 OA
ATOM     90  O   UNL A   1      51.417  26.176  32.665  1.00  0.00    -0.237 OA
ATOM     91  O   UNL A   1      50.877  24.179  31.325  1.00  0.00    -0.744 OA
ENDBRANCH  84  88
ENDBRANCH  58  81
ENDBRANCH  32  33
ENDBRANCH  24  27
ENDBRANCH  22  23
ENDBRANCH  21  22
ENDBRANCH   1  21
TORSDOF 17
ENDMDL
MODEL 2
REMARK VINA RESULT:     -10.9      3.615      8.829
REMARK SMILES C[C@H]1CCN1c1cc(C(=O)NCCCCCCNC(=O)c2ccc(-c3c4nc(c(-c5cc(S(=O)(=O)[O-])ccc5F)c5ccc([nH]5)c(-c5cc(S(=O)(=O)[O-])ccc5F)c5nc(c(-c6cc(S(=O)(=O)[O-])ccc6F)c6ccc3[nH]6)C=C5)C=C4)cc2)ccc1Cl
REMARK SMILES IDX 15 1 14 2 13 3 12 4 11 5 9 6 10 7 8 9 6 10 7 11 86 12 85 13
REMARK SMILES IDX 87 14 84 15 5 16 1 17 2 18 3 19 4 20 16 21 17 22 18 23 19 24
REMARK SMILES IDX 20 26 21 27 22 28 83 29 23 30 82 31 24 32 25 33 26 34 76 35
REMARK SMILES IDX 27 36 81 37 75 38 77 39 28 40 80 41 74 42 73 43 29 45 61 46
REMARK SMILES IDX 41 47 60 48 42 49 45 50 59 51 78 52 43 53 44 54 58 56 79 57
REMARK SMILES IDX 46 58 30 59 31 60 39 61 32 62 38 63 40 64 37 65 33 66 34 67
REMARK SMILES IDX 35 68 36 69 62 70 63 71 71 72 64 73 70 74 72 75 69 76 65 77
REMARK SMILES IDX 66 78 67 79 68 80 47 81 48 82 56 83 49 84 55 85 57 86 54 87
REMARK SMILES IDX 50 88 51 89 52 90 53 91
REMARK H PARENT 11 8 18 25 77 44 45 55
REMARK Flexibility Score: inf
ROOT
ATOM      1  C   UNL A   1      31.709  30.551  26.688  1.00  0.00     0.002 C 
ENDROOT
BRANCH   1   2
ATOM      2  C   UNL A   1      31.955  30.099  25.243  1.00  0.00     0.002 C 
BRANCH   2   3
ATOM      3  C   UNL A   1      33.180  29.191  25.048  1.00  0.00     0.021 C 
BRANCH   3   4
ATOM      4  C   UNL A   1      33.462  28.870  23.578  1.00  0.00     0.116 C 
BRANCH   4   5
ATOM      5  N   UNL A   1      32.218  28.801  22.840  1.00  0.00    -0.352 N 
ATOM      6  C   UNL A   1      31.176  27.917  22.800  1.00  0.00     0.251 C 
ATOM      7  O   UNL A   1      30.274  28.176  21.999  1.00  0.00    -0.269 OA
ATOM      8  H   UNL A   1      32.095  29.564  22.230  1.00  0.00     0.163 HD
BRANCH   6   9
ATOM      9  C   UNL A   1      31.036  26.709  23.668  1.00  0.00     0.041 A 
ATOM     10  C   UNL A   1      31.858  24.409  24.062  1.00  0.00     0.057 A 
ATOM     11  C   UNL A   1      31.879  25.627  23.355  1.00  0.00     0.041 A 
ATOM     12  C   UNL A   1      30.946  24.285  25.120  1.00  0.00     0.064 A 
ATOM     13  C   UNL A   1      30.118  25.359  25.460  1.00  0.00     0.023 A 
ATOM     14  Cl  UNL A   1      30.859  22.893  26.140  1.00  0.00    -0.082 Cl
ATOM     15  C   UNL A   1      30.185  26.571  24.761  1.00  0.00     0.015 A 
BRANCH  10  16
ATOM     16  N   UNL A   1      32.793  23.436  23.661  1.00  0.00    -0.367 N 
ATOM     17  C   UNL A   1      33.466  21.357  24.715  1.00  0.00     0.031 C 
ATOM     18  C   UNL A   1      33.858  22.781  24.355  1.00  0.00     0.081 C 
ATOM     19  C   UNL A   1      34.715  22.951  23.093  1.00  0.00     0.046 C 
ATOM     20  C   UNL A   1      33.439  23.396  22.382  1.00  0.00     0.119 C 
ENDBRANCH  10  16
ENDBRANCH   6   9
ENDBRANCH   4   5
ENDBRANCH   3   4
ENDBRANCH   2   3
ENDBRANCH   1   2
BRANCH   1  21
ATOM     21  C   UNL A   1      31.558  32.063  26.874  1.00  0.00     0.021 C 
BRANCH  21  22
ATOM     22  C   UNL A   1      32.850  32.776  27.258  1.00  0.00     0.116 C 
BRANCH  22  23
ATOM     23  N   UNL A   1      32.601  34.151  27.660  1.00  0.00    -0.352 N 
ATOM     24  C   UNL A   1      33.106  34.850  28.728  1.00  0.00     0.251 C 
ATOM     25  H   UNL A   1      31.982  34.654  27.081  1.00  0.00     0.163 HD
ATOM     26  O   UNL A   1      32.589  35.910  29.061  1.00  0.00    -0.269 OA
BRANCH  24  27
ATOM     27  C   UNL A   1      34.260  34.309  29.478  1.00  0.00     0.039 A 
ATOM     28  C   UNL A   1      34.028  33.537  30.618  1.00  0.00     0.014 A 
ATOM     29  C   UNL A   1      35.569  34.575  29.063  1.00  0.00     0.014 A 
ATOM     30  C   UNL A   1      35.108  32.986  31.311  1.00  0.00     0.010 A 
ATOM     31  C   UNL A   1      36.639  33.964  29.711  1.00  0.00     0.010 A 
ATOM     32  C   UNL A   1      36.421  33.168  30.845  1.00  0.00    -0.014 A 
BRANCH  32  33
ATOM     33  C   UNL A   1      37.577  32.539  31.536  1.00  0.00     0.031 A 
ATOM     34  C   UNL A   1      38.319  31.404  30.884  1.00  0.00     0.074 A 
ATOM     35  C   UNL A   1      37.919  32.953  32.772  1.00  0.00     0.049 A 
ATOM     36  N   UNL A   1      39.301  30.679  31.353  1.00  0.00    -0.248 NA
ATOM     37  C   UNL A   1      37.876  31.014  29.537  1.00  0.00     0.031 C 
ATOM     38  C   UNL A   1      37.252  34.021  33.519  1.00  0.00     0.029 A 
ATOM     39  N   UNL A   1      38.907  32.524  33.622  1.00  0.00    -0.354 N 
ATOM     40  C   UNL A   1      39.588  29.742  30.365  1.00  0.00     0.074 A 
ATOM     41  C   UNL A   1      38.630  29.951  29.301  1.00  0.00     0.031 C 
ATOM     42  C   UNL A   1      37.865  34.181  34.702  1.00  0.00     0.029 A 
ATOM     43  C   UNL A   1      38.935  33.195  34.823  1.00  0.00     0.049 A 
ATOM     44  H   UNL A   1      39.537  31.803  33.394  1.00  0.00     0.167 HD
ATOM     45  C   UNL A   1      40.574  28.811  30.339  1.00  0.00     0.034 A 
ATOM     46  C   UNL A   1      39.722  33.027  35.905  1.00  0.00     0.034 A 
ATOM     47  C   UNL A   1      41.524  28.622  31.409  1.00  0.00     0.049 A 
ATOM     48  C   UNL A   1      40.787  31.959  35.867  1.00  0.00     0.074 A 
ATOM     49  C   UNL A   1      42.593  27.745  31.467  1.00  0.00     0.029 A 
ATOM     50  N   UNL A   1      41.517  29.315  32.614  1.00  0.00    -0.354 N 
ATOM     51  N   UNL A   1      41.077  31.113  34.905  1.00  0.00    -0.248 NA
ATOM     52  C   UNL A   1      41.637  31.830  37.058  1.00  0.00     0.031 C 
ATOM     53  C   UNL A   1      43.181  27.852  32.732  1.00  0.00     0.029 A 
ATOM     54  C   UNL A   1      42.538  28.859  33.434  1.00  0.00     0.049 A 
ATOM     55  H   UNL A   1      40.878  30.027  32.852  1.00  0.00     0.167 HD
ATOM     56  C   UNL A   1      42.166  30.377  35.364  1.00  0.00     0.074 A 
ATOM     57  C   UNL A   1      42.487  30.888  36.679  1.00  0.00     0.031 C 
ATOM     58  C   UNL A   1      42.842  29.371  34.750  1.00  0.00     0.034 A 
BRANCH  45  59
ATOM     59  C   UNL A   1      40.650  27.910  29.129  1.00  0.00     0.023 A 
ATOM     60  C   UNL A   1      41.597  28.118  28.110  1.00  0.00     0.031 A 
ATOM     61  C   UNL A   1      39.750  26.840  28.978  1.00  0.00     0.131 A 
ATOM     62  C   UNL A   1      41.572  27.323  26.954  1.00  0.00     0.055 A 
ATOM     63  C   UNL A   1      39.787  25.998  27.865  1.00  0.00     0.041 A 
ATOM     64  F   UNL A   1      38.808  26.602  29.904  1.00  0.00    -0.206 F 
ATOM     65  C   UNL A   1      40.690  26.246  26.837  1.00  0.00     0.022 A 
BRANCH  62  66
ATOM     66  S   UNL A   1      42.602  27.813  25.544  1.00  0.00     0.124 S 
ATOM     67  O   UNL A   1      42.579  26.601  24.728  1.00  0.00    -0.237 OA
ATOM     68  O   UNL A   1      41.878  28.959  25.007  1.00  0.00    -0.237 OA
ATOM     69  O   UNL A   1      43.894  28.120  26.154  1.00  0.00    -0.744 OA
ENDBRANCH  62  66
ENDBRANCH  45  59
BRANCH  46  70
ATOM     70  C   UNL A   1      39.532  33.873  37.118  1.00  0.00     0.023 A 
ATOM     71  C   UNL A   1      38.915  33.359  38.269  1.00  0.00     0.031 A 
ATOM     72  C   UNL A   1      39.927  35.223  37.130  1.00  0.00     0.131 A 
ATOM     73  C   UNL A   1      38.662  34.200  39.364  1.00  0.00     0.055 A 
ATOM     74  C   UNL A   1      39.727  36.041  38.243  1.00  0.00     0.041 A 
ATOM     75  F   UNL A   1      40.525  35.766  36.057  1.00  0.00    -0.206 F 
ATOM     76  C   UNL A   1      39.077  35.534  39.364  1.00  0.00     0.022 A 
BRANCH  73  77
ATOM     77  S   UNL A   1      37.695  33.550  40.753  1.00  0.00     0.124 S 
ATOM     78  O   UNL A   1      37.293  34.776  41.433  1.00  0.00    -0.237 OA
ATOM     79  O   UNL A   1      36.635  32.819  40.067  1.00  0.00    -0.237 OA
ATOM     80  O   UNL A   1      38.656  32.720  41.477  1.00  0.00    -0.744 OA
ENDBRANCH  73  77
ENDBRANCH  46  70
BRANCH  58  81
ATOM     81  C   UNL A   1      44.030  28.794  35.483  1.00  0.00     0.023 A 
ATOM     82  C   UNL A   1      43.902  27.703  36.361  1.00  0.00     0.031 A 
ATOM     83  C   UNL A   1      45.308  29.352  35.304  1.00  0.00     0.131 A 
ATOM     84  C   UNL A   1      45.021  27.243  37.072  1.00  0.00     0.055 A 
ATOM     85  C   UNL A   1      46.430  28.847  35.962  1.00  0.00     0.041 A 
ATOM     86  F   UNL A   1      45.489  30.397  34.481  1.00  0.00    -0.206 F 
ATOM     87  C   UNL A   1      46.287  27.796  36.863  1.00  0.00     0.022 A 
BRANCH  84  88
ATOM     88  S   UNL A   1      44.783  25.978  38.348  1.00  0.00     0.124 S 
ATOM     89  O   UNL A   1      43.808  25.093  37.720  1.00  0.00    -0.237 OA
ATOM     90  O   UNL A   1      46.129  25.434  38.504  1.00  0.00    -0.237 OA
ATOM     91  O   UNL A   1      44.286  26.735  39.494  1.00  0.00    -0.744 OA
ENDBRANCH  84  88
ENDBRANCH  58  81
ENDBRANCH  32  33
ENDBRANCH  24  27
ENDBRANCH  22  23
ENDBRANCH  21  22
ENDBRANCH   1  21
TORSDOF 17
ENDMDL
MODEL 3
REMARK VINA RESULT:     -10.9      5.041      8.360
REMARK SMILES C[C@H]1CCN1c1cc(C(=O)NCCCCCCNC(=O)c2ccc(-c3c4nc(c(-c5cc(S(=O)(=O)[O-])ccc5F)c5ccc([nH]5)c(-c5cc(S(=O)(=O)[O-])ccc5F)c5nc(c(-c6cc(S(=O)(=O)[O-])ccc6F)c6ccc3[nH]6)C=C5)C=C4)cc2)ccc1Cl
REMARK SMILES IDX 15 1 14 2 13 3 12 4 11 5 9 6 10 7 8 9 6 10 7 11 86 12 85 13
REMARK SMILES IDX 87 14 84 15 5 16 1 17 2 18 3 19 4 20 16 21 17 22 18 23 19 24
REMARK SMILES IDX 20 26 21 27 22 28 83 29 23 30 82 31 24 32 25 33 26 34 76 35
REMARK SMILES IDX 27 36 81 37 75 38 77 39 28 40 80 41 74 42 73 43 29 45 61 46
REMARK SMILES IDX 41 47 60 48 42 49 45 50 59 51 78 52 43 53 44 54 58 56 79 57
REMARK SMILES IDX 46 58 30 59 31 60 39 61 32 62 38 63 40 64 37 65 33 66 34 67
REMARK SMILES IDX 35 68 36 69 62 70 63 71 71 72 64 73 70 74 72 75 69 76 65 77
REMARK SMILES IDX 66 78 67 79 68 80 47 81 48 82 56 83 49 84 55 85 57 86 54 87
REMARK SMILES IDX 50 88 51 89 52 90 53 91
REMARK H PARENT 11 8 18 25 77 44 45 55
REMARK Flexibility Score: inf
ROOT
ATOM      1  C   UNL A   1      36.948  20.559  24.912  1.00  0.00     0.002 C 
ENDROOT
BRANCH   1   2
ATOM      2  C   UNL A   1      36.839  21.937  24.246  1.00  0.00     0.002 C 
BRANCH   2   3
ATOM      3  C   UNL A   1      36.623  23.110  25.216  1.00  0.00     0.021 C 
BRANCH   3   4
ATOM      4  C   UNL A   1      35.262  23.790  25.043  1.00  0.00     0.116 C 
BRANCH   4   5
ATOM      5  N   UNL A   1      34.357  23.357  26.088  1.00  0.00    -0.352 N 
ATOM      6  C   UNL A   1      33.397  22.389  26.183  1.00  0.00     0.251 C 
ATOM      7  O   UNL A   1      32.785  22.335  27.253  1.00  0.00    -0.269 OA
ATOM      8  H   UNL A   1      34.457  23.878  26.917  1.00  0.00     0.163 HD
BRANCH   6   9
ATOM      9  C   UNL A   1      33.073  21.389  25.122  1.00  0.00     0.041 A 
ATOM     10  C   UNL A   1      33.081  18.980  24.557  1.00  0.00     0.057 A 
ATOM     11  C   UNL A   1      33.314  20.043  25.452  1.00  0.00     0.041 A 
ATOM     12  C   UNL A   1      32.592  19.297  23.282  1.00  0.00     0.064 A 
ATOM     13  C   UNL A   1      32.323  20.628  22.945  1.00  0.00     0.023 A 
ATOM     14  Cl  UNL A   1      32.171  18.105  22.104  1.00  0.00    -0.082 Cl
ATOM     15  C   UNL A   1      32.531  21.661  23.868  1.00  0.00     0.015 A 
BRANCH  10  16
ATOM     16  N   UNL A   1      33.328  17.684  25.048  1.00  0.00    -0.367 N 
ATOM     17  C   UNL A   1      35.361  16.360  25.069  1.00  0.00     0.031 C 
ATOM     18  C   UNL A   1      33.975  16.545  24.474  1.00  0.00     0.081 C 
ATOM     19  C   UNL A   1      32.859  15.677  25.069  1.00  0.00     0.046 C 
ATOM     20  C   UNL A   1      32.413  16.917  25.839  1.00  0.00     0.119 C 
ENDBRANCH  10  16
ENDBRANCH   6   9
ENDBRANCH   4   5
ENDBRANCH   3   4
ENDBRANCH   2   3
ENDBRANCH   1   2
BRANCH   1  21
ATOM     21  C   UNL A   1      38.329  19.905  24.819  1.00  0.00     0.021 C 
BRANCH  21  22
ATOM     22  C   UNL A   1      39.267  20.263  25.967  1.00  0.00     0.116 C 
BRANCH  22  23
ATOM     23  N   UNL A   1      40.430  19.390  25.997  1.00  0.00    -0.352 N 
ATOM     24  C   UNL A   1      41.762  19.718  26.026  1.00  0.00     0.251 C 
ATOM     25  H   UNL A   1      40.233  18.425  25.997  1.00  0.00     0.163 HD
ATOM     26  O   UNL A   1      42.606  18.862  25.785  1.00  0.00    -0.269 OA
BRANCH  24  27
ATOM     27  C   UNL A   1      42.169  21.107  26.333  1.00  0.00     0.039 A 
ATOM     28  C   UNL A   1      42.444  21.456  27.656  1.00  0.00     0.014 A 
ATOM     29  C   UNL A   1      42.265  22.064  25.318  1.00  0.00     0.014 A 
ATOM     30  C   UNL A   1      42.870  22.753  27.954  1.00  0.00     0.010 A 
ATOM     31  C   UNL A   1      42.761  23.332  25.606  1.00  0.00     0.010 A 
ATOM     32  C   UNL A   1      43.063  23.693  26.927  1.00  0.00    -0.014 A 
BRANCH  32  33
ATOM     33  C   UNL A   1      43.572  25.058  27.219  1.00  0.00     0.031 A 
ATOM     34  C   UNL A   1      42.647  26.104  27.779  1.00  0.00     0.074 A 
ATOM     35  C   UNL A   1      44.850  25.369  26.926  1.00  0.00     0.049 A 
ATOM     36  N   UNL A   1      42.880  27.366  28.032  1.00  0.00    -0.248 NA
ATOM     37  C   UNL A   1      41.269  25.680  28.066  1.00  0.00     0.031 C 
ATOM     38  C   UNL A   1      45.832  24.448  26.347  1.00  0.00     0.029 A 
ATOM     39  N   UNL A   1      45.544  26.544  27.066  1.00  0.00    -0.354 N 
ATOM     40  C   UNL A   1      41.678  27.890  28.498  1.00  0.00     0.074 A 
ATOM     41  C   UNL A   1      40.704  26.822  28.427  1.00  0.00     0.031 C 
ATOM     42  C   UNL A   1      47.005  25.085  26.207  1.00  0.00     0.029 A 
ATOM     43  C   UNL A   1      46.850  26.472  26.636  1.00  0.00     0.049 A 
ATOM     44  H   UNL A   1      45.146  27.363  27.439  1.00  0.00     0.167 HD
ATOM     45  C   UNL A   1      41.418  29.137  28.961  1.00  0.00     0.034 A 
ATOM     46  C   UNL A   1      47.809  27.417  26.579  1.00  0.00     0.034 A 
ATOM     47  C   UNL A   1      42.406  30.187  29.029  1.00  0.00     0.049 A 
ATOM     48  C   UNL A   1      47.486  28.808  27.065  1.00  0.00     0.074 A 
ATOM     49  C   UNL A   1      42.267  31.471  29.527  1.00  0.00     0.029 A 
ATOM     50  N   UNL A   1      43.716  30.079  28.577  1.00  0.00    -0.354 N 
ATOM     51  N   UNL A   1      46.356  29.274  27.548  1.00  0.00    -0.248 NA
ATOM     52  C   UNL A   1      48.569  29.798  27.008  1.00  0.00     0.031 C 
ATOM     53  C   UNL A   1      43.464  32.160  29.305  1.00  0.00     0.029 A 
ATOM     54  C   UNL A   1      44.382  31.284  28.750  1.00  0.00     0.049 A 
ATOM     55  H   UNL A   1      44.114  29.266  28.188  1.00  0.00     0.167 HD
ATOM     56  C   UNL A   1      46.607  30.602  27.884  1.00  0.00     0.074 A 
ATOM     57  C   UNL A   1      47.996  30.855  27.561  1.00  0.00     0.031 C 
ATOM     58  C   UNL A   1      45.766  31.527  28.415  1.00  0.00     0.034 A 
BRANCH  45  59
ATOM     59  C   UNL A   1      40.004  29.437  29.401  1.00  0.00     0.023 A 
ATOM     60  C   UNL A   1      39.662  29.554  30.760  1.00  0.00     0.031 A 
ATOM     61  C   UNL A   1      38.978  29.587  28.452  1.00  0.00     0.131 A 
ATOM     62  C   UNL A   1      38.322  29.733  31.134  1.00  0.00     0.055 A 
ATOM     63  C   UNL A   1      37.660  29.851  28.827  1.00  0.00     0.041 A 
ATOM     64  F   UNL A   1      39.236  29.464  27.140  1.00  0.00    -0.206 F 
ATOM     65  C   UNL A   1      37.321  29.910  30.176  1.00  0.00     0.022 A 
BRANCH  62  66
ATOM     66  S   UNL A   1      37.883  29.576  32.887  1.00  0.00     0.124 S 
ATOM     67  O   UNL A   1      39.146  29.917  33.538  1.00  0.00    -0.237 OA
ATOM     68  O   UNL A   1      36.807  30.549  33.032  1.00  0.00    -0.237 OA
ATOM     69  O   UNL A   1      37.483  28.177  33.016  1.00  0.00    -0.744 OA
ENDBRANCH  62  66
ENDBRANCH  45  59
BRANCH  46  70
ATOM     70  C   UNL A   1      49.158  27.095  26.032  1.00  0.00     0.023 A 
ATOM     71  C   UNL A   1      50.234  26.800  26.885  1.00  0.00     0.031 A 
ATOM     72  C   UNL A   1      49.405  27.121  24.647  1.00  0.00     0.131 A 
ATOM     73  C   UNL A   1      51.515  26.594  26.351  1.00  0.00     0.055 A 
ATOM     74  C   UNL A   1      50.668  26.856  24.116  1.00  0.00     0.041 A 
ATOM     75  F   UNL A   1      48.412  27.394  23.786  1.00  0.00    -0.206 F 
ATOM     76  C   UNL A   1      51.737  26.605  24.971  1.00  0.00     0.022 A 
BRANCH  73  77
ATOM     77  S   UNL A   1      52.911  26.405  27.493  1.00  0.00     0.124 S 
ATOM     78  O   UNL A   1      53.607  25.258  26.922  1.00  0.00    -0.237 OA
ATOM     79  O   UNL A   1      53.583  27.694  27.365  1.00  0.00    -0.237 OA
ATOM     80  O   UNL A   1      52.265  26.166  28.783  1.00  0.00    -0.744 OA
ENDBRANCH  73  77
ENDBRANCH  46  70
BRANCH  58  81
ATOM     81  C   UNL A   1      46.346  32.886  28.725  1.00  0.00     0.023 A 
ATOM     82  C   UNL A   1      46.161  33.986  27.869  1.00  0.00     0.031 A 
ATOM     83  C   UNL A   1      47.105  33.079  29.893  1.00  0.00     0.131 A 
ATOM     84  C   UNL A   1      46.775  35.213  28.164  1.00  0.00     0.055 A 
ATOM     85  C   UNL A   1      47.658  34.319  30.216  1.00  0.00     0.041 A 
ATOM     86  F   UNL A   1      47.319  32.064  30.745  1.00  0.00    -0.206 F 
ATOM     87  C   UNL A   1      47.506  35.391  29.341  1.00  0.00     0.022 A 
BRANCH  84  88
ATOM     88  S   UNL A   1      46.690  36.546  26.938  1.00  0.00     0.124 S 
ATOM     89  O   UNL A   1      47.408  37.623  27.611  1.00  0.00    -0.237 OA
ATOM     90  O   UNL A   1      47.362  35.955  25.785  1.00  0.00    -0.237 OA
ATOM     91  O   UNL A   1      45.255  36.768  26.771  1.00  0.00    -0.744 OA
ENDBRANCH  84  88
ENDBRANCH  58  81
ENDBRANCH  32  33
ENDBRANCH  24  27
ENDBRANCH  22  23
ENDBRANCH  21  22
ENDBRANCH   1  21
TORSDOF 17
ENDMDL
