MODEL 1
REMARK VINA RESULT:     -11.1      0.000      0.000
REMARK SMILES C[C@@H](Sc1nc(-c2ccc3c(c2)OCO3)ccc1C#N)C(=O)NCCCCCCNC(=O)c1ccc(-c2c3nc(c(-c4cc(S(=O)(=O)[O-])ccc4F)c4ccc([nH]4)c(-c4cc(S(=O)(=O)[O-])ccc4F)c4nc(c(-c5cc(S(=O)(=O)[O-])ccc5F)c5ccc2[nH]5)C=C4)C=C3)cc1
REMARK SMILES IDX 26 1 25 2 24 3 23 4 21 5 22 6 2 8 1 9 3 10 4 11 5 12 18 13
REMARK SMILES IDX 6 14 17 15 16 16 19 17 20 18 7 19 8 20 12 21 9 22 11 23
REMARK SMILES IDX 10 24 13 25 15 26 14 27 27 28 28 29 29 30 30 31 31 32 32 34
REMARK SMILES IDX 33 35 34 36 95 37 35 38 94 39 36 40 37 41 38 42 88 43 39 44
REMARK SMILES IDX 93 45 87 46 89 47 40 48 92 49 86 50 85 51 41 53 73 54 53 55
REMARK SMILES IDX 72 56 54 57 57 58 71 59 90 60 55 61 56 62 70 64 91 65 58 66
REMARK SMILES IDX 42 67 43 68 51 69 44 70 50 71 52 72 49 73 45 74 46 75 47 76
REMARK SMILES IDX 48 77 74 78 75 79 83 80 76 81 82 82 84 83 81 84 77 85 78 86
REMARK SMILES IDX 79 87 80 88 59 89 60 90 68 91 61 92 67 93 69 94 66 95 62 96
REMARK SMILES IDX 63 97 64 98 65 99
REMARK H PARENT 23 7 30 33 89 52 57 63
REMARK Flexibility Score: inf
ROOT
ATOM      1  C   UNL A   1      34.668  30.881  28.451  1.00  0.00     0.002 C 
ENDROOT
BRANCH   1   2
ATOM      2  C   UNL A   1      35.102  29.653  27.643  1.00  0.00     0.021 C 
BRANCH   2   3
ATOM      3  C   UNL A   1      34.192  29.362  26.450  1.00  0.00     0.116 C 
BRANCH   3   4
ATOM      4  N   UNL A   1      33.072  28.540  26.861  1.00  0.00    -0.355 N 
ATOM      5  C   UNL A   1      32.742  27.262  26.522  1.00  0.00     0.233 C 
ATOM      6  O   UNL A   1      31.687  26.808  26.978  1.00  0.00    -0.274 OA
ATOM      7  H   UNL A   1      32.448  28.974  27.488  1.00  0.00     0.163 HD
BRANCH   5   8
ATOM      8  C   UNL A   1      33.640  26.403  25.617  1.00  0.00     0.139 C 
ATOM      9  C   UNL A   1      33.688  24.946  26.071  1.00  0.00     0.030 C 
BRANCH   8  10
ATOM     10  S   UNL A   1      33.147  26.751  23.869  1.00  0.00    -0.092 SA
BRANCH  10  11
ATOM     11  C   UNL A   1      31.372  26.861  23.792  1.00  0.00     0.115 A 
ATOM     12  N   UNL A   1      30.990  28.128  23.441  1.00  0.00    -0.240 NA
ATOM     13  C   UNL A   1      30.424  25.855  23.979  1.00  0.00     0.084 A 
ATOM     14  C   UNL A   1      29.675  28.430  23.320  1.00  0.00     0.072 A 
ATOM     15  C   UNL A   1      29.068  26.188  23.878  1.00  0.00     0.024 A 
ATOM     16  C   UNL A   1      28.689  27.482  23.550  1.00  0.00     0.030 A 
BRANCH  13  17
ATOM     17  C   UNL A   1      30.726  24.484  24.239  1.00  0.00     0.102 C 
ATOM     18  N   UNL A   1      31.029  23.382  24.428  1.00  0.00    -0.192 NA
ENDBRANCH  13  17
BRANCH  14  19
ATOM     19  C   UNL A   1      29.319  29.793  22.897  1.00  0.00     0.004 A 
ATOM     20  C   UNL A   1      29.316  30.854  23.841  1.00  0.00     0.014 A 
ATOM     21  C   UNL A   1      28.883  30.058  21.585  1.00  0.00     0.061 A 
ATOM     22  C   UNL A   1      28.852  32.131  23.509  1.00  0.00     0.051 A 
ATOM     23  C   UNL A   1      28.413  31.325  21.290  1.00  0.00     0.166 A 
ATOM     24  C   UNL A   1      28.392  32.329  22.228  1.00  0.00     0.165 A 
ATOM     25  O   UNL A   1      27.897  31.727  20.096  1.00  0.00    -0.454 OA
ATOM     26  O   UNL A   1      27.860  33.484  21.748  1.00  0.00    -0.454 OA
ATOM     27  C   UNL A   1      27.545  33.096  20.397  1.00  0.00     0.468 C 
ENDBRANCH  14  19
ENDBRANCH  10  11
ENDBRANCH   8  10
ENDBRANCH   5   8
ENDBRANCH   3   4
ENDBRANCH   2   3
ENDBRANCH   1   2
BRANCH   1  28
ATOM     28  C   UNL A   1      34.571  32.172  27.633  1.00  0.00     0.002 C 
BRANCH  28  29
ATOM     29  C   UNL A   1      33.363  33.046  27.978  1.00  0.00     0.021 C 
BRANCH  29  30
ATOM     30  C   UNL A   1      33.665  34.538  27.976  1.00  0.00     0.116 C 
BRANCH  30  31
ATOM     31  N   UNL A   1      33.112  35.195  29.150  1.00  0.00    -0.352 N 
ATOM     32  C   UNL A   1      33.370  34.942  30.474  1.00  0.00     0.251 C 
ATOM     33  H   UNL A   1      32.467  35.917  28.972  1.00  0.00     0.163 HD
ATOM     34  O   UNL A   1      32.640  35.401  31.346  1.00  0.00    -0.269 OA
BRANCH  32  35
ATOM     35  C   UNL A   1      34.528  34.093  30.825  1.00  0.00     0.039 A 
ATOM     36  C   UNL A   1      35.815  34.527  30.509  1.00  0.00     0.014 A 
ATOM     37  C   UNL A   1      34.332  32.885  31.500  1.00  0.00     0.014 A 
ATOM     38  C   UNL A   1      36.915  33.773  30.926  1.00  0.00     0.010 A 
ATOM     39  C   UNL A   1      35.427  32.185  31.989  1.00  0.00     0.010 A 
ATOM     40  C   UNL A   1      36.732  32.617  31.703  1.00  0.00    -0.014 A 
BRANCH  40  41
ATOM     41  C   UNL A   1      37.886  31.832  32.215  1.00  0.00     0.031 A 
ATOM     42  C   UNL A   1      38.503  32.196  33.541  1.00  0.00     0.074 A 
ATOM     43  C   UNL A   1      38.416  30.845  31.465  1.00  0.00     0.049 A 
ATOM     44  N   UNL A   1      39.572  31.709  34.115  1.00  0.00    -0.248 NA
ATOM     45  C   UNL A   1      37.845  33.266  34.311  1.00  0.00     0.031 C 
ATOM     46  C   UNL A   1      37.915  30.414  30.157  1.00  0.00     0.029 A 
ATOM     47  N   UNL A   1      39.499  30.028  31.685  1.00  0.00    -0.354 N 
ATOM     48  C   UNL A   1      39.727  32.424  35.297  1.00  0.00     0.074 A 
ATOM     49  C   UNL A   1      38.670  33.409  35.338  1.00  0.00     0.031 C 
ATOM     50  C   UNL A   1      38.670  29.399  29.707  1.00  0.00     0.029 A 
ATOM     51  C   UNL A   1      39.750  29.148  30.656  1.00  0.00     0.049 A 
ATOM     52  H   UNL A   1      40.045  30.070  32.503  1.00  0.00     0.167 HD
ATOM     53  C   UNL A   1      40.661  32.261  36.265  1.00  0.00     0.034 A 
ATOM     54  C   UNL A   1      40.752  28.260  30.484  1.00  0.00     0.034 A 
ATOM     55  C   UNL A   1      41.696  31.260  36.217  1.00  0.00     0.049 A 
ATOM     56  C   UNL A   1      41.810  28.142  31.560  1.00  0.00     0.074 A 
ATOM     57  C   UNL A   1      42.648  30.969  37.178  1.00  0.00     0.029 A 
ATOM     58  N   UNL A   1      41.928  30.399  35.154  1.00  0.00    -0.354 N 
ATOM     59  N   UNL A   1      41.907  28.790  32.698  1.00  0.00    -0.248 NA
ATOM     60  C   UNL A   1      42.888  27.170  31.332  1.00  0.00     0.031 C 
ATOM     61  C   UNL A   1      43.516  30.008  36.656  1.00  0.00     0.029 A 
ATOM     62  C   UNL A   1      43.039  29.614  35.417  1.00  0.00     0.049 A 
ATOM     63  H   UNL A   1      41.384  30.353  34.335  1.00  0.00     0.167 HD
ATOM     64  C   UNL A   1      43.026  28.262  33.340  1.00  0.00     0.074 A 
ATOM     65  C   UNL A   1      43.563  27.241  32.468  1.00  0.00     0.031 C 
ATOM     66  C   UNL A   1      43.558  28.588  34.544  1.00  0.00     0.034 A 
BRANCH  53  67
ATOM     67  C   UNL A   1      40.640  33.204  37.441  1.00  0.00     0.023 A 
ATOM     68  C   UNL A   1      41.586  34.230  37.596  1.00  0.00     0.031 A 
ATOM     69  C   UNL A   1      39.619  33.095  38.404  1.00  0.00     0.131 A 
ATOM     70  C   UNL A   1      41.517  35.081  38.708  1.00  0.00     0.055 A 
ATOM     71  C   UNL A   1      39.509  33.995  39.465  1.00  0.00     0.041 A 
ATOM     72  F   UNL A   1      38.704  32.116  38.324  1.00  0.00    -0.206 F 
ATOM     73  C   UNL A   1      40.466  34.992  39.625  1.00  0.00     0.022 A 
BRANCH  70  74
ATOM     74  S   UNL A   1      42.879  36.240  39.005  1.00  0.00     0.124 S 
ATOM     75  O   UNL A   1      42.351  37.471  38.420  1.00  0.00    -0.237 OA
ATOM     76  O   UNL A   1      42.998  36.224  40.458  1.00  0.00    -0.237 OA
ATOM     77  O   UNL A   1      43.999  35.646  38.280  1.00  0.00    -0.744 OA
ENDBRANCH  70  74
ENDBRANCH  53  67
BRANCH  54  78
ATOM     78  C   UNL A   1      40.848  27.429  29.244  1.00  0.00     0.023 A 
ATOM     79  C   UNL A   1      41.786  27.733  28.245  1.00  0.00     0.031 A 
ATOM     80  C   UNL A   1      39.932  26.392  28.989  1.00  0.00     0.131 A 
ATOM     81  C   UNL A   1      41.726  27.077  27.005  1.00  0.00     0.055 A 
ATOM     82  C   UNL A   1      39.934  25.683  27.786  1.00  0.00     0.041 A 
ATOM     83  F   UNL A   1      39.007  26.058  29.903  1.00  0.00    -0.206 F 
ATOM     84  C   UNL A   1      40.820  26.041  26.775  1.00  0.00     0.022 A 
BRANCH  81  85
ATOM     85  S   UNL A   1      42.735  27.720  25.640  1.00  0.00     0.124 S 
ATOM     86  O   UNL A   1      44.056  27.777  26.256  1.00  0.00    -0.237 OA
ATOM     87  O   UNL A   1      42.546  26.698  24.617  1.00  0.00    -0.237 OA
ATOM     88  O   UNL A   1      42.125  29.015  25.349  1.00  0.00    -0.744 OA
ENDBRANCH  81  85
ENDBRANCH  54  78
BRANCH  66  89
ATOM     89  C   UNL A   1      44.735  27.778  35.033  1.00  0.00     0.023 A 
ATOM     90  C   UNL A   1      44.576  26.604  35.788  1.00  0.00     0.031 A 
ATOM     91  C   UNL A   1      46.043  28.190  34.718  1.00  0.00     0.131 A 
ATOM     92  C   UNL A   1      45.707  25.909  36.242  1.00  0.00     0.055 A 
ATOM     93  C   UNL A   1      47.161  27.454  35.109  1.00  0.00     0.041 A 
ATOM     94  F   UNL A   1      46.257  29.308  34.007  1.00  0.00    -0.206 F 
ATOM     95  C   UNL A   1      46.997  26.312  35.887  1.00  0.00     0.022 A 
BRANCH  92  96
ATOM     96  S   UNL A   1      45.476  24.520  37.386  1.00  0.00     0.124 S 
ATOM     97  O   UNL A   1      44.541  25.079  38.356  1.00  0.00    -0.237 OA
ATOM     98  O   UNL A   1      44.942  23.480  36.512  1.00  0.00    -0.237 OA
ATOM     99  O   UNL A   1      46.822  24.269  37.897  1.00  0.00    -0.744 OA
ENDBRANCH  92  96
ENDBRANCH  66  89
ENDBRANCH  40  41
ENDBRANCH  32  35
ENDBRANCH  30  31
ENDBRANCH  29  30
ENDBRANCH  28  29
ENDBRANCH   1  28
TORSDOF 20
ENDMDL
MODEL 2
REMARK VINA RESULT:     -11.1      1.864      2.293
REMARK SMILES C[C@@H](Sc1nc(-c2ccc3c(c2)OCO3)ccc1C#N)C(=O)NCCCCCCNC(=O)c1ccc(-c2c3nc(c(-c4cc(S(=O)(=O)[O-])ccc4F)c4ccc([nH]4)c(-c4cc(S(=O)(=O)[O-])ccc4F)c4nc(c(-c5cc(S(=O)(=O)[O-])ccc5F)c5ccc2[nH]5)C=C4)C=C3)cc1
REMARK SMILES IDX 26 1 25 2 24 3 23 4 21 5 22 6 2 8 1 9 3 10 4 11 5 12 18 13
REMARK SMILES IDX 6 14 17 15 16 16 19 17 20 18 7 19 8 20 12 21 9 22 11 23
REMARK SMILES IDX 10 24 13 25 15 26 14 27 27 28 28 29 29 30 30 31 31 32 32 34
REMARK SMILES IDX 33 35 34 36 95 37 35 38 94 39 36 40 37 41 38 42 88 43 39 44
REMARK SMILES IDX 93 45 87 46 89 47 40 48 92 49 86 50 85 51 41 53 73 54 53 55
REMARK SMILES IDX 72 56 54 57 57 58 71 59 90 60 55 61 56 62 70 64 91 65 58 66
REMARK SMILES IDX 42 67 43 68 51 69 44 70 50 71 52 72 49 73 45 74 46 75 47 76
REMARK SMILES IDX 48 77 74 78 75 79 83 80 76 81 82 82 84 83 81 84 77 85 78 86
REMARK SMILES IDX 79 87 80 88 59 89 60 90 68 91 61 92 67 93 69 94 66 95 62 96
REMARK SMILES IDX 63 97 64 98 65 99
REMARK H PARENT 23 7 30 33 89 52 57 63
REMARK Flexibility Score: inf
ROOT
ATOM      1  C   UNL A   1      34.694  32.549  28.716  1.00  0.00     0.002 C 
ENDROOT
BRANCH   1   2
ATOM      2  C   UNL A   1      35.754  31.701  28.007  1.00  0.00     0.021 C 
BRANCH   2   3
ATOM      3  C   UNL A   1      35.524  30.197  28.158  1.00  0.00     0.116 C 
BRANCH   3   4
ATOM      4  N   UNL A   1      35.228  29.602  26.870  1.00  0.00    -0.355 N 
ATOM      5  C   UNL A   1      34.037  29.227  26.323  1.00  0.00     0.233 C 
ATOM      6  O   UNL A   1      34.069  28.684  25.214  1.00  0.00    -0.274 OA
ATOM      7  H   UNL A   1      36.013  29.443  26.297  1.00  0.00     0.163 HD
BRANCH   5   8
ATOM      8  C   UNL A   1      32.700  29.470  27.040  1.00  0.00     0.139 C 
ATOM      9  C   UNL A   1      32.002  30.733  26.543  1.00  0.00     0.030 C 
BRANCH   8  10
ATOM     10  S   UNL A   1      31.756  27.880  26.991  1.00  0.00    -0.092 SA
BRANCH  10  11
ATOM     11  C   UNL A   1      31.185  27.612  25.325  1.00  0.00     0.115 A 
ATOM     12  N   UNL A   1      30.656  28.766  24.814  1.00  0.00    -0.240 NA
ATOM     13  C   UNL A   1      31.274  26.460  24.545  1.00  0.00     0.084 A 
ATOM     14  C   UNL A   1      30.165  28.786  23.552  1.00  0.00     0.072 A 
ATOM     15  C   UNL A   1      30.737  26.486  23.252  1.00  0.00     0.024 A 
ATOM     16  C   UNL A   1      30.177  27.653  22.752  1.00  0.00     0.030 A 
BRANCH  13  17
ATOM     17  C   UNL A   1      31.903  25.244  24.949  1.00  0.00     0.102 C 
ATOM     18  N   UNL A   1      32.466  24.290  25.290  1.00  0.00    -0.192 NA
ENDBRANCH  13  17
BRANCH  14  19
ATOM     19  C   UNL A   1      29.649  30.063  23.034  1.00  0.00     0.004 A 
ATOM     20  C   UNL A   1      29.395  31.141  23.922  1.00  0.00     0.014 A 
ATOM     21  C   UNL A   1      29.305  30.212  21.678  1.00  0.00     0.061 A 
ATOM     22  C   UNL A   1      28.777  32.319  23.490  1.00  0.00     0.051 A 
ATOM     23  C   UNL A   1      28.680  31.381  21.282  1.00  0.00     0.166 A 
ATOM     24  C   UNL A   1      28.417  32.400  22.166  1.00  0.00     0.165 A 
ATOM     25  O   UNL A   1      28.225  31.659  20.029  1.00  0.00    -0.454 OA
ATOM     26  O   UNL A   1      27.765  33.442  21.586  1.00  0.00    -0.454 OA
ATOM     27  C   UNL A   1      27.642  32.965  20.232  1.00  0.00     0.468 C 
ENDBRANCH  14  19
ENDBRANCH  10  11
ENDBRANCH   8  10
ENDBRANCH   5   8
ENDBRANCH   3   4
ENDBRANCH   2   3
ENDBRANCH   1   2
BRANCH   1  28
ATOM     28  C   UNL A   1      34.576  33.983  28.189  1.00  0.00     0.002 C 
BRANCH  28  29
ATOM     29  C   UNL A   1      33.269  34.685  28.561  1.00  0.00     0.021 C 
BRANCH  29  30
ATOM     30  C   UNL A   1      33.470  36.033  29.240  1.00  0.00     0.116 C 
BRANCH  30  31
ATOM     31  N   UNL A   1      32.620  36.172  30.412  1.00  0.00    -0.352 N 
ATOM     32  C   UNL A   1      32.716  35.528  31.620  1.00  0.00     0.251 C 
ATOM     33  H   UNL A   1      31.877  36.812  30.329  1.00  0.00     0.163 HD
ATOM     34  O   UNL A   1      31.782  35.557  32.414  1.00  0.00    -0.269 OA
BRANCH  32  35
ATOM     35  C   UNL A   1      33.953  34.783  31.935  1.00  0.00     0.039 A 
ATOM     36  C   UNL A   1      35.136  35.488  32.161  1.00  0.00     0.014 A 
ATOM     37  C   UNL A   1      33.927  33.390  32.040  1.00  0.00     0.014 A 
ATOM     38  C   UNL A   1      36.284  34.794  32.554  1.00  0.00     0.010 A 
ATOM     39  C   UNL A   1      35.043  32.714  32.516  1.00  0.00     0.010 A 
ATOM     40  C   UNL A   1      36.236  33.407  32.773  1.00  0.00    -0.014 A 
BRANCH  40  41
ATOM     41  C   UNL A   1      37.424  32.654  33.254  1.00  0.00     0.031 A 
ATOM     42  C   UNL A   1      38.052  33.019  34.574  1.00  0.00     0.074 A 
ATOM     43  C   UNL A   1      37.973  31.695  32.480  1.00  0.00     0.049 A 
ATOM     44  N   UNL A   1      39.146  32.559  35.122  1.00  0.00    -0.248 NA
ATOM     45  C   UNL A   1      37.373  34.055  35.370  1.00  0.00     0.031 C 
ATOM     46  C   UNL A   1      37.464  31.266  31.175  1.00  0.00     0.029 A 
ATOM     47  N   UNL A   1      39.086  30.912  32.670  1.00  0.00    -0.354 N 
ATOM     48  C   UNL A   1      39.298  33.262  36.312  1.00  0.00     0.074 A 
ATOM     49  C   UNL A   1      38.210  34.211  36.386  1.00  0.00     0.031 C 
ATOM     50  C   UNL A   1      38.243  30.283  30.697  1.00  0.00     0.029 A 
ATOM     51  C   UNL A   1      39.348  30.054  31.624  1.00  0.00     0.049 A 
ATOM     52  H   UNL A   1      39.644  30.959  33.479  1.00  0.00     0.167 HD
ATOM     53  C   UNL A   1      40.254  33.116  37.261  1.00  0.00     0.034 A 
ATOM     54  C   UNL A   1      40.375  29.202  31.423  1.00  0.00     0.034 A 
ATOM     55  C   UNL A   1      41.320  32.151  37.181  1.00  0.00     0.049 A 
ATOM     56  C   UNL A   1      41.455  29.104  32.478  1.00  0.00     0.074 A 
ATOM     57  C   UNL A   1      42.298  31.878  38.122  1.00  0.00     0.029 A 
ATOM     58  N   UNL A   1      41.562  31.314  36.102  1.00  0.00    -0.354 N 
ATOM     59  N   UNL A   1      41.551  29.739  33.624  1.00  0.00    -0.248 NA
ATOM     60  C   UNL A   1      42.560  28.172  32.218  1.00  0.00     0.031 C 
ATOM     61  C   UNL A   1      43.187  30.954  37.571  1.00  0.00     0.029 A 
ATOM     62  C   UNL A   1      42.702  30.562  36.334  1.00  0.00     0.049 A 
ATOM     63  H   UNL A   1      41.005  31.261  35.292  1.00  0.00     0.167 HD
ATOM     64  C   UNL A   1      42.697  29.239  34.238  1.00  0.00     0.074 A 
ATOM     65  C   UNL A   1      43.252  28.249  33.343  1.00  0.00     0.031 C 
ATOM     66  C   UNL A   1      43.239  29.566  35.439  1.00  0.00     0.034 A 
BRANCH  53  67
ATOM     67  C   UNL A   1      40.223  34.042  38.452  1.00  0.00     0.023 A 
ATOM     68  C   UNL A   1      39.495  33.743  39.614  1.00  0.00     0.031 A 
ATOM     69  C   UNL A   1      40.977  35.230  38.432  1.00  0.00     0.131 A 
ATOM     70  C   UNL A   1      39.504  34.639  40.693  1.00  0.00     0.055 A 
ATOM     71  C   UNL A   1      41.046  36.077  39.538  1.00  0.00     0.041 A 
ATOM     72  F   UNL A   1      41.670  35.582  37.337  1.00  0.00    -0.206 F 
ATOM     73  C   UNL A   1      40.300  35.787  40.676  1.00  0.00     0.022 A 
BRANCH  70  74
ATOM     74  S   UNL A   1      38.376  34.342  42.081  1.00  0.00     0.124 S 
ATOM     75  O   UNL A   1      37.983  35.704  42.437  1.00  0.00    -0.237 OA
ATOM     76  O   UNL A   1      37.338  33.517  41.475  1.00  0.00    -0.237 OA
ATOM     77  O   UNL A   1      39.215  33.666  43.067  1.00  0.00    -0.744 OA
ENDBRANCH  70  74
ENDBRANCH  53  67
BRANCH  54  78
ATOM     78  C   UNL A   1      40.476  28.393  30.169  1.00  0.00     0.023 A 
ATOM     79  C   UNL A   1      41.435  28.697  29.190  1.00  0.00     0.031 A 
ATOM     80  C   UNL A   1      39.546  27.377  29.880  1.00  0.00     0.131 A 
ATOM     81  C   UNL A   1      41.384  28.065  27.939  1.00  0.00     0.055 A 
ATOM     82  C   UNL A   1      39.555  26.690  28.664  1.00  0.00     0.041 A 
ATOM     83  F   UNL A   1      38.600  27.044  30.773  1.00  0.00    -0.206 F 
ATOM     84  C   UNL A   1      40.464  27.050  27.675  1.00  0.00     0.022 A 
BRANCH  81  85
ATOM     85  S   UNL A   1      42.427  28.714  26.602  1.00  0.00     0.124 S 
ATOM     86  O   UNL A   1      41.534  28.600  25.455  1.00  0.00    -0.237 OA
ATOM     87  O   UNL A   1      42.707  30.068  27.067  1.00  0.00    -0.237 OA
ATOM     88  O   UNL A   1      43.573  27.808  26.595  1.00  0.00    -0.744 OA
ENDBRANCH  81  85
ENDBRANCH  54  78
BRANCH  66  89
ATOM     89  C   UNL A   1      44.450  28.788  35.896  1.00  0.00     0.023 A 
ATOM     90  C   UNL A   1      44.343  27.600  36.638  1.00  0.00     0.031 A 
ATOM     91  C   UNL A   1      45.739  29.246  35.562  1.00  0.00     0.131 A 
ATOM     92  C   UNL A   1      45.504  26.937  37.062  1.00  0.00     0.055 A 
ATOM     93  C   UNL A   1      46.887  28.542  35.924  1.00  0.00     0.041 A 
ATOM     94  F   UNL A   1      45.903  30.379  34.862  1.00  0.00    -0.206 F 
ATOM     95  C   UNL A   1      46.773  27.386  36.690  1.00  0.00     0.022 A 
BRANCH  92  96
ATOM     96  S   UNL A   1      45.339  25.527  38.191  1.00  0.00     0.124 S 
ATOM     97  O   UNL A   1      46.714  25.046  38.279  1.00  0.00    -0.237 OA
ATOM     98  O   UNL A   1      44.804  26.151  39.397  1.00  0.00    -0.237 OA
ATOM     99  O   UNL A   1      44.414  24.635  37.494  1.00  0.00    -0.744 OA
ENDBRANCH  92  96
ENDBRANCH  66  89
ENDBRANCH  40  41
ENDBRANCH  32  35
ENDBRANCH  30  31
ENDBRANCH  29  30
ENDBRANCH  28  29
ENDBRANCH   1  28
TORSDOF 20
ENDMDL
MODEL 3
REMARK VINA RESULT:     -11.0      6.016     11.189
REMARK SMILES C[C@@H](Sc1nc(-c2ccc3c(c2)OCO3)ccc1C#N)C(=O)NCCCCCCNC(=O)c1ccc(-c2c3nc(c(-c4cc(S(=O)(=O)[O-])ccc4F)c4ccc([nH]4)c(-c4cc(S(=O)(=O)[O-])ccc4F)c4nc(c(-c5cc(S(=O)(=O)[O-])ccc5F)c5ccc2[nH]5)C=C4)C=C3)cc1
REMARK SMILES IDX 26 1 25 2 24 3 23 4 21 5 22 6 2 8 1 9 3 10 4 11 5 12 18 13
REMARK SMILES IDX 6 14 17 15 16 16 19 17 20 18 7 19 8 20 12 21 9 22 11 23
REMARK SMILES IDX 10 24 13 25 15 26 14 27 27 28 28 29 29 30 30 31 31 32 32 34
REMARK SMILES IDX 33 35 34 36 95 37 35 38 94 39 36 40 37 41 38 42 88 43 39 44
REMARK SMILES IDX 93 45 87 46 89 47 40 48 92 49 86 50 85 51 41 53 73 54 53 55
REMARK SMILES IDX 72 56 54 57 57 58 71 59 90 60 55 61 56 62 70 64 91 65 58 66
REMARK SMILES IDX 42 67 43 68 51 69 44 70 50 71 52 72 49 73 45 74 46 75 47 76
REMARK SMILES IDX 48 77 74 78 75 79 83 80 76 81 82 82 84 83 81 84 77 85 78 86
REMARK SMILES IDX 79 87 80 88 59 89 60 90 68 91 61 92 67 93 69 94 66 95 62 96
REMARK SMILES IDX 63 97 64 98 65 99
REMARK H PARENT 23 7 30 33 89 52 57 63
REMARK Flexibility Score: inf
ROOT
ATOM      1  C   UNL A   1      39.981  22.828  27.133  1.00  0.00     0.002 C 
ENDROOT
BRANCH   1   2
ATOM      2  C   UNL A   1      38.917  23.921  26.989  1.00  0.00     0.021 C 
BRANCH   2   3
ATOM      3  C   UNL A   1      37.855  23.595  25.939  1.00  0.00     0.116 C 
BRANCH   3   4
ATOM      4  N   UNL A   1      36.584  23.319  26.579  1.00  0.00    -0.355 N 
ATOM      5  C   UNL A   1      35.523  22.578  26.152  1.00  0.00     0.233 C 
ATOM      6  O   UNL A   1      34.523  22.549  26.878  1.00  0.00    -0.274 OA
ATOM      7  H   UNL A   1      36.468  23.732  27.465  1.00  0.00     0.163 HD
BRANCH   5   8
ATOM      8  C   UNL A   1      35.554  21.797  24.829  1.00  0.00     0.139 C 
ATOM      9  C   UNL A   1      34.788  20.480  24.920  1.00  0.00     0.030 C 
BRANCH   8  10
ATOM     10  S   UNL A   1      35.091  22.980  23.485  1.00  0.00    -0.092 SA
BRANCH  10  11
ATOM     11  C   UNL A   1      33.436  23.563  23.790  1.00  0.00     0.115 A 
ATOM     12  N   UNL A   1      33.471  24.792  24.391  1.00  0.00    -0.240 NA
ATOM     13  C   UNL A   1      32.222  22.968  23.450  1.00  0.00     0.084 A 
ATOM     14  C   UNL A   1      32.315  25.424  24.708  1.00  0.00     0.072 A 
ATOM     15  C   UNL A   1      31.036  23.618  23.809  1.00  0.00     0.024 A 
ATOM     16  C   UNL A   1      31.080  24.851  24.444  1.00  0.00     0.030 A 
BRANCH  13  17
ATOM     17  C   UNL A   1      32.084  21.744  22.728  1.00  0.00     0.102 C 
ATOM     18  N   UNL A   1      32.022  20.728  22.174  1.00  0.00    -0.192 NA
ENDBRANCH  13  17
BRANCH  14  19
ATOM     19  C   UNL A   1      32.407  26.763  25.312  1.00  0.00     0.004 A 
ATOM     20  C   UNL A   1      31.401  27.732  25.052  1.00  0.00     0.014 A 
ATOM     21  C   UNL A   1      33.529  27.144  26.071  1.00  0.00     0.061 A 
ATOM     22  C   UNL A   1      31.523  29.053  25.493  1.00  0.00     0.051 A 
ATOM     23  C   UNL A   1      33.631  28.462  26.479  1.00  0.00     0.166 A 
ATOM     24  C   UNL A   1      32.659  29.389  26.191  1.00  0.00     0.165 A 
ATOM     25  O   UNL A   1      34.676  29.008  27.160  1.00  0.00    -0.454 OA
ATOM     26  O   UNL A   1      32.968  30.631  26.649  1.00  0.00    -0.454 OA
ATOM     27  C   UNL A   1      34.249  30.385  27.259  1.00  0.00     0.468 C 
ENDBRANCH  14  19
ENDBRANCH  10  11
ENDBRANCH   8  10
ENDBRANCH   5   8
ENDBRANCH   3   4
ENDBRANCH   2   3
ENDBRANCH   1   2
BRANCH   1  28
ATOM     28  C   UNL A   1      39.930  21.749  26.046  1.00  0.00     0.002 C 
BRANCH  28  29
ATOM     29  C   UNL A   1      40.114  20.322  26.567  1.00  0.00     0.021 C 
BRANCH  29  30
ATOM     30  C   UNL A   1      41.482  20.068  27.185  1.00  0.00     0.116 C 
BRANCH  30  31
ATOM     31  N   UNL A   1      42.397  19.469  26.227  1.00  0.00    -0.352 N 
ATOM     32  C   UNL A   1      43.317  20.088  25.418  1.00  0.00     0.251 C 
ATOM     33  H   UNL A   1      42.351  18.489  26.146  1.00  0.00     0.163 HD
ATOM     34  O   UNL A   1      43.830  19.480  24.486  1.00  0.00    -0.269 OA
BRANCH  32  35
ATOM     35  C   UNL A   1      43.659  21.501  25.680  1.00  0.00     0.039 A 
ATOM     36  C   UNL A   1      43.307  22.475  24.745  1.00  0.00     0.014 A 
ATOM     37  C   UNL A   1      44.297  21.860  26.871  1.00  0.00     0.014 A 
ATOM     38  C   UNL A   1      43.541  23.821  25.035  1.00  0.00     0.010 A 
ATOM     39  C   UNL A   1      44.447  23.203  27.194  1.00  0.00     0.010 A 
ATOM     40  C   UNL A   1      44.077  24.199  26.277  1.00  0.00    -0.014 A 
BRANCH  40  41
ATOM     41  C   UNL A   1      44.276  25.627  26.638  1.00  0.00     0.031 A 
ATOM     42  C   UNL A   1      45.641  26.249  26.490  1.00  0.00     0.074 A 
ATOM     43  C   UNL A   1      43.255  26.340  27.155  1.00  0.00     0.049 A 
ATOM     44  N   UNL A   1      46.048  27.440  26.843  1.00  0.00    -0.248 NA
ATOM     45  C   UNL A   1      46.693  25.411  25.889  1.00  0.00     0.031 C 
ATOM     46  C   UNL A   1      41.893  25.841  27.362  1.00  0.00     0.029 A 
ATOM     47  N   UNL A   1      43.202  27.635  27.614  1.00  0.00    -0.354 N 
ATOM     48  C   UNL A   1      47.402  27.487  26.529  1.00  0.00     0.074 A 
ATOM     49  C   UNL A   1      47.759  26.191  25.998  1.00  0.00     0.031 C 
ATOM     50  C   UNL A   1      41.136  26.823  27.877  1.00  0.00     0.029 A 
ATOM     51  C   UNL A   1      41.968  28.001  28.105  1.00  0.00     0.049 A 
ATOM     52  H   UNL A   1      43.975  28.244  27.593  1.00  0.00     0.167 HD
ATOM     53  C   UNL A   1      48.262  28.525  26.661  1.00  0.00     0.034 A 
ATOM     54  C   UNL A   1      41.561  29.144  28.696  1.00  0.00     0.034 A 
ATOM     55  C   UNL A   1      47.884  29.818  27.173  1.00  0.00     0.049 A 
ATOM     56  C   UNL A   1      42.562  30.264  28.877  1.00  0.00     0.074 A 
ATOM     57  C   UNL A   1      48.665  30.955  27.282  1.00  0.00     0.029 A 
ATOM     58  N   UNL A   1      46.632  30.144  27.675  1.00  0.00    -0.354 N 
ATOM     59  N   UNL A   1      43.826  30.308  28.521  1.00  0.00    -0.248 NA
ATOM     60  C   UNL A   1      42.083  31.488  29.531  1.00  0.00     0.031 C 
ATOM     61  C   UNL A   1      47.919  31.933  27.942  1.00  0.00     0.029 A 
ATOM     62  C   UNL A   1      46.637  31.449  28.140  1.00  0.00     0.049 A 
ATOM     63  H   UNL A   1      45.856  29.539  27.696  1.00  0.00     0.167 HD
ATOM     64  C   UNL A   1      44.270  31.584  28.863  1.00  0.00     0.074 A 
ATOM     65  C   UNL A   1      43.142  32.277  29.442  1.00  0.00     0.031 C 
ATOM     66  C   UNL A   1      45.500  32.135  28.705  1.00  0.00     0.034 A 
BRANCH  53  67
ATOM     67  C   UNL A   1      49.706  28.306  26.285  1.00  0.00     0.023 A 
ATOM     68  C   UNL A   1      50.188  28.549  24.989  1.00  0.00     0.031 A 
ATOM     69  C   UNL A   1      50.625  27.884  27.264  1.00  0.00     0.131 A 
ATOM     70  C   UNL A   1      51.542  28.331  24.696  1.00  0.00     0.055 A 
ATOM     71  C   UNL A   1      51.986  27.746  26.986  1.00  0.00     0.041 A 
ATOM     72  F   UNL A   1      50.216  27.607  28.512  1.00  0.00    -0.206 F 
ATOM     73  C   UNL A   1      52.450  27.963  25.692  1.00  0.00     0.022 A 
BRANCH  70  74
ATOM     74  S   UNL A   1      52.086  28.429  22.969  1.00  0.00     0.124 S 
ATOM     75  O   UNL A   1      53.329  29.188  23.094  1.00  0.00    -0.237 OA
ATOM     76  O   UNL A   1      52.230  27.025  22.603  1.00  0.00    -0.237 OA
ATOM     77  O   UNL A   1      50.996  29.138  22.305  1.00  0.00    -0.744 OA
ENDBRANCH  70  74
ENDBRANCH  53  67
BRANCH  54  78
ATOM     78  C   UNL A   1      40.161  29.300  29.199  1.00  0.00     0.023 A 
ATOM     79  C   UNL A   1      39.862  29.129  30.560  1.00  0.00     0.031 A 
ATOM     80  C   UNL A   1      39.088  29.512  28.315  1.00  0.00     0.131 A 
ATOM     81  C   UNL A   1      38.525  29.075  30.982  1.00  0.00     0.055 A 
ATOM     82  C   UNL A   1      37.762  29.546  28.755  1.00  0.00     0.041 A 
ATOM     83  F   UNL A   1      39.308  29.678  27.001  1.00  0.00    -0.206 F 
ATOM     84  C   UNL A   1      37.474  29.302  30.094  1.00  0.00     0.022 A 
BRANCH  81  85
ATOM     85  S   UNL A   1      38.178  28.531  32.679  1.00  0.00     0.124 S 
ATOM     86  O   UNL A   1      38.218  27.080  32.533  1.00  0.00    -0.237 OA
ATOM     87  O   UNL A   1      39.280  29.133  33.421  1.00  0.00    -0.237 OA
ATOM     88  O   UNL A   1      36.858  29.095  32.953  1.00  0.00    -0.744 OA
ENDBRANCH  81  85
ENDBRANCH  54  78
BRANCH  66  89
ATOM     89  C   UNL A   1      45.672  33.586  29.088  1.00  0.00     0.023 A 
ATOM     90  C   UNL A   1      45.439  34.634  28.182  1.00  0.00     0.031 A 
ATOM     91  C   UNL A   1      46.064  33.919  30.398  1.00  0.00     0.131 A 
ATOM     92  C   UNL A   1      45.646  35.962  28.585  1.00  0.00     0.055 A 
ATOM     93  C   UNL A   1      46.196  35.243  30.813  1.00  0.00     0.041 A 
ATOM     94  F   UNL A   1      46.309  32.959  31.304  1.00  0.00    -0.206 F 
ATOM     95  C   UNL A   1      45.999  36.274  29.900  1.00  0.00     0.022 A 
BRANCH  92  96
ATOM     96  S   UNL A   1      45.540  37.277  27.340  1.00  0.00     0.124 S 
ATOM     97  O   UNL A   1      45.999  38.442  28.089  1.00  0.00    -0.237 OA
ATOM     98  O   UNL A   1      46.441  36.795  26.297  1.00  0.00    -0.237 OA
ATOM     99  O   UNL A   1      44.125  37.293  26.977  1.00  0.00    -0.744 OA
ENDBRANCH  92  96
ENDBRANCH  66  89
ENDBRANCH  40  41
ENDBRANCH  32  35
ENDBRANCH  30  31
ENDBRANCH  29  30
ENDBRANCH  28  29
ENDBRANCH   1  28
TORSDOF 20
ENDMDL
