MODEL 1
REMARK VINA RESULT:     -12.3      0.000      0.000
REMARK SMILES CCCN1CCC[C@@]2(CCN(c3ccc(C(=O)NCCCCCCNC(=O)c4ccc(-c5c6nc(c(-c7cc(S(=O)(=O)[O-])ccc7F)c7ccc([nH]7)c(-c7cc(S(=O)(=O)[O-])ccc7F)c7nc(c(-c8cc(S(=O)(=O)[O-])ccc8F)c8ccc5[nH]8)C=C7)C=C6)cc4)cn3)C2)C1=O
REMARK SMILES IDX 21 1 20 2 19 3 18 4 16 5 17 6 15 8 12 9 13 10 92 11 14 12
REMARK SMILES IDX 91 13 11 14 4 15 5 16 94 17 6 18 8 19 95 20 7 21 9 22 93 23
REMARK SMILES IDX 10 24 3 25 2 26 1 27 22 28 23 29 24 30 25 31 26 32 27 34
REMARK SMILES IDX 28 35 29 36 90 37 30 38 89 39 31 40 32 41 33 42 83 43 34 44
REMARK SMILES IDX 88 45 82 46 84 47 35 48 87 49 81 50 80 51 36 53 68 54 48 55
REMARK SMILES IDX 67 56 49 57 52 58 66 59 85 60 50 61 51 62 65 64 86 65 53 66
REMARK SMILES IDX 37 67 38 68 46 69 39 70 45 71 47 72 44 73 40 74 41 75 42 76
REMARK SMILES IDX 43 77 69 78 70 79 78 80 71 81 77 82 79 83 76 84 72 85 73 86
REMARK SMILES IDX 74 87 75 88 54 89 55 90 63 91 56 92 62 93 64 94 61 95 57 96
REMARK SMILES IDX 58 97 59 98 60 99
REMARK H PARENT 18 7 25 33 84 52 52 63
REMARK Flexibility Score: inf
ROOT
ATOM      1  C   UNL A   1      34.930  33.275  28.115  1.00  0.00     0.002 C 
ENDROOT
BRANCH   1   2
ATOM      2  C   UNL A   1      35.827  32.036  27.991  1.00  0.00     0.021 C 
BRANCH   2   3
ATOM      3  C   UNL A   1      35.026  30.731  27.946  1.00  0.00     0.116 C 
BRANCH   3   4
ATOM      4  N   UNL A   1      33.666  30.991  27.511  1.00  0.00    -0.352 N 
ATOM      5  C   UNL A   1      32.793  30.309  26.702  1.00  0.00     0.252 C 
ATOM      6  O   UNL A   1      31.684  30.815  26.521  1.00  0.00    -0.269 OA
ATOM      7  H   UNL A   1      33.295  31.829  27.869  1.00  0.00     0.163 HD
BRANCH   5   8
ATOM      8  C   UNL A   1      33.091  28.997  26.078  1.00  0.00     0.058 A 
ATOM      9  C   UNL A   1      33.521  26.654  24.636  1.00  0.00     0.128 A 
ATOM     10  C   UNL A   1      33.385  26.616  26.018  1.00  0.00     0.048 A 
ATOM     11  N   UNL A   1      33.513  27.825  23.974  1.00  0.00    -0.239 NA
ATOM     12  C   UNL A   1      33.229  27.791  26.744  1.00  0.00     0.019 A 
ATOM     13  C   UNL A   1      33.269  28.955  24.696  1.00  0.00     0.127 A 
BRANCH   9  14
ATOM     14  N   UNL A   1      33.703  25.482  23.964  1.00  0.00    -0.356 N 
ATOM     15  N   UNL A   1      34.130  21.437  24.963  1.00  0.00    -0.342 N 
ATOM     16  C   UNL A   1      35.482  20.929  24.779  1.00  0.00     0.119 C 
ATOM     17  C   UNL A   1      33.535  22.222  23.980  1.00  0.00     0.230 C 
ATOM     18  C   UNL A   1      36.440  22.010  24.311  1.00  0.00     0.023 C 
ATOM     19  C   UNL A   1      34.464  23.301  23.409  1.00  0.00     0.069 C 
ATOM     20  O   UNL A   1      32.333  22.174  23.730  1.00  0.00    -0.274 OA
ATOM     21  C   UNL A   1      35.854  22.727  23.097  1.00  0.00     0.021 C 
ATOM     22  C   UNL A   1      33.849  24.018  22.192  1.00  0.00     0.040 C 
ATOM     23  C   UNL A   1      34.556  24.424  24.472  1.00  0.00     0.135 C 
ATOM     24  C   UNL A   1      32.945  25.097  22.799  1.00  0.00     0.119 C 
BRANCH  15  25
ATOM     25  C   UNL A   1      33.352  21.050  26.133  1.00  0.00     0.119 C 
BRANCH  25  26
ATOM     26  C   UNL A   1      33.914  21.454  27.492  1.00  0.00     0.018 C 
ATOM     27  C   UNL A   1      34.179  22.943  27.631  1.00  0.00     0.006 C 
ENDBRANCH  25  26
ENDBRANCH  15  25
ENDBRANCH   9  14
ENDBRANCH   5   8
ENDBRANCH   3   4
ENDBRANCH   2   3
ENDBRANCH   1   2
BRANCH   1  28
ATOM     28  C   UNL A   1      35.264  34.186  29.305  1.00  0.00     0.002 C 
BRANCH  28  29
ATOM     29  C   UNL A   1      34.371  33.989  30.533  1.00  0.00     0.021 C 
BRANCH  29  30
ATOM     30  C   UNL A   1      34.638  32.690  31.287  1.00  0.00     0.116 C 
BRANCH  30  31
ATOM     31  N   UNL A   1      35.164  32.952  32.619  1.00  0.00    -0.352 N 
ATOM     32  C   UNL A   1      36.288  32.441  33.223  1.00  0.00     0.251 C 
ATOM     33  H   UNL A   1      34.641  33.584  33.164  1.00  0.00     0.163 HD
ATOM     34  O   UNL A   1      36.438  32.546  34.433  1.00  0.00    -0.269 OA
BRANCH  32  35
ATOM     35  C   UNL A   1      37.299  31.751  32.394  1.00  0.00     0.039 A 
ATOM     36  C   UNL A   1      37.503  32.170  31.078  1.00  0.00     0.014 A 
ATOM     37  C   UNL A   1      38.056  30.706  32.931  1.00  0.00     0.014 A 
ATOM     38  C   UNL A   1      38.526  31.590  30.324  1.00  0.00     0.010 A 
ATOM     39  C   UNL A   1      39.117  30.178  32.203  1.00  0.00     0.010 A 
ATOM     40  C   UNL A   1      39.372  30.624  30.897  1.00  0.00    -0.014 A 
BRANCH  40  41
ATOM     41  C   UNL A   1      40.546  30.086  30.164  1.00  0.00     0.031 A 
ATOM     42  C   UNL A   1      41.749  30.955  29.931  1.00  0.00     0.074 A 
ATOM     43  C   UNL A   1      40.492  28.844  29.641  1.00  0.00     0.049 A 
ATOM     44  N   UNL A   1      42.806  30.724  29.197  1.00  0.00    -0.248 NA
ATOM     45  C   UNL A   1      41.751  32.269  30.595  1.00  0.00     0.031 C 
ATOM     46  C   UNL A   1      39.367  27.916  29.784  1.00  0.00     0.029 A 
ATOM     47  N   UNL A   1      41.392  28.153  28.866  1.00  0.00    -0.354 N 
ATOM     48  C   UNL A   1      43.603  31.858  29.313  1.00  0.00     0.074 A 
ATOM     49  C   UNL A   1      42.873  32.802  30.134  1.00  0.00     0.031 C 
ATOM     50  C   UNL A   1      39.648  26.779  29.128  1.00  0.00     0.029 A 
ATOM     51  C   UNL A   1      40.941  26.916  28.465  1.00  0.00     0.049 A 
ATOM     52  H   UNL A   1      42.276  28.510  28.621  1.00  0.00     0.167 HD
ATOM     53  C   UNL A   1      44.840  32.079  28.804  1.00  0.00     0.034 A 
ATOM     54  C   UNL A   1      41.490  26.009  27.630  1.00  0.00     0.034 A 
ATOM     55  C   UNL A   1      45.551  31.130  27.984  1.00  0.00     0.049 A 
ATOM     56  C   UNL A   1      42.831  26.317  27.007  1.00  0.00     0.074 A 
ATOM     57  C   UNL A   1      46.816  31.245  27.435  1.00  0.00     0.029 A 
ATOM     58  N   UNL A   1      45.058  29.894  27.588  1.00  0.00    -0.354 N 
ATOM     59  N   UNL A   1      43.586  27.382  27.157  1.00  0.00    -0.248 NA
ATOM     60  C   UNL A   1      43.396  25.303  26.106  1.00  0.00     0.031 C 
ATOM     61  C   UNL A   1      47.059  30.113  26.652  1.00  0.00     0.029 A 
ATOM     62  C   UNL A   1      45.979  29.254  26.775  1.00  0.00     0.049 A 
ATOM     63  H   UNL A   1      44.182  29.526  27.847  1.00  0.00     0.167 HD
ATOM     64  C   UNL A   1      44.726  27.148  26.391  1.00  0.00     0.074 A 
ATOM     65  C   UNL A   1      44.569  25.836  25.801  1.00  0.00     0.031 C 
ATOM     66  C   UNL A   1      45.804  27.946  26.191  1.00  0.00     0.034 A 
BRANCH  53  67
ATOM     67  C   UNL A   1      45.494  33.404  29.112  1.00  0.00     0.023 A 
ATOM     68  C   UNL A   1      45.290  34.527  28.292  1.00  0.00     0.031 A 
ATOM     69  C   UNL A   1      46.323  33.551  30.237  1.00  0.00     0.131 A 
ATOM     70  C   UNL A   1      45.956  35.729  28.573  1.00  0.00     0.055 A 
ATOM     71  C   UNL A   1      46.920  34.772  30.557  1.00  0.00     0.041 A 
ATOM     72  F   UNL A   1      46.571  32.507  31.044  1.00  0.00    -0.206 F 
ATOM     73  C   UNL A   1      46.747  35.867  29.716  1.00  0.00     0.022 A 
BRANCH  70  74
ATOM     74  S   UNL A   1      45.870  37.068  27.355  1.00  0.00     0.124 S 
ATOM     75  O   UNL A   1      44.465  37.017  26.960  1.00  0.00    -0.237 OA
ATOM     76  O   UNL A   1      46.272  38.232  28.136  1.00  0.00    -0.237 OA
ATOM     77  O   UNL A   1      46.816  36.652  26.320  1.00  0.00    -0.744 OA
ENDBRANCH  70  74
ENDBRANCH  53  67
BRANCH  54  78
ATOM     78  C   UNL A   1      40.764  24.751  27.285  1.00  0.00     0.023 A 
ATOM     79  C   UNL A   1      41.422  23.511  27.296  1.00  0.00     0.031 A 
ATOM     80  C   UNL A   1      39.424  24.778  26.858  1.00  0.00     0.131 A 
ATOM     81  C   UNL A   1      40.765  22.365  26.821  1.00  0.00     0.055 A 
ATOM     82  C   UNL A   1      38.751  23.622  26.458  1.00  0.00     0.041 A 
ATOM     83  F   UNL A   1      38.743  25.935  26.824  1.00  0.00    -0.206 F 
ATOM     84  C   UNL A   1      39.429  22.409  26.417  1.00  0.00     0.022 A 
BRANCH  81  85
ATOM     85  S   UNL A   1      41.729  20.844  26.603  1.00  0.00     0.124 S 
ATOM     86  O   UNL A   1      42.653  21.231  25.542  1.00  0.00    -0.237 OA
ATOM     87  O   UNL A   1      42.311  20.664  27.928  1.00  0.00    -0.237 OA
ATOM     88  O   UNL A   1      40.721  19.856  26.225  1.00  0.00    -0.744 OA
ENDBRANCH  81  85
ENDBRANCH  54  78
BRANCH  66  89
ATOM     89  C   UNL A   1      46.914  27.401  25.326  1.00  0.00     0.023 A 
ATOM     90  C   UNL A   1      47.117  27.857  24.012  1.00  0.00     0.031 A 
ATOM     91  C   UNL A   1      47.789  26.423  25.830  1.00  0.00     0.131 A 
ATOM     92  C   UNL A   1      48.142  27.304  23.232  1.00  0.00     0.055 A 
ATOM     93  C   UNL A   1      48.845  25.920  25.070  1.00  0.00     0.041 A 
ATOM     94  F   UNL A   1      47.640  25.949  27.078  1.00  0.00    -0.206 F 
ATOM     95  C   UNL A   1      49.020  26.353  23.759  1.00  0.00     0.022 A 
BRANCH  92  96
ATOM     96  S   UNL A   1      48.270  27.793  21.490  1.00  0.00     0.124 S 
ATOM     97  O   UNL A   1      48.694  26.549  20.856  1.00  0.00    -0.237 OA
ATOM     98  O   UNL A   1      46.911  28.230  21.186  1.00  0.00    -0.237 OA
ATOM     99  O   UNL A   1      49.273  28.856  21.505  1.00  0.00    -0.744 OA
ENDBRANCH  92  96
ENDBRANCH  66  89
ENDBRANCH  40  41
ENDBRANCH  32  35
ENDBRANCH  30  31
ENDBRANCH  29  30
ENDBRANCH  28  29
ENDBRANCH   1  28
TORSDOF 19
ENDMDL
MODEL 2
REMARK VINA RESULT:     -12.1      5.493      8.374
REMARK SMILES CCCN1CCC[C@@]2(CCN(c3ccc(C(=O)NCCCCCCNC(=O)c4ccc(-c5c6nc(c(-c7cc(S(=O)(=O)[O-])ccc7F)c7ccc([nH]7)c(-c7cc(S(=O)(=O)[O-])ccc7F)c7nc(c(-c8cc(S(=O)(=O)[O-])ccc8F)c8ccc5[nH]8)C=C7)C=C6)cc4)cn3)C2)C1=O
REMARK SMILES IDX 21 1 20 2 19 3 18 4 16 5 17 6 15 8 12 9 13 10 92 11 14 12
REMARK SMILES IDX 91 13 11 14 4 15 5 16 94 17 6 18 8 19 95 20 7 21 9 22 93 23
REMARK SMILES IDX 10 24 3 25 2 26 1 27 22 28 23 29 24 30 25 31 26 32 27 34
REMARK SMILES IDX 28 35 29 36 90 37 30 38 89 39 31 40 32 41 33 42 83 43 34 44
REMARK SMILES IDX 88 45 82 46 84 47 35 48 87 49 81 50 80 51 36 53 68 54 48 55
REMARK SMILES IDX 67 56 49 57 52 58 66 59 85 60 50 61 51 62 65 64 86 65 53 66
REMARK SMILES IDX 37 67 38 68 46 69 39 70 45 71 47 72 44 73 40 74 41 75 42 76
REMARK SMILES IDX 43 77 69 78 70 79 78 80 71 81 77 82 79 83 76 84 72 85 73 86
REMARK SMILES IDX 74 87 75 88 54 89 55 90 63 91 56 92 62 93 64 94 61 95 57 96
REMARK SMILES IDX 58 97 59 98 60 99
REMARK H PARENT 18 7 25 33 84 52 52 63
REMARK Flexibility Score: inf
ROOT
ATOM      1  C   UNL A   1      35.672  32.773  29.440  1.00  0.00     0.002 C 
ENDROOT
BRANCH   1   2
ATOM      2  C   UNL A   1      35.214  31.364  29.039  1.00  0.00     0.021 C 
BRANCH   2   3
ATOM      3  C   UNL A   1      34.920  31.244  27.541  1.00  0.00     0.116 C 
BRANCH   3   4
ATOM      4  N   UNL A   1      33.488  31.284  27.305  1.00  0.00    -0.352 N 
ATOM      5  C   UNL A   1      32.614  30.423  26.693  1.00  0.00     0.252 C 
ATOM      6  O   UNL A   1      31.429  30.761  26.651  1.00  0.00    -0.269 OA
ATOM      7  H   UNL A   1      33.057  32.096  27.655  1.00  0.00     0.163 HD
BRANCH   5   8
ATOM      8  C   UNL A   1      33.002  29.108  26.126  1.00  0.00     0.058 A 
ATOM      9  C   UNL A   1      33.608  26.746  24.782  1.00  0.00     0.128 A 
ATOM     10  C   UNL A   1      33.412  26.744  26.158  1.00  0.00     0.048 A 
ATOM     11  N   UNL A   1      33.571  27.894  24.082  1.00  0.00    -0.239 NA
ATOM     12  C   UNL A   1      33.168  27.932  26.837  1.00  0.00     0.019 A 
ATOM     13  C   UNL A   1      33.242  29.033  24.755  1.00  0.00     0.127 A 
BRANCH   9  14
ATOM     14  N   UNL A   1      33.875  25.564  24.158  1.00  0.00    -0.356 N 
ATOM     15  N   UNL A   1      34.720  21.631  25.323  1.00  0.00    -0.342 N 
ATOM     16  C   UNL A   1      36.107  21.242  25.107  1.00  0.00     0.119 C 
ATOM     17  C   UNL A   1      34.017  22.308  24.331  1.00  0.00     0.230 C 
ATOM     18  C   UNL A   1      36.940  22.383  24.551  1.00  0.00     0.023 C 
ATOM     19  C   UNL A   1      34.819  23.439  23.673  1.00  0.00     0.069 C 
ATOM     20  O   UNL A   1      32.818  22.135  24.133  1.00  0.00    -0.274 OA
ATOM     21  C   UNL A   1      36.245  22.981  23.330  1.00  0.00     0.021 C 
ATOM     22  C   UNL A   1      34.094  24.034  22.450  1.00  0.00     0.040 C 
ATOM     23  C   UNL A   1      34.842  24.616  24.678  1.00  0.00     0.135 C 
ATOM     24  C   UNL A   1      33.115  25.053  23.044  1.00  0.00     0.119 C 
BRANCH  15  25
ATOM     25  C   UNL A   1      34.026  21.232  26.540  1.00  0.00     0.119 C 
BRANCH  25  26
ATOM     26  C   UNL A   1      33.833  22.309  27.603  1.00  0.00     0.018 C 
ATOM     27  C   UNL A   1      32.580  23.145  27.412  1.00  0.00     0.006 C 
ENDBRANCH  25  26
ENDBRANCH  15  25
ENDBRANCH   9  14
ENDBRANCH   5   8
ENDBRANCH   3   4
ENDBRANCH   2   3
ENDBRANCH   1   2
BRANCH   1  28
ATOM     28  C   UNL A   1      35.515  33.832  28.340  1.00  0.00     0.002 C 
BRANCH  28  29
ATOM     29  C   UNL A   1      34.437  34.885  28.613  1.00  0.00     0.021 C 
BRANCH  29  30
ATOM     30  C   UNL A   1      33.304  34.389  29.507  1.00  0.00     0.116 C 
BRANCH  30  31
ATOM     31  N   UNL A   1      32.791  35.458  30.350  1.00  0.00    -0.352 N 
ATOM     32  C   UNL A   1      33.028  35.701  31.682  1.00  0.00     0.251 C 
ATOM     33  H   UNL A   1      32.188  36.097  29.904  1.00  0.00     0.163 HD
ATOM     34  O   UNL A   1      32.308  36.472  32.304  1.00  0.00    -0.269 OA
BRANCH  32  35
ATOM     35  C   UNL A   1      34.149  35.009  32.351  1.00  0.00     0.039 A 
ATOM     36  C   UNL A   1      33.898  33.839  33.070  1.00  0.00     0.014 A 
ATOM     37  C   UNL A   1      35.449  35.511  32.246  1.00  0.00     0.014 A 
ATOM     38  C   UNL A   1      34.967  33.127  33.617  1.00  0.00     0.010 A 
ATOM     39  C   UNL A   1      36.518  34.765  32.733  1.00  0.00     0.010 A 
ATOM     40  C   UNL A   1      36.289  33.559  33.412  1.00  0.00    -0.014 A 
BRANCH  40  41
ATOM     41  C   UNL A   1      37.451  32.754  33.870  1.00  0.00     0.031 A 
ATOM     42  C   UNL A   1      38.190  33.148  35.117  1.00  0.00     0.074 A 
ATOM     43  C   UNL A   1      37.884  31.723  33.118  1.00  0.00     0.049 A 
ATOM     44  N   UNL A   1      39.306  32.668  35.602  1.00  0.00    -0.248 NA
ATOM     45  C   UNL A   1      37.609  34.242  35.911  1.00  0.00     0.031 C 
ATOM     46  C   UNL A   1      37.258  31.261  31.876  1.00  0.00     0.029 A 
ATOM     47  N   UNL A   1      38.962  30.886  33.273  1.00  0.00    -0.354 N 
ATOM     48  C   UNL A   1      39.559  33.395  36.760  1.00  0.00     0.074 A 
ATOM     49  C   UNL A   1      38.515  34.393  36.866  1.00  0.00     0.031 C 
ATOM     50  C   UNL A   1      37.957  30.224  31.389  1.00  0.00     0.029 A 
ATOM     51  C   UNL A   1      39.114  29.983  32.244  1.00  0.00     0.049 A 
ATOM     52  H   UNL A   1      39.569  30.928  34.046  1.00  0.00     0.167 HD
ATOM     53  C   UNL A   1      40.556  33.227  37.664  1.00  0.00     0.034 A 
ATOM     54  C   UNL A   1      40.093  29.088  31.999  1.00  0.00     0.034 A 
ATOM     55  C   UNL A   1      41.590  32.231  37.542  1.00  0.00     0.049 A 
ATOM     56  C   UNL A   1      41.238  28.980  32.978  1.00  0.00     0.074 A 
ATOM     57  C   UNL A   1      42.633  31.961  38.411  1.00  0.00     0.029 A 
ATOM     58  N   UNL A   1      41.720  31.344  36.481  1.00  0.00    -0.354 N 
ATOM     59  N   UNL A   1      41.441  29.653  34.087  1.00  0.00    -0.248 NA
ATOM     60  C   UNL A   1      42.282  27.990  32.677  1.00  0.00     0.031 C 
ATOM     61  C   UNL A   1      43.430  30.963  37.843  1.00  0.00     0.029 A 
ATOM     62  C   UNL A   1      42.843  30.552  36.658  1.00  0.00     0.049 A 
ATOM     63  H   UNL A   1      41.103  31.286  35.715  1.00  0.00     0.167 HD
ATOM     64  C   UNL A   1      42.622  29.146  34.627  1.00  0.00     0.074 A 
ATOM     65  C   UNL A   1      43.070  28.098  33.735  1.00  0.00     0.031 C 
ATOM     66  C   UNL A   1      43.278  29.514  35.756  1.00  0.00     0.034 A 
BRANCH  53  67
ATOM     67  C   UNL A   1      40.577  34.150  38.858  1.00  0.00     0.023 A 
ATOM     68  C   UNL A   1      39.866  33.843  40.031  1.00  0.00     0.031 A 
ATOM     69  C   UNL A   1      41.318  35.344  38.830  1.00  0.00     0.131 A 
ATOM     70  C   UNL A   1      39.860  34.747  41.103  1.00  0.00     0.055 A 
ATOM     71  C   UNL A   1      41.373  36.201  39.930  1.00  0.00     0.041 A 
ATOM     72  F   UNL A   1      41.999  35.700  37.730  1.00  0.00    -0.206 F 
ATOM     73  C   UNL A   1      40.631  35.911  41.072  1.00  0.00     0.022 A 
BRANCH  70  74
ATOM     74  S   UNL A   1      38.731  34.437  42.487  1.00  0.00     0.124 S 
ATOM     75  O   UNL A   1      37.660  35.392  42.211  1.00  0.00    -0.237 OA
ATOM     76  O   UNL A   1      38.392  33.030  42.310  1.00  0.00    -0.237 OA
ATOM     77  O   UNL A   1      39.541  34.743  43.665  1.00  0.00    -0.744 OA
ENDBRANCH  70  74
ENDBRANCH  53  67
BRANCH  54  78
ATOM     78  C   UNL A   1      40.075  28.257  30.758  1.00  0.00     0.023 A 
ATOM     79  C   UNL A   1      40.885  28.583  29.659  1.00  0.00     0.031 A 
ATOM     80  C   UNL A   1      39.188  27.174  30.621  1.00  0.00     0.131 A 
ATOM     81  C   UNL A   1      40.740  27.882  28.451  1.00  0.00     0.055 A 
ATOM     82  C   UNL A   1      39.101  26.433  29.441  1.00  0.00     0.041 A 
ATOM     83  F   UNL A   1      38.387  26.817  31.638  1.00  0.00    -0.206 F 
ATOM     84  C   UNL A   1      39.866  26.799  28.340  1.00  0.00     0.022 A 
BRANCH  81  85
ATOM     85  S   UNL A   1      41.609  28.502  26.983  1.00  0.00     0.124 S 
ATOM     86  O   UNL A   1      40.510  29.070  26.210  1.00  0.00    -0.237 OA
ATOM     87  O   UNL A   1      42.544  29.456  27.568  1.00  0.00    -0.237 OA
ATOM     88  O   UNL A   1      42.216  27.300  26.417  1.00  0.00    -0.744 OA
ENDBRANCH  81  85
ENDBRANCH  54  78
BRANCH  66  89
ATOM     89  C   UNL A   1      44.530  28.748  36.106  1.00  0.00     0.023 A 
ATOM     90  C   UNL A   1      44.485  27.573  36.874  1.00  0.00     0.031 A 
ATOM     91  C   UNL A   1      45.783  29.195  35.652  1.00  0.00     0.131 A 
ATOM     92  C   UNL A   1      45.674  26.908  37.202  1.00  0.00     0.055 A 
ATOM     93  C   UNL A   1      46.958  28.495  35.929  1.00  0.00     0.041 A 
ATOM     94  F   UNL A   1      45.885  30.314  34.916  1.00  0.00    -0.206 F 
ATOM     95  C   UNL A   1      46.908  27.349  36.718  1.00  0.00     0.022 A 
BRANCH  92  96
ATOM     96  S   UNL A   1      45.596  25.491  38.333  1.00  0.00     0.124 S 
ATOM     97  O   UNL A   1      46.932  24.920  38.197  1.00  0.00    -0.237 OA
ATOM     98  O   UNL A   1      45.304  26.128  39.614  1.00  0.00    -0.237 OA
ATOM     99  O   UNL A   1      44.513  24.675  37.787  1.00  0.00    -0.744 OA
ENDBRANCH  92  96
ENDBRANCH  66  89
ENDBRANCH  40  41
ENDBRANCH  32  35
ENDBRANCH  30  31
ENDBRANCH  29  30
ENDBRANCH  28  29
ENDBRANCH   1  28
TORSDOF 19
ENDMDL
MODEL 3
REMARK VINA RESULT:     -11.5      5.693     10.156
REMARK SMILES CCCN1CCC[C@@]2(CCN(c3ccc(C(=O)NCCCCCCNC(=O)c4ccc(-c5c6nc(c(-c7cc(S(=O)(=O)[O-])ccc7F)c7ccc([nH]7)c(-c7cc(S(=O)(=O)[O-])ccc7F)c7nc(c(-c8cc(S(=O)(=O)[O-])ccc8F)c8ccc5[nH]8)C=C7)C=C6)cc4)cn3)C2)C1=O
REMARK SMILES IDX 21 1 20 2 19 3 18 4 16 5 17 6 15 8 12 9 13 10 92 11 14 12
REMARK SMILES IDX 91 13 11 14 4 15 5 16 94 17 6 18 8 19 95 20 7 21 9 22 93 23
REMARK SMILES IDX 10 24 3 25 2 26 1 27 22 28 23 29 24 30 25 31 26 32 27 34
REMARK SMILES IDX 28 35 29 36 90 37 30 38 89 39 31 40 32 41 33 42 83 43 34 44
REMARK SMILES IDX 88 45 82 46 84 47 35 48 87 49 81 50 80 51 36 53 68 54 48 55
REMARK SMILES IDX 67 56 49 57 52 58 66 59 85 60 50 61 51 62 65 64 86 65 53 66
REMARK SMILES IDX 37 67 38 68 46 69 39 70 45 71 47 72 44 73 40 74 41 75 42 76
REMARK SMILES IDX 43 77 69 78 70 79 78 80 71 81 77 82 79 83 76 84 72 85 73 86
REMARK SMILES IDX 74 87 75 88 54 89 55 90 63 91 56 92 62 93 64 94 61 95 57 96
REMARK SMILES IDX 58 97 59 98 60 99
REMARK H PARENT 18 7 25 33 84 52 52 63
REMARK Flexibility Score: inf
ROOT
ATOM      1  C   UNL A   1      35.605  32.363  29.775  1.00  0.00     0.002 C 
ENDROOT
BRANCH   1   2
ATOM      2  C   UNL A   1      35.552  31.037  29.003  1.00  0.00     0.021 C 
BRANCH   2   3
ATOM      3  C   UNL A   1      35.191  31.229  27.527  1.00  0.00     0.116 C 
BRANCH   3   4
ATOM      4  N   UNL A   1      33.750  31.283  27.365  1.00  0.00    -0.352 N 
ATOM      5  C   UNL A   1      32.839  30.442  26.779  1.00  0.00     0.252 C 
ATOM      6  O   UNL A   1      31.656  30.788  26.805  1.00  0.00    -0.269 OA
ATOM      7  H   UNL A   1      33.342  32.090  27.755  1.00  0.00     0.163 HD
BRANCH   5   8
ATOM      8  C   UNL A   1      33.188  29.138  26.163  1.00  0.00     0.058 A 
ATOM      9  C   UNL A   1      33.637  26.768  24.772  1.00  0.00     0.128 A 
ATOM     10  C   UNL A   1      33.837  26.827  26.146  1.00  0.00     0.048 A 
ATOM     11  N   UNL A   1      33.286  27.866  24.078  1.00  0.00    -0.239 NA
ATOM     12  C   UNL A   1      33.669  28.025  26.832  1.00  0.00     0.019 A 
ATOM     13  C   UNL A   1      33.041  29.006  24.784  1.00  0.00     0.127 A 
BRANCH   9  14
ATOM     14  N   UNL A   1      33.842  25.582  24.133  1.00  0.00    -0.356 N 
ATOM     15  N   UNL A   1      34.641  21.624  25.243  1.00  0.00    -0.342 N 
ATOM     16  C   UNL A   1      36.005  21.200  24.956  1.00  0.00     0.119 C 
ATOM     17  C   UNL A   1      33.907  22.323  24.289  1.00  0.00     0.230 C 
ATOM     18  C   UNL A   1      36.838  22.321  24.362  1.00  0.00     0.023 C 
ATOM     19  C   UNL A   1      34.703  23.435  23.595  1.00  0.00     0.069 C 
ATOM     20  O   UNL A   1      32.694  22.182  24.152  1.00  0.00    -0.274 OA
ATOM     21  C   UNL A   1      36.098  22.942  23.179  1.00  0.00     0.021 C 
ATOM     22  C   UNL A   1      33.933  24.053  22.412  1.00  0.00     0.040 C 
ATOM     23  C   UNL A   1      34.809  24.607  24.601  1.00  0.00     0.135 C 
ATOM     24  C   UNL A   1      33.013  25.096  23.057  1.00  0.00     0.119 C 
BRANCH  15  25
ATOM     25  C   UNL A   1      33.999  21.238  26.493  1.00  0.00     0.119 C 
BRANCH  25  26
ATOM     26  C   UNL A   1      33.802  22.340  27.529  1.00  0.00     0.018 C 
ATOM     27  C   UNL A   1      32.414  22.958  27.516  1.00  0.00     0.006 C 
ENDBRANCH  25  26
ENDBRANCH  15  25
ENDBRANCH   9  14
ENDBRANCH   5   8
ENDBRANCH   3   4
ENDBRANCH   2   3
ENDBRANCH   1   2
BRANCH   1  28
ATOM     28  C   UNL A   1      35.792  33.606  28.895  1.00  0.00     0.002 C 
BRANCH  28  29
ATOM     29  C   UNL A   1      34.665  34.637  28.995  1.00  0.00     0.021 C 
BRANCH  29  30
ATOM     30  C   UNL A   1      33.408  34.112  29.683  1.00  0.00     0.116 C 
BRANCH  30  31
ATOM     31  N   UNL A   1      32.814  35.125  30.542  1.00  0.00    -0.352 N 
ATOM     32  C   UNL A   1      33.076  35.404  31.863  1.00  0.00     0.251 C 
ATOM     33  H   UNL A   1      32.127  35.690  30.119  1.00  0.00     0.163 HD
ATOM     34  O   UNL A   1      32.302  36.096  32.511  1.00  0.00    -0.269 OA
BRANCH  32  35
ATOM     35  C   UNL A   1      34.293  34.846  32.488  1.00  0.00     0.039 A 
ATOM     36  C   UNL A   1      34.208  33.645  33.194  1.00  0.00     0.014 A 
ATOM     37  C   UNL A   1      35.519  35.504  32.354  1.00  0.00     0.014 A 
ATOM     38  C   UNL A   1      35.372  33.061  33.700  1.00  0.00     0.010 A 
ATOM     39  C   UNL A   1      36.684  34.889  32.799  1.00  0.00     0.010 A 
ATOM     40  C   UNL A   1      36.624  33.655  33.464  1.00  0.00    -0.014 A 
BRANCH  40  41
ATOM     41  C   UNL A   1      37.889  32.992  33.876  1.00  0.00     0.031 A 
ATOM     42  C   UNL A   1      38.398  31.804  33.109  1.00  0.00     0.074 A 
ATOM     43  C   UNL A   1      38.529  33.412  34.985  1.00  0.00     0.049 A 
ATOM     44  N   UNL A   1      39.393  31.004  33.391  1.00  0.00    -0.248 NA
ATOM     45  C   UNL A   1      37.675  31.458  31.874  1.00  0.00     0.031 C 
ATOM     46  C   UNL A   1      38.117  34.542  35.822  1.00  0.00     0.029 A 
ATOM     47  N   UNL A   1      39.650  32.928  35.616  1.00  0.00    -0.354 N 
ATOM     48  C   UNL A   1      39.422  30.062  32.368  1.00  0.00     0.074 A 
ATOM     49  C   UNL A   1      38.302  30.353  31.497  1.00  0.00     0.031 C 
ATOM     50  C   UNL A   1      38.975  34.668  36.847  1.00  0.00     0.029 A 
ATOM     51  C   UNL A   1      39.961  33.595  36.780  1.00  0.00     0.049 A 
ATOM     52  H   UNL A   1      40.181  32.176  35.267  1.00  0.00     0.167 HD
ATOM     53  C   UNL A   1      40.317  29.065  32.161  1.00  0.00     0.034 A 
ATOM     54  C   UNL A   1      40.910  33.348  37.706  1.00  0.00     0.034 A 
ATOM     55  C   UNL A   1      41.426  28.786  33.040  1.00  0.00     0.049 A 
ATOM     56  C   UNL A   1      41.841  32.178  37.495  1.00  0.00     0.074 A 
ATOM     57  C   UNL A   1      42.403  27.815  32.913  1.00  0.00     0.029 A 
ATOM     58  N   UNL A   1      41.701  29.473  34.216  1.00  0.00    -0.354 N 
ATOM     59  N   UNL A   1      41.875  31.319  36.502  1.00  0.00    -0.248 NA
ATOM     60  C   UNL A   1      42.863  31.945  38.525  1.00  0.00     0.031 C 
ATOM     61  C   UNL A   1      43.224  27.868  34.042  1.00  0.00     0.029 A 
ATOM     62  C   UNL A   1      42.810  28.924  34.837  1.00  0.00     0.049 A 
ATOM     63  H   UNL A   1      41.183  30.238  34.557  1.00  0.00     0.167 HD
ATOM     64  C   UNL A   1      42.940  30.464  36.778  1.00  0.00     0.074 A 
ATOM     65  C   UNL A   1      43.534  30.924  38.015  1.00  0.00     0.031 C 
ATOM     66  C   UNL A   1      43.387  29.393  36.074  1.00  0.00     0.034 A 
BRANCH  53  67
ATOM     67  C   UNL A   1      40.125  28.198  30.941  1.00  0.00     0.023 A 
ATOM     68  C   UNL A   1      40.975  28.308  29.826  1.00  0.00     0.031 A 
ATOM     69  C   UNL A   1      39.091  27.248  30.891  1.00  0.00     0.131 A 
ATOM     70  C   UNL A   1      40.737  27.527  28.686  1.00  0.00     0.055 A 
ATOM     71  C   UNL A   1      38.909  26.416  29.784  1.00  0.00     0.041 A 
ATOM     72  F   UNL A   1      38.236  27.113  31.916  1.00  0.00    -0.206 F 
ATOM     73  C   UNL A   1      39.727  26.562  28.667  1.00  0.00     0.022 A 
BRANCH  70  74
ATOM     74  S   UNL A   1      41.690  27.880  27.185  1.00  0.00     0.124 S 
ATOM     75  O   UNL A   1      40.809  27.351  26.147  1.00  0.00    -0.237 OA
ATOM     76  O   UNL A   1      41.824  29.331  27.230  1.00  0.00    -0.237 OA
ATOM     77  O   UNL A   1      42.929  27.130  27.382  1.00  0.00    -0.744 OA
ENDBRANCH  70  74
ENDBRANCH  53  67
BRANCH  54  78
ATOM     78  C   UNL A   1      41.006  34.180  38.942  1.00  0.00     0.023 A 
ATOM     79  C   UNL A   1      41.760  35.363  38.960  1.00  0.00     0.031 A 
ATOM     80  C   UNL A   1      40.412  33.762  40.148  1.00  0.00     0.131 A 
ATOM     81  C   UNL A   1      41.963  36.046  40.170  1.00  0.00     0.055 A 
ATOM     82  C   UNL A   1      40.555  34.486  41.333  1.00  0.00     0.041 A 
ATOM     83  F   UNL A   1      39.681  32.637  40.192  1.00  0.00    -0.206 F 
ATOM     84  C   UNL A   1      41.352  35.625  41.353  1.00  0.00     0.022 A 
BRANCH  81  85
ATOM     85  S   UNL A   1      43.156  37.413  40.202  1.00  0.00     0.124 S 
ATOM     86  O   UNL A   1      43.133  37.855  38.812  1.00  0.00    -0.237 OA
ATOM     87  O   UNL A   1      42.552  38.317  41.174  1.00  0.00    -0.237 OA
ATOM     88  O   UNL A   1      44.395  36.770  40.633  1.00  0.00    -0.744 OA
ENDBRANCH  81  85
ENDBRANCH  54  78
BRANCH  66  89
ATOM     89  C   UNL A   1      44.599  28.673  36.610  1.00  0.00     0.023 A 
ATOM     90  C   UNL A   1      44.486  27.656  37.574  1.00  0.00     0.031 A 
ATOM     91  C   UNL A   1      45.883  28.999  36.139  1.00  0.00     0.131 A 
ATOM     92  C   UNL A   1      45.640  27.031  38.068  1.00  0.00     0.055 A 
ATOM     93  C   UNL A   1      47.022  28.331  36.589  1.00  0.00     0.041 A 
ATOM     94  F   UNL A   1      46.049  29.964  35.220  1.00  0.00    -0.206 F 
ATOM     95  C   UNL A   1      46.905  27.348  37.567  1.00  0.00     0.022 A 
BRANCH  92  96
ATOM     96  S   UNL A   1      45.472  25.844  39.429  1.00  0.00     0.124 S 
ATOM     97  O   UNL A   1      44.347  26.397  40.176  1.00  0.00    -0.237 OA
ATOM     98  O   UNL A   1      45.214  24.593  38.724  1.00  0.00    -0.237 OA
ATOM     99  O   UNL A   1      46.764  25.917  40.109  1.00  0.00    -0.744 OA
ENDBRANCH  92  96
ENDBRANCH  66  89
ENDBRANCH  40  41
ENDBRANCH  32  35
ENDBRANCH  30  31
ENDBRANCH  29  30
ENDBRANCH  28  29
ENDBRANCH   1  28
TORSDOF 19
ENDMDL
