MODEL 1
REMARK VINA RESULT:     -11.6      0.000      0.000
REMARK SMILES O=C(NCCCCCCNC(=O)[C@@H]1CC[C@H](CNC(=O)c2cccn2C2CC2)O1)c1ccc(-c2c3nc(c(-c4cc(S(=O)(=O)[O-])ccc4F)c4ccc([nH]4)c(-c4cc(S(=O)(=O)[O-])ccc4F)c4nc(c(-c5cc(S(=O)(=O)[O-])ccc5F)c5ccc2[nH]5)C=C4)C=C3)cc1
REMARK SMILES IDX 7 1 6 2 5 3 4 4 3 5 1 6 2 7 30 9 31 10 92 11 32 12 91 13
REMARK SMILES IDX 33 14 34 15 35 16 85 17 36 18 90 19 84 20 86 21 37 22 89 23
REMARK SMILES IDX 83 24 82 25 38 27 70 28 50 29 69 30 51 31 54 32 68 33 87 34
REMARK SMILES IDX 52 35 53 36 67 38 88 39 55 40 39 41 40 42 48 43 41 44 47 45
REMARK SMILES IDX 49 46 46 47 42 48 43 49 44 50 45 51 71 52 72 53 80 54 73 55
REMARK SMILES IDX 79 56 81 57 78 58 74 59 75 60 76 61 77 62 56 63 57 64 65 65
REMARK SMILES IDX 58 66 64 67 66 68 63 69 59 70 60 71 61 72 62 73 8 74 9 75
REMARK SMILES IDX 10 76 11 77 12 79 13 80 14 81 29 82 15 83 16 84 17 85 18 86
REMARK SMILES IDX 19 87 20 89 21 90 22 91 25 92 23 93 24 94 26 95 27 96 28 97
REMARK H PARENT 3 8 86 26 54 37 10 78 18 88
REMARK Flexibility Score: inf
ROOT
ATOM      1  C   UNL A   1      32.308  30.814  26.866  1.00  0.00     0.002 C 
ENDROOT
BRANCH   1   2
ATOM      2  C   UNL A   1      33.672  31.116  27.492  1.00  0.00     0.002 C 
BRANCH   2   3
ATOM      3  C   UNL A   1      34.822  30.230  27.010  1.00  0.00     0.021 C 
BRANCH   3   4
ATOM      4  C   UNL A   1      35.361  29.258  28.061  1.00  0.00     0.116 C 
BRANCH   4   5
ATOM      5  N   UNL A   1      35.683  29.850  29.346  1.00  0.00    -0.352 N 
ATOM      6  O   UNL A   1      36.824  30.669  31.078  1.00  0.00    -0.269 OA
ATOM      7  C   UNL A   1      36.864  30.029  30.025  1.00  0.00     0.251 C 
ATOM      8  H   UNL A   1      34.898  30.195  29.827  1.00  0.00     0.163 HD
BRANCH   7   9
ATOM      9  C   UNL A   1      38.154  29.434  29.587  1.00  0.00     0.039 A 
ATOM     10  C   UNL A   1      38.685  29.598  28.309  1.00  0.00     0.014 A 
ATOM     11  C   UNL A   1      38.876  28.680  30.531  1.00  0.00     0.014 A 
ATOM     12  C   UNL A   1      39.850  28.940  27.938  1.00  0.00     0.010 A 
ATOM     13  C   UNL A   1      40.075  28.054  30.180  1.00  0.00     0.010 A 
ATOM     14  C   UNL A   1      40.557  28.180  28.875  1.00  0.00    -0.014 A 
BRANCH  14  15
ATOM     15  C   UNL A   1      41.923  27.767  28.475  1.00  0.00     0.031 A 
ATOM     16  C   UNL A   1      42.848  28.999  28.353  1.00  0.00     0.074 A 
ATOM     17  C   UNL A   1      42.123  26.451  28.157  1.00  0.00     0.049 A 
ATOM     18  N   UNL A   1      43.778  29.273  27.490  1.00  0.00    -0.248 NA
ATOM     19  C   UNL A   1      42.593  30.166  29.246  1.00  0.00     0.031 C 
ATOM     20  C   UNL A   1      41.123  25.371  28.327  1.00  0.00     0.029 A 
ATOM     21  N   UNL A   1      43.185  25.749  27.619  1.00  0.00    -0.354 N 
ATOM     22  C   UNL A   1      44.383  30.492  27.892  1.00  0.00     0.074 A 
ATOM     23  C   UNL A   1      43.496  31.069  28.854  1.00  0.00     0.031 C 
ATOM     24  C   UNL A   1      41.588  24.194  27.844  1.00  0.00     0.029 A 
ATOM     25  C   UNL A   1      42.932  24.377  27.327  1.00  0.00     0.049 A 
ATOM     26  H   UNL A   1      44.059  26.168  27.450  1.00  0.00     0.167 HD
ATOM     27  C   UNL A   1      45.656  30.855  27.544  1.00  0.00     0.034 A 
ATOM     28  C   UNL A   1      43.730  23.465  26.684  1.00  0.00     0.034 A 
ATOM     29  C   UNL A   1      46.219  29.858  26.695  1.00  0.00     0.049 A 
ATOM     30  C   UNL A   1      45.001  24.172  26.463  1.00  0.00     0.074 A 
ATOM     31  C   UNL A   1      45.988  29.467  25.405  1.00  0.00     0.029 A 
ATOM     32  N   UNL A   1      47.025  28.922  27.305  1.00  0.00    -0.354 N 
ATOM     33  N   UNL A   1      45.879  24.421  27.383  1.00  0.00    -0.248 NA
ATOM     34  C   UNL A   1      45.307  24.667  25.114  1.00  0.00     0.031 C 
ATOM     35  C   UNL A   1      46.272  28.084  25.425  1.00  0.00     0.029 A 
ATOM     36  C   UNL A   1      46.794  27.730  26.677  1.00  0.00     0.049 A 
ATOM     37  H   UNL A   1      47.648  29.083  28.050  1.00  0.00     0.167 HD
ATOM     38  C   UNL A   1      46.677  25.362  26.788  1.00  0.00     0.074 A 
ATOM     39  C   UNL A   1      46.495  25.214  25.360  1.00  0.00     0.031 C 
ATOM     40  C   UNL A   1      46.949  26.514  27.452  1.00  0.00     0.034 A 
BRANCH  27  41
ATOM     41  C   UNL A   1      46.630  31.885  28.090  1.00  0.00     0.023 A 
ATOM     42  C   UNL A   1      47.238  32.735  27.126  1.00  0.00     0.031 A 
ATOM     43  C   UNL A   1      47.218  31.895  29.361  1.00  0.00     0.131 A 
ATOM     44  C   UNL A   1      48.454  33.384  27.370  1.00  0.00     0.055 A 
ATOM     45  C   UNL A   1      48.393  32.617  29.630  1.00  0.00     0.041 A 
ATOM     46  F   UNL A   1      46.740  31.158  30.370  1.00  0.00    -0.206 F 
ATOM     47  C   UNL A   1      49.044  33.326  28.624  1.00  0.00     0.022 A 
BRANCH  44  48
ATOM     48  S   UNL A   1      49.338  34.105  25.954  1.00  0.00     0.124 S 
ATOM     49  O   UNL A   1      50.112  32.971  25.465  1.00  0.00    -0.237 OA
ATOM     50  O   UNL A   1      48.236  34.541  25.101  1.00  0.00    -0.237 OA
ATOM     51  O   UNL A   1      50.121  35.182  26.556  1.00  0.00    -0.744 OA
ENDBRANCH  44  48
ENDBRANCH  27  41
BRANCH  28  52
ATOM     52  C   UNL A   1      43.685  22.047  26.120  1.00  0.00     0.023 A 
ATOM     53  C   UNL A   1      44.765  21.308  25.609  1.00  0.00     0.031 A 
ATOM     54  C   UNL A   1      42.441  21.330  26.143  1.00  0.00     0.131 A 
ATOM     55  C   UNL A   1      44.587  19.943  25.232  1.00  0.00     0.055 A 
ATOM     56  C   UNL A   1      42.294  19.974  25.857  1.00  0.00     0.041 A 
ATOM     57  F   UNL A   1      41.277  21.918  26.452  1.00  0.00    -0.206 F 
ATOM     58  C   UNL A   1      43.378  19.265  25.408  1.00  0.00     0.022 A 
BRANCH  55  59
ATOM     59  S   UNL A   1      45.935  18.968  24.499  1.00  0.00     0.124 S 
ATOM     60  O   UNL A   1      45.977  17.804  25.377  1.00  0.00    -0.237 OA
ATOM     61  O   UNL A   1      45.468  18.729  23.137  1.00  0.00    -0.237 OA
ATOM     62  O   UNL A   1      47.085  19.867  24.604  1.00  0.00    -0.744 OA
ENDBRANCH  55  59
ENDBRANCH  28  52
BRANCH  40  63
ATOM     63  C   UNL A   1      46.887  26.387  28.976  1.00  0.00     0.023 A 
ATOM     64  C   UNL A   1      45.825  26.961  29.702  1.00  0.00     0.031 A 
ATOM     65  C   UNL A   1      47.917  25.821  29.747  1.00  0.00     0.131 A 
ATOM     66  C   UNL A   1      45.839  26.980  31.114  1.00  0.00     0.055 A 
ATOM     67  C   UNL A   1      47.931  25.827  31.147  1.00  0.00     0.041 A 
ATOM     68  F   UNL A   1      48.970  25.254  29.166  1.00  0.00    -0.206 F 
ATOM     69  C   UNL A   1      46.887  26.415  31.840  1.00  0.00     0.022 A 
BRANCH  66  70
ATOM     70  S   UNL A   1      44.457  27.742  32.010  1.00  0.00     0.124 S 
ATOM     71  O   UNL A   1      43.291  27.207  31.318  1.00  0.00    -0.237 OA
ATOM     72  O   UNL A   1      44.663  27.266  33.375  1.00  0.00    -0.237 OA
ATOM     73  O   UNL A   1      44.679  29.177  31.825  1.00  0.00    -0.744 OA
ENDBRANCH  66  70
ENDBRANCH  40  63
ENDBRANCH  14  15
ENDBRANCH   7   9
ENDBRANCH   4   5
ENDBRANCH   3   4
ENDBRANCH   2   3
ENDBRANCH   1   2
BRANCH   1  74
ATOM     74  C   UNL A   1      32.186  29.446  26.180  1.00  0.00     0.021 C 
BRANCH  74  75
ATOM     75  C   UNL A   1      31.842  29.509  24.691  1.00  0.00     0.116 C 
BRANCH  75  76
ATOM     76  N   UNL A   1      30.720  28.641  24.380  1.00  0.00    -0.354 N 
ATOM     77  C   UNL A   1      30.700  27.499  23.631  1.00  0.00     0.249 C 
ATOM     78  H   UNL A   1      29.853  28.914  24.762  1.00  0.00     0.163 HD
ATOM     79  O   UNL A   1      29.613  26.962  23.412  1.00  0.00    -0.272 OA
BRANCH  77  80
ATOM     80  C   UNL A   1      32.026  26.955  23.066  1.00  0.00     0.207 C 
ATOM     81  C   UNL A   1      31.848  26.196  21.754  1.00  0.00     0.045 C 
ATOM     82  O   UNL A   1      32.656  26.046  23.990  1.00  0.00    -0.363 OA
ATOM     83  C   UNL A   1      32.843  25.068  21.873  1.00  0.00     0.037 C 
ATOM     84  C   UNL A   1      32.819  24.761  23.360  1.00  0.00     0.138 C 
BRANCH  84  85
ATOM     85  C   UNL A   1      31.677  23.832  23.810  1.00  0.00     0.148 C 
BRANCH  85  86
ATOM     86  N   UNL A   1      31.515  23.785  25.256  1.00  0.00    -0.348 N 
ATOM     87  C   UNL A   1      32.031  22.914  26.182  1.00  0.00     0.268 C 
ATOM     88  H   UNL A   1      30.941  24.492  25.629  1.00  0.00     0.163 HD
ATOM     89  O   UNL A   1      31.736  23.120  27.357  1.00  0.00    -0.268 OA
BRANCH  87  90
ATOM     90  C   UNL A   1      32.935  21.878  25.752  1.00  0.00     0.107 A 
ATOM     91  C   UNL A   1      32.571  20.661  25.177  1.00  0.00     0.033 A 
ATOM     92  N   UNL A   1      34.315  21.925  25.694  1.00  0.00    -0.340 N 
ATOM     93  C   UNL A   1      33.738  19.965  24.799  1.00  0.00     0.020 A 
ATOM     94  C   UNL A   1      34.798  20.778  25.112  1.00  0.00     0.086 A 
BRANCH  92  95
ATOM     95  C   UNL A   1      35.254  22.903  26.218  1.00  0.00     0.087 C 
ATOM     96  C   UNL A   1      36.703  23.096  25.834  1.00  0.00     0.027 C 
ATOM     97  C   UNL A   1      35.691  24.092  25.380  1.00  0.00     0.027 C 
ENDBRANCH  92  95
ENDBRANCH  87  90
ENDBRANCH  85  86
ENDBRANCH  84  85
ENDBRANCH  77  80
ENDBRANCH  75  76
ENDBRANCH  74  75
ENDBRANCH   1  74
TORSDOF 20
ENDMDL
MODEL 2
REMARK VINA RESULT:     -11.3      4.233      6.103
REMARK SMILES O=C(NCCCCCCNC(=O)[C@@H]1CC[C@H](CNC(=O)c2cccn2C2CC2)O1)c1ccc(-c2c3nc(c(-c4cc(S(=O)(=O)[O-])ccc4F)c4ccc([nH]4)c(-c4cc(S(=O)(=O)[O-])ccc4F)c4nc(c(-c5cc(S(=O)(=O)[O-])ccc5F)c5ccc2[nH]5)C=C4)C=C3)cc1
REMARK SMILES IDX 7 1 6 2 5 3 4 4 3 5 1 6 2 7 30 9 31 10 92 11 32 12 91 13
REMARK SMILES IDX 33 14 34 15 35 16 85 17 36 18 90 19 84 20 86 21 37 22 89 23
REMARK SMILES IDX 83 24 82 25 38 27 70 28 50 29 69 30 51 31 54 32 68 33 87 34
REMARK SMILES IDX 52 35 53 36 67 38 88 39 55 40 39 41 40 42 48 43 41 44 47 45
REMARK SMILES IDX 49 46 46 47 42 48 43 49 44 50 45 51 71 52 72 53 80 54 73 55
REMARK SMILES IDX 79 56 81 57 78 58 74 59 75 60 76 61 77 62 56 63 57 64 65 65
REMARK SMILES IDX 58 66 64 67 66 68 63 69 59 70 60 71 61 72 62 73 8 74 9 75
REMARK SMILES IDX 10 76 11 77 12 79 13 80 14 81 29 82 15 83 16 84 17 85 18 86
REMARK SMILES IDX 19 87 20 89 21 90 22 91 25 92 23 93 24 94 26 95 27 96 28 97
REMARK H PARENT 3 8 86 26 54 37 10 78 18 88
REMARK Flexibility Score: inf
ROOT
ATOM      1  C   UNL A   1      33.360  28.915  26.485  1.00  0.00     0.002 C 
ENDROOT
BRANCH   1   2
ATOM      2  C   UNL A   1      33.715  30.363  26.835  1.00  0.00     0.002 C 
BRANCH   2   3
ATOM      3  C   UNL A   1      32.578  31.186  27.441  1.00  0.00     0.021 C 
BRANCH   3   4
ATOM      4  C   UNL A   1      32.348  32.543  26.775  1.00  0.00     0.116 C 
BRANCH   4   5
ATOM      5  N   UNL A   1      32.379  33.686  27.668  1.00  0.00    -0.352 N 
ATOM      6  O   UNL A   1      33.100  35.267  29.065  1.00  0.00    -0.269 OA
ATOM      7  C   UNL A   1      33.349  34.205  28.492  1.00  0.00     0.251 C 
ATOM      8  H   UNL A   1      31.536  34.193  27.688  1.00  0.00     0.163 HD
BRANCH   7   9
ATOM      9  C   UNL A   1      34.637  33.515  28.769  1.00  0.00     0.039 A 
ATOM     10  C   UNL A   1      35.743  33.575  27.921  1.00  0.00     0.014 A 
ATOM     11  C   UNL A   1      34.736  32.780  29.965  1.00  0.00     0.014 A 
ATOM     12  C   UNL A   1      36.883  32.834  28.196  1.00  0.00     0.010 A 
ATOM     13  C   UNL A   1      35.899  32.070  30.272  1.00  0.00     0.010 A 
ATOM     14  C   UNL A   1      36.973  32.092  29.378  1.00  0.00    -0.014 A 
BRANCH  14  15
ATOM     15  C   UNL A   1      38.321  31.582  29.722  1.00  0.00     0.031 A 
ATOM     16  C   UNL A   1      39.195  32.713  30.309  1.00  0.00     0.074 A 
ATOM     17  C   UNL A   1      38.626  30.296  29.366  1.00  0.00     0.049 A 
ATOM     18  N   UNL A   1      40.454  32.981  30.139  1.00  0.00    -0.248 NA
ATOM     19  C   UNL A   1      38.525  33.793  31.089  1.00  0.00     0.031 C 
ATOM     20  C   UNL A   1      37.666  29.318  28.801  1.00  0.00     0.029 A 
ATOM     21  N   UNL A   1      39.788  29.549  29.388  1.00  0.00    -0.354 N 
ATOM     22  C   UNL A   1      40.772  34.075  30.985  1.00  0.00     0.074 A 
ATOM     23  C   UNL A   1      39.519  34.632  31.391  1.00  0.00     0.031 C 
ATOM     24  C   UNL A   1      38.287  28.159  28.473  1.00  0.00     0.029 A 
ATOM     25  C   UNL A   1      39.698  28.253  28.799  1.00  0.00     0.049 A 
ATOM     26  H   UNL A   1      40.622  29.888  29.784  1.00  0.00     0.167 HD
ATOM     27  C   UNL A   1      42.037  34.336  31.441  1.00  0.00     0.034 A 
ATOM     28  C   UNL A   1      40.692  27.339  28.560  1.00  0.00     0.034 A 
ATOM     29  C   UNL A   1      42.945  33.385  30.889  1.00  0.00     0.049 A 
ATOM     30  C   UNL A   1      41.894  27.925  29.171  1.00  0.00     0.074 A 
ATOM     31  C   UNL A   1      43.451  33.168  29.638  1.00  0.00     0.029 A 
ATOM     32  N   UNL A   1      43.256  32.306  31.687  1.00  0.00    -0.354 N 
ATOM     33  N   UNL A   1      42.128  27.974  30.444  1.00  0.00    -0.248 NA
ATOM     34  C   UNL A   1      42.906  28.533  28.296  1.00  0.00     0.031 C 
ATOM     35  C   UNL A   1      43.638  31.769  29.596  1.00  0.00     0.029 A 
ATOM     36  C   UNL A   1      43.374  31.223  30.860  1.00  0.00     0.049 A 
ATOM     37  H   UNL A   1      43.371  32.314  32.664  1.00  0.00     0.167 HD
ATOM     38  C   UNL A   1      43.149  28.884  30.527  1.00  0.00     0.074 A 
ATOM     39  C   UNL A   1      43.778  28.918  29.224  1.00  0.00     0.031 C 
ATOM     40  C   UNL A   1      43.043  29.919  31.399  1.00  0.00     0.034 A 
BRANCH  27  41
ATOM     41  C   UNL A   1      42.578  35.187  32.576  1.00  0.00     0.023 A 
ATOM     42  C   UNL A   1      41.943  35.014  33.837  1.00  0.00     0.031 A 
ATOM     43  C   UNL A   1      43.401  36.314  32.463  1.00  0.00     0.131 A 
ATOM     44  C   UNL A   1      41.980  36.002  34.828  1.00  0.00     0.055 A 
ATOM     45  C   UNL A   1      43.506  37.264  33.493  1.00  0.00     0.041 A 
ATOM     46  F   UNL A   1      44.074  36.592  31.340  1.00  0.00    -0.206 F 
ATOM     47  C   UNL A   1      42.758  37.138  34.661  1.00  0.00     0.022 A 
BRANCH  44  48
ATOM     48  S   UNL A   1      40.818  35.861  36.219  1.00  0.00     0.124 S 
ATOM     49  O   UNL A   1      40.644  34.418  36.329  1.00  0.00    -0.237 OA
ATOM     50  O   UNL A   1      41.562  36.499  37.301  1.00  0.00    -0.237 OA
ATOM     51  O   UNL A   1      39.644  36.597  35.754  1.00  0.00    -0.744 OA
ENDBRANCH  44  48
ENDBRANCH  27  41
BRANCH  28  52
ATOM     52  C   UNL A   1      40.924  26.006  27.851  1.00  0.00     0.023 A 
ATOM     53  C   UNL A   1      42.035  25.650  27.068  1.00  0.00     0.031 A 
ATOM     54  C   UNL A   1      39.961  24.955  28.016  1.00  0.00     0.131 A 
ATOM     55  C   UNL A   1      42.168  24.318  26.573  1.00  0.00     0.055 A 
ATOM     56  C   UNL A   1      40.138  23.635  27.605  1.00  0.00     0.041 A 
ATOM     57  F   UNL A   1      38.771  25.154  28.599  1.00  0.00    -0.206 F 
ATOM     58  C   UNL A   1      41.257  23.305  26.886  1.00  0.00     0.022 A 
BRANCH  55  59
ATOM     59  S   UNL A   1      43.548  23.829  25.497  1.00  0.00     0.124 S 
ATOM     60  O   UNL A   1      43.767  25.043  24.717  1.00  0.00    -0.237 OA
ATOM     61  O   UNL A   1      44.600  23.476  26.445  1.00  0.00    -0.237 OA
ATOM     62  O   UNL A   1      42.995  22.701  24.746  1.00  0.00    -0.744 OA
ENDBRANCH  55  59
ENDBRANCH  28  52
BRANCH  40  63
ATOM     63  C   UNL A   1      42.149  29.629  32.608  1.00  0.00     0.023 A 
ATOM     64  C   UNL A   1      40.921  30.300  32.770  1.00  0.00     0.031 A 
ATOM     65  C   UNL A   1      42.536  28.798  33.674  1.00  0.00     0.131 A 
ATOM     66  C   UNL A   1      40.166  30.151  33.954  1.00  0.00     0.055 A 
ATOM     67  C   UNL A   1      41.785  28.638  34.845  1.00  0.00     0.041 A 
ATOM     68  F   UNL A   1      43.678  28.118  33.627  1.00  0.00    -0.206 F 
ATOM     69  C   UNL A   1      40.592  29.323  34.992  1.00  0.00     0.022 A 
BRANCH  66  70
ATOM     70  S   UNL A   1      38.595  31.044  34.128  1.00  0.00     0.124 S 
ATOM     71  O   UNL A   1      39.016  32.440  34.109  1.00  0.00    -0.237 OA
ATOM     72  O   UNL A   1      37.840  30.588  32.966  1.00  0.00    -0.237 OA
ATOM     73  O   UNL A   1      38.077  30.576  35.415  1.00  0.00    -0.744 OA
ENDBRANCH  66  70
ENDBRANCH  40  63
ENDBRANCH  14  15
ENDBRANCH   7   9
ENDBRANCH   4   5
ENDBRANCH   3   4
ENDBRANCH   2   3
ENDBRANCH   1   2
BRANCH   1  74
ATOM     74  C   UNL A   1      31.882  28.662  26.154  1.00  0.00     0.021 C 
BRANCH  74  75
ATOM     75  C   UNL A   1      31.511  28.881  24.687  1.00  0.00     0.116 C 
BRANCH  75  76
ATOM     76  N   UNL A   1      32.424  28.171  23.809  1.00  0.00    -0.354 N 
ATOM     77  C   UNL A   1      32.378  26.870  23.394  1.00  0.00     0.249 C 
ATOM     78  H   UNL A   1      33.181  28.700  23.464  1.00  0.00     0.163 HD
ATOM     79  O   UNL A   1      33.313  26.438  22.718  1.00  0.00    -0.272 OA
BRANCH  77  80
ATOM     80  C   UNL A   1      31.183  25.995  23.816  1.00  0.00     0.207 C 
ATOM     81  C   UNL A   1      31.415  25.265  25.136  1.00  0.00     0.045 C 
ATOM     82  O   UNL A   1      30.897  24.985  22.828  1.00  0.00    -0.363 OA
ATOM     83  C   UNL A   1      30.753  23.928  24.910  1.00  0.00     0.037 C 
ATOM     84  C   UNL A   1      31.001  23.682  23.432  1.00  0.00     0.138 C 
BRANCH  84  85
ATOM     85  C   UNL A   1      32.379  23.082  23.099  1.00  0.00     0.148 C 
BRANCH  85  86
ATOM     86  N   UNL A   1      32.391  21.627  23.130  1.00  0.00    -0.348 N 
ATOM     87  C   UNL A   1      32.963  20.760  24.026  1.00  0.00     0.268 C 
ATOM     88  H   UNL A   1      31.911  21.195  22.387  1.00  0.00     0.163 HD
ATOM     89  O   UNL A   1      32.803  19.560  23.812  1.00  0.00    -0.268 OA
BRANCH  87  90
ATOM     90  C   UNL A   1      33.636  21.285  25.186  1.00  0.00     0.107 A 
ATOM     91  C   UNL A   1      33.067  21.481  26.444  1.00  0.00     0.033 A 
ATOM     92  N   UNL A   1      34.981  21.568  25.332  1.00  0.00    -0.340 N 
ATOM     93  C   UNL A   1      34.070  21.911  27.339  1.00  0.00     0.020 A 
ATOM     94  C   UNL A   1      35.244  21.936  26.629  1.00  0.00     0.086 A 
BRANCH  92  95
ATOM     95  C   UNL A   1      36.051  21.625  24.350  1.00  0.00     0.087 C 
ATOM     96  C   UNL A   1      36.495  22.813  23.529  1.00  0.00     0.027 C 
ATOM     97  C   UNL A   1      37.353  22.346  24.655  1.00  0.00     0.027 C 
ENDBRANCH  92  95
ENDBRANCH  87  90
ENDBRANCH  85  86
ENDBRANCH  84  85
ENDBRANCH  77  80
ENDBRANCH  75  76
ENDBRANCH  74  75
ENDBRANCH   1  74
TORSDOF 20
ENDMDL
MODEL 3
REMARK VINA RESULT:     -11.1      4.514      6.463
REMARK SMILES O=C(NCCCCCCNC(=O)[C@@H]1CC[C@H](CNC(=O)c2cccn2C2CC2)O1)c1ccc(-c2c3nc(c(-c4cc(S(=O)(=O)[O-])ccc4F)c4ccc([nH]4)c(-c4cc(S(=O)(=O)[O-])ccc4F)c4nc(c(-c5cc(S(=O)(=O)[O-])ccc5F)c5ccc2[nH]5)C=C4)C=C3)cc1
REMARK SMILES IDX 7 1 6 2 5 3 4 4 3 5 1 6 2 7 30 9 31 10 92 11 32 12 91 13
REMARK SMILES IDX 33 14 34 15 35 16 85 17 36 18 90 19 84 20 86 21 37 22 89 23
REMARK SMILES IDX 83 24 82 25 38 27 70 28 50 29 69 30 51 31 54 32 68 33 87 34
REMARK SMILES IDX 52 35 53 36 67 38 88 39 55 40 39 41 40 42 48 43 41 44 47 45
REMARK SMILES IDX 49 46 46 47 42 48 43 49 44 50 45 51 71 52 72 53 80 54 73 55
REMARK SMILES IDX 79 56 81 57 78 58 74 59 75 60 76 61 77 62 56 63 57 64 65 65
REMARK SMILES IDX 58 66 64 67 66 68 63 69 59 70 60 71 61 72 62 73 8 74 9 75
REMARK SMILES IDX 10 76 11 77 12 79 13 80 14 81 29 82 15 83 16 84 17 85 18 86
REMARK SMILES IDX 19 87 20 89 21 90 22 91 25 92 23 93 24 94 26 95 27 96 28 97
REMARK H PARENT 3 8 86 26 54 37 10 78 18 88
REMARK Flexibility Score: inf
ROOT
ATOM      1  C   UNL A   1      34.018  30.373  27.242  1.00  0.00     0.002 C 
ENDROOT
BRANCH   1   2
ATOM      2  C   UNL A   1      34.247  31.801  27.744  1.00  0.00     0.002 C 
BRANCH   2   3
ATOM      3  C   UNL A   1      33.012  32.704  27.730  1.00  0.00     0.021 C 
BRANCH   3   4
ATOM      4  C   UNL A   1      33.294  34.174  28.046  1.00  0.00     0.116 C 
BRANCH   4   5
ATOM      5  N   UNL A   1      33.028  34.575  29.414  1.00  0.00    -0.352 N 
ATOM      6  O   UNL A   1      33.298  35.055  31.575  1.00  0.00    -0.269 OA
ATOM      7  C   UNL A   1      33.778  34.539  30.565  1.00  0.00     0.251 C 
ATOM      8  H   UNL A   1      32.128  34.951  29.545  1.00  0.00     0.163 HD
BRANCH   7   9
ATOM      9  C   UNL A   1      35.094  33.852  30.657  1.00  0.00     0.039 A 
ATOM     10  C   UNL A   1      36.185  34.163  29.845  1.00  0.00     0.014 A 
ATOM     11  C   UNL A   1      35.237  32.849  31.633  1.00  0.00     0.014 A 
ATOM     12  C   UNL A   1      37.356  33.422  29.923  1.00  0.00     0.010 A 
ATOM     13  C   UNL A   1      36.430  32.131  31.750  1.00  0.00     0.010 A 
ATOM     14  C   UNL A   1      37.489  32.415  30.885  1.00  0.00    -0.014 A 
BRANCH  14  15
ATOM     15  C   UNL A   1      38.860  31.889  31.085  1.00  0.00     0.031 A 
ATOM     16  C   UNL A   1      39.742  32.935  31.803  1.00  0.00     0.074 A 
ATOM     17  C   UNL A   1      39.168  30.681  30.521  1.00  0.00     0.049 A 
ATOM     18  N   UNL A   1      40.988  33.255  31.623  1.00  0.00    -0.248 NA
ATOM     19  C   UNL A   1      39.092  33.865  32.771  1.00  0.00     0.031 C 
ATOM     20  C   UNL A   1      38.199  29.781  29.852  1.00  0.00     0.029 A 
ATOM     21  N   UNL A   1      40.342  29.967  30.375  1.00  0.00    -0.354 N 
ATOM     22  C   UNL A   1      41.327  34.211  32.615  1.00  0.00     0.074 A 
ATOM     23  C   UNL A   1      40.086  34.669  33.156  1.00  0.00     0.031 C 
ATOM     24  C   UNL A   1      38.822  28.702  29.320  1.00  0.00     0.029 A 
ATOM     25  C   UNL A   1      40.245  28.776  29.595  1.00  0.00     0.049 A 
ATOM     26  H   UNL A   1      41.188  30.259  30.782  1.00  0.00     0.167 HD
ATOM     27  C   UNL A   1      42.607  34.427  33.050  1.00  0.00     0.034 A 
ATOM     28  C   UNL A   1      41.242  27.933  29.173  1.00  0.00     0.034 A 
ATOM     29  C   UNL A   1      43.504  33.595  32.318  1.00  0.00     0.049 A 
ATOM     30  C   UNL A   1      42.461  28.445  29.815  1.00  0.00     0.074 A 
ATOM     31  C   UNL A   1      43.955  33.586  31.027  1.00  0.00     0.029 A 
ATOM     32  N   UNL A   1      43.869  32.412  32.922  1.00  0.00    -0.354 N 
ATOM     33  N   UNL A   1      42.753  28.301  31.069  1.00  0.00    -0.248 NA
ATOM     34  C   UNL A   1      43.421  29.204  29.002  1.00  0.00     0.031 C 
ATOM     35  C   UNL A   1      44.161  32.216  30.759  1.00  0.00     0.029 A 
ATOM     36  C   UNL A   1      43.966  31.474  31.933  1.00  0.00     0.049 A 
ATOM     37  H   UNL A   1      44.029  32.271  33.883  1.00  0.00     0.167 HD
ATOM     38  C   UNL A   1      43.762  29.210  31.248  1.00  0.00     0.074 A 
ATOM     39  C   UNL A   1      44.329  29.461  29.941  1.00  0.00     0.031 C 
ATOM     40  C   UNL A   1      43.681  30.094  32.275  1.00  0.00     0.034 A 
BRANCH  27  41
ATOM     41  C   UNL A   1      43.188  35.104  34.279  1.00  0.00     0.023 A 
ATOM     42  C   UNL A   1      42.558  34.789  35.515  1.00  0.00     0.031 A 
ATOM     43  C   UNL A   1      44.048  36.208  34.304  1.00  0.00     0.131 A 
ATOM     44  C   UNL A   1      42.637  35.637  36.626  1.00  0.00     0.055 A 
ATOM     45  C   UNL A   1      44.195  37.011  35.448  1.00  0.00     0.041 A 
ATOM     46  F   UNL A   1      44.721  36.607  33.219  1.00  0.00    -0.206 F 
ATOM     47  C   UNL A   1      43.453  36.759  36.599  1.00  0.00     0.022 A 
BRANCH  44  48
ATOM     48  S   UNL A   1      41.482  35.354  38.002  1.00  0.00     0.124 S 
ATOM     49  O   UNL A   1      41.508  36.637  38.693  1.00  0.00    -0.237 OA
ATOM     50  O   UNL A   1      40.245  35.034  37.296  1.00  0.00    -0.237 OA
ATOM     51  O   UNL A   1      42.088  34.241  38.729  1.00  0.00    -0.744 OA
ENDBRANCH  44  48
ENDBRANCH  27  41
BRANCH  28  52
ATOM     52  C   UNL A   1      41.461  26.732  28.255  1.00  0.00     0.023 A 
ATOM     53  C   UNL A   1      42.125  25.537  28.578  1.00  0.00     0.031 A 
ATOM     54  C   UNL A   1      40.903  26.756  26.933  1.00  0.00     0.131 A 
ATOM     55  C   UNL A   1      42.140  24.452  27.651  1.00  0.00     0.055 A 
ATOM     56  C   UNL A   1      40.846  25.665  26.069  1.00  0.00     0.041 A 
ATOM     57  F   UNL A   1      40.370  27.863  26.398  1.00  0.00    -0.206 F 
ATOM     58  C   UNL A   1      41.458  24.494  26.431  1.00  0.00     0.022 A 
BRANCH  55  59
ATOM     59  S   UNL A   1      43.046  22.913  27.992  1.00  0.00     0.124 S 
ATOM     60  O   UNL A   1      42.248  21.927  27.269  1.00  0.00    -0.237 OA
ATOM     61  O   UNL A   1      44.375  23.183  27.453  1.00  0.00    -0.237 OA
ATOM     62  O   UNL A   1      42.984  22.812  29.450  1.00  0.00    -0.744 OA
ENDBRANCH  55  59
ENDBRANCH  28  52
BRANCH  40  63
ATOM     63  C   UNL A   1      42.849  29.600  33.461  1.00  0.00     0.023 A 
ATOM     64  C   UNL A   1      41.624  30.214  33.785  1.00  0.00     0.031 A 
ATOM     65  C   UNL A   1      43.295  28.616  34.362  1.00  0.00     0.131 A 
ATOM     66  C   UNL A   1      40.927  29.866  34.963  1.00  0.00     0.055 A 
ATOM     67  C   UNL A   1      42.603  28.259  35.525  1.00  0.00     0.041 A 
ATOM     68  F   UNL A   1      44.440  27.973  34.156  1.00  0.00    -0.206 F 
ATOM     69  C   UNL A   1      41.411  28.890  35.835  1.00  0.00     0.022 A 
BRANCH  66  70
ATOM     70  S   UNL A   1      39.358  30.691  35.349  1.00  0.00     0.124 S 
ATOM     71  O   UNL A   1      38.572  30.471  34.141  1.00  0.00    -0.237 OA
ATOM     72  O   UNL A   1      38.909  29.979  36.542  1.00  0.00    -0.237 OA
ATOM     73  O   UNL A   1      39.751  32.082  35.582  1.00  0.00    -0.744 OA
ENDBRANCH  66  70
ENDBRANCH  40  63
ENDBRANCH  14  15
ENDBRANCH   7   9
ENDBRANCH   4   5
ENDBRANCH   3   4
ENDBRANCH   2   3
ENDBRANCH   1   2
BRANCH   1  74
ATOM     74  C   UNL A   1      32.550  29.980  27.021  1.00  0.00     0.021 C 
BRANCH  74  75
ATOM     75  C   UNL A   1      32.094  30.019  25.562  1.00  0.00     0.116 C 
BRANCH  75  76
ATOM     76  N   UNL A   1      32.832  29.059  24.761  1.00  0.00    -0.354 N 
ATOM     77  C   UNL A   1      32.448  27.818  24.339  1.00  0.00     0.249 C 
ATOM     78  H   UNL A   1      33.735  29.342  24.483  1.00  0.00     0.163 HD
ATOM     79  O   UNL A   1      33.272  27.123  23.741  1.00  0.00    -0.272 OA
BRANCH  77  80
ATOM     80  C   UNL A   1      31.022  27.331  24.655  1.00  0.00     0.207 C 
ATOM     81  C   UNL A   1      30.871  26.818  26.085  1.00  0.00     0.045 C 
ATOM     82  O   UNL A   1      30.631  26.251  23.783  1.00  0.00    -0.363 OA
ATOM     83  C   UNL A   1      29.929  25.650  25.932  1.00  0.00     0.037 C 
ATOM     84  C   UNL A   1      30.313  25.090  24.573  1.00  0.00     0.138 C 
BRANCH  84  85
ATOM     85  C   UNL A   1      31.524  24.141  24.583  1.00  0.00     0.148 C 
BRANCH  85  86
ATOM     86  N   UNL A   1      32.205  24.071  23.299  1.00  0.00    -0.348 N 
ATOM     87  C   UNL A   1      33.061  23.124  22.796  1.00  0.00     0.268 C 
ATOM     88  H   UNL A   1      32.022  24.825  22.694  1.00  0.00     0.163 HD
ATOM     89  O   UNL A   1      33.486  23.314  21.658  1.00  0.00    -0.268 OA
BRANCH  87  90
ATOM     90  C   UNL A   1      33.349  21.946  23.573  1.00  0.00     0.107 A 
ATOM     91  C   UNL A   1      32.525  20.828  23.701  1.00  0.00     0.033 A 
ATOM     92  N   UNL A   1      34.524  21.625  24.226  1.00  0.00    -0.340 N 
ATOM     93  C   UNL A   1      33.199  19.846  24.457  1.00  0.00     0.020 A 
ATOM     94  C   UNL A   1      34.438  20.359  24.751  1.00  0.00     0.086 A 
BRANCH  92  95
ATOM     95  C   UNL A   1      35.706  22.425  24.500  1.00  0.00     0.087 C 
ATOM     96  C   UNL A   1      37.147  21.970  24.530  1.00  0.00     0.027 C 
ATOM     97  C   UNL A   1      36.671  22.798  23.386  1.00  0.00     0.027 C 
ENDBRANCH  92  95
ENDBRANCH  87  90
ENDBRANCH  85  86
ENDBRANCH  84  85
ENDBRANCH  77  80
ENDBRANCH  75  76
ENDBRANCH  74  75
ENDBRANCH   1  74
TORSDOF 20
ENDMDL
