MODEL 1
REMARK VINA RESULT:     -11.4      0.000      0.000
REMARK SMILES COc1ccc(C(=O)C2=C(NCCCCCCNC(=O)c3ccc(-c4c5nc(c(-c6cc(S(=O)(=O)[O-])ccc6F)c6ccc([nH]6)c(-c6cc(S(=O)(=O)[O-])ccc6F)c6nc(c(-c7cc(S(=O)(=O)[O-])ccc7F)c7ccc4[nH]7)C=C6)C=C5)cc3)C(=O)N(CC(=O)[O-])[C@H]2c2ccccc2)cc1
REMARK SMILES IDX 14 1 13 2 12 3 11 4 10 6 9 7 91 8 84 9 86 10 85 11 7 12 8 13
REMARK SMILES IDX 6 14 3 15 4 16 99 17 5 18 98 19 2 20 1 21 92 22 93 23 97 24
REMARK SMILES IDX 94 25 96 26 95 27 87 28 88 29 89 30 90 31 15 32 16 33 17 34
REMARK SMILES IDX 18 35 19 36 20 38 21 39 22 40 83 41 23 42 82 43 24 44 25 45
REMARK SMILES IDX 26 46 76 47 27 48 81 49 75 50 77 51 28 52 80 53 74 54 73 55
REMARK SMILES IDX 29 57 61 58 41 59 60 60 42 61 45 62 59 63 78 64 43 65 44 66
REMARK SMILES IDX 58 68 79 69 46 70 30 71 31 72 39 73 32 74 38 75 40 76 37 77
REMARK SMILES IDX 33 78 34 79 35 80 36 81 62 82 63 83 71 84 64 85 70 86 72 87
REMARK SMILES IDX 69 88 65 89 66 90 67 91 68 92 47 93 48 94 56 95 49 96 55 97
REMARK SMILES IDX 57 98 54 99 50 100 51 101 52 102 53 103
REMARK H PARENT 11 5 18 37 77 56 45 67
REMARK Flexibility Score: inf
ROOT
ATOM      1  C   UNL A   1      33.835  29.692  27.242  1.00  0.00     0.002 C 
ENDROOT
BRANCH   1   2
ATOM      2  C   UNL A   1      32.327  29.416  27.258  1.00  0.00     0.021 C 
BRANCH   2   3
ATOM      3  C   UNL A   1      31.938  27.986  27.635  1.00  0.00     0.113 C 
BRANCH   3   4
ATOM      4  N   UNL A   1      31.396  27.309  26.482  1.00  0.00    -0.380 N 
ATOM      5  H   UNL A   1      30.431  27.442  26.339  1.00  0.00     0.160 HD
BRANCH   4   6
ATOM      6  C   UNL A   1      32.010  26.511  25.557  1.00  0.00     0.110 C 
ATOM      7  C   UNL A   1      32.295  25.209  25.424  1.00  0.00     0.056 C 
ATOM      8  C   UNL A   1      32.936  24.841  24.120  1.00  0.00     0.153 C 
ATOM      9  C   UNL A   1      32.490  27.130  24.273  1.00  0.00     0.271 C 
ATOM     10  N   UNL A   1      32.976  26.130  23.471  1.00  0.00    -0.320 N 
ATOM     11  O   UNL A   1      32.435  28.321  24.014  1.00  0.00    -0.267 OA
BRANCH   7  12
ATOM     12  C   UNL A   1      31.822  24.163  26.346  1.00  0.00     0.193 C 
ATOM     13  O   UNL A   1      31.018  24.461  27.224  1.00  0.00    -0.289 OA
BRANCH  12  14
ATOM     14  C   UNL A   1      32.269  22.748  26.176  1.00  0.00     0.023 A 
ATOM     15  C   UNL A   1      33.189  20.141  25.604  1.00  0.00     0.118 A 
ATOM     16  C   UNL A   1      32.066  20.655  24.955  1.00  0.00     0.047 A 
ATOM     17  C   UNL A   1      33.819  20.914  26.577  1.00  0.00     0.047 A 
ATOM     18  C   UNL A   1      31.611  21.950  25.231  1.00  0.00     0.016 A 
ATOM     19  C   UNL A   1      33.341  22.195  26.882  1.00  0.00     0.016 A 
BRANCH  15  20
ATOM     20  O   UNL A   1      33.572  18.893  25.201  1.00  0.00    -0.497 OA
ATOM     21  C   UNL A   1      33.284  18.534  23.855  1.00  0.00     0.278 C 
ENDBRANCH  15  20
ENDBRANCH  12  14
ENDBRANCH   7  12
BRANCH   8  22
ATOM     22  C   UNL A   1      34.330  24.249  24.267  1.00  0.00    -0.021 A 
ATOM     23  C   UNL A   1      35.213  24.684  25.277  1.00  0.00     0.006 A 
ATOM     24  C   UNL A   1      34.752  23.221  23.412  1.00  0.00     0.006 A 
ATOM     25  C   UNL A   1      36.465  24.094  25.441  1.00  0.00     0.000 A 
ATOM     26  C   UNL A   1      36.012  22.640  23.571  1.00  0.00     0.000 A 
ATOM     27  C   UNL A   1      36.864  23.071  24.587  1.00  0.00     0.000 A 
ENDBRANCH   8  22
BRANCH  10  28
ATOM     28  C   UNL A   1      33.498  26.361  22.133  1.00  0.00     0.173 C 
BRANCH  28  29
ATOM     29  C   UNL A   1      32.756  25.635  21.022  1.00  0.00     0.061 C 
ATOM     30  O   UNL A   1      33.160  24.634  20.449  1.00  0.00    -0.548 OA
ATOM     31  O   UNL A   1      31.534  26.126  20.738  1.00  0.00    -0.548 OA
ENDBRANCH  28  29
ENDBRANCH  10  28
ENDBRANCH   4   6
ENDBRANCH   3   4
ENDBRANCH   2   3
ENDBRANCH   1   2
BRANCH   1  32
ATOM     32  C   UNL A   1      34.254  31.093  27.697  1.00  0.00     0.002 C 
BRANCH  32  33
ATOM     33  C   UNL A   1      33.134  32.134  27.734  1.00  0.00     0.021 C 
BRANCH  33  34
ATOM     34  C   UNL A   1      33.577  33.572  27.481  1.00  0.00     0.116 C 
BRANCH  34  35
ATOM     35  N   UNL A   1      32.988  34.507  28.423  1.00  0.00    -0.352 N 
ATOM     36  C   UNL A   1      33.285  34.706  29.750  1.00  0.00     0.251 C 
ATOM     37  H   UNL A   1      32.274  35.079  28.060  1.00  0.00     0.163 HD
ATOM     38  O   UNL A   1      32.559  35.421  30.435  1.00  0.00    -0.269 OA
BRANCH  36  39
ATOM     39  C   UNL A   1      34.459  34.038  30.355  1.00  0.00     0.039 A 
ATOM     40  C   UNL A   1      34.249  32.978  31.241  1.00  0.00     0.014 A 
ATOM     41  C   UNL A   1      35.760  34.453  30.056  1.00  0.00     0.014 A 
ATOM     42  C   UNL A   1      35.343  32.297  31.780  1.00  0.00     0.010 A 
ATOM     43  C   UNL A   1      36.848  33.729  30.538  1.00  0.00     0.010 A 
ATOM     44  C   UNL A   1      36.653  32.643  31.407  1.00  0.00    -0.014 A 
BRANCH  44  45
ATOM     45  C   UNL A   1      37.826  31.886  31.919  1.00  0.00     0.031 A 
ATOM     46  C   UNL A   1      38.459  32.269  33.229  1.00  0.00     0.074 A 
ATOM     47  C   UNL A   1      38.356  30.893  31.177  1.00  0.00     0.049 A 
ATOM     48  N   UNL A   1      39.530  31.786  33.805  1.00  0.00    -0.248 NA
ATOM     49  C   UNL A   1      37.818  33.363  33.974  1.00  0.00     0.031 C 
ATOM     50  C   UNL A   1      37.854  30.454  29.873  1.00  0.00     0.029 A 
ATOM     51  N   UNL A   1      39.438  30.080  31.406  1.00  0.00    -0.354 N 
ATOM     52  C   UNL A   1      39.697  32.521  34.975  1.00  0.00     0.074 A 
ATOM     53  C   UNL A   1      38.652  33.524  34.989  1.00  0.00     0.031 C 
ATOM     54  C   UNL A   1      38.615  29.441  29.428  1.00  0.00     0.029 A 
ATOM     55  C   UNL A   1      39.684  29.186  30.388  1.00  0.00     0.049 A 
ATOM     56  H   UNL A   1      39.986  30.130  32.222  1.00  0.00     0.167 HD
ATOM     57  C   UNL A   1      40.619  32.358  35.957  1.00  0.00     0.034 A 
ATOM     58  C   UNL A   1      40.667  28.277  30.237  1.00  0.00     0.034 A 
ATOM     59  C   UNL A   1      41.650  31.348  35.929  1.00  0.00     0.049 A 
ATOM     60  C   UNL A   1      41.699  28.132  31.327  1.00  0.00     0.074 A 
ATOM     61  C   UNL A   1      42.606  31.064  36.890  1.00  0.00     0.029 A 
ATOM     62  N   UNL A   1      41.865  30.459  34.884  1.00  0.00    -0.354 N 
ATOM     63  N   UNL A   1      41.815  28.804  32.449  1.00  0.00    -0.248 NA
ATOM     64  C   UNL A   1      42.723  27.096  31.137  1.00  0.00     0.031 C 
ATOM     65  C   UNL A   1      43.439  30.054  36.397  1.00  0.00     0.029 A 
ATOM     66  C   UNL A   1      42.957  29.648  35.163  1.00  0.00     0.049 A 
ATOM     67  H   UNL A   1      41.323  30.410  34.063  1.00  0.00     0.167 HD
ATOM     68  C   UNL A   1      42.908  28.251  33.111  1.00  0.00     0.074 A 
ATOM     69  C   UNL A   1      43.404  27.182  32.270  1.00  0.00     0.031 C 
ATOM     70  C   UNL A   1      43.450  28.592  34.308  1.00  0.00     0.034 A 
BRANCH  57  71
ATOM     71  C   UNL A   1      40.564  33.314  37.125  1.00  0.00     0.023 A 
ATOM     72  C   UNL A   1      39.834  33.015  38.290  1.00  0.00     0.031 A 
ATOM     73  C   UNL A   1      41.224  34.554  37.066  1.00  0.00     0.131 A 
ATOM     74  C   UNL A   1      39.713  33.973  39.308  1.00  0.00     0.055 A 
ATOM     75  C   UNL A   1      41.173  35.469  38.122  1.00  0.00     0.041 A 
ATOM     76  F   UNL A   1      41.921  34.908  35.974  1.00  0.00    -0.206 F 
ATOM     77  C   UNL A   1      40.399  35.187  39.244  1.00  0.00     0.022 A 
BRANCH  74  78
ATOM     78  S   UNL A   1      38.527  33.669  40.646  1.00  0.00     0.124 S 
ATOM     79  O   UNL A   1      38.449  34.986  41.275  1.00  0.00    -0.237 OA
ATOM     80  O   UNL A   1      37.338  33.235  39.922  1.00  0.00    -0.237 OA
ATOM     81  O   UNL A   1      39.178  32.639  41.454  1.00  0.00    -0.744 OA
ENDBRANCH  74  78
ENDBRANCH  57  71
BRANCH  58  82
ATOM     82  C   UNL A   1      40.739  27.441  29.004  1.00  0.00     0.023 A 
ATOM     83  C   UNL A   1      41.659  27.730  27.984  1.00  0.00     0.031 A 
ATOM     84  C   UNL A   1      39.856  26.363  28.810  1.00  0.00     0.131 A 
ATOM     85  C   UNL A   1      41.647  26.980  26.797  1.00  0.00     0.055 A 
ATOM     86  C   UNL A   1      39.884  25.586  27.650  1.00  0.00     0.041 A 
ATOM     87  F   UNL A   1      38.959  26.041  29.755  1.00  0.00    -0.206 F 
ATOM     88  C   UNL A   1      40.775  25.902  26.630  1.00  0.00     0.022 A 
BRANCH  85  89
ATOM     89  S   UNL A   1      42.733  27.490  25.436  1.00  0.00     0.124 S 
ATOM     90  O   UNL A   1      43.969  27.805  26.145  1.00  0.00    -0.237 OA
ATOM     91  O   UNL A   1      42.756  26.293  24.604  1.00  0.00    -0.237 OA
ATOM     92  O   UNL A   1      42.036  28.637  24.856  1.00  0.00    -0.744 OA
ENDBRANCH  85  89
ENDBRANCH  58  82
BRANCH  70  93
ATOM     93  C   UNL A   1      44.616  27.765  34.795  1.00  0.00     0.023 A 
ATOM     94  C   UNL A   1      44.433  26.518  35.414  1.00  0.00     0.031 A 
ATOM     95  C   UNL A   1      45.930  28.244  34.645  1.00  0.00     0.131 A 
ATOM     96  C   UNL A   1      45.543  25.815  35.912  1.00  0.00     0.055 A 
ATOM     97  C   UNL A   1      47.034  27.512  35.086  1.00  0.00     0.041 A 
ATOM     98  F   UNL A   1      46.164  29.431  34.063  1.00  0.00    -0.206 F 
ATOM     99  C   UNL A   1      46.843  26.297  35.736  1.00  0.00     0.022 A 
BRANCH  96 100
ATOM    100  S   UNL A   1      45.257  24.304  36.876  1.00  0.00     0.124 S 
ATOM    101  O   UNL A   1      46.614  23.792  37.043  1.00  0.00    -0.237 OA
ATOM    102  O   UNL A   1      44.617  24.820  38.080  1.00  0.00    -0.237 OA
ATOM    103  O   UNL A   1      44.395  23.504  36.010  1.00  0.00    -0.744 OA
ENDBRANCH  96 100
ENDBRANCH  70  93
ENDBRANCH  44  45
ENDBRANCH  36  39
ENDBRANCH  34  35
ENDBRANCH  33  34
ENDBRANCH  32  33
ENDBRANCH   1  32
TORSDOF 22
ENDMDL
MODEL 2
REMARK VINA RESULT:     -10.9      5.710      9.775
REMARK SMILES COc1ccc(C(=O)C2=C(NCCCCCCNC(=O)c3ccc(-c4c5nc(c(-c6cc(S(=O)(=O)[O-])ccc6F)c6ccc([nH]6)c(-c6cc(S(=O)(=O)[O-])ccc6F)c6nc(c(-c7cc(S(=O)(=O)[O-])ccc7F)c7ccc4[nH]7)C=C6)C=C5)cc3)C(=O)N(CC(=O)[O-])[C@H]2c2ccccc2)cc1
REMARK SMILES IDX 14 1 13 2 12 3 11 4 10 6 9 7 91 8 84 9 86 10 85 11 7 12 8 13
REMARK SMILES IDX 6 14 3 15 4 16 99 17 5 18 98 19 2 20 1 21 92 22 93 23 97 24
REMARK SMILES IDX 94 25 96 26 95 27 87 28 88 29 89 30 90 31 15 32 16 33 17 34
REMARK SMILES IDX 18 35 19 36 20 38 21 39 22 40 83 41 23 42 82 43 24 44 25 45
REMARK SMILES IDX 26 46 76 47 27 48 81 49 75 50 77 51 28 52 80 53 74 54 73 55
REMARK SMILES IDX 29 57 61 58 41 59 60 60 42 61 45 62 59 63 78 64 43 65 44 66
REMARK SMILES IDX 58 68 79 69 46 70 30 71 31 72 39 73 32 74 38 75 40 76 37 77
REMARK SMILES IDX 33 78 34 79 35 80 36 81 62 82 63 83 71 84 64 85 70 86 72 87
REMARK SMILES IDX 69 88 65 89 66 90 67 91 68 92 47 93 48 94 56 95 49 96 55 97
REMARK SMILES IDX 57 98 54 99 50 100 51 101 52 102 53 103
REMARK H PARENT 11 5 18 37 77 56 45 67
REMARK Flexibility Score: inf
ROOT
ATOM      1  C   UNL A   1      37.111  21.493  24.658  1.00  0.00     0.002 C 
ENDROOT
BRANCH   1   2
ATOM      2  C   UNL A   1      36.845  22.964  24.312  1.00  0.00     0.021 C 
BRANCH   2   3
ATOM      3  C   UNL A   1      36.162  23.194  22.964  1.00  0.00     0.113 C 
BRANCH   3   4
ATOM      4  N   UNL A   1      34.739  23.002  23.100  1.00  0.00    -0.380 N 
ATOM      5  H   UNL A   1      34.363  22.283  22.543  1.00  0.00     0.160 HD
BRANCH   4   6
ATOM      6  C   UNL A   1      33.829  23.662  23.880  1.00  0.00     0.110 C 
ATOM      7  C   UNL A   1      33.096  24.780  23.794  1.00  0.00     0.056 C 
ATOM      8  C   UNL A   1      32.162  25.002  24.945  1.00  0.00     0.153 C 
ATOM      9  C   UNL A   1      33.413  23.043  25.185  1.00  0.00     0.271 C 
ATOM     10  N   UNL A   1      32.432  23.826  25.737  1.00  0.00    -0.320 N 
ATOM     11  O   UNL A   1      33.879  22.013  25.645  1.00  0.00    -0.267 OA
BRANCH   7  12
ATOM     12  C   UNL A   1      33.007  25.616  22.586  1.00  0.00     0.193 C 
ATOM     13  O   UNL A   1      33.554  25.236  21.555  1.00  0.00    -0.289 OA
BRANCH  12  14
ATOM     14  C   UNL A   1      32.210  26.880  22.599  1.00  0.00     0.023 A 
ATOM     15  C   UNL A   1      30.602  29.185  22.861  1.00  0.00     0.118 A 
ATOM     16  C   UNL A   1      30.020  27.934  22.651  1.00  0.00     0.047 A 
ATOM     17  C   UNL A   1      31.991  29.287  22.888  1.00  0.00     0.047 A 
ATOM     18  C   UNL A   1      30.814  26.788  22.527  1.00  0.00     0.016 A 
ATOM     19  C   UNL A   1      32.787  28.145  22.725  1.00  0.00     0.016 A 
BRANCH  15  20
ATOM     20  O   UNL A   1      29.720  30.215  23.031  1.00  0.00    -0.497 OA
ATOM     21  C   UNL A   1      28.649  30.306  22.100  1.00  0.00     0.278 C 
ENDBRANCH  15  20
ENDBRANCH  12  14
ENDBRANCH   7  12
BRANCH   8  22
ATOM     22  C   UNL A   1      32.446  26.277  25.727  1.00  0.00    -0.021 A 
ATOM     23  C   UNL A   1      33.761  26.753  25.908  1.00  0.00     0.006 A 
ATOM     24  C   UNL A   1      31.387  27.028  26.256  1.00  0.00     0.006 A 
ATOM     25  C   UNL A   1      34.006  27.953  26.574  1.00  0.00     0.000 A 
ATOM     26  C   UNL A   1      31.637  28.223  26.935  1.00  0.00     0.000 A 
ATOM     27  C   UNL A   1      32.942  28.688  27.087  1.00  0.00     0.000 A 
ENDBRANCH   8  22
BRANCH  10  28
ATOM     28  C   UNL A   1      31.770  23.512  26.994  1.00  0.00     0.173 C 
BRANCH  28  29
ATOM     29  C   UNL A   1      30.354  22.977  26.855  1.00  0.00     0.061 C 
ATOM     30  O   UNL A   1      29.383  23.396  27.470  1.00  0.00    -0.548 OA
ATOM     31  O   UNL A   1      30.194  22.023  25.916  1.00  0.00    -0.548 OA
ENDBRANCH  28  29
ENDBRANCH  10  28
ENDBRANCH   4   6
ENDBRANCH   3   4
ENDBRANCH   2   3
ENDBRANCH   1   2
BRANCH   1  32
ATOM     32  C   UNL A   1      38.164  21.250  25.742  1.00  0.00     0.002 C 
BRANCH  32  33
ATOM     33  C   UNL A   1      39.283  20.277  25.365  1.00  0.00     0.021 C 
BRANCH  33  34
ATOM     34  C   UNL A   1      40.129  19.779  26.533  1.00  0.00     0.116 C 
BRANCH  34  35
ATOM     35  N   UNL A   1      41.332  19.094  26.092  1.00  0.00    -0.352 N 
ATOM     36  C   UNL A   1      42.578  19.611  25.827  1.00  0.00     0.251 C 
ATOM     37  H   UNL A   1      41.243  18.122  25.965  1.00  0.00     0.163 HD
ATOM     38  O   UNL A   1      43.428  18.905  25.293  1.00  0.00    -0.269 OA
BRANCH  36  39
ATOM     39  C   UNL A   1      42.880  21.022  26.157  1.00  0.00     0.039 A 
ATOM     40  C   UNL A   1      43.140  21.362  27.487  1.00  0.00     0.014 A 
ATOM     41  C   UNL A   1      42.903  22.007  25.166  1.00  0.00     0.014 A 
ATOM     42  C   UNL A   1      43.483  22.676  27.814  1.00  0.00     0.010 A 
ATOM     43  C   UNL A   1      43.313  23.301  25.482  1.00  0.00     0.010 A 
ATOM     44  C   UNL A   1      43.606  23.651  26.810  1.00  0.00    -0.014 A 
BRANCH  44  45
ATOM     45  C   UNL A   1      44.033  25.038  27.130  1.00  0.00     0.031 A 
ATOM     46  C   UNL A   1      43.043  26.025  27.687  1.00  0.00     0.074 A 
ATOM     47  C   UNL A   1      45.297  25.426  26.867  1.00  0.00     0.049 A 
ATOM     48  N   UNL A   1      43.200  27.296  27.957  1.00  0.00    -0.248 NA
ATOM     49  C   UNL A   1      41.687  25.519  27.946  1.00  0.00     0.031 C 
ATOM     50  C   UNL A   1      46.339  24.572  26.292  1.00  0.00     0.029 A 
ATOM     51  N   UNL A   1      45.919  26.638  27.035  1.00  0.00    -0.354 N 
ATOM     52  C   UNL A   1      41.963  27.745  28.409  1.00  0.00     0.074 A 
ATOM     53  C   UNL A   1      41.052  26.622  28.313  1.00  0.00     0.031 C 
ATOM     54  C   UNL A   1      47.474  25.281  26.174  1.00  0.00     0.029 A 
ATOM     55  C   UNL A   1      47.232  26.650  26.620  1.00  0.00     0.049 A 
ATOM     56  H   UNL A   1      45.470  27.425  27.419  1.00  0.00     0.167 HD
ATOM     57  C   UNL A   1      41.624  28.971  28.881  1.00  0.00     0.034 A 
ATOM     58  C   UNL A   1      48.133  27.651  26.587  1.00  0.00     0.034 A 
ATOM     59  C   UNL A   1      42.547  30.076  28.976  1.00  0.00     0.049 A 
ATOM     60  C   UNL A   1      47.727  29.013  27.091  1.00  0.00     0.074 A 
ATOM     61  C   UNL A   1      42.323  31.346  29.482  1.00  0.00     0.029 A 
ATOM     62  N   UNL A   1      43.869  30.049  28.549  1.00  0.00    -0.354 N 
ATOM     63  N   UNL A   1      46.565  29.409  27.558  1.00  0.00    -0.248 NA
ATOM     64  C   UNL A   1      48.759  30.059  27.077  1.00  0.00     0.031 C 
ATOM     65  C   UNL A   1      43.485  32.104  29.299  1.00  0.00     0.029 A 
ATOM     66  C   UNL A   1      44.462  31.287  28.752  1.00  0.00     0.049 A 
ATOM     67  H   UNL A   1      44.320  29.266  28.159  1.00  0.00     0.167 HD
ATOM     68  C   UNL A   1      46.737  30.743  27.921  1.00  0.00     0.074 A 
ATOM     69  C   UNL A   1      48.116  31.076  27.632  1.00  0.00     0.031 C 
ATOM     70  C   UNL A   1      45.837  31.611  28.448  1.00  0.00     0.034 A 
BRANCH  57  71
ATOM     71  C   UNL A   1      40.188  29.178  29.305  1.00  0.00     0.023 A 
ATOM     72  C   UNL A   1      39.806  29.144  30.659  1.00  0.00     0.031 A 
ATOM     73  C   UNL A   1      39.182  29.383  28.345  1.00  0.00     0.131 A 
ATOM     74  C   UNL A   1      38.450  29.229  31.007  1.00  0.00     0.055 A 
ATOM     75  C   UNL A   1      37.843  29.555  28.705  1.00  0.00     0.041 A 
ATOM     76  F   UNL A   1      39.480  29.406  27.036  1.00  0.00    -0.206 F 
ATOM     77  C   UNL A   1      37.468  29.461  30.042  1.00  0.00     0.022 A 
BRANCH  74  78
ATOM     78  S   UNL A   1      37.973  28.881  32.722  1.00  0.00     0.124 S 
ATOM     79  O   UNL A   1      39.028  29.567  33.465  1.00  0.00    -0.237 OA
ATOM     80  O   UNL A   1      36.643  29.472  32.807  1.00  0.00    -0.237 OA
ATOM     81  O   UNL A   1      38.015  27.421  32.801  1.00  0.00    -0.744 OA
ENDBRANCH  74  78
ENDBRANCH  57  71
BRANCH  58  82
ATOM     82  C   UNL A   1      49.503  27.415  26.046  1.00  0.00     0.023 A 
ATOM     83  C   UNL A   1      49.815  27.707  24.709  1.00  0.00     0.031 A 
ATOM     84  C   UNL A   1      50.511  26.855  26.851  1.00  0.00     0.131 A 
ATOM     85  C   UNL A   1      51.086  27.396  24.203  1.00  0.00     0.055 A 
ATOM     86  C   UNL A   1      51.791  26.597  26.358  1.00  0.00     0.041 A 
ATOM     87  F   UNL A   1      50.267  26.561  28.138  1.00  0.00    -0.206 F 
ATOM     88  C   UNL A   1      52.080  26.856  25.022  1.00  0.00     0.022 A 
BRANCH  85  89
ATOM     89  S   UNL A   1      51.397  27.629  22.431  1.00  0.00     0.124 S 
ATOM     90  O   UNL A   1      51.119  29.051  22.265  1.00  0.00    -0.237 OA
ATOM     91  O   UNL A   1      52.795  27.229  22.314  1.00  0.00    -0.237 OA
ATOM     92  O   UNL A   1      50.438  26.726  21.796  1.00  0.00    -0.744 OA
ENDBRANCH  85  89
ENDBRANCH  58  82
BRANCH  70  93
ATOM     93  C   UNL A   1      46.337  32.995  28.788  1.00  0.00     0.023 A 
ATOM     94  C   UNL A   1      46.868  33.302  30.052  1.00  0.00     0.031 A 
ATOM     95  C   UNL A   1      46.267  34.025  27.832  1.00  0.00     0.131 A 
ATOM     96  C   UNL A   1      47.258  34.619  30.346  1.00  0.00     0.055 A 
ATOM     97  C   UNL A   1      46.713  35.318  28.109  1.00  0.00     0.041 A 
ATOM     98  F   UNL A   1      45.766  33.789  26.609  1.00  0.00    -0.206 F 
ATOM     99  C   UNL A   1      47.199  35.624  29.377  1.00  0.00     0.022 A 
BRANCH  96 100
ATOM    100  S   UNL A   1      47.757  35.022  32.043  1.00  0.00     0.124 S 
ATOM    101  O   UNL A   1      46.724  35.973  32.444  1.00  0.00    -0.237 OA
ATOM    102  O   UNL A   1      47.714  33.720  32.698  1.00  0.00    -0.237 OA
ATOM    103  O   UNL A   1      49.093  35.591  31.881  1.00  0.00    -0.744 OA
ENDBRANCH  96 100
ENDBRANCH  70  93
ENDBRANCH  44  45
ENDBRANCH  36  39
ENDBRANCH  34  35
ENDBRANCH  33  34
ENDBRANCH  32  33
ENDBRANCH   1  32
TORSDOF 22
ENDMDL
MODEL 3
REMARK VINA RESULT:     -10.8      1.867      2.205
REMARK SMILES COc1ccc(C(=O)C2=C(NCCCCCCNC(=O)c3ccc(-c4c5nc(c(-c6cc(S(=O)(=O)[O-])ccc6F)c6ccc([nH]6)c(-c6cc(S(=O)(=O)[O-])ccc6F)c6nc(c(-c7cc(S(=O)(=O)[O-])ccc7F)c7ccc4[nH]7)C=C6)C=C5)cc3)C(=O)N(CC(=O)[O-])[C@H]2c2ccccc2)cc1
REMARK SMILES IDX 14 1 13 2 12 3 11 4 10 6 9 7 91 8 84 9 86 10 85 11 7 12 8 13
REMARK SMILES IDX 6 14 3 15 4 16 99 17 5 18 98 19 2 20 1 21 92 22 93 23 97 24
REMARK SMILES IDX 94 25 96 26 95 27 87 28 88 29 89 30 90 31 15 32 16 33 17 34
REMARK SMILES IDX 18 35 19 36 20 38 21 39 22 40 83 41 23 42 82 43 24 44 25 45
REMARK SMILES IDX 26 46 76 47 27 48 81 49 75 50 77 51 28 52 80 53 74 54 73 55
REMARK SMILES IDX 29 57 61 58 41 59 60 60 42 61 45 62 59 63 78 64 43 65 44 66
REMARK SMILES IDX 58 68 79 69 46 70 30 71 31 72 39 73 32 74 38 75 40 76 37 77
REMARK SMILES IDX 33 78 34 79 35 80 36 81 62 82 63 83 71 84 64 85 70 86 72 87
REMARK SMILES IDX 69 88 65 89 66 90 67 91 68 92 47 93 48 94 56 95 49 96 55 97
REMARK SMILES IDX 57 98 54 99 50 100 51 101 52 102 53 103
REMARK H PARENT 11 5 18 37 77 56 45 67
REMARK Flexibility Score: inf
ROOT
ATOM      1  C   UNL A   1      33.872  29.791  27.415  1.00  0.00     0.002 C 
ENDROOT
BRANCH   1   2
ATOM      2  C   UNL A   1      32.386  29.453  27.246  1.00  0.00     0.021 C 
BRANCH   2   3
ATOM      3  C   UNL A   1      31.994  28.038  27.675  1.00  0.00     0.113 C 
BRANCH   3   4
ATOM      4  N   UNL A   1      31.424  27.330  26.555  1.00  0.00    -0.380 N 
ATOM      5  H   UNL A   1      30.449  27.423  26.459  1.00  0.00     0.160 HD
BRANCH   4   6
ATOM      6  C   UNL A   1      32.025  26.549  25.605  1.00  0.00     0.110 C 
ATOM      7  C   UNL A   1      32.287  25.247  25.434  1.00  0.00     0.056 C 
ATOM      8  C   UNL A   1      32.921  24.908  24.118  1.00  0.00     0.153 C 
ATOM      9  C   UNL A   1      32.514  27.198  24.341  1.00  0.00     0.271 C 
ATOM     10  N   UNL A   1      32.983  26.215  23.509  1.00  0.00    -0.320 N 
ATOM     11  O   UNL A   1      32.480  28.398  24.118  1.00  0.00    -0.267 OA
BRANCH   7  12
ATOM     12  C   UNL A   1      31.796  24.183  26.324  1.00  0.00     0.193 C 
ATOM     13  O   UNL A   1      30.994  24.467  27.209  1.00  0.00    -0.289 OA
BRANCH  12  14
ATOM     14  C   UNL A   1      32.222  22.766  26.114  1.00  0.00     0.023 A 
ATOM     15  C   UNL A   1      33.124  20.168  25.478  1.00  0.00     0.118 A 
ATOM     16  C   UNL A   1      32.066  20.744  24.773  1.00  0.00     0.047 A 
ATOM     17  C   UNL A   1      33.696  20.874  26.534  1.00  0.00     0.047 A 
ATOM     18  C   UNL A   1      31.621  22.035  25.082  1.00  0.00     0.016 A 
ATOM     19  C   UNL A   1      33.224  22.151  26.869  1.00  0.00     0.016 A 
BRANCH  15  20
ATOM     20  O   UNL A   1      33.509  18.933  25.040  1.00  0.00    -0.497 OA
ATOM     21  C   UNL A   1      32.798  17.815  25.558  1.00  0.00     0.278 C 
ENDBRANCH  15  20
ENDBRANCH  12  14
ENDBRANCH   7  12
BRANCH   8  22
ATOM     22  C   UNL A   1      34.305  24.287  24.247  1.00  0.00    -0.021 A 
ATOM     23  C   UNL A   1      35.203  24.692  25.256  1.00  0.00     0.006 A 
ATOM     24  C   UNL A   1      34.700  23.264  23.375  1.00  0.00     0.006 A 
ATOM     25  C   UNL A   1      36.445  24.076  25.402  1.00  0.00     0.000 A 
ATOM     26  C   UNL A   1      35.951  22.657  23.515  1.00  0.00     0.000 A 
ATOM     27  C   UNL A   1      36.818  23.058  24.531  1.00  0.00     0.000 A 
ENDBRANCH   8  22
BRANCH  10  28
ATOM     28  C   UNL A   1      33.509  26.477  22.178  1.00  0.00     0.173 C 
BRANCH  28  29
ATOM     29  C   UNL A   1      32.668  25.924  21.037  1.00  0.00     0.061 C 
ATOM     30  O   UNL A   1      33.105  25.286  20.091  1.00  0.00    -0.548 OA
ATOM     31  O   UNL A   1      31.340  26.114  21.165  1.00  0.00    -0.548 OA
ENDBRANCH  28  29
ENDBRANCH  10  28
ENDBRANCH   4   6
ENDBRANCH   3   4
ENDBRANCH   2   3
ENDBRANCH   1   2
BRANCH   1  32
ATOM     32  C   UNL A   1      34.191  31.273  27.631  1.00  0.00     0.002 C 
BRANCH  32  33
ATOM     33  C   UNL A   1      32.978  32.203  27.693  1.00  0.00     0.021 C 
BRANCH  33  34
ATOM     34  C   UNL A   1      33.242  33.641  27.255  1.00  0.00     0.116 C 
BRANCH  34  35
ATOM     35  N   UNL A   1      32.928  34.604  28.296  1.00  0.00    -0.352 N 
ATOM     36  C   UNL A   1      33.466  34.728  29.554  1.00  0.00     0.251 C 
ATOM     37  H   UNL A   1      32.230  35.260  28.069  1.00  0.00     0.163 HD
ATOM     38  O   UNL A   1      32.951  35.494  30.363  1.00  0.00    -0.269 OA
BRANCH  36  39
ATOM     39  C   UNL A   1      34.645  33.919  29.939  1.00  0.00     0.039 A 
ATOM     40  C   UNL A   1      35.882  34.213  29.361  1.00  0.00     0.014 A 
ATOM     41  C   UNL A   1      34.534  32.874  30.860  1.00  0.00     0.014 A 
ATOM     42  C   UNL A   1      37.018  33.500  29.751  1.00  0.00     0.010 A 
ATOM     43  C   UNL A   1      35.678  32.211  31.300  1.00  0.00     0.010 A 
ATOM     44  C   UNL A   1      36.933  32.516  30.749  1.00  0.00    -0.014 A 
BRANCH  44  45
ATOM     45  C   UNL A   1      38.143  31.793  31.224  1.00  0.00     0.031 A 
ATOM     46  C   UNL A   1      38.804  32.192  32.515  1.00  0.00     0.074 A 
ATOM     47  C   UNL A   1      38.679  30.816  30.464  1.00  0.00     0.049 A 
ATOM     48  N   UNL A   1      39.905  31.739  33.058  1.00  0.00    -0.248 NA
ATOM     49  C   UNL A   1      38.154  33.265  33.281  1.00  0.00     0.031 C 
ATOM     50  C   UNL A   1      38.152  30.365  29.175  1.00  0.00     0.029 A 
ATOM     51  N   UNL A   1      39.791  30.035  30.658  1.00  0.00    -0.354 N 
ATOM     52  C   UNL A   1      40.086  32.477  34.224  1.00  0.00     0.074 A 
ATOM     53  C   UNL A   1      39.013  33.450  34.272  1.00  0.00     0.031 C 
ATOM     54  C   UNL A   1      38.928  29.375  28.704  1.00  0.00     0.029 A 
ATOM     55  C   UNL A   1      40.033  29.151  29.631  1.00  0.00     0.049 A 
ATOM     56  H   UNL A   1      40.362  30.100  31.458  1.00  0.00     0.167 HD
ATOM     57  C   UNL A   1      41.042  32.340  35.177  1.00  0.00     0.034 A 
ATOM     58  C   UNL A   1      41.037  28.271  29.448  1.00  0.00     0.034 A 
ATOM     59  C   UNL A   1      42.100  31.361  35.116  1.00  0.00     0.049 A 
ATOM     60  C   UNL A   1      42.105  28.154  30.507  1.00  0.00     0.074 A 
ATOM     61  C   UNL A   1      43.092  31.103  36.047  1.00  0.00     0.029 A 
ATOM     62  N   UNL A   1      42.310  30.480  34.063  1.00  0.00    -0.354 N 
ATOM     63  N   UNL A   1      42.235  28.828  31.627  1.00  0.00    -0.248 NA
ATOM     64  C   UNL A   1      43.152  27.150  30.284  1.00  0.00     0.031 C 
ATOM     65  C   UNL A   1      43.939  30.119  35.527  1.00  0.00     0.029 A 
ATOM     66  C   UNL A   1      43.432  29.701  34.307  1.00  0.00     0.049 A 
ATOM     67  H   UNL A   1      41.745  30.417  33.258  1.00  0.00     0.167 HD
ATOM     68  C   UNL A   1      43.363  28.306  32.255  1.00  0.00     0.074 A 
ATOM     69  C   UNL A   1      43.865  27.253  31.396  1.00  0.00     0.031 C 
ATOM     70  C   UNL A   1      43.931  28.661  33.436  1.00  0.00     0.034 A 
BRANCH  57  71
ATOM     71  C   UNL A   1      40.994  33.293  36.349  1.00  0.00     0.023 A 
ATOM     72  C   UNL A   1      41.874  34.386  36.449  1.00  0.00     0.031 A 
ATOM     73  C   UNL A   1      40.077  33.091  37.397  1.00  0.00     0.131 A 
ATOM     74  C   UNL A   1      41.875  35.182  37.604  1.00  0.00     0.055 A 
ATOM     75  C   UNL A   1      40.025  33.942  38.504  1.00  0.00     0.041 A 
ATOM     76  F   UNL A   1      39.225  32.055  37.370  1.00  0.00    -0.206 F 
ATOM     77  C   UNL A   1      40.939  34.985  38.620  1.00  0.00     0.022 A 
BRANCH  74  78
ATOM     78  S   UNL A   1      43.215  36.384  37.824  1.00  0.00     0.124 S 
ATOM     79  O   UNL A   1      43.316  36.961  36.485  1.00  0.00    -0.237 OA
ATOM     80  O   UNL A   1      42.685  37.263  38.860  1.00  0.00    -0.237 OA
ATOM     81  O   UNL A   1      44.353  35.560  38.226  1.00  0.00    -0.744 OA
ENDBRANCH  74  78
ENDBRANCH  57  71
BRANCH  58  82
ATOM     82  C   UNL A   1      41.096  27.439  28.212  1.00  0.00     0.023 A 
ATOM     83  C   UNL A   1      40.862  26.056  28.256  1.00  0.00     0.031 A 
ATOM     84  C   UNL A   1      41.428  28.013  26.971  1.00  0.00     0.131 A 
ATOM     85  C   UNL A   1      41.007  25.284  27.093  1.00  0.00     0.055 A 
ATOM     86  C   UNL A   1      41.518  27.249  25.806  1.00  0.00     0.041 A 
ATOM     87  F   UNL A   1      41.658  29.332  26.872  1.00  0.00    -0.206 F 
ATOM     88  C   UNL A   1      41.321  25.873  25.866  1.00  0.00     0.022 A 
BRANCH  85  89
ATOM     89  S   UNL A   1      40.865  23.480  27.224  1.00  0.00     0.124 S 
ATOM     90  O   UNL A   1      39.418  23.299  27.258  1.00  0.00    -0.237 OA
ATOM     91  O   UNL A   1      41.541  23.035  26.010  1.00  0.00    -0.237 OA
ATOM     92  O   UNL A   1      41.562  23.174  28.472  1.00  0.00    -0.744 OA
ENDBRANCH  85  89
ENDBRANCH  58  82
BRANCH  70  93
ATOM     93  C   UNL A   1      45.134  27.868  33.885  1.00  0.00     0.023 A 
ATOM     94  C   UNL A   1      45.007  26.696  34.649  1.00  0.00     0.031 A 
ATOM     95  C   UNL A   1      46.430  28.304  33.551  1.00  0.00     0.131 A 
ATOM     96  C   UNL A   1      46.157  26.029  35.102  1.00  0.00     0.055 A 
ATOM     97  C   UNL A   1      47.568  27.602  33.951  1.00  0.00     0.041 A 
ATOM     98  F   UNL A   1      46.610  29.418  32.824  1.00  0.00    -0.206 F 
ATOM     99  C   UNL A   1      47.435  26.465  34.743  1.00  0.00     0.022 A 
BRANCH  96 100
ATOM    100  S   UNL A   1      45.962  24.634  36.245  1.00  0.00     0.124 S 
ATOM    101  O   UNL A   1      44.960  23.821  35.563  1.00  0.00    -0.237 OA
ATOM    102  O   UNL A   1      47.310  24.079  36.292  1.00  0.00    -0.237 OA
ATOM    103  O   UNL A   1      45.509  25.266  37.483  1.00  0.00    -0.744 OA
ENDBRANCH  96 100
ENDBRANCH  70  93
ENDBRANCH  44  45
ENDBRANCH  36  39
ENDBRANCH  34  35
ENDBRANCH  33  34
ENDBRANCH  32  33
ENDBRANCH   1  32
TORSDOF 22
ENDMDL
