MODEL 1
REMARK VINA RESULT:     -11.1      0.000      0.000
REMARK SMILES C[N@H+]1Cc2ccccc2C[C@@H]1C(=O)NCCC(=O)NCC(=O)NCCCCCCNC(=O)c1ccc(-c2c3nc(c(-c4cc(S(=O)(=O)[O-])ccc4F)c4ccc([nH]4)c(-c4cc(S(=O)(=O)[O-])ccc4F)c4nc(c(-c5cc(S(=O)(=O)[O-])ccc5F)c5ccc2[nH]5)C=C4)C=C3)cc1
REMARK SMILES IDX 25 1 24 2 23 3 21 4 22 5 20 7 19 8 17 9 18 10 16 12 15 13
REMARK SMILES IDX 14 14 12 15 13 16 11 18 1 19 2 20 3 21 4 23 10 24 5 25 9 26
REMARK SMILES IDX 6 27 8 28 7 29 26 30 27 31 28 32 29 33 30 34 31 35 32 37
REMARK SMILES IDX 33 38 34 39 95 40 35 41 94 42 36 43 37 44 38 45 88 46 39 47
REMARK SMILES IDX 93 48 87 49 89 50 40 51 92 52 86 53 85 54 41 56 73 57 53 58
REMARK SMILES IDX 72 59 54 60 57 61 71 62 90 63 55 64 56 65 70 67 91 68 58 69
REMARK SMILES IDX 42 70 43 71 51 72 44 73 50 74 52 75 49 76 45 77 46 78 47 79
REMARK SMILES IDX 48 80 74 81 75 82 83 83 76 84 82 85 84 86 81 87 77 88 78 89
REMARK SMILES IDX 79 90 80 91 59 92 60 93 68 94 61 95 67 96 69 97 66 98 62 99
REMARK SMILES IDX 63 100 64 101 65 102
REMARK H PARENT 23 6 19 11 14 17 2 22 30 36 89 55 57 66
REMARK Flexibility Score: inf
ROOT
ATOM      1  C   UNL A   1      34.868  30.806  28.239  1.00  0.00     0.021 C 
ENDROOT
BRANCH   1   2
ATOM      2  C   UNL A   1      33.606  30.519  27.442  1.00  0.00     0.116 C 
BRANCH   2   3
ATOM      3  N   UNL A   1      33.862  29.960  26.124  1.00  0.00    -0.355 N 
ATOM      4  C   UNL A   1      33.057  29.489  25.128  1.00  0.00     0.239 C 
ATOM      5  O   UNL A   1      33.623  29.127  24.090  1.00  0.00    -0.273 OA
ATOM      6  H   UNL A   1      34.820  29.913  25.903  1.00  0.00     0.163 HD
BRANCH   4   7
ATOM      7  C   UNL A   1      31.512  29.546  25.170  1.00  0.00     0.216 C 
BRANCH   7   8
ATOM      8  N   UNL A   1      30.815  29.694  23.907  1.00  0.00    -0.347 N 
ATOM      9  C   UNL A   1      30.444  28.767  22.983  1.00  0.00     0.222 C 
ATOM     10  O   UNL A   1      29.961  29.176  21.926  1.00  0.00    -0.275 OA
ATOM     11  H   UNL A   1      30.569  30.620  23.681  1.00  0.00     0.164 HD
BRANCH   9  12
ATOM     12  C   UNL A   1      30.647  27.284  23.221  1.00  0.00     0.121 C 
BRANCH  12  13
ATOM     13  C   UNL A   1      29.687  26.681  24.250  1.00  0.00     0.126 C 
BRANCH  13  14
ATOM     14  N   UNL A   1      30.363  26.270  25.478  1.00  0.00    -0.350 N 
ATOM     15  C   UNL A   1      30.997  25.107  25.776  1.00  0.00     0.278 C 
ATOM     16  O   UNL A   1      30.562  24.495  26.761  1.00  0.00    -0.268 OA
ATOM     17  H   UNL A   1      30.357  26.938  26.200  1.00  0.00     0.163 HD
BRANCH  15  18
ATOM     18  C   UNL A   1      32.302  24.661  25.087  1.00  0.00     0.278 C 
ATOM     19  C   UNL A   1      30.893  23.425  23.450  1.00  0.00     0.333 C 
ATOM     20  N   UNL A   1      32.106  23.413  24.274  1.00  0.00    -0.323 N 
ATOM     21  C   UNL A   1      33.275  23.233  23.385  1.00  0.00     0.299 C 
ATOM     22  H   UNL A   1      32.006  22.646  24.939  1.00  0.00     0.348 HD
ATOM     23  C   UNL A   1      34.612  23.364  24.080  1.00  0.00     0.010 A 
ATOM     24  C   UNL A   1      33.464  24.417  26.054  1.00  0.00     0.111 C 
ATOM     25  C   UNL A   1      35.783  22.957  23.427  1.00  0.00     0.010 A 
ATOM     26  C   UNL A   1      34.709  23.949  25.351  1.00  0.00    -0.033 A 
ATOM     27  C   UNL A   1      37.026  23.101  24.049  1.00  0.00     0.001 A 
ATOM     28  C   UNL A   1      35.954  24.064  25.981  1.00  0.00     0.004 A 
ATOM     29  C   UNL A   1      37.109  23.645  25.327  1.00  0.00     0.000 A 
ENDBRANCH  15  18
ENDBRANCH  13  14
ENDBRANCH  12  13
ENDBRANCH   9  12
ENDBRANCH   7   8
ENDBRANCH   4   7
ENDBRANCH   2   3
ENDBRANCH   1   2
BRANCH   1  30
ATOM     30  C   UNL A   1      35.776  31.869  27.618  1.00  0.00     0.002 C 
BRANCH  30  31
ATOM     31  C   UNL A   1      35.871  33.199  28.378  1.00  0.00     0.002 C 
BRANCH  31  32
ATOM     32  C   UNL A   1      34.798  34.245  28.057  1.00  0.00     0.021 C 
BRANCH  32  33
ATOM     33  C   UNL A   1      33.381  33.901  28.508  1.00  0.00     0.116 C 
BRANCH  33  34
ATOM     34  N   UNL A   1      32.919  34.751  29.589  1.00  0.00    -0.352 N 
ATOM     35  C   UNL A   1      33.372  34.871  30.876  1.00  0.00     0.251 C 
ATOM     36  H   UNL A   1      32.159  35.334  29.362  1.00  0.00     0.163 HD
ATOM     37  O   UNL A   1      32.721  35.548  31.675  1.00  0.00    -0.269 OA
BRANCH  35  38
ATOM     38  C   UNL A   1      34.604  34.183  31.321  1.00  0.00     0.039 A 
ATOM     39  C   UNL A   1      34.515  32.839  31.695  1.00  0.00     0.014 A 
ATOM     40  C   UNL A   1      35.831  34.847  31.411  1.00  0.00     0.014 A 
ATOM     41  C   UNL A   1      35.658  32.152  32.110  1.00  0.00     0.010 A 
ATOM     42  C   UNL A   1      36.986  34.141  31.755  1.00  0.00     0.010 A 
ATOM     43  C   UNL A   1      36.911  32.787  32.113  1.00  0.00    -0.014 A 
BRANCH  43  44
ATOM     44  C   UNL A   1      38.138  32.032  32.484  1.00  0.00     0.031 A 
ATOM     45  C   UNL A   1      38.854  32.319  33.778  1.00  0.00     0.074 A 
ATOM     46  C   UNL A   1      38.617  31.094  31.642  1.00  0.00     0.049 A 
ATOM     47  N   UNL A   1      39.932  31.761  34.268  1.00  0.00    -0.248 NA
ATOM     48  C   UNL A   1      38.297  33.388  34.621  1.00  0.00     0.031 C 
ATOM     49  C   UNL A   1      38.032  30.753  30.342  1.00  0.00     0.029 A 
ATOM     50  N   UNL A   1      39.694  30.250  31.748  1.00  0.00    -0.354 N 
ATOM     51  C   UNL A   1      40.181  32.406  35.475  1.00  0.00     0.074 A 
ATOM     52  C   UNL A   1      39.180  33.443  35.607  1.00  0.00     0.031 C 
ATOM     53  C   UNL A   1      38.732  29.747  29.794  1.00  0.00     0.029 A 
ATOM     54  C   UNL A   1      39.843  29.401  30.675  1.00  0.00     0.049 A 
ATOM     55  H   UNL A   1      40.304  30.252  32.522  1.00  0.00     0.167 HD
ATOM     56  C   UNL A   1      41.138  32.139  36.399  1.00  0.00     0.034 A 
ATOM     57  C   UNL A   1      40.770  28.456  30.426  1.00  0.00     0.034 A 
ATOM     58  C   UNL A   1      42.130  31.100  36.253  1.00  0.00     0.049 A 
ATOM     59  C   UNL A   1      41.845  28.206  31.454  1.00  0.00     0.074 A 
ATOM     60  C   UNL A   1      43.121  30.723  37.144  1.00  0.00     0.029 A 
ATOM     61  N   UNL A   1      42.262  30.274  35.144  1.00  0.00    -0.354 N 
ATOM     62  N   UNL A   1      42.033  28.793  32.615  1.00  0.00    -0.248 NA
ATOM     63  C   UNL A   1      42.823  27.157  31.145  1.00  0.00     0.031 C 
ATOM     64  C   UNL A   1      43.894  29.723  36.545  1.00  0.00     0.029 A 
ATOM     65  C   UNL A   1      43.336  29.413  35.315  1.00  0.00     0.049 A 
ATOM     66  H   UNL A   1      41.678  30.297  34.351  1.00  0.00     0.167 HD
ATOM     67  C   UNL A   1      43.132  28.155  33.187  1.00  0.00     0.074 A 
ATOM     68  C   UNL A   1      43.544  27.125  32.255  1.00  0.00     0.031 C 
ATOM     69  C   UNL A   1      43.746  28.398  34.373  1.00  0.00     0.034 A 
BRANCH  56  70
ATOM     70  C   UNL A   1      41.169  33.001  37.640  1.00  0.00     0.023 A 
ATOM     71  C   UNL A   1      40.437  32.663  38.792  1.00  0.00     0.031 A 
ATOM     72  C   UNL A   1      41.937  34.179  37.674  1.00  0.00     0.131 A 
ATOM     73  C   UNL A   1      40.436  33.521  39.902  1.00  0.00     0.055 A 
ATOM     74  C   UNL A   1      41.996  34.989  38.811  1.00  0.00     0.041 A 
ATOM     75  F   UNL A   1      42.641  34.568  36.599  1.00  0.00    -0.206 F 
ATOM     76  C   UNL A   1      41.232  34.669  39.929  1.00  0.00     0.022 A 
BRANCH  73  77
ATOM     77  S   UNL A   1      39.278  33.187  41.257  1.00  0.00     0.124 S 
ATOM     78  O   UNL A   1      38.645  31.950  40.805  1.00  0.00    -0.237 OA
ATOM     79  O   UNL A   1      40.164  33.068  42.408  1.00  0.00    -0.237 OA
ATOM     80  O   UNL A   1      38.405  34.359  41.259  1.00  0.00    -0.744 OA
ENDBRANCH  73  77
ENDBRANCH  56  70
BRANCH  57  81
ATOM     81  C   UNL A   1      40.740  27.673  29.155  1.00  0.00     0.023 A 
ATOM     82  C   UNL A   1      41.658  27.931  28.124  1.00  0.00     0.031 A 
ATOM     83  C   UNL A   1      39.748  26.703  28.923  1.00  0.00     0.131 A 
ATOM     84  C   UNL A   1      41.527  27.277  26.888  1.00  0.00     0.055 A 
ATOM     85  C   UNL A   1      39.662  26.007  27.717  1.00  0.00     0.041 A 
ATOM     86  F   UNL A   1      38.844  26.415  29.873  1.00  0.00    -0.206 F 
ATOM     87  C   UNL A   1      40.544  26.305  26.683  1.00  0.00     0.022 A 
BRANCH  84  88
ATOM     88  S   UNL A   1      42.586  27.801  25.513  1.00  0.00     0.124 S 
ATOM     89  O   UNL A   1      43.852  28.051  26.193  1.00  0.00    -0.237 OA
ATOM     90  O   UNL A   1      42.546  26.636  24.638  1.00  0.00    -0.237 OA
ATOM     91  O   UNL A   1      41.910  28.990  24.998  1.00  0.00    -0.744 OA
ENDBRANCH  84  88
ENDBRANCH  57  81
BRANCH  69  92
ATOM     92  C   UNL A   1      44.902  27.496  34.741  1.00  0.00     0.023 A 
ATOM     93  C   UNL A   1      44.698  26.189  35.218  1.00  0.00     0.031 A 
ATOM     94  C   UNL A   1      46.224  27.964  34.646  1.00  0.00     0.131 A 
ATOM     95  C   UNL A   1      45.791  25.425  35.655  1.00  0.00     0.055 A 
ATOM     96  C   UNL A   1      47.313  27.173  35.013  1.00  0.00     0.041 A 
ATOM     97  F   UNL A   1      46.480  29.205  34.200  1.00  0.00    -0.206 F 
ATOM     98  C   UNL A   1      47.098  25.902  35.538  1.00  0.00     0.022 A 
BRANCH  95  99
ATOM     99  S   UNL A   1      45.469  23.849  36.493  1.00  0.00     0.124 S 
ATOM    100  O   UNL A   1      45.338  24.266  37.885  1.00  0.00    -0.237 OA
ATOM    101  O   UNL A   1      44.243  23.396  35.845  1.00  0.00    -0.237 OA
ATOM    102  O   UNL A   1      46.658  23.052  36.193  1.00  0.00    -0.744 OA
ENDBRANCH  95  99
ENDBRANCH  69  92
ENDBRANCH  43  44
ENDBRANCH  35  38
ENDBRANCH  33  34
ENDBRANCH  32  33
ENDBRANCH  31  32
ENDBRANCH  30  31
ENDBRANCH   1  30
TORSDOF 21
ENDMDL
MODEL 2
REMARK VINA RESULT:     -10.8      0.552      7.534
REMARK SMILES C[N@H+]1Cc2ccccc2C[C@@H]1C(=O)NCCC(=O)NCC(=O)NCCCCCCNC(=O)c1ccc(-c2c3nc(c(-c4cc(S(=O)(=O)[O-])ccc4F)c4ccc([nH]4)c(-c4cc(S(=O)(=O)[O-])ccc4F)c4nc(c(-c5cc(S(=O)(=O)[O-])ccc5F)c5ccc2[nH]5)C=C4)C=C3)cc1
REMARK SMILES IDX 25 1 24 2 23 3 21 4 22 5 20 7 19 8 17 9 18 10 16 12 15 13
REMARK SMILES IDX 14 14 12 15 13 16 11 18 1 19 2 20 3 21 4 23 10 24 5 25 9 26
REMARK SMILES IDX 6 27 8 28 7 29 26 30 27 31 28 32 29 33 30 34 31 35 32 37
REMARK SMILES IDX 33 38 34 39 95 40 35 41 94 42 36 43 37 44 38 45 88 46 39 47
REMARK SMILES IDX 93 48 87 49 89 50 40 51 92 52 86 53 85 54 41 56 73 57 53 58
REMARK SMILES IDX 72 59 54 60 57 61 71 62 90 63 55 64 56 65 70 67 91 68 58 69
REMARK SMILES IDX 42 70 43 71 51 72 44 73 50 74 52 75 49 76 45 77 46 78 47 79
REMARK SMILES IDX 48 80 74 81 75 82 83 83 76 84 82 85 84 86 81 87 77 88 78 89
REMARK SMILES IDX 79 90 80 91 59 92 60 93 68 94 61 95 67 96 69 97 66 98 62 99
REMARK SMILES IDX 63 100 64 101 65 102
REMARK H PARENT 23 6 19 11 14 17 2 22 30 36 89 55 57 66
REMARK Flexibility Score: inf
ROOT
ATOM      1  C   UNL A   1      34.897  30.820  28.201  1.00  0.00     0.021 C 
ENDROOT
BRANCH   1   2
ATOM      2  C   UNL A   1      33.638  30.635  27.370  1.00  0.00     0.116 C 
BRANCH   2   3
ATOM      3  N   UNL A   1      33.871  29.980  26.094  1.00  0.00    -0.355 N 
ATOM      4  C   UNL A   1      33.048  29.487  25.123  1.00  0.00     0.239 C 
ATOM      5  O   UNL A   1      33.600  29.030  24.115  1.00  0.00    -0.273 OA
ATOM      6  H   UNL A   1      34.826  29.868  25.884  1.00  0.00     0.163 HD
BRANCH   4   7
ATOM      7  C   UNL A   1      31.508  29.628  25.147  1.00  0.00     0.216 C 
BRANCH   7   8
ATOM      8  N   UNL A   1      30.833  29.798  23.875  1.00  0.00    -0.347 N 
ATOM      9  C   UNL A   1      30.464  28.885  22.936  1.00  0.00     0.222 C 
ATOM     10  O   UNL A   1      30.003  29.311  21.876  1.00  0.00    -0.275 OA
ATOM     11  H   UNL A   1      30.603  30.729  23.655  1.00  0.00     0.164 HD
BRANCH   9  12
ATOM     12  C   UNL A   1      30.643  27.398  23.163  1.00  0.00     0.121 C 
BRANCH  12  13
ATOM     13  C   UNL A   1      29.672  26.802  24.186  1.00  0.00     0.126 C 
BRANCH  13  14
ATOM     14  N   UNL A   1      30.343  26.347  25.401  1.00  0.00    -0.350 N 
ATOM     15  C   UNL A   1      30.946  25.161  25.671  1.00  0.00     0.278 C 
ATOM     16  O   UNL A   1      30.499  24.541  26.646  1.00  0.00    -0.268 OA
ATOM     17  H   UNL A   1      30.359  27.000  26.136  1.00  0.00     0.163 HD
BRANCH  15  18
ATOM     18  C   UNL A   1      32.235  24.693  24.965  1.00  0.00     0.278 C 
ATOM     19  C   UNL A   1      30.784  23.499  23.334  1.00  0.00     0.333 C 
ATOM     20  N   UNL A   1      32.004  23.456  24.145  1.00  0.00    -0.323 N 
ATOM     21  C   UNL A   1      33.161  23.258  23.243  1.00  0.00     0.299 C 
ATOM     22  H   UNL A   1      31.896  22.686  24.806  1.00  0.00     0.348 HD
ATOM     23  C   UNL A   1      34.507  23.356  23.926  1.00  0.00     0.010 A 
ATOM     24  C   UNL A   1      33.401  24.418  25.919  1.00  0.00     0.111 C 
ATOM     25  C   UNL A   1      35.663  22.930  23.258  1.00  0.00     0.010 A 
ATOM     26  C   UNL A   1      34.629  23.930  25.200  1.00  0.00    -0.033 A 
ATOM     27  C   UNL A   1      36.914  23.044  23.868  1.00  0.00     0.001 A 
ATOM     28  C   UNL A   1      35.882  24.014  25.819  1.00  0.00     0.004 A 
ATOM     29  C   UNL A   1      37.021  23.577  25.150  1.00  0.00     0.000 A 
ENDBRANCH  15  18
ENDBRANCH  13  14
ENDBRANCH  12  13
ENDBRANCH   9  12
ENDBRANCH   7   8
ENDBRANCH   4   7
ENDBRANCH   2   3
ENDBRANCH   1   2
BRANCH   1  30
ATOM     30  C   UNL A   1      35.871  31.859  27.644  1.00  0.00     0.002 C 
BRANCH  30  31
ATOM     31  C   UNL A   1      35.928  33.197  28.394  1.00  0.00     0.002 C 
BRANCH  31  32
ATOM     32  C   UNL A   1      34.828  34.211  28.061  1.00  0.00     0.021 C 
BRANCH  32  33
ATOM     33  C   UNL A   1      33.425  33.847  28.539  1.00  0.00     0.116 C 
BRANCH  33  34
ATOM     34  N   UNL A   1      32.936  34.745  29.568  1.00  0.00    -0.352 N 
ATOM     35  C   UNL A   1      33.357  34.924  30.859  1.00  0.00     0.251 C 
ATOM     36  H   UNL A   1      32.182  35.317  29.295  1.00  0.00     0.163 HD
ATOM     37  O   UNL A   1      32.687  35.637  31.610  1.00  0.00    -0.269 OA
BRANCH  35  38
ATOM     38  C   UNL A   1      34.577  34.258  31.366  1.00  0.00     0.039 A 
ATOM     39  C   UNL A   1      34.482  32.926  31.779  1.00  0.00     0.014 A 
ATOM     40  C   UNL A   1      35.798  34.932  31.474  1.00  0.00     0.014 A 
ATOM     41  C   UNL A   1      35.615  32.260  32.253  1.00  0.00     0.010 A 
ATOM     42  C   UNL A   1      36.944  34.244  31.878  1.00  0.00     0.010 A 
ATOM     43  C   UNL A   1      36.864  32.902  32.276  1.00  0.00    -0.014 A 
BRANCH  43  44
ATOM     44  C   UNL A   1      38.082  32.167  32.711  1.00  0.00     0.031 A 
ATOM     45  C   UNL A   1      38.694  31.108  31.831  1.00  0.00     0.074 A 
ATOM     46  C   UNL A   1      38.629  32.446  33.912  1.00  0.00     0.049 A 
ATOM     47  N   UNL A   1      39.755  30.370  32.042  1.00  0.00    -0.248 NA
ATOM     48  C   UNL A   1      38.014  30.828  30.558  1.00  0.00     0.031 C 
ATOM     49  C   UNL A   1      38.104  33.424  34.868  1.00  0.00     0.029 A 
ATOM     50  N   UNL A   1      39.746  31.945  34.533  1.00  0.00    -0.354 N 
ATOM     51  C   UNL A   1      39.871  29.542  30.930  1.00  0.00     0.074 A 
ATOM     52  C   UNL A   1      38.733  29.824  30.082  1.00  0.00     0.031 C 
ATOM     53  C   UNL A   1      38.919  33.480  35.933  1.00  0.00     0.029 A 
ATOM     54  C   UNL A   1      39.998  32.511  35.762  1.00  0.00     0.049 A 
ATOM     55  H   UNL A   1      40.314  31.246  34.135  1.00  0.00     0.167 HD
ATOM     56  C   UNL A   1      40.850  28.651  30.633  1.00  0.00     0.034 A 
ATOM     57  C   UNL A   1      40.980  32.275  36.653  1.00  0.00     0.034 A 
ATOM     58  C   UNL A   1      41.980  28.381  31.491  1.00  0.00     0.049 A 
ATOM     59  C   UNL A   1      42.036  31.251  36.313  1.00  0.00     0.074 A 
ATOM     60  C   UNL A   1      43.045  27.525  31.269  1.00  0.00     0.029 A 
ATOM     61  N   UNL A   1      42.190  28.959  32.737  1.00  0.00    -0.354 N 
ATOM     62  N   UNL A   1      42.156  30.515  35.231  1.00  0.00    -0.248 NA
ATOM     63  C   UNL A   1      43.094  31.039  37.307  1.00  0.00     0.031 C 
ATOM     64  C   UNL A   1      43.858  27.530  32.408  1.00  0.00     0.029 A 
ATOM     65  C   UNL A   1      43.350  28.453  33.308  1.00  0.00     0.049 A 
ATOM     66  H   UNL A   1      41.602  29.629  33.155  1.00  0.00     0.167 HD
ATOM     67  C   UNL A   1      43.326  29.778  35.405  1.00  0.00     0.074 A 
ATOM     68  C   UNL A   1      43.883  30.180  36.680  1.00  0.00     0.031 C 
ATOM     69  C   UNL A   1      43.890  28.853  34.586  1.00  0.00     0.034 A 
BRANCH  56  70
ATOM     70  C   UNL A   1      40.728  27.887  29.335  1.00  0.00     0.023 A 
ATOM     71  C   UNL A   1      41.584  28.139  28.248  1.00  0.00     0.031 A 
ATOM     72  C   UNL A   1      39.742  26.897  29.177  1.00  0.00     0.131 A 
ATOM     73  C   UNL A   1      41.398  27.459  27.034  1.00  0.00     0.055 A 
ATOM     74  C   UNL A   1      39.613  26.166  27.993  1.00  0.00     0.041 A 
ATOM     75  F   UNL A   1      38.881  26.625  30.170  1.00  0.00    -0.206 F 
ATOM     76  C   UNL A   1      40.436  26.454  26.909  1.00  0.00     0.022 A 
BRANCH  73  77
ATOM     77  S   UNL A   1      42.344  27.997  25.583  1.00  0.00     0.124 S 
ATOM     78  O   UNL A   1      42.301  26.802  24.744  1.00  0.00    -0.237 OA
ATOM     79  O   UNL A   1      41.571  29.139  25.109  1.00  0.00    -0.237 OA
ATOM     80  O   UNL A   1      43.660  28.317  26.131  1.00  0.00    -0.744 OA
ENDBRANCH  73  77
ENDBRANCH  56  70
BRANCH  57  81
ATOM     81  C   UNL A   1      41.024  33.005  37.954  1.00  0.00     0.023 A 
ATOM     82  C   UNL A   1      40.310  32.540  39.070  1.00  0.00     0.031 A 
ATOM     83  C   UNL A   1      41.725  34.218  38.082  1.00  0.00     0.131 A 
ATOM     84  C   UNL A   1      40.258  33.313  40.241  1.00  0.00     0.055 A 
ATOM     85  C   UNL A   1      41.724  34.950  39.270  1.00  0.00     0.041 A 
ATOM     86  F   UNL A   1      42.426  34.711  37.048  1.00  0.00    -0.206 F 
ATOM     87  C   UNL A   1      40.973  34.507  40.354  1.00  0.00     0.022 A 
BRANCH  84  88
ATOM     88  S   UNL A   1      39.144  32.792  41.575  1.00  0.00     0.124 S 
ATOM     89  O   UNL A   1      39.970  33.016  42.756  1.00  0.00    -0.237 OA
ATOM     90  O   UNL A   1      38.016  33.698  41.398  1.00  0.00    -0.237 OA
ATOM     91  O   UNL A   1      38.873  31.391  41.261  1.00  0.00    -0.744 OA
ENDBRANCH  84  88
ENDBRANCH  57  81
BRANCH  69  92
ATOM     92  C   UNL A   1      45.201  28.251  35.036  1.00  0.00     0.023 A 
ATOM     93  C   UNL A   1      45.250  27.073  35.803  1.00  0.00     0.031 A 
ATOM     94  C   UNL A   1      46.416  28.886  34.724  1.00  0.00     0.131 A 
ATOM     95  C   UNL A   1      46.480  26.610  36.296  1.00  0.00     0.055 A 
ATOM     96  C   UNL A   1      47.643  28.380  35.155  1.00  0.00     0.041 A 
ATOM     97  F   UNL A   1      46.431  30.015  33.998  1.00  0.00    -0.206 F 
ATOM     98  C   UNL A   1      47.677  27.245  35.961  1.00  0.00     0.022 A 
BRANCH  95  99
ATOM     99  S   UNL A   1      46.478  25.237  37.481  1.00  0.00     0.124 S 
ATOM    100  O   UNL A   1      47.346  24.266  36.822  1.00  0.00    -0.237 OA
ATOM    101  O   UNL A   1      47.019  25.863  38.684  1.00  0.00    -0.237 OA
ATOM    102  O   UNL A   1      45.069  24.856  37.562  1.00  0.00    -0.744 OA
ENDBRANCH  95  99
ENDBRANCH  69  92
ENDBRANCH  43  44
ENDBRANCH  35  38
ENDBRANCH  33  34
ENDBRANCH  32  33
ENDBRANCH  31  32
ENDBRANCH  30  31
ENDBRANCH   1  30
TORSDOF 21
ENDMDL
MODEL 3
REMARK VINA RESULT:     -10.3      6.084     11.807
REMARK SMILES C[N@H+]1Cc2ccccc2C[C@@H]1C(=O)NCCC(=O)NCC(=O)NCCCCCCNC(=O)c1ccc(-c2c3nc(c(-c4cc(S(=O)(=O)[O-])ccc4F)c4ccc([nH]4)c(-c4cc(S(=O)(=O)[O-])ccc4F)c4nc(c(-c5cc(S(=O)(=O)[O-])ccc5F)c5ccc2[nH]5)C=C4)C=C3)cc1
REMARK SMILES IDX 25 1 24 2 23 3 21 4 22 5 20 7 19 8 17 9 18 10 16 12 15 13
REMARK SMILES IDX 14 14 12 15 13 16 11 18 1 19 2 20 3 21 4 23 10 24 5 25 9 26
REMARK SMILES IDX 6 27 8 28 7 29 26 30 27 31 28 32 29 33 30 34 31 35 32 37
REMARK SMILES IDX 33 38 34 39 95 40 35 41 94 42 36 43 37 44 38 45 88 46 39 47
REMARK SMILES IDX 93 48 87 49 89 50 40 51 92 52 86 53 85 54 41 56 73 57 53 58
REMARK SMILES IDX 72 59 54 60 57 61 71 62 90 63 55 64 56 65 70 67 91 68 58 69
REMARK SMILES IDX 42 70 43 71 51 72 44 73 50 74 52 75 49 76 45 77 46 78 47 79
REMARK SMILES IDX 48 80 74 81 75 82 83 83 76 84 82 85 84 86 81 87 77 88 78 89
REMARK SMILES IDX 79 90 80 91 59 92 60 93 68 94 61 95 67 96 69 97 66 98 62 99
REMARK SMILES IDX 63 100 64 101 65 102
REMARK H PARENT 23 6 19 11 14 17 2 22 30 36 89 55 57 66
REMARK Flexibility Score: inf
ROOT
ATOM      1  C   UNL A   1      40.228  23.439  26.757  1.00  0.00     0.021 C 
ENDROOT
BRANCH   1   2
ATOM      2  C   UNL A   1      38.790  23.751  26.376  1.00  0.00     0.116 C 
BRANCH   2   3
ATOM      3  N   UNL A   1      38.042  22.590  25.921  1.00  0.00    -0.355 N 
ATOM      4  C   UNL A   1      36.711  22.322  25.782  1.00  0.00     0.239 C 
ATOM      5  O   UNL A   1      36.420  21.220  25.303  1.00  0.00    -0.273 OA
ATOM      6  H   UNL A   1      38.618  21.837  25.655  1.00  0.00     0.163 HD
BRANCH   4   7
ATOM      7  C   UNL A   1      35.593  23.363  26.026  1.00  0.00     0.216 C 
BRANCH   7   8
ATOM      8  N   UNL A   1      34.407  22.916  26.731  1.00  0.00    -0.347 N 
ATOM      9  C   UNL A   1      33.179  23.487  26.855  1.00  0.00     0.222 C 
ATOM     10  O   UNL A   1      32.374  22.950  27.618  1.00  0.00    -0.275 OA
ATOM     11  H   UNL A   1      34.509  22.055  27.198  1.00  0.00     0.164 HD
BRANCH   9  12
ATOM     12  C   UNL A   1      32.817  24.757  26.113  1.00  0.00     0.121 C 
BRANCH  12  13
ATOM     13  C   UNL A   1      32.339  24.525  24.676  1.00  0.00     0.126 C 
BRANCH  13  14
ATOM     14  N   UNL A   1      33.127  25.265  23.694  1.00  0.00    -0.350 N 
ATOM     15  C   UNL A   1      32.753  25.809  22.507  1.00  0.00     0.278 C 
ATOM     16  O   UNL A   1      33.372  25.406  21.513  1.00  0.00    -0.268 OA
ATOM     17  H   UNL A   1      34.075  25.387  23.928  1.00  0.00     0.163 HD
BRANCH  15  18
ATOM     18  C   UNL A   1      31.779  26.999  22.398  1.00  0.00     0.278 C 
ATOM     19  C   UNL A   1      33.762  28.498  22.500  1.00  0.00     0.333 C 
ATOM     20  N   UNL A   1      32.382  28.265  22.936  1.00  0.00    -0.323 N 
ATOM     21  C   UNL A   1      31.553  29.411  22.501  1.00  0.00     0.299 C 
ATOM     22  H   UNL A   1      32.402  28.168  23.951  1.00  0.00     0.348 HD
ATOM     23  C   UNL A   1      30.070  29.233  22.740  1.00  0.00     0.010 A 
ATOM     24  C   UNL A   1      30.441  26.773  23.107  1.00  0.00     0.111 C 
ATOM     25  C   UNL A   1      29.206  30.330  22.627  1.00  0.00     0.010 A 
ATOM     26  C   UNL A   1      29.530  27.967  23.011  1.00  0.00    -0.033 A 
ATOM     27  C   UNL A   1      27.831  30.171  22.815  1.00  0.00     0.001 A 
ATOM     28  C   UNL A   1      28.155  27.818  23.228  1.00  0.00     0.004 A 
ATOM     29  C   UNL A   1      27.309  28.918  23.125  1.00  0.00     0.000 A 
ENDBRANCH  15  18
ENDBRANCH  13  14
ENDBRANCH  12  13
ENDBRANCH   9  12
ENDBRANCH   7   8
ENDBRANCH   4   7
ENDBRANCH   2   3
ENDBRANCH   1   2
BRANCH   1  30
ATOM     30  C   UNL A   1      40.381  22.277  27.740  1.00  0.00     0.002 C 
BRANCH  30  31
ATOM     31  C   UNL A   1      41.789  21.679  27.860  1.00  0.00     0.002 C 
BRANCH  31  32
ATOM     32  C   UNL A   1      41.963  20.241  27.359  1.00  0.00     0.021 C 
BRANCH  32  33
ATOM     33  C   UNL A   1      41.760  20.032  25.860  1.00  0.00     0.116 C 
BRANCH  33  34
ATOM     34  N   UNL A   1      42.952  19.533  25.201  1.00  0.00    -0.352 N 
ATOM     35  C   UNL A   1      44.119  20.174  24.880  1.00  0.00     0.251 C 
ATOM     36  H   UNL A   1      42.917  18.584  24.943  1.00  0.00     0.163 HD
ATOM     37  O   UNL A   1      44.944  19.589  24.173  1.00  0.00    -0.269 OA
BRANCH  35  38
ATOM     38  C   UNL A   1      44.388  21.553  25.342  1.00  0.00     0.039 A 
ATOM     39  C   UNL A   1      43.889  22.616  24.583  1.00  0.00     0.014 A 
ATOM     40  C   UNL A   1      45.152  21.815  26.484  1.00  0.00     0.014 A 
ATOM     41  C   UNL A   1      44.112  23.932  24.994  1.00  0.00     0.010 A 
ATOM     42  C   UNL A   1      45.311  23.128  26.933  1.00  0.00     0.010 A 
ATOM     43  C   UNL A   1      44.797  24.201  26.190  1.00  0.00    -0.014 A 
BRANCH  43  44
ATOM     44  C   UNL A   1      44.969  25.601  26.664  1.00  0.00     0.031 A 
ATOM     45  C   UNL A   1      46.311  26.281  26.579  1.00  0.00     0.074 A 
ATOM     46  C   UNL A   1      43.912  26.257  27.185  1.00  0.00     0.049 A 
ATOM     47  N   UNL A   1      46.647  27.494  26.938  1.00  0.00    -0.248 NA
ATOM     48  C   UNL A   1      47.425  25.485  26.043  1.00  0.00     0.031 C 
ATOM     49  C   UNL A   1      42.571  25.691  27.353  1.00  0.00     0.029 A 
ATOM     50  N   UNL A   1      43.790  27.538  27.662  1.00  0.00    -0.354 N 
ATOM     51  C   UNL A   1      48.007  27.609  26.668  1.00  0.00     0.074 A 
ATOM     52  C   UNL A   1      48.444  26.319  26.180  1.00  0.00     0.031 C 
ATOM     53  C   UNL A   1      41.755  26.632  27.856  1.00  0.00     0.029 A 
ATOM     54  C   UNL A   1      42.520  27.852  28.091  1.00  0.00     0.049 A 
ATOM     55  H   UNL A   1      44.542  28.173  27.693  1.00  0.00     0.167 HD
ATOM     56  C   UNL A   1      48.807  28.697  26.790  1.00  0.00     0.034 A 
ATOM     57  C   UNL A   1      42.029  28.990  28.620  1.00  0.00     0.034 A 
ATOM     58  C   UNL A   1      48.355  29.979  27.278  1.00  0.00     0.049 A 
ATOM     59  C   UNL A   1      42.951  30.173  28.779  1.00  0.00     0.074 A 
ATOM     60  C   UNL A   1      49.075  31.155  27.407  1.00  0.00     0.029 A 
ATOM     61  N   UNL A   1      47.068  30.253  27.723  1.00  0.00    -0.354 N 
ATOM     62  N   UNL A   1      44.224  30.278  28.468  1.00  0.00    -0.248 NA
ATOM     63  C   UNL A   1      42.367  31.394  29.344  1.00  0.00     0.031 C 
ATOM     64  C   UNL A   1      48.246  32.115  27.996  1.00  0.00     0.029 A 
ATOM     65  C   UNL A   1      46.983  31.568  28.156  1.00  0.00     0.049 A 
ATOM     66  H   UNL A   1      46.324  29.608  27.730  1.00  0.00     0.167 HD
ATOM     67  C   UNL A   1      44.580  31.590  28.771  1.00  0.00     0.074 A 
ATOM     68  C   UNL A   1      43.382  32.241  29.261  1.00  0.00     0.031 C 
ATOM     69  C   UNL A   1      45.786  32.204  28.655  1.00  0.00     0.034 A 
BRANCH  56  70
ATOM     70  C   UNL A   1      50.262  28.540  26.408  1.00  0.00     0.023 A 
ATOM     71  C   UNL A   1      50.705  28.753  25.090  1.00  0.00     0.031 A 
ATOM     72  C   UNL A   1      51.218  28.169  27.369  1.00  0.00     0.131 A 
ATOM     73  C   UNL A   1      52.050  28.532  24.757  1.00  0.00     0.055 A 
ATOM     74  C   UNL A   1      52.571  28.028  27.049  1.00  0.00     0.041 A 
ATOM     75  F   UNL A   1      50.854  27.930  28.639  1.00  0.00    -0.206 F 
ATOM     76  C   UNL A   1      52.991  28.197  25.733  1.00  0.00     0.022 A 
BRANCH  73  77
ATOM     77  S   UNL A   1      52.527  28.558  23.007  1.00  0.00     0.124 S 
ATOM     78  O   UNL A   1      52.158  29.919  22.622  1.00  0.00    -0.237 OA
ATOM     79  O   UNL A   1      53.956  28.275  23.065  1.00  0.00    -0.237 OA
ATOM     80  O   UNL A   1      51.705  27.507  22.412  1.00  0.00    -0.744 OA
ENDBRANCH  73  77
ENDBRANCH  56  70
BRANCH  57  81
ATOM     81  C   UNL A   1      40.601  29.079  29.046  1.00  0.00     0.023 A 
ATOM     82  C   UNL A   1      40.248  29.056  30.405  1.00  0.00     0.031 A 
ATOM     83  C   UNL A   1      39.562  29.118  28.098  1.00  0.00     0.131 A 
ATOM     84  C   UNL A   1      38.895  29.007  30.778  1.00  0.00     0.055 A 
ATOM     85  C   UNL A   1      38.219  29.136  28.476  1.00  0.00     0.041 A 
ATOM     86  F   UNL A   1      39.840  29.143  26.785  1.00  0.00    -0.206 F 
ATOM     87  C   UNL A   1      37.878  29.062  29.822  1.00  0.00     0.022 A 
BRANCH  84  88
ATOM     88  S   UNL A   1      38.487  28.749  32.526  1.00  0.00     0.124 S 
ATOM     89  O   UNL A   1      37.029  28.783  32.498  1.00  0.00    -0.237 OA
ATOM     90  O   UNL A   1      39.094  27.449  32.790  1.00  0.00    -0.237 OA
ATOM     91  O   UNL A   1      39.125  29.881  33.194  1.00  0.00    -0.744 OA
ENDBRANCH  84  88
ENDBRANCH  57  81
BRANCH  69  92
ATOM     92  C   UNL A   1      45.846  33.667  29.027  1.00  0.00     0.023 A 
ATOM     93  C   UNL A   1      45.355  34.669  28.170  1.00  0.00     0.031 A 
ATOM     94  C   UNL A   1      46.435  34.067  30.239  1.00  0.00     0.131 A 
ATOM     95  C   UNL A   1      45.532  36.021  28.502  1.00  0.00     0.055 A 
ATOM     96  C   UNL A   1      46.543  35.411  30.597  1.00  0.00     0.041 A 
ATOM     97  F   UNL A   1      46.924  33.155  31.095  1.00  0.00    -0.206 F 
ATOM     98  C   UNL A   1      46.106  36.398  29.718  1.00  0.00     0.022 A 
BRANCH  95  99
ATOM     99  S   UNL A   1      45.114  37.280  27.264  1.00  0.00     0.124 S 
ATOM    100  O   UNL A   1      43.974  36.671  26.586  1.00  0.00    -0.237 OA
ATOM    101  O   UNL A   1      44.815  38.444  28.092  1.00  0.00    -0.237 OA
ATOM    102  O   UNL A   1      46.329  37.388  26.460  1.00  0.00    -0.744 OA
ENDBRANCH  95  99
ENDBRANCH  69  92
ENDBRANCH  43  44
ENDBRANCH  35  38
ENDBRANCH  33  34
ENDBRANCH  32  33
ENDBRANCH  31  32
ENDBRANCH  30  31
ENDBRANCH   1  30
TORSDOF 21
ENDMDL
