MODEL 1
REMARK VINA RESULT:     -11.6      0.000      0.000
REMARK SMILES COCC[C@]1(C(=O)NCCCCCCNC(=O)c2ccc(-c3c4nc(c(-c5cc(S(=O)(=O)[O-])ccc5F)c5ccc([nH]5)c(-c5cc(S(=O)(=O)[O-])ccc5F)c5nc(c(-c6cc(S(=O)(=O)[O-])ccc6F)c6ccc3[nH]6)C=C5)C=C4)cc2)CCCN(C(=O)c2ccc(=O)[nH]c2)C1
REMARK SMILES IDX 11 1 10 2 9 3 8 4 6 5 7 6 5 8 81 9 94 10 82 11 84 12 83 13
REMARK SMILES IDX 4 14 3 15 2 16 1 17 85 18 86 19 87 20 88 21 93 22 89 23
REMARK SMILES IDX 92 24 90 25 91 27 12 28 13 29 14 30 15 31 16 32 17 34 18 35
REMARK SMILES IDX 19 36 80 37 20 38 79 39 21 40 22 41 23 42 73 43 24 44 78 45
REMARK SMILES IDX 72 46 74 47 25 48 77 49 71 50 70 51 26 53 58 54 38 55 57 56
REMARK SMILES IDX 39 57 42 58 56 59 75 60 40 61 41 62 55 64 76 65 43 66 27 67
REMARK SMILES IDX 28 68 36 69 29 70 35 71 37 72 34 73 30 74 31 75 32 76 33 77
REMARK SMILES IDX 59 78 60 79 68 80 61 81 67 82 69 83 66 84 62 85 63 86 64 87
REMARK SMILES IDX 65 88 44 89 45 90 53 91 46 92 52 93 54 94 51 95 47 96 48 97
REMARK SMILES IDX 49 98 50 99
REMARK H PARENT 8 7 92 26 15 33 74 52 42 63
REMARK Flexibility Score: inf
ROOT
ATOM      1  C   UNL A   1      33.056  29.437  25.966  1.00  0.00     0.002 C 
ENDROOT
BRANCH   1   2
ATOM      2  C   UNL A   1      32.972  28.248  26.927  1.00  0.00     0.021 C 
BRANCH   2   3
ATOM      3  C   UNL A   1      32.977  26.896  26.216  1.00  0.00     0.116 C 
BRANCH   3   4
ATOM      4  N   UNL A   1      31.942  26.032  26.757  1.00  0.00    -0.356 N 
ATOM      5  C   UNL A   1      31.702  24.699  26.628  1.00  0.00     0.228 C 
ATOM      6  O   UNL A   1      30.653  24.286  27.131  1.00  0.00    -0.274 OA
ATOM      7  H   UNL A   1      31.290  26.501  27.326  1.00  0.00     0.163 HD
BRANCH   5   8
ATOM      8  C   UNL A   1      32.692  23.745  25.927  1.00  0.00     0.069 C 
ATOM      9  C   UNL A   1      34.131  23.892  26.478  1.00  0.00     0.021 C 
ATOM     10  C   UNL A   1      32.139  22.303  26.117  1.00  0.00     0.136 C 
ATOM     11  C   UNL A   1      35.047  22.746  26.055  1.00  0.00     0.023 C 
ATOM     12  N   UNL A   1      33.116  21.276  25.749  1.00  0.00    -0.338 N 
ATOM     13  C   UNL A   1      34.421  21.405  26.398  1.00  0.00     0.120 C 
BRANCH   8  14
ATOM     14  C   UNL A   1      32.682  24.038  24.383  1.00  0.00     0.047 C 
BRANCH  14  15
ATOM     15  C   UNL A   1      31.311  24.347  23.762  1.00  0.00     0.161 C 
BRANCH  15  16
ATOM     16  O   UNL A   1      31.461  25.017  22.506  1.00  0.00    -0.385 OA
ATOM     17  C   UNL A   1      31.274  26.423  22.565  1.00  0.00     0.194 C 
ENDBRANCH  15  16
ENDBRANCH  14  15
ENDBRANCH   8  14
BRANCH  12  18
ATOM     18  C   UNL A   1      32.748  20.323  24.809  1.00  0.00     0.255 C 
ATOM     19  O   UNL A   1      32.049  20.582  23.829  1.00  0.00    -0.269 OA
BRANCH  18  20
ATOM     20  C   UNL A   1      33.305  18.950  24.946  1.00  0.00     0.056 A 
ATOM     21  C   UNL A   1      34.508  18.494  24.278  1.00  0.00     0.021 A 
ATOM     22  C   UNL A   1      32.655  18.125  25.781  1.00  0.00     0.099 A 
ATOM     23  C   UNL A   1      34.925  17.225  24.418  1.00  0.00     0.072 A 
ATOM     24  N   UNL A   1      33.089  16.833  25.955  1.00  0.00    -0.328 N 
ATOM     25  C   UNL A   1      34.178  16.296  25.310  1.00  0.00     0.247 A 
ATOM     26  H   UNL A   1      32.590  16.255  26.578  1.00  0.00     0.169 HD
ATOM     27  O   UNL A   1      34.528  15.131  25.455  1.00  0.00    -0.270 OA
ENDBRANCH  18  20
ENDBRANCH  12  18
ENDBRANCH   5   8
ENDBRANCH   3   4
ENDBRANCH   2   3
ENDBRANCH   1   2
BRANCH   1  28
ATOM     28  C   UNL A   1      31.747  30.216  25.800  1.00  0.00     0.002 C 
BRANCH  28  29
ATOM     29  C   UNL A   1      31.589  31.419  26.735  1.00  0.00     0.021 C 
BRANCH  29  30
ATOM     30  C   UNL A   1      32.907  32.066  27.147  1.00  0.00     0.116 C 
BRANCH  30  31
ATOM     31  N   UNL A   1      32.735  33.477  27.448  1.00  0.00    -0.352 N 
ATOM     32  C   UNL A   1      33.310  34.225  28.444  1.00  0.00     0.251 C 
ATOM     33  H   UNL A   1      32.118  33.964  26.854  1.00  0.00     0.163 HD
ATOM     34  O   UNL A   1      32.854  35.331  28.715  1.00  0.00    -0.269 OA
BRANCH  32  35
ATOM     35  C   UNL A   1      34.465  33.683  29.189  1.00  0.00     0.039 A 
ATOM     36  C   UNL A   1      34.243  32.752  30.205  1.00  0.00     0.014 A 
ATOM     37  C   UNL A   1      35.765  34.109  28.895  1.00  0.00     0.014 A 
ATOM     38  C   UNL A   1      35.330  32.213  30.898  1.00  0.00     0.010 A 
ATOM     39  C   UNL A   1      36.849  33.518  29.537  1.00  0.00     0.010 A 
ATOM     40  C   UNL A   1      36.644  32.573  30.552  1.00  0.00    -0.014 A 
BRANCH  40  41
ATOM     41  C   UNL A   1      37.813  31.995  31.263  1.00  0.00     0.031 A 
ATOM     42  C   UNL A   1      38.608  30.890  30.620  1.00  0.00     0.074 A 
ATOM     43  C   UNL A   1      38.126  32.427  32.500  1.00  0.00     0.049 A 
ATOM     44  N   UNL A   1      39.605  30.195  31.104  1.00  0.00    -0.248 NA
ATOM     45  C   UNL A   1      38.207  30.497  29.260  1.00  0.00     0.031 C 
ATOM     46  C   UNL A   1      37.413  33.474  33.236  1.00  0.00     0.029 A 
ATOM     47  N   UNL A   1      39.120  32.036  33.362  1.00  0.00    -0.354 N 
ATOM     48  C   UNL A   1      39.945  29.280  30.114  1.00  0.00     0.074 A 
ATOM     49  C   UNL A   1      39.002  29.463  29.031  1.00  0.00     0.031 C 
ATOM     50  C   UNL A   1      38.010  33.660  34.424  1.00  0.00     0.029 A 
ATOM     51  C   UNL A   1      39.114  32.716  34.559  1.00  0.00     0.049 A 
ATOM     52  H   UNL A   1      39.777  31.336  33.144  1.00  0.00     0.167 HD
ATOM     53  C   UNL A   1      40.967  28.388  30.097  1.00  0.00     0.034 A 
ATOM     54  C   UNL A   1      39.903  32.582  35.644  1.00  0.00     0.034 A 
ATOM     55  C   UNL A   1      41.906  28.226  31.181  1.00  0.00     0.049 A 
ATOM     56  C   UNL A   1      41.008  31.554  35.618  1.00  0.00     0.074 A 
ATOM     57  C   UNL A   1      42.994  27.376  31.259  1.00  0.00     0.029 A 
ATOM     58  N   UNL A   1      41.866  28.929  32.379  1.00  0.00    -0.354 N 
ATOM     59  N   UNL A   1      41.335  30.718  34.659  1.00  0.00    -0.248 NA
ATOM     60  C   UNL A   1      41.856  31.462  36.813  1.00  0.00     0.031 C 
ATOM     61  C   UNL A   1      43.574  27.518  32.525  1.00  0.00     0.029 A 
ATOM     62  C   UNL A   1      42.896  28.514  33.209  1.00  0.00     0.049 A 
ATOM     63  H   UNL A   1      41.203  29.621  32.605  1.00  0.00     0.167 HD
ATOM     64  C   UNL A   1      42.454  30.030  35.124  1.00  0.00     0.074 A 
ATOM     65  C   UNL A   1      42.749  30.560  36.440  1.00  0.00     0.031 C 
ATOM     66  C   UNL A   1      43.177  29.053  34.519  1.00  0.00     0.034 A 
BRANCH  53  67
ATOM     67  C   UNL A   1      41.104  27.511  28.876  1.00  0.00     0.023 A 
ATOM     68  C   UNL A   1      42.110  27.734  27.918  1.00  0.00     0.031 A 
ATOM     69  C   UNL A   1      40.207  26.451  28.651  1.00  0.00     0.131 A 
ATOM     70  C   UNL A   1      42.148  26.962  26.748  1.00  0.00     0.055 A 
ATOM     71  C   UNL A   1      40.304  25.631  27.525  1.00  0.00     0.041 A 
ATOM     72  F   UNL A   1      39.212  26.202  29.517  1.00  0.00    -0.206 F 
ATOM     73  C   UNL A   1      41.269  25.894  26.557  1.00  0.00     0.022 A 
BRANCH  70  74
ATOM     74  S   UNL A   1      43.271  27.465  25.416  1.00  0.00     0.124 S 
ATOM     75  O   UNL A   1      44.223  28.306  26.137  1.00  0.00    -0.237 OA
ATOM     76  O   UNL A   1      43.783  26.187  24.935  1.00  0.00    -0.237 OA
ATOM     77  O   UNL A   1      42.400  28.180  24.486  1.00  0.00    -0.744 OA
ENDBRANCH  70  74
ENDBRANCH  53  67
BRANCH  54  78
ATOM     78  C   UNL A   1      39.686  33.430  36.852  1.00  0.00     0.023 A 
ATOM     79  C   UNL A   1      39.022  32.922  37.980  1.00  0.00     0.031 A 
ATOM     80  C   UNL A   1      40.080  34.781  36.874  1.00  0.00     0.131 A 
ATOM     81  C   UNL A   1      38.715  33.771  39.055  1.00  0.00     0.055 A 
ATOM     82  C   UNL A   1      39.827  35.605  37.972  1.00  0.00     0.041 A 
ATOM     83  F   UNL A   1      40.723  35.319  35.826  1.00  0.00    -0.206 F 
ATOM     84  C   UNL A   1      39.126  35.105  39.065  1.00  0.00     0.022 A 
BRANCH  81  85
ATOM     85  S   UNL A   1      37.673  33.130  40.394  1.00  0.00     0.124 S 
ATOM     86  O   UNL A   1      36.455  32.776  39.676  1.00  0.00    -0.237 OA
ATOM     87  O   UNL A   1      38.473  32.016  40.892  1.00  0.00    -0.237 OA
ATOM     88  O   UNL A   1      37.554  34.266  41.305  1.00  0.00    -0.744 OA
ENDBRANCH  81  85
ENDBRANCH  54  78
BRANCH  66  89
ATOM     89  C   UNL A   1      44.391  28.541  35.254  1.00  0.00     0.023 A 
ATOM     90  C   UNL A   1      45.663  29.116  35.079  1.00  0.00     0.031 A 
ATOM     91  C   UNL A   1      44.273  27.451  36.135  1.00  0.00     0.131 A 
ATOM     92  C   UNL A   1      46.775  28.561  35.730  1.00  0.00     0.055 A 
ATOM     93  C   UNL A   1      45.373  26.945  36.828  1.00  0.00     0.041 A 
ATOM     94  F   UNL A   1      43.084  26.863  36.339  1.00  0.00    -0.206 F 
ATOM     95  C   UNL A   1      46.635  27.490  36.616  1.00  0.00     0.022 A 
BRANCH  92  96
ATOM     96  S   UNL A   1      48.425  29.198  35.327  1.00  0.00     0.124 S 
ATOM     97  O   UNL A   1      48.621  28.698  33.970  1.00  0.00    -0.237 OA
ATOM     98  O   UNL A   1      48.242  30.640  35.454  1.00  0.00    -0.237 OA
ATOM     99  O   UNL A   1      49.284  28.591  36.343  1.00  0.00    -0.744 OA
ENDBRANCH  92  96
ENDBRANCH  66  89
ENDBRANCH  40  41
ENDBRANCH  32  35
ENDBRANCH  30  31
ENDBRANCH  29  30
ENDBRANCH  28  29
ENDBRANCH   1  28
TORSDOF 21
ENDMDL
MODEL 2
REMARK VINA RESULT:     -11.5      2.095      7.679
REMARK SMILES COCC[C@]1(C(=O)NCCCCCCNC(=O)c2ccc(-c3c4nc(c(-c5cc(S(=O)(=O)[O-])ccc5F)c5ccc([nH]5)c(-c5cc(S(=O)(=O)[O-])ccc5F)c5nc(c(-c6cc(S(=O)(=O)[O-])ccc6F)c6ccc3[nH]6)C=C5)C=C4)cc2)CCCN(C(=O)c2ccc(=O)[nH]c2)C1
REMARK SMILES IDX 11 1 10 2 9 3 8 4 6 5 7 6 5 8 81 9 94 10 82 11 84 12 83 13
REMARK SMILES IDX 4 14 3 15 2 16 1 17 85 18 86 19 87 20 88 21 93 22 89 23
REMARK SMILES IDX 92 24 90 25 91 27 12 28 13 29 14 30 15 31 16 32 17 34 18 35
REMARK SMILES IDX 19 36 80 37 20 38 79 39 21 40 22 41 23 42 73 43 24 44 78 45
REMARK SMILES IDX 72 46 74 47 25 48 77 49 71 50 70 51 26 53 58 54 38 55 57 56
REMARK SMILES IDX 39 57 42 58 56 59 75 60 40 61 41 62 55 64 76 65 43 66 27 67
REMARK SMILES IDX 28 68 36 69 29 70 35 71 37 72 34 73 30 74 31 75 32 76 33 77
REMARK SMILES IDX 59 78 60 79 68 80 61 81 67 82 69 83 66 84 62 85 63 86 64 87
REMARK SMILES IDX 65 88 44 89 45 90 53 91 46 92 52 93 54 94 51 95 47 96 48 97
REMARK SMILES IDX 49 98 50 99
REMARK H PARENT 8 7 92 26 15 33 74 52 42 63
REMARK Flexibility Score: inf
ROOT
ATOM      1  C   UNL A   1      32.654  30.207  26.108  1.00  0.00     0.002 C 
ENDROOT
BRANCH   1   2
ATOM      2  C   UNL A   1      32.579  28.747  25.654  1.00  0.00     0.021 C 
BRANCH   2   3
ATOM      3  C   UNL A   1      32.782  27.748  26.792  1.00  0.00     0.116 C 
BRANCH   3   4
ATOM      4  N   UNL A   1      31.646  26.848  26.888  1.00  0.00    -0.356 N 
ATOM      5  C   UNL A   1      31.382  25.644  26.312  1.00  0.00     0.228 C 
ATOM      6  O   UNL A   1      30.254  25.183  26.514  1.00  0.00    -0.274 OA
ATOM      7  H   UNL A   1      30.932  27.170  27.484  1.00  0.00     0.163 HD
BRANCH   5   8
ATOM      8  C   UNL A   1      32.432  24.874  25.484  1.00  0.00     0.069 C 
ATOM      9  C   UNL A   1      33.877  25.179  25.950  1.00  0.00     0.021 C 
ATOM     10  C   UNL A   1      32.086  23.363  25.609  1.00  0.00     0.136 C 
ATOM     11  C   UNL A   1      34.899  24.194  25.389  1.00  0.00     0.023 C 
ATOM     12  N   UNL A   1      33.157  22.499  25.107  1.00  0.00    -0.338 N 
ATOM     13  C   UNL A   1      34.479  22.762  25.678  1.00  0.00     0.120 C 
BRANCH   8  14
ATOM     14  C   UNL A   1      32.271  25.257  23.969  1.00  0.00     0.047 C 
BRANCH  14  15
ATOM     15  C   UNL A   1      30.863  25.090  23.375  1.00  0.00     0.161 C 
BRANCH  15  16
ATOM     16  O   UNL A   1      30.187  26.349  23.310  1.00  0.00    -0.385 OA
ATOM     17  C   UNL A   1      30.831  27.320  22.498  1.00  0.00     0.194 C 
ENDBRANCH  15  16
ENDBRANCH  14  15
ENDBRANCH   8  14
BRANCH  12  18
ATOM     18  C   UNL A   1      32.847  21.565  24.130  1.00  0.00     0.255 C 
ATOM     19  O   UNL A   1      32.705  21.858  22.942  1.00  0.00    -0.269 OA
BRANCH  18  20
ATOM     20  C   UNL A   1      32.778  20.132  24.524  1.00  0.00     0.056 A 
ATOM     21  C   UNL A   1      32.565  19.045  23.590  1.00  0.00     0.021 A 
ATOM     22  C   UNL A   1      32.975  19.862  25.824  1.00  0.00     0.099 A 
ATOM     23  C   UNL A   1      32.472  17.779  24.029  1.00  0.00     0.072 A 
ATOM     24  N   UNL A   1      32.911  18.568  26.280  1.00  0.00    -0.328 N 
ATOM     25  C   UNL A   1      32.645  17.484  25.477  1.00  0.00     0.247 A 
ATOM     26  H   UNL A   1      33.063  18.406  27.240  1.00  0.00     0.169 HD
ATOM     27  O   UNL A   1      32.560  16.341  25.912  1.00  0.00    -0.270 OA
ENDBRANCH  18  20
ENDBRANCH  12  18
ENDBRANCH   5   8
ENDBRANCH   3   4
ENDBRANCH   2   3
ENDBRANCH   1   2
BRANCH   1  28
ATOM     28  C   UNL A   1      31.294  30.879  26.323  1.00  0.00     0.002 C 
BRANCH  28  29
ATOM     29  C   UNL A   1      31.361  32.359  26.712  1.00  0.00     0.021 C 
BRANCH  29  30
ATOM     30  C   UNL A   1      32.760  32.849  27.067  1.00  0.00     0.116 C 
BRANCH  30  31
ATOM     31  N   UNL A   1      32.721  34.156  27.701  1.00  0.00    -0.352 N 
ATOM     32  C   UNL A   1      33.402  34.601  28.804  1.00  0.00     0.251 C 
ATOM     33  H   UNL A   1      32.121  34.813  27.279  1.00  0.00     0.163 HD
ATOM     34  O   UNL A   1      33.054  35.641  29.357  1.00  0.00    -0.269 OA
BRANCH  32  35
ATOM     35  C   UNL A   1      34.541  33.818  29.326  1.00  0.00     0.039 A 
ATOM     36  C   UNL A   1      35.840  34.189  28.972  1.00  0.00     0.014 A 
ATOM     37  C   UNL A   1      34.324  32.707  30.149  1.00  0.00     0.014 A 
ATOM     38  C   UNL A   1      36.925  33.472  29.481  1.00  0.00     0.010 A 
ATOM     39  C   UNL A   1      35.408  32.040  30.711  1.00  0.00     0.010 A 
ATOM     40  C   UNL A   1      36.720  32.407  30.375  1.00  0.00    -0.014 A 
BRANCH  40  41
ATOM     41  C   UNL A   1      37.862  31.646  30.942  1.00  0.00     0.031 A 
ATOM     42  C   UNL A   1      38.332  31.937  32.343  1.00  0.00     0.074 A 
ATOM     43  C   UNL A   1      38.504  30.736  30.185  1.00  0.00     0.049 A 
ATOM     44  N   UNL A   1      39.358  31.450  32.992  1.00  0.00    -0.248 NA
ATOM     45  C   UNL A   1      37.559  32.932  33.103  1.00  0.00     0.031 C 
ATOM     46  C   UNL A   1      38.156  30.386  28.806  1.00  0.00     0.029 A 
ATOM     47  N   UNL A   1      39.588  29.941  30.463  1.00  0.00    -0.354 N 
ATOM     48  C   UNL A   1      39.359  32.081  34.230  1.00  0.00     0.074 A 
ATOM     49  C   UNL A   1      38.272  33.037  34.214  1.00  0.00     0.031 C 
ATOM     50  C   UNL A   1      38.991  29.430  28.370  1.00  0.00     0.029 A 
ATOM     51  C   UNL A   1      39.964  29.131  29.415  1.00  0.00     0.049 A 
ATOM     52  H   UNL A   1      40.051  29.947  31.331  1.00  0.00     0.167 HD
ATOM     53  C   UNL A   1      40.172  31.864  35.294  1.00  0.00     0.034 A 
ATOM     54  C   UNL A   1      40.986  28.258  29.308  1.00  0.00     0.034 A 
ATOM     55  C   UNL A   1      41.244  30.899  35.298  1.00  0.00     0.049 A 
ATOM     56  C   UNL A   1      41.903  28.063  30.492  1.00  0.00     0.074 A 
ATOM     57  C   UNL A   1      42.110  30.575  36.327  1.00  0.00     0.029 A 
ATOM     58  N   UNL A   1      41.599  30.100  34.217  1.00  0.00    -0.354 N 
ATOM     59  N   UNL A   1      41.869  28.647  31.668  1.00  0.00    -0.248 NA
ATOM     60  C   UNL A   1      42.986  27.085  30.336  1.00  0.00     0.031 C 
ATOM     61  C   UNL A   1      43.026  29.631  35.851  1.00  0.00     0.029 A 
ATOM     62  C   UNL A   1      42.684  29.304  34.549  1.00  0.00     0.049 A 
ATOM     63  H   UNL A   1      41.144  30.099  33.343  1.00  0.00     0.167 HD
ATOM     64  C   UNL A   1      42.903  28.073  32.405  1.00  0.00     0.074 A 
ATOM     65  C   UNL A   1      43.529  27.091  31.544  1.00  0.00     0.031 C 
ATOM     66  C   UNL A   1      43.297  28.329  33.679  1.00  0.00     0.034 A 
BRANCH  53  67
ATOM     67  C   UNL A   1      39.940  32.702  36.529  1.00  0.00     0.023 A 
ATOM     68  C   UNL A   1      39.060  32.289  37.544  1.00  0.00     0.031 A 
ATOM     69  C   UNL A   1      40.589  33.940  36.686  1.00  0.00     0.131 A 
ATOM     70  C   UNL A   1      38.794  33.136  38.630  1.00  0.00     0.055 A 
ATOM     71  C   UNL A   1      40.386  34.740  37.812  1.00  0.00     0.041 A 
ATOM     72  F   UNL A   1      41.425  34.400  35.740  1.00  0.00    -0.206 F 
ATOM     73  C   UNL A   1      39.472  34.347  38.786  1.00  0.00     0.022 A 
BRANCH  70  74
ATOM     74  S   UNL A   1      37.446  32.697  39.760  1.00  0.00     0.124 S 
ATOM     75  O   UNL A   1      37.471  33.819  40.696  1.00  0.00    -0.237 OA
ATOM     76  O   UNL A   1      36.294  32.634  38.868  1.00  0.00    -0.237 OA
ATOM     77  O   UNL A   1      37.872  31.418  40.322  1.00  0.00    -0.744 OA
ENDBRANCH  70  74
ENDBRANCH  53  67
BRANCH  54  78
ATOM     78  C   UNL A   1      41.210  27.500  28.043  1.00  0.00     0.023 A 
ATOM     79  C   UNL A   1      40.934  26.126  27.968  1.00  0.00     0.031 A 
ATOM     80  C   UNL A   1      41.767  28.122  26.911  1.00  0.00     0.131 A 
ATOM     81  C   UNL A   1      41.270  25.405  26.811  1.00  0.00     0.055 A 
ATOM     82  C   UNL A   1      42.043  27.412  25.740  1.00  0.00     0.041 A 
ATOM     83  F   UNL A   1      42.048  29.434  26.925  1.00  0.00    -0.206 F 
ATOM     84  C   UNL A   1      41.810  26.041  25.692  1.00  0.00     0.022 A 
BRANCH  81  85
ATOM     85  S   UNL A   1      41.093  23.600  26.834  1.00  0.00     0.124 S 
ATOM     86  O   UNL A   1      42.081  23.194  25.842  1.00  0.00    -0.237 OA
ATOM     87  O   UNL A   1      41.408  23.283  28.223  1.00  0.00    -0.237 OA
ATOM     88  O   UNL A   1      39.699  23.391  26.449  1.00  0.00    -0.744 OA
ENDBRANCH  81  85
ENDBRANCH  54  78
BRANCH  66  89
ATOM     89  C   UNL A   1      44.421  27.487  34.232  1.00  0.00     0.023 A 
ATOM     90  C   UNL A   1      44.190  26.230  34.817  1.00  0.00     0.031 A 
ATOM     91  C   UNL A   1      45.745  27.960  34.181  1.00  0.00     0.131 A 
ATOM     92  C   UNL A   1      45.257  25.516  35.381  1.00  0.00     0.055 A 
ATOM     93  C   UNL A   1      46.810  27.216  34.687  1.00  0.00     0.041 A 
ATOM     94  F   UNL A   1      46.023  29.155  33.635  1.00  0.00    -0.206 F 
ATOM     95  C   UNL A   1      46.569  25.993  35.305  1.00  0.00     0.022 A 
BRANCH  92  96
ATOM     96  S   UNL A   1      44.896  23.996  36.303  1.00  0.00     0.124 S 
ATOM     97  O   UNL A   1      43.775  23.442  35.549  1.00  0.00    -0.237 OA
ATOM     98  O   UNL A   1      46.154  23.264  36.202  1.00  0.00    -0.237 OA
ATOM     99  O   UNL A   1      44.566  24.478  37.643  1.00  0.00    -0.744 OA
ENDBRANCH  92  96
ENDBRANCH  66  89
ENDBRANCH  40  41
ENDBRANCH  32  35
ENDBRANCH  30  31
ENDBRANCH  29  30
ENDBRANCH  28  29
ENDBRANCH   1  28
TORSDOF 21
ENDMDL
MODEL 3
REMARK VINA RESULT:     -11.2      3.353      8.164
REMARK SMILES COCC[C@]1(C(=O)NCCCCCCNC(=O)c2ccc(-c3c4nc(c(-c5cc(S(=O)(=O)[O-])ccc5F)c5ccc([nH]5)c(-c5cc(S(=O)(=O)[O-])ccc5F)c5nc(c(-c6cc(S(=O)(=O)[O-])ccc6F)c6ccc3[nH]6)C=C5)C=C4)cc2)CCCN(C(=O)c2ccc(=O)[nH]c2)C1
REMARK SMILES IDX 11 1 10 2 9 3 8 4 6 5 7 6 5 8 81 9 94 10 82 11 84 12 83 13
REMARK SMILES IDX 4 14 3 15 2 16 1 17 85 18 86 19 87 20 88 21 93 22 89 23
REMARK SMILES IDX 92 24 90 25 91 27 12 28 13 29 14 30 15 31 16 32 17 34 18 35
REMARK SMILES IDX 19 36 80 37 20 38 79 39 21 40 22 41 23 42 73 43 24 44 78 45
REMARK SMILES IDX 72 46 74 47 25 48 77 49 71 50 70 51 26 53 58 54 38 55 57 56
REMARK SMILES IDX 39 57 42 58 56 59 75 60 40 61 41 62 55 64 76 65 43 66 27 67
REMARK SMILES IDX 28 68 36 69 29 70 35 71 37 72 34 73 30 74 31 75 32 76 33 77
REMARK SMILES IDX 59 78 60 79 68 80 61 81 67 82 69 83 66 84 62 85 63 86 64 87
REMARK SMILES IDX 65 88 44 89 45 90 53 91 46 92 52 93 54 94 51 95 47 96 48 97
REMARK SMILES IDX 49 98 50 99
REMARK H PARENT 8 7 92 26 15 33 74 52 42 63
REMARK Flexibility Score: inf
ROOT
ATOM      1  C   UNL A   1      31.390  28.820  24.824  1.00  0.00     0.002 C 
ENDROOT
BRANCH   1   2
ATOM      2  C   UNL A   1      31.638  28.580  23.332  1.00  0.00     0.021 C 
BRANCH   2   3
ATOM      3  C   UNL A   1      30.901  27.359  22.786  1.00  0.00     0.116 C 
BRANCH   3   4
ATOM      4  N   UNL A   1      31.713  26.675  21.795  1.00  0.00    -0.356 N 
ATOM      5  C   UNL A   1      32.687  25.732  21.903  1.00  0.00     0.228 C 
ATOM      6  O   UNL A   1      33.273  25.435  20.858  1.00  0.00    -0.274 OA
ATOM      7  H   UNL A   1      31.521  26.945  20.868  1.00  0.00     0.163 HD
BRANCH   5   8
ATOM      8  C   UNL A   1      33.025  25.041  23.241  1.00  0.00     0.069 C 
ATOM      9  C   UNL A   1      33.766  25.990  24.215  1.00  0.00     0.021 C 
ATOM     10  C   UNL A   1      31.683  24.528  23.836  1.00  0.00     0.136 C 
ATOM     11  C   UNL A   1      33.810  25.454  25.644  1.00  0.00     0.023 C 
ATOM     12  N   UNL A   1      31.814  24.102  25.231  1.00  0.00    -0.338 N 
ATOM     13  C   UNL A   1      32.414  25.093  26.124  1.00  0.00     0.120 C 
BRANCH   8  14
ATOM     14  C   UNL A   1      33.912  23.776  22.956  1.00  0.00     0.047 C 
BRANCH  14  15
ATOM     15  C   UNL A   1      35.332  23.799  23.545  1.00  0.00     0.161 C 
BRANCH  15  16
ATOM     16  O   UNL A   1      36.153  22.799  22.932  1.00  0.00    -0.385 OA
ATOM     17  C   UNL A   1      36.979  22.082  23.838  1.00  0.00     0.194 C 
ENDBRANCH  15  16
ENDBRANCH  14  15
ENDBRANCH   8  14
BRANCH  12  18
ATOM     18  C   UNL A   1      31.414  22.817  25.568  1.00  0.00     0.255 C 
ATOM     19  O   UNL A   1      30.317  22.565  26.070  1.00  0.00    -0.269 OA
BRANCH  18  20
ATOM     20  C   UNL A   1      32.315  21.685  25.220  1.00  0.00     0.056 A 
ATOM     21  C   UNL A   1      32.109  20.805  24.088  1.00  0.00     0.021 A 
ATOM     22  C   UNL A   1      33.400  21.529  25.994  1.00  0.00     0.099 A 
ATOM     23  C   UNL A   1      32.945  19.778  23.862  1.00  0.00     0.072 A 
ATOM     24  N   UNL A   1      34.278  20.499  25.756  1.00  0.00    -0.328 N 
ATOM     25  C   UNL A   1      34.123  19.577  24.748  1.00  0.00     0.247 A 
ATOM     26  H   UNL A   1      35.066  20.416  26.342  1.00  0.00     0.169 HD
ATOM     27  O   UNL A   1      34.902  18.647  24.575  1.00  0.00    -0.270 OA
ENDBRANCH  18  20
ENDBRANCH  12  18
ENDBRANCH   5   8
ENDBRANCH   3   4
ENDBRANCH   2   3
ENDBRANCH   1   2
BRANCH   1  28
ATOM     28  C   UNL A   1      32.661  28.932  25.672  1.00  0.00     0.002 C 
BRANCH  28  29
ATOM     29  C   UNL A   1      32.624  30.021  26.749  1.00  0.00     0.021 C 
BRANCH  29  30
ATOM     30  C   UNL A   1      33.999  30.495  27.204  1.00  0.00     0.116 C 
BRANCH  30  31
ATOM     31  N   UNL A   1      33.916  31.758  27.918  1.00  0.00    -0.352 N 
ATOM     32  C   UNL A   1      34.667  32.203  28.976  1.00  0.00     0.251 C 
ATOM     33  H   UNL A   1      33.224  32.380  27.599  1.00  0.00     0.163 HD
ATOM     34  O   UNL A   1      34.292  33.176  29.623  1.00  0.00    -0.269 OA
BRANCH  32  35
ATOM     35  C   UNL A   1      35.915  31.497  29.335  1.00  0.00     0.039 A 
ATOM     36  C   UNL A   1      37.124  31.933  28.790  1.00  0.00     0.014 A 
ATOM     37  C   UNL A   1      35.887  30.394  30.196  1.00  0.00     0.014 A 
ATOM     38  C   UNL A   1      38.312  31.290  29.143  1.00  0.00     0.010 A 
ATOM     39  C   UNL A   1      37.079  29.802  30.602  1.00  0.00     0.010 A 
ATOM     40  C   UNL A   1      38.303  30.235  30.072  1.00  0.00    -0.014 A 
BRANCH  40  41
ATOM     41  C   UNL A   1      39.559  29.553  30.475  1.00  0.00     0.031 A 
ATOM     42  C   UNL A   1      40.319  30.040  31.681  1.00  0.00     0.074 A 
ATOM     43  C   UNL A   1      40.039  28.537  29.733  1.00  0.00     0.049 A 
ATOM     44  N   UNL A   1      41.474  29.641  32.149  1.00  0.00    -0.248 NA
ATOM     45  C   UNL A   1      39.711  31.141  32.442  1.00  0.00     0.031 C 
ATOM     46  C   UNL A   1      39.404  27.995  28.529  1.00  0.00     0.029 A 
ATOM     47  N   UNL A   1      41.175  27.780  29.875  1.00  0.00    -0.354 N 
ATOM     48  C   UNL A   1      41.733  30.445  33.253  1.00  0.00     0.074 A 
ATOM     49  C   UNL A   1      40.648  31.399  33.341  1.00  0.00     0.031 C 
ATOM     50  C   UNL A   1      40.143  26.978  28.061  1.00  0.00     0.029 A 
ATOM     51  C   UNL A   1      41.329  26.824  28.897  1.00  0.00     0.049 A 
ATOM     52  H   UNL A   1      41.818  27.908  30.609  1.00  0.00     0.167 HD
ATOM     53  C   UNL A   1      42.766  30.376  34.131  1.00  0.00     0.034 A 
ATOM     54  C   UNL A   1      42.322  25.934  28.693  1.00  0.00     0.034 A 
ATOM     55  C   UNL A   1      43.833  29.411  34.036  1.00  0.00     0.049 A 
ATOM     56  C   UNL A   1      43.481  25.904  29.660  1.00  0.00     0.074 A 
ATOM     57  C   UNL A   1      44.912  29.231  34.883  1.00  0.00     0.029 A 
ATOM     58  N   UNL A   1      43.959  28.461  33.029  1.00  0.00    -0.354 N 
ATOM     59  N   UNL A   1      43.694  26.652  30.718  1.00  0.00    -0.248 NA
ATOM     60  C   UNL A   1      44.526  24.903  29.410  1.00  0.00     0.031 C 
ATOM     61  C   UNL A   1      45.722  28.219  34.357  1.00  0.00     0.029 A 
ATOM     62  C   UNL A   1      45.109  27.711  33.223  1.00  0.00     0.049 A 
ATOM     63  H   UNL A   1      43.323  28.338  32.287  1.00  0.00     0.167 HD
ATOM     64  C   UNL A   1      44.877  26.180  31.282  1.00  0.00     0.074 A 
ATOM     65  C   UNL A   1      45.321  25.078  30.454  1.00  0.00     0.031 C 
ATOM     66  C   UNL A   1      45.537  26.614  32.388  1.00  0.00     0.034 A 
BRANCH  53  67
ATOM     67  C   UNL A   1      42.793  31.386  35.253  1.00  0.00     0.023 A 
ATOM     68  C   UNL A   1      43.459  32.618  35.119  1.00  0.00     0.031 A 
ATOM     69  C   UNL A   1      42.165  31.109  36.481  1.00  0.00     0.131 A 
ATOM     70  C   UNL A   1      43.547  33.491  36.214  1.00  0.00     0.055 A 
ATOM     71  C   UNL A   1      42.183  32.020  37.539  1.00  0.00     0.041 A 
ATOM     72  F   UNL A   1      41.533  29.941  36.678  1.00  0.00    -0.206 F 
ATOM     73  C   UNL A   1      42.890  33.213  37.415  1.00  0.00     0.022 A 
BRANCH  70  74
ATOM     74  S   UNL A   1      44.650  34.924  36.091  1.00  0.00     0.124 S 
ATOM     75  O   UNL A   1      45.748  34.524  36.968  1.00  0.00    -0.237 OA
ATOM     76  O   UNL A   1      44.954  34.968  34.665  1.00  0.00    -0.237 OA
ATOM     77  O   UNL A   1      43.834  36.028  36.590  1.00  0.00    -0.744 OA
ENDBRANCH  70  74
ENDBRANCH  53  67
BRANCH  54  78
ATOM     78  C   UNL A   1      42.279  24.999  27.532  1.00  0.00     0.023 A 
ATOM     79  C   UNL A   1      41.564  23.794  27.603  1.00  0.00     0.031 A 
ATOM     80  C   UNL A   1      43.007  25.264  26.357  1.00  0.00     0.131 A 
ATOM     81  C   UNL A   1      41.639  22.870  26.549  1.00  0.00     0.055 A 
ATOM     82  C   UNL A   1      43.029  24.368  25.286  1.00  0.00     0.041 A 
ATOM     83  F   UNL A   1      43.706  26.402  26.232  1.00  0.00    -0.206 F 
ATOM     84  C   UNL A   1      42.355  23.155  25.386  1.00  0.00     0.022 A 
BRANCH  81  85
ATOM     85  S   UNL A   1      40.875  21.240  26.770  1.00  0.00     0.124 S 
ATOM     86  O   UNL A   1      39.596  21.419  26.093  1.00  0.00    -0.237 OA
ATOM     87  O   UNL A   1      41.836  20.364  26.109  1.00  0.00    -0.237 OA
ATOM     88  O   UNL A   1      40.799  21.095  28.222  1.00  0.00    -0.744 OA
ENDBRANCH  81  85
ENDBRANCH  54  78
BRANCH  66  89
ATOM     89  C   UNL A   1      46.774  25.850  32.793  1.00  0.00     0.023 A 
ATOM     90  C   UNL A   1      46.723  24.789  33.713  1.00  0.00     0.031 A 
ATOM     91  C   UNL A   1      48.025  26.202  32.255  1.00  0.00     0.131 A 
ATOM     92  C   UNL A   1      47.909  24.155  34.113  1.00  0.00     0.055 A 
ATOM     93  C   UNL A   1      49.193  25.525  32.610  1.00  0.00     0.041 A 
ATOM     94  F   UNL A   1      48.132  27.209  31.374  1.00  0.00    -0.206 F 
ATOM     95  C   UNL A   1      49.142  24.505  33.554  1.00  0.00     0.022 A 
BRANCH  92  96
ATOM     96  S   UNL A   1      47.833  22.929  35.448  1.00  0.00     0.124 S 
ATOM     97  O   UNL A   1      49.206  22.930  35.941  1.00  0.00    -0.237 OA
ATOM     98  O   UNL A   1      46.835  23.504  36.342  1.00  0.00    -0.237 OA
ATOM     99  O   UNL A   1      47.420  21.704  34.764  1.00  0.00    -0.744 OA
ENDBRANCH  92  96
ENDBRANCH  66  89
ENDBRANCH  40  41
ENDBRANCH  32  35
ENDBRANCH  30  31
ENDBRANCH  29  30
ENDBRANCH  28  29
ENDBRANCH   1  28
TORSDOF 21
ENDMDL
