MODEL 1
REMARK VINA RESULT:     -11.7      0.000      0.000
REMARK SMILES O=C(COc1ccccc1[C@@H]1C2=C(CCCC2=O)Nc2nc(SCc3ccccn3)nn21)NCCCCCCNC(=O)c1ccc(-c2c3nc(c(-c4cc(S(=O)(=O)[O-])ccc4F)c4ccc([nH]4)c(-c4cc(S(=O)(=O)[O-])ccc4F)c4nc(c(-c5cc(S(=O)(=O)[O-])ccc5F)c5ccc2[nH]5)C=C4)C=C3)cc1
REMARK SMILES IDX 35 1 34 2 33 3 1 4 2 5 3 7 4 8 5 9 6 10 10 11 7 12 9 13 8 14
REMARK SMILES IDX 11 15 12 16 32 17 13 18 17 19 20 20 31 21 14 22 19 23 16 24
REMARK SMILES IDX 18 25 21 26 22 27 15 28 23 30 24 31 25 32 26 33 30 34 27 35
REMARK SMILES IDX 29 36 28 37 36 38 37 39 38 40 39 41 40 42 41 43 42 45 43 46
REMARK SMILES IDX 44 47 105 48 45 49 104 50 46 51 47 52 48 53 98 54 49 55
REMARK SMILES IDX 103 56 97 57 99 58 50 59 102 60 96 61 95 62 51 64 83 65
REMARK SMILES IDX 63 66 82 67 64 68 67 69 81 70 100 71 65 72 66 73 80 75
REMARK SMILES IDX 101 76 68 77 52 78 53 79 61 80 54 81 60 82 62 83 59 84 55 85
REMARK SMILES IDX 56 86 57 87 58 88 84 89 85 90 93 91 86 92 92 93 94 94 91 95
REMARK SMILES IDX 87 96 88 97 89 98 90 99 69 100 70 101 78 102 71 103 77 104
REMARK SMILES IDX 79 105 76 106 72 107 73 108 74 109 75 110
REMARK H PARENT 33 6 19 29 40 44 99 63 67 74
REMARK Flexibility Score: inf
ROOT
ATOM      1  C   UNL A   1      34.557  20.380  24.951  1.00  0.00     0.021 C 
ENDROOT
BRANCH   1   2
ATOM      2  C   UNL A   1      33.093  20.388  24.521  1.00  0.00     0.116 C 
BRANCH   2   3
ATOM      3  N   UNL A   1      32.679  21.759  24.227  1.00  0.00    -0.353 N 
ATOM      4  O   UNL A   1      31.160  21.592  25.638  1.00  0.00    -0.271 OA
ATOM      5  C   UNL A   1      31.553  22.459  24.806  1.00  0.00     0.257 C 
ATOM      6  H   UNL A   1      33.219  22.255  23.569  1.00  0.00     0.163 HD
BRANCH   5   7
ATOM      7  C   UNL A   1      30.792  24.511  24.535  1.00  0.00     0.329 C 
BRANCH   7   8
ATOM      8  O   UNL A   1      31.263  25.924  24.794  1.00  0.00    -0.483 OA
BRANCH   8   9
ATOM      9  C   UNL A   1      31.978  26.509  23.790  1.00  0.00     0.125 A 
ATOM     10  C   UNL A   1      32.891  25.753  23.073  1.00  0.00     0.047 A 
ATOM     11  C   UNL A   1      31.969  27.887  23.711  1.00  0.00     0.024 A 
ATOM     12  C   UNL A   1      33.836  26.411  22.286  1.00  0.00     0.004 A 
ATOM     13  C   UNL A   1      32.891  28.554  22.909  1.00  0.00     0.010 A 
ATOM     14  C   UNL A   1      33.836  27.808  22.206  1.00  0.00     0.001 A 
BRANCH  11  15
ATOM     15  C   UNL A   1      31.226  28.520  24.834  1.00  0.00     0.181 C 
ATOM     16  C   UNL A   1      29.888  29.677  23.952  1.00  0.00     0.044 C 
ATOM     17  N   UNL A   1      32.353  29.438  25.999  1.00  0.00    -0.218 N 
ATOM     18  C   UNL A   1      29.788  31.240  24.244  1.00  0.00     0.027 C 
ATOM     19  C   UNL A   1      28.911  29.016  23.077  1.00  0.00     0.163 C 
ATOM     20  C   UNL A   1      32.055  31.144  26.348  1.00  0.00     0.227 A 
ATOM     21  N   UNL A   1      33.476  29.121  26.656  1.00  0.00    -0.141 NA
ATOM     22  C   UNL A   1      28.796  32.089  23.515  1.00  0.00     0.055 C 
ATOM     23  N   UNL A   1      30.789  31.963  25.543  1.00  0.00    -0.328 N 
ATOM     24  C   UNL A   1      27.913  29.882  22.345  1.00  0.00     0.081 C 
ATOM     25  O   UNL A   1      28.846  27.790  23.058  1.00  0.00    -0.294 OA
ATOM     26  N   UNL A   1      32.969  31.412  27.238  1.00  0.00    -0.185 NA
ATOM     27  C   UNL A   1      33.723  30.230  27.393  1.00  0.00     0.210 A 
ATOM     28  C   UNL A   1      28.198  31.388  22.283  1.00  0.00     0.014 C 
ATOM     29  H   UNL A   1      30.598  32.891  25.811  1.00  0.00     0.169 HD
BRANCH  27  30
ATOM     30  S   UNL A   1      35.082  30.177  28.511  1.00  0.00    -0.078 SA
BRANCH  30  31
ATOM     31  C   UNL A   1      36.493  29.984  27.377  1.00  0.00     0.134 C 
BRANCH  31  32
ATOM     32  C   UNL A   1      37.753  29.459  28.025  1.00  0.00     0.051 A 
ATOM     33  C   UNL A   1      37.749  28.972  29.331  1.00  0.00     0.025 A 
ATOM     34  N   UNL A   1      38.878  29.464  27.267  1.00  0.00    -0.260 NA
ATOM     35  C   UNL A   1      38.918  28.420  29.847  1.00  0.00     0.003 A 
ATOM     36  C   UNL A   1      39.990  28.903  27.781  1.00  0.00     0.111 A 
ATOM     37  C   UNL A   1      40.057  28.367  29.053  1.00  0.00     0.020 A 
ENDBRANCH  31  32
ENDBRANCH  30  31
ENDBRANCH  27  30
ENDBRANCH  11  15
ENDBRANCH   8   9
ENDBRANCH   7   8
ENDBRANCH   5   7
ENDBRANCH   2   3
ENDBRANCH   1   2
BRANCH   1  38
ATOM     38  C   UNL A   1      35.171  21.753  25.254  1.00  0.00     0.002 C 
BRANCH  38  39
ATOM     39  C   UNL A   1      36.598  22.022  24.755  1.00  0.00     0.002 C 
BRANCH  39  40
ATOM     40  C   UNL A   1      37.134  23.440  24.925  1.00  0.00     0.021 C 
BRANCH  40  41
ATOM     41  C   UNL A   1      38.126  23.576  26.061  1.00  0.00     0.116 C 
BRANCH  41  42
ATOM     42  N   UNL A   1      38.685  22.288  26.487  1.00  0.00    -0.352 N 
ATOM     43  C   UNL A   1      40.031  21.985  26.651  1.00  0.00     0.251 C 
ATOM     44  H   UNL A   1      38.042  21.568  26.676  1.00  0.00     0.163 HD
ATOM     45  O   UNL A   1      40.446  20.838  26.551  1.00  0.00    -0.269 OA
BRANCH  43  46
ATOM     46  C   UNL A   1      40.917  23.086  27.059  1.00  0.00     0.039 A 
ATOM     47  C   UNL A   1      40.581  24.120  27.937  1.00  0.00     0.014 A 
ATOM     48  C   UNL A   1      42.204  22.974  26.572  1.00  0.00     0.014 A 
ATOM     49  C   UNL A   1      41.582  25.037  28.278  1.00  0.00     0.010 A 
ATOM     50  C   UNL A   1      43.171  23.554  27.317  1.00  0.00     0.010 A 
ATOM     51  C   UNL A   1      42.902  24.762  27.902  1.00  0.00    -0.014 A 
BRANCH  51  52
ATOM     52  C   UNL A   1      44.094  25.477  28.331  1.00  0.00     0.031 A 
ATOM     53  C   UNL A   1      44.281  25.350  29.794  1.00  0.00     0.074 A 
ATOM     54  C   UNL A   1      45.019  25.964  27.461  1.00  0.00     0.049 A 
ATOM     55  N   UNL A   1      43.876  26.200  30.676  1.00  0.00    -0.248 NA
ATOM     56  C   UNL A   1      44.640  24.042  30.375  1.00  0.00     0.031 C 
ATOM     57  C   UNL A   1      45.057  25.924  25.992  1.00  0.00     0.029 A 
ATOM     58  N   UNL A   1      46.197  26.597  27.746  1.00  0.00    -0.354 N 
ATOM     59  C   UNL A   1      44.287  25.684  31.893  1.00  0.00     0.074 A 
ATOM     60  C   UNL A   1      44.439  24.273  31.676  1.00  0.00     0.031 C 
ATOM     61  C   UNL A   1      46.282  26.300  25.539  1.00  0.00     0.029 A 
ATOM     62  C   UNL A   1      47.085  26.749  26.661  1.00  0.00     0.049 A 
ATOM     63  H   UNL A   1      46.412  26.924  28.649  1.00  0.00     0.167 HD
ATOM     64  C   UNL A   1      44.807  26.514  32.838  1.00  0.00     0.034 A 
ATOM     65  C   UNL A   1      48.373  27.224  26.726  1.00  0.00     0.034 A 
ATOM     66  C   UNL A   1      44.535  27.897  32.490  1.00  0.00     0.049 A 
ATOM     67  C   UNL A   1      48.410  28.053  27.971  1.00  0.00     0.074 A 
ATOM     68  C   UNL A   1      43.381  28.612  32.226  1.00  0.00     0.029 A 
ATOM     69  N   UNL A   1      45.557  28.612  31.896  1.00  0.00    -0.354 N 
ATOM     70  N   UNL A   1      47.688  29.140  28.100  1.00  0.00    -0.248 NA
ATOM     71  C   UNL A   1      48.713  27.357  29.218  1.00  0.00     0.031 C 
ATOM     72  C   UNL A   1      43.692  29.381  31.063  1.00  0.00     0.029 A 
ATOM     73  C   UNL A   1      45.049  29.224  30.772  1.00  0.00     0.049 A 
ATOM     74  H   UNL A   1      46.484  28.673  32.219  1.00  0.00     0.167 HD
ATOM     75  C   UNL A   1      47.084  29.028  29.347  1.00  0.00     0.074 A 
ATOM     76  C   UNL A   1      47.778  27.911  30.002  1.00  0.00     0.031 C 
ATOM     77  C   UNL A   1      45.860  29.583  29.616  1.00  0.00     0.034 A 
BRANCH  64  78
ATOM     78  C   UNL A   1      45.914  26.145  33.801  1.00  0.00     0.023 A 
ATOM     79  C   UNL A   1      47.196  25.981  33.245  1.00  0.00     0.031 A 
ATOM     80  C   UNL A   1      45.751  25.665  35.120  1.00  0.00     0.131 A 
ATOM     81  C   UNL A   1      48.194  25.270  33.929  1.00  0.00     0.055 A 
ATOM     82  C   UNL A   1      46.769  25.016  35.823  1.00  0.00     0.041 A 
ATOM     83  F   UNL A   1      44.587  25.709  35.777  1.00  0.00    -0.206 F 
ATOM     84  C   UNL A   1      47.990  24.784  35.216  1.00  0.00     0.022 A 
BRANCH  81  85
ATOM     85  S   UNL A   1      49.698  24.832  33.023  1.00  0.00     0.124 S 
ATOM     86  O   UNL A   1      49.804  23.406  33.306  1.00  0.00    -0.237 OA
ATOM     87  O   UNL A   1      49.338  25.193  31.655  1.00  0.00    -0.237 OA
ATOM     88  O   UNL A   1      50.721  25.673  33.640  1.00  0.00    -0.744 OA
ENDBRANCH  81  85
ENDBRANCH  64  78
BRANCH  65  89
ATOM     89  C   UNL A   1      49.603  26.612  26.083  1.00  0.00     0.023 A 
ATOM     90  C   UNL A   1      50.325  27.149  24.975  1.00  0.00     0.031 A 
ATOM     91  C   UNL A   1      50.232  25.537  26.751  1.00  0.00     0.131 A 
ATOM     92  C   UNL A   1      51.589  26.600  24.591  1.00  0.00     0.055 A 
ATOM     93  C   UNL A   1      51.476  25.015  26.380  1.00  0.00     0.041 A 
ATOM     94  F   UNL A   1      49.690  24.992  27.851  1.00  0.00    -0.206 F 
ATOM     95  C   UNL A   1      52.162  25.547  25.305  1.00  0.00     0.022 A 
BRANCH  92  96
ATOM     96  S   UNL A   1      52.562  27.247  23.171  1.00  0.00     0.124 S 
ATOM     97  O   UNL A   1      51.528  27.805  22.307  1.00  0.00    -0.237 OA
ATOM     98  O   UNL A   1      53.462  28.201  23.807  1.00  0.00    -0.237 OA
ATOM     99  O   UNL A   1      53.225  26.056  22.633  1.00  0.00    -0.744 OA
ENDBRANCH  92  96
ENDBRANCH  65  89
BRANCH  77 100
ATOM    100  C   UNL A   1      45.223  30.528  28.604  1.00  0.00     0.023 A 
ATOM    101  C   UNL A   1      45.603  31.870  28.346  1.00  0.00     0.031 A 
ATOM    102  C   UNL A   1      44.261  29.958  27.751  1.00  0.00     0.131 A 
ATOM    103  C   UNL A   1      45.010  32.580  27.272  1.00  0.00     0.055 A 
ATOM    104  C   UNL A   1      43.706  30.650  26.677  1.00  0.00     0.041 A 
ATOM    105  F   UNL A   1      43.871  28.685  27.924  1.00  0.00    -0.206 F 
ATOM    106  C   UNL A   1      44.074  31.966  26.436  1.00  0.00     0.022 A 
BRANCH 103 107
ATOM    107  S   UNL A   1      45.410  34.336  26.954  1.00  0.00     0.124 S 
ATOM    108  O   UNL A   1      44.539  35.052  27.878  1.00  0.00    -0.237 OA
ATOM    109  O   UNL A   1      46.839  34.398  27.247  1.00  0.00    -0.237 OA
ATOM    110  O   UNL A   1      45.073  34.513  25.539  1.00  0.00    -0.744 OA
ENDBRANCH 103 107
ENDBRANCH  77 100
ENDBRANCH  51  52
ENDBRANCH  43  46
ENDBRANCH  41  42
ENDBRANCH  40  41
ENDBRANCH  39  40
ENDBRANCH  38  39
ENDBRANCH   1  38
TORSDOF 22
ENDMDL
MODEL 2
REMARK VINA RESULT:     -11.7      2.380      6.606
REMARK SMILES O=C(COc1ccccc1[C@@H]1C2=C(CCCC2=O)Nc2nc(SCc3ccccn3)nn21)NCCCCCCNC(=O)c1ccc(-c2c3nc(c(-c4cc(S(=O)(=O)[O-])ccc4F)c4ccc([nH]4)c(-c4cc(S(=O)(=O)[O-])ccc4F)c4nc(c(-c5cc(S(=O)(=O)[O-])ccc5F)c5ccc2[nH]5)C=C4)C=C3)cc1
REMARK SMILES IDX 35 1 34 2 33 3 1 4 2 5 3 7 4 8 5 9 6 10 10 11 7 12 9 13 8 14
REMARK SMILES IDX 11 15 12 16 32 17 13 18 17 19 20 20 31 21 14 22 19 23 16 24
REMARK SMILES IDX 18 25 21 26 22 27 15 28 23 30 24 31 25 32 26 33 30 34 27 35
REMARK SMILES IDX 29 36 28 37 36 38 37 39 38 40 39 41 40 42 41 43 42 45 43 46
REMARK SMILES IDX 44 47 105 48 45 49 104 50 46 51 47 52 48 53 98 54 49 55
REMARK SMILES IDX 103 56 97 57 99 58 50 59 102 60 96 61 95 62 51 64 83 65
REMARK SMILES IDX 63 66 82 67 64 68 67 69 81 70 100 71 65 72 66 73 80 75
REMARK SMILES IDX 101 76 68 77 52 78 53 79 61 80 54 81 60 82 62 83 59 84 55 85
REMARK SMILES IDX 56 86 57 87 58 88 84 89 85 90 93 91 86 92 92 93 94 94 91 95
REMARK SMILES IDX 87 96 88 97 89 98 90 99 69 100 70 101 78 102 71 103 77 104
REMARK SMILES IDX 79 105 76 106 72 107 73 108 74 109 75 110
REMARK H PARENT 33 6 19 29 40 44 99 63 67 74
REMARK Flexibility Score: inf
ROOT
ATOM      1  C   UNL A   1      35.054  20.747  24.990  1.00  0.00     0.021 C 
ENDROOT
BRANCH   1   2
ATOM      2  C   UNL A   1      33.684  20.637  24.327  1.00  0.00     0.116 C 
BRANCH   2   3
ATOM      3  N   UNL A   1      33.095  21.968  24.199  1.00  0.00    -0.353 N 
ATOM      4  O   UNL A   1      31.491  21.360  25.376  1.00  0.00    -0.271 OA
ATOM      5  C   UNL A   1      31.825  22.401  24.740  1.00  0.00     0.257 C 
ATOM      6  H   UNL A   1      33.613  22.637  23.695  1.00  0.00     0.163 HD
BRANCH   5   7
ATOM      7  C   UNL A   1      30.787  24.346  24.697  1.00  0.00     0.329 C 
BRANCH   7   8
ATOM      8  O   UNL A   1      31.145  25.809  24.829  1.00  0.00    -0.483 OA
BRANCH   8   9
ATOM      9  C   UNL A   1      31.821  26.356  23.776  1.00  0.00     0.125 A 
ATOM     10  C   UNL A   1      32.695  25.569  23.045  1.00  0.00     0.047 A 
ATOM     11  C   UNL A   1      31.820  27.731  23.654  1.00  0.00     0.024 A 
ATOM     12  C   UNL A   1      33.611  26.193  22.198  1.00  0.00     0.004 A 
ATOM     13  C   UNL A   1      32.712  28.363  22.792  1.00  0.00     0.010 A 
ATOM     14  C   UNL A   1      33.620  27.586  22.074  1.00  0.00     0.001 A 
BRANCH  11  15
ATOM     15  C   UNL A   1      31.132  28.406  24.787  1.00  0.00     0.181 C 
ATOM     16  C   UNL A   1      29.741  29.518  23.930  1.00  0.00     0.044 C 
ATOM     17  N   UNL A   1      32.311  29.377  25.853  1.00  0.00    -0.218 N 
ATOM     18  C   UNL A   1      29.645  31.092  24.162  1.00  0.00     0.027 C 
ATOM     19  C   UNL A   1      28.725  28.817  23.135  1.00  0.00     0.163 C 
ATOM     20  C   UNL A   1      32.019  31.095  26.147  1.00  0.00     0.227 A 
ATOM     21  N   UNL A   1      33.470  29.093  26.463  1.00  0.00    -0.141 NA
ATOM     22  C   UNL A   1      28.611  31.905  23.451  1.00  0.00     0.055 C 
ATOM     23  N   UNL A   1      30.708  31.873  25.377  1.00  0.00    -0.328 N 
ATOM     24  C   UNL A   1      27.684  29.647  22.421  1.00  0.00     0.081 C 
ATOM     25  O   UNL A   1      28.668  27.591  23.169  1.00  0.00    -0.294 OA
ATOM     26  N   UNL A   1      32.976  31.404  26.976  1.00  0.00    -0.185 NA
ATOM     27  C   UNL A   1      33.746  30.234  27.140  1.00  0.00     0.210 A 
ATOM     28  C   UNL A   1      27.954  31.151  22.282  1.00  0.00     0.014 C 
ATOM     29  H   UNL A   1      30.524  32.810  25.615  1.00  0.00     0.169 HD
BRANCH  27  30
ATOM     30  S   UNL A   1      35.162  30.234  28.187  1.00  0.00    -0.078 SA
BRANCH  30  31
ATOM     31  C   UNL A   1      35.630  31.993  28.182  1.00  0.00     0.134 C 
BRANCH  31  32
ATOM     32  C   UNL A   1      36.924  32.300  28.900  1.00  0.00     0.051 A 
ATOM     33  C   UNL A   1      37.705  31.288  29.455  1.00  0.00     0.025 A 
ATOM     34  N   UNL A   1      37.296  33.604  28.958  1.00  0.00    -0.260 NA
ATOM     35  C   UNL A   1      38.930  31.620  30.027  1.00  0.00     0.003 A 
ATOM     36  C   UNL A   1      38.496  33.896  29.497  1.00  0.00     0.111 A 
ATOM     37  C   UNL A   1      39.343  32.946  30.035  1.00  0.00     0.020 A 
ENDBRANCH  31  32
ENDBRANCH  30  31
ENDBRANCH  27  30
ENDBRANCH  11  15
ENDBRANCH   8   9
ENDBRANCH   7   8
ENDBRANCH   5   7
ENDBRANCH   2   3
ENDBRANCH   1   2
BRANCH   1  38
ATOM     38  C   UNL A   1      35.535  22.173  25.293  1.00  0.00     0.002 C 
BRANCH  38  39
ATOM     39  C   UNL A   1      37.011  22.362  25.670  1.00  0.00     0.002 C 
BRANCH  39  40
ATOM     40  C   UNL A   1      37.445  23.766  26.084  1.00  0.00     0.021 C 
BRANCH  40  41
ATOM     41  C   UNL A   1      38.790  23.799  26.779  1.00  0.00     0.116 C 
BRANCH  41  42
ATOM     42  N   UNL A   1      39.466  22.498  26.778  1.00  0.00    -0.352 N 
ATOM     43  C   UNL A   1      40.829  22.273  26.633  1.00  0.00     0.251 C 
ATOM     44  H   UNL A   1      38.895  21.703  26.892  1.00  0.00     0.163 HD
ATOM     45  O   UNL A   1      41.262  21.218  26.189  1.00  0.00    -0.269 OA
BRANCH  43  46
ATOM     46  C   UNL A   1      41.733  23.317  27.141  1.00  0.00     0.039 A 
ATOM     47  C   UNL A   1      42.643  23.167  28.191  1.00  0.00     0.014 A 
ATOM     48  C   UNL A   1      41.695  24.488  26.412  1.00  0.00     0.014 A 
ATOM     49  C   UNL A   1      43.486  24.247  28.483  1.00  0.00     0.010 A 
ATOM     50  C   UNL A   1      42.826  25.228  26.421  1.00  0.00     0.010 A 
ATOM     51  C   UNL A   1      43.526  25.327  27.594  1.00  0.00    -0.014 A 
BRANCH  51  52
ATOM     52  C   UNL A   1      44.471  26.432  27.614  1.00  0.00     0.031 A 
ATOM     53  C   UNL A   1      45.696  26.087  26.857  1.00  0.00     0.074 A 
ATOM     54  C   UNL A   1      44.145  27.678  28.051  1.00  0.00     0.049 A 
ATOM     55  N   UNL A   1      46.779  25.608  27.367  1.00  0.00    -0.248 NA
ATOM     56  C   UNL A   1      45.632  25.936  25.390  1.00  0.00     0.031 C 
ATOM     57  C   UNL A   1      42.878  28.195  28.590  1.00  0.00     0.029 A 
ATOM     58  N   UNL A   1      44.924  28.801  28.064  1.00  0.00    -0.354 N 
ATOM     59  C   UNL A   1      47.650  25.464  26.300  1.00  0.00     0.074 A 
ATOM     60  C   UNL A   1      46.815  25.367  25.137  1.00  0.00     0.031 C 
ATOM     61  C   UNL A   1      42.913  29.552  28.663  1.00  0.00     0.029 A 
ATOM     62  C   UNL A   1      44.245  30.011  28.317  1.00  0.00     0.049 A 
ATOM     63  H   UNL A   1      45.895  28.769  27.906  1.00  0.00     0.167 HD
ATOM     64  C   UNL A   1      48.960  25.807  26.447  1.00  0.00     0.034 A 
ATOM     65  C   UNL A   1      44.782  31.275  28.245  1.00  0.00     0.034 A 
ATOM     66  C   UNL A   1      49.276  25.977  27.853  1.00  0.00     0.049 A 
ATOM     67  C   UNL A   1      46.253  31.074  28.438  1.00  0.00     0.074 A 
ATOM     68  C   UNL A   1      49.168  25.165  28.967  1.00  0.00     0.029 A 
ATOM     69  N   UNL A   1      49.314  27.269  28.341  1.00  0.00    -0.354 N 
ATOM     70  N   UNL A   1      46.744  30.607  29.561  1.00  0.00    -0.248 NA
ATOM     71  C   UNL A   1      47.041  30.782  27.245  1.00  0.00     0.031 C 
ATOM     72  C   UNL A   1      48.608  26.007  29.975  1.00  0.00     0.029 A 
ATOM     73  C   UNL A   1      48.549  27.314  29.485  1.00  0.00     0.049 A 
ATOM     74  H   UNL A   1      49.801  28.024  27.940  1.00  0.00     0.167 HD
ATOM     75  C   UNL A   1      47.637  29.612  29.179  1.00  0.00     0.074 A 
ATOM     76  C   UNL A   1      47.794  29.785  27.728  1.00  0.00     0.031 C 
ATOM     77  C   UNL A   1      47.895  28.522  29.969  1.00  0.00     0.034 A 
BRANCH  64  78
ATOM     78  C   UNL A   1      49.821  26.419  25.363  1.00  0.00     0.023 A 
ATOM     79  C   UNL A   1      49.139  27.014  24.286  1.00  0.00     0.031 A 
ATOM     80  C   UNL A   1      51.204  26.202  25.170  1.00  0.00     0.131 A 
ATOM     81  C   UNL A   1      49.787  27.249  23.063  1.00  0.00     0.055 A 
ATOM     82  C   UNL A   1      51.859  26.500  23.973  1.00  0.00     0.041 A 
ATOM     83  F   UNL A   1      51.987  25.612  26.080  1.00  0.00    -0.206 F 
ATOM     84  C   UNL A   1      51.144  26.996  22.898  1.00  0.00     0.022 A 
BRANCH  81  85
ATOM     85  S   UNL A   1      48.772  27.716  21.640  1.00  0.00     0.124 S 
ATOM     86  O   UNL A   1      48.592  26.432  20.976  1.00  0.00    -0.237 OA
ATOM     87  O   UNL A   1      47.591  28.279  22.288  1.00  0.00    -0.237 OA
ATOM     88  O   UNL A   1      49.610  28.679  20.929  1.00  0.00    -0.744 OA
ENDBRANCH  81  85
ENDBRANCH  64  78
BRANCH  65  89
ATOM     89  C   UNL A   1      44.179  32.482  27.554  1.00  0.00     0.023 A 
ATOM     90  C   UNL A   1      43.696  33.662  28.197  1.00  0.00     0.031 A 
ATOM     91  C   UNL A   1      44.290  32.563  26.147  1.00  0.00     0.131 A 
ATOM     92  C   UNL A   1      43.347  34.819  27.433  1.00  0.00     0.055 A 
ATOM     93  C   UNL A   1      43.963  33.705  25.408  1.00  0.00     0.041 A 
ATOM     94  F   UNL A   1      44.800  31.548  25.433  1.00  0.00    -0.206 F 
ATOM     95  C   UNL A   1      43.496  34.838  26.045  1.00  0.00     0.022 A 
BRANCH  92  96
ATOM     96  S   UNL A   1      42.715  36.365  28.205  1.00  0.00     0.124 S 
ATOM     97  O   UNL A   1      41.983  36.989  27.109  1.00  0.00    -0.237 OA
ATOM     98  O   UNL A   1      41.918  35.865  29.318  1.00  0.00    -0.237 OA
ATOM     99  O   UNL A   1      43.933  37.077  28.602  1.00  0.00    -0.744 OA
ENDBRANCH  92  96
ENDBRANCH  65  89
BRANCH  77 100
ATOM    100  C   UNL A   1      47.361  28.483  31.396  1.00  0.00     0.023 A 
ATOM    101  C   UNL A   1      46.104  27.974  31.813  1.00  0.00     0.031 A 
ATOM    102  C   UNL A   1      48.268  28.860  32.403  1.00  0.00     0.131 A 
ATOM    103  C   UNL A   1      45.805  27.874  33.194  1.00  0.00     0.055 A 
ATOM    104  C   UNL A   1      47.980  28.728  33.759  1.00  0.00     0.041 A 
ATOM    105  F   UNL A   1      49.484  29.328  32.078  1.00  0.00    -0.206 F 
ATOM    106  C   UNL A   1      46.746  28.240  34.161  1.00  0.00     0.022 A 
BRANCH 103 107
ATOM    107  S   UNL A   1      44.168  27.301  33.777  1.00  0.00     0.124 S 
ATOM    108  O   UNL A   1      43.955  28.074  34.995  1.00  0.00    -0.237 OA
ATOM    109  O   UNL A   1      43.295  27.628  32.654  1.00  0.00    -0.237 OA
ATOM    110  O   UNL A   1      44.366  25.866  33.994  1.00  0.00    -0.744 OA
ENDBRANCH 103 107
ENDBRANCH  77 100
ENDBRANCH  51  52
ENDBRANCH  43  46
ENDBRANCH  41  42
ENDBRANCH  40  41
ENDBRANCH  39  40
ENDBRANCH  38  39
ENDBRANCH   1  38
TORSDOF 22
ENDMDL
MODEL 3
REMARK VINA RESULT:     -11.5      6.606     12.219
REMARK SMILES O=C(COc1ccccc1[C@@H]1C2=C(CCCC2=O)Nc2nc(SCc3ccccn3)nn21)NCCCCCCNC(=O)c1ccc(-c2c3nc(c(-c4cc(S(=O)(=O)[O-])ccc4F)c4ccc([nH]4)c(-c4cc(S(=O)(=O)[O-])ccc4F)c4nc(c(-c5cc(S(=O)(=O)[O-])ccc5F)c5ccc2[nH]5)C=C4)C=C3)cc1
REMARK SMILES IDX 35 1 34 2 33 3 1 4 2 5 3 7 4 8 5 9 6 10 10 11 7 12 9 13 8 14
REMARK SMILES IDX 11 15 12 16 32 17 13 18 17 19 20 20 31 21 14 22 19 23 16 24
REMARK SMILES IDX 18 25 21 26 22 27 15 28 23 30 24 31 25 32 26 33 30 34 27 35
REMARK SMILES IDX 29 36 28 37 36 38 37 39 38 40 39 41 40 42 41 43 42 45 43 46
REMARK SMILES IDX 44 47 105 48 45 49 104 50 46 51 47 52 48 53 98 54 49 55
REMARK SMILES IDX 103 56 97 57 99 58 50 59 102 60 96 61 95 62 51 64 83 65
REMARK SMILES IDX 63 66 82 67 64 68 67 69 81 70 100 71 65 72 66 73 80 75
REMARK SMILES IDX 101 76 68 77 52 78 53 79 61 80 54 81 60 82 62 83 59 84 55 85
REMARK SMILES IDX 56 86 57 87 58 88 84 89 85 90 93 91 86 92 92 93 94 94 91 95
REMARK SMILES IDX 87 96 88 97 89 98 90 99 69 100 70 101 78 102 71 103 77 104
REMARK SMILES IDX 79 105 76 106 72 107 73 108 74 109 75 110
REMARK H PARENT 33 6 19 29 40 44 99 63 67 74
REMARK Flexibility Score: inf
ROOT
ATOM      1  C   UNL A   1      36.624  29.479  28.270  1.00  0.00     0.021 C 
ENDROOT
BRANCH   1   2
ATOM      2  C   UNL A   1      38.059  29.344  28.770  1.00  0.00     0.116 C 
BRANCH   2   3
ATOM      3  N   UNL A   1      38.629  28.088  28.284  1.00  0.00    -0.353 N 
ATOM      4  O   UNL A   1      40.443  29.052  27.955  1.00  0.00    -0.271 OA
ATOM      5  C   UNL A   1      39.966  27.896  27.766  1.00  0.00     0.257 C 
ATOM      6  H   UNL A   1      38.046  27.296  28.311  1.00  0.00     0.163 HD
BRANCH   5   7
ATOM      7  C   UNL A   1      41.021  26.105  27.032  1.00  0.00     0.329 C 
BRANCH   7   8
ATOM      8  O   UNL A   1      42.447  25.621  26.897  1.00  0.00    -0.483 OA
BRANCH   8   9
ATOM      9  C   UNL A   1      42.891  24.788  27.883  1.00  0.00     0.125 A 
ATOM     10  C   UNL A   1      43.003  25.264  29.179  1.00  0.00     0.047 A 
ATOM     11  C   UNL A   1      43.472  23.594  27.504  1.00  0.00     0.024 A 
ATOM     12  C   UNL A   1      43.750  24.530  30.101  1.00  0.00     0.004 A 
ATOM     13  C   UNL A   1      44.198  22.840  28.422  1.00  0.00     0.010 A 
ATOM     14  C   UNL A   1      44.346  23.323  29.722  1.00  0.00     0.001 A 
BRANCH  11  15
ATOM     15  C   UNL A   1      43.600  23.463  26.028  1.00  0.00     0.181 C 
ATOM     16  C   UNL A   1      43.524  21.515  25.697  1.00  0.00     0.044 C 
ATOM     17  N   UNL A   1      45.147  24.270  25.378  1.00  0.00    -0.218 N 
ATOM     18  C   UNL A   1      44.680  20.737  24.924  1.00  0.00     0.027 C 
ATOM     19  C   UNL A   1      42.301  20.818  26.110  1.00  0.00     0.163 C 
ATOM     20  C   UNL A   1      46.291  23.329  24.413  1.00  0.00     0.227 A 
ATOM     21  N   UNL A   1      45.699  25.482  25.518  1.00  0.00    -0.141 NA
ATOM     22  C   UNL A   1      44.610  19.254  24.742  1.00  0.00     0.055 C 
ATOM     23  N   UNL A   1      46.013  21.662  24.163  1.00  0.00    -0.328 N 
ATOM     24  C   UNL A   1      42.239  19.320  25.923  1.00  0.00     0.081 C 
ATOM     25  O   UNL A   1      41.325  21.468  26.475  1.00  0.00    -0.294 OA
ATOM     26  N   UNL A   1      47.178  24.223  24.079  1.00  0.00    -0.185 NA
ATOM     27  C   UNL A   1      46.780  25.423  24.706  1.00  0.00     0.210 A 
ATOM     28  C   UNL A   1      43.558  18.588  25.647  1.00  0.00     0.014 C 
ATOM     29  H   UNL A   1      46.625  21.178  23.562  1.00  0.00     0.169 HD
BRANCH  27  30
ATOM     30  S   UNL A   1      47.734  26.891  24.513  1.00  0.00    -0.078 SA
BRANCH  30  31
ATOM     31  C   UNL A   1      46.444  28.176  24.510  1.00  0.00     0.134 C 
BRANCH  31  32
ATOM     32  C   UNL A   1      46.410  29.034  25.754  1.00  0.00     0.051 A 
ATOM     33  C   UNL A   1      46.241  28.473  27.018  1.00  0.00     0.025 A 
ATOM     34  N   UNL A   1      46.573  30.370  25.579  1.00  0.00    -0.260 NA
ATOM     35  C   UNL A   1      46.304  29.302  28.135  1.00  0.00     0.003 A 
ATOM     36  C   UNL A   1      46.655  31.146  26.677  1.00  0.00     0.111 A 
ATOM     37  C   UNL A   1      46.532  30.662  27.966  1.00  0.00     0.020 A 
ENDBRANCH  31  32
ENDBRANCH  30  31
ENDBRANCH  27  30
ENDBRANCH  11  15
ENDBRANCH   8   9
ENDBRANCH   7   8
ENDBRANCH   5   7
ENDBRANCH   2   3
ENDBRANCH   1   2
BRANCH   1  38
ATOM     38  C   UNL A   1      36.229  30.865  27.742  1.00  0.00     0.002 C 
BRANCH  38  39
ATOM     39  C   UNL A   1      35.262  31.702  28.591  1.00  0.00     0.002 C 
BRANCH  39  40
ATOM     40  C   UNL A   1      35.085  33.165  28.196  1.00  0.00     0.021 C 
BRANCH  40  41
ATOM     41  C   UNL A   1      35.653  34.135  29.212  1.00  0.00     0.116 C 
BRANCH  41  42
ATOM     42  N   UNL A   1      34.615  34.820  29.990  1.00  0.00    -0.352 N 
ATOM     43  C   UNL A   1      34.169  34.474  31.259  1.00  0.00     0.251 C 
ATOM     44  H   UNL A   1      34.191  35.603  29.570  1.00  0.00     0.163 HD
ATOM     45  O   UNL A   1      33.045  34.763  31.645  1.00  0.00    -0.269 OA
BRANCH  43  46
ATOM     46  C   UNL A   1      35.147  33.841  32.158  1.00  0.00     0.039 A 
ATOM     47  C   UNL A   1      35.381  32.468  32.273  1.00  0.00     0.014 A 
ATOM     48  C   UNL A   1      35.933  34.743  32.848  1.00  0.00     0.014 A 
ATOM     49  C   UNL A   1      36.413  32.050  33.121  1.00  0.00     0.010 A 
ATOM     50  C   UNL A   1      37.160  34.305  33.207  1.00  0.00     0.010 A 
ATOM     51  C   UNL A   1      37.286  33.013  33.641  1.00  0.00    -0.014 A 
BRANCH  51  52
ATOM     52  C   UNL A   1      38.522  32.762  34.365  1.00  0.00     0.031 A 
ATOM     53  C   UNL A   1      38.381  33.144  35.789  1.00  0.00     0.074 A 
ATOM     54  C   UNL A   1      39.553  32.044  33.845  1.00  0.00     0.049 A 
ATOM     55  N   UNL A   1      38.723  34.280  36.295  1.00  0.00    -0.248 NA
ATOM     56  C   UNL A   1      37.496  32.360  36.673  1.00  0.00     0.031 C 
ATOM     57  C   UNL A   1      39.697  31.403  32.529  1.00  0.00     0.029 A 
ATOM     58  N   UNL A   1      40.731  31.697  34.446  1.00  0.00    -0.354 N 
ATOM     59  C   UNL A   1      38.431  34.178  37.645  1.00  0.00     0.074 A 
ATOM     60  C   UNL A   1      37.424  33.160  37.741  1.00  0.00     0.031 C 
ATOM     61  C   UNL A   1      40.775  30.576  32.520  1.00  0.00     0.029 A 
ATOM     62  C   UNL A   1      41.496  30.723  33.771  1.00  0.00     0.049 A 
ATOM     63  H   UNL A   1      41.026  32.099  35.294  1.00  0.00     0.167 HD
ATOM     64  C   UNL A   1      39.304  34.676  38.564  1.00  0.00     0.034 A 
ATOM     65  C   UNL A   1      42.637  30.118  34.240  1.00  0.00     0.034 A 
ATOM     66  C   UNL A   1      40.276  35.536  37.913  1.00  0.00     0.049 A 
ATOM     67  C   UNL A   1      43.189  31.076  35.249  1.00  0.00     0.074 A 
ATOM     68  C   UNL A   1      40.182  36.661  37.114  1.00  0.00     0.029 A 
ATOM     69  N   UNL A   1      41.517  34.993  37.641  1.00  0.00    -0.354 N 
ATOM     70  N   UNL A   1      43.606  32.272  34.909  1.00  0.00    -0.248 NA
ATOM     71  C   UNL A   1      42.687  30.958  36.615  1.00  0.00     0.031 C 
ATOM     72  C   UNL A   1      41.100  36.423  36.046  1.00  0.00     0.029 A 
ATOM     73  C   UNL A   1      41.817  35.257  36.323  1.00  0.00     0.049 A 
ATOM     74  H   UNL A   1      42.087  34.504  38.278  1.00  0.00     0.167 HD
ATOM     75  C   UNL A   1      43.027  33.134  35.833  1.00  0.00     0.074 A 
ATOM     76  C   UNL A   1      42.487  32.255  36.880  1.00  0.00     0.031 C 
ATOM     77  C   UNL A   1      42.708  34.430  35.520  1.00  0.00     0.034 A 
BRANCH  64  78
ATOM     78  C   UNL A   1      39.572  34.067  39.922  1.00  0.00     0.023 A 
ATOM     79  C   UNL A   1      39.026  32.791  40.153  1.00  0.00     0.031 A 
ATOM     80  C   UNL A   1      40.049  34.746  41.066  1.00  0.00     0.131 A 
ATOM     81  C   UNL A   1      38.859  32.302  41.458  1.00  0.00     0.055 A 
ATOM     82  C   UNL A   1      39.942  34.226  42.357  1.00  0.00     0.041 A 
ATOM     83  F   UNL A   1      40.562  35.981  41.024  1.00  0.00    -0.206 F 
ATOM     84  C   UNL A   1      39.313  33.012  42.564  1.00  0.00     0.022 A 
BRANCH  81  85
ATOM     85  S   UNL A   1      37.867  30.807  41.684  1.00  0.00     0.124 S 
ATOM     86  O   UNL A   1      38.848  29.888  42.248  1.00  0.00    -0.237 OA
ATOM     87  O   UNL A   1      36.824  31.274  42.593  1.00  0.00    -0.237 OA
ATOM     88  O   UNL A   1      37.417  30.492  40.331  1.00  0.00    -0.744 OA
ENDBRANCH  81  85
ENDBRANCH  64  78
BRANCH  65  89
ATOM     89  C   UNL A   1      42.954  28.635  34.225  1.00  0.00     0.023 A 
ATOM     90  C   UNL A   1      42.369  27.644  35.069  1.00  0.00     0.031 A 
ATOM     91  C   UNL A   1      43.727  28.135  33.152  1.00  0.00     0.131 A 
ATOM     92  C   UNL A   1      42.586  26.252  34.820  1.00  0.00     0.055 A 
ATOM     93  C   UNL A   1      43.922  26.772  32.905  1.00  0.00     0.041 A 
ATOM     94  F   UNL A   1      44.270  28.962  32.245  1.00  0.00    -0.206 F 
ATOM     95  C   UNL A   1      43.349  25.825  33.732  1.00  0.00     0.022 A 
BRANCH  92  96
ATOM     96  S   UNL A   1      41.863  24.930  35.876  1.00  0.00     0.124 S 
ATOM     97  O   UNL A   1      40.477  25.362  36.018  1.00  0.00    -0.237 OA
ATOM     98  O   UNL A   1      42.091  23.727  35.085  1.00  0.00    -0.237 OA
ATOM     99  O   UNL A   1      42.650  25.002  37.110  1.00  0.00    -0.744 OA
ENDBRANCH  92  96
ENDBRANCH  65  89
BRANCH  77 100
ATOM    100  C   UNL A   1      43.182  35.024  34.199  1.00  0.00     0.023 A 
ATOM    101  C   UNL A   1      42.753  34.645  32.901  1.00  0.00     0.031 A 
ATOM    102  C   UNL A   1      44.018  36.151  34.296  1.00  0.00     0.131 A 
ATOM    103  C   UNL A   1      43.178  35.387  31.771  1.00  0.00     0.055 A 
ATOM    104  C   UNL A   1      44.405  36.896  33.184  1.00  0.00     0.041 A 
ATOM    105  F   UNL A   1      44.442  36.578  35.496  1.00  0.00    -0.206 F 
ATOM    106  C   UNL A   1      43.992  36.514  31.917  1.00  0.00     0.022 A 
BRANCH 103 107
ATOM    107  S   UNL A   1      42.717  34.887  30.073  1.00  0.00     0.124 S 
ATOM    108  O   UNL A   1      43.147  33.495  30.004  1.00  0.00    -0.237 OA
ATOM    109  O   UNL A   1      41.274  35.109  30.053  1.00  0.00    -0.237 OA
ATOM    110  O   UNL A   1      43.484  35.803  29.226  1.00  0.00    -0.744 OA
ENDBRANCH 103 107
ENDBRANCH  77 100
ENDBRANCH  51  52
ENDBRANCH  43  46
ENDBRANCH  41  42
ENDBRANCH  40  41
ENDBRANCH  39  40
ENDBRANCH  38  39
ENDBRANCH   1  38
TORSDOF 22
ENDMDL
