MODEL 1
REMARK VINA RESULT:     -11.7      0.000      0.000
REMARK SMILES CC(C)Cc1ccc(S(=O)(=O)Nc2cnc(N3CCCC3)c(C(=O)NCCCCCCNC(=O)c3ccc(-c4c5nc(c(-c6cc(S(=O)(=O)[O-])ccc6F)c6ccc([nH]6)c(-c6cc(S(=O)(=O)[O-])ccc6F)c6nc(c(-c7cc(S(=O)(=O)[O-])ccc7F)c7ccc4[nH]7)C=C6)C=C5)cc3)c2)cc1
REMARK SMILES IDX 27 1 26 2 25 3 23 4 24 5 22 7 13 8 14 9 98 10 15 11 16 12
REMARK SMILES IDX 12 13 9 15 10 16 11 17 8 18 5 19 6 20 100 21 7 22 99 23 4 24
REMARK SMILES IDX 2 25 1 26 3 27 17 28 18 29 21 30 19 31 20 32 28 33 29 34
REMARK SMILES IDX 30 35 31 36 32 37 33 38 34 40 35 41 36 42 97 43 37 44 96 45
REMARK SMILES IDX 38 46 39 47 40 48 90 49 41 50 95 51 89 52 91 53 42 54 94 55
REMARK SMILES IDX 88 56 87 57 43 59 75 60 55 61 74 62 56 63 59 64 73 65 92 66
REMARK SMILES IDX 57 67 58 68 72 70 93 71 60 72 44 73 45 74 53 75 46 76 52 77
REMARK SMILES IDX 54 78 51 79 47 80 48 81 49 82 50 83 76 84 77 85 85 86 78 87
REMARK SMILES IDX 84 88 86 89 83 90 79 91 80 92 81 93 82 94 61 95 62 96 70 97
REMARK SMILES IDX 63 98 69 99 71 100 68 101 64 102 65 103 66 104 67 105
REMARK H PARENT 25 6 12 14 32 39 91 58 59 69
REMARK Flexibility Score: inf
ROOT
ATOM      1  C   UNL A   1      37.124  22.153  24.793  1.00  0.00     0.021 C 
ENDROOT
BRANCH   1   2
ATOM      2  C   UNL A   1      36.357  20.836  24.709  1.00  0.00     0.116 C 
BRANCH   2   3
ATOM      3  N   UNL A   1      35.395  20.742  25.786  1.00  0.00    -0.352 N 
ATOM      4  C   UNL A   1      34.034  20.793  25.920  1.00  0.00     0.255 C 
ATOM      5  O   UNL A   1      33.678  20.673  27.094  1.00  0.00    -0.269 OA
ATOM      6  H   UNL A   1      35.838  20.603  26.654  1.00  0.00     0.163 HD
BRANCH   4   7
ATOM      7  C   UNL A   1      33.053  20.882  24.779  1.00  0.00     0.084 A 
ATOM      8  C   UNL A   1      32.137  22.266  23.029  1.00  0.00     0.068 A 
ATOM      9  C   UNL A   1      31.881  21.113  22.313  1.00  0.00     0.140 A 
ATOM     10  C   UNL A   1      32.575  22.123  24.335  1.00  0.00     0.046 A 
ATOM     11  N   UNL A   1      32.155  19.878  22.772  1.00  0.00    -0.236 NA
ATOM     12  C   UNL A   1      32.758  19.748  23.987  1.00  0.00     0.141 A 
BRANCH   8  13
ATOM     13  N   UNL A   1      32.014  23.511  22.347  1.00  0.00    -0.278 N 
ATOM     14  H   UNL A   1      31.136  23.752  21.972  1.00  0.00     0.180 HD
BRANCH  13  15
ATOM     15  S   UNL A   1      33.293  24.594  22.147  1.00  0.00     0.261 S 
ATOM     16  O   UNL A   1      33.067  25.265  20.876  1.00  0.00    -0.201 OA
ATOM     17  O   UNL A   1      34.491  23.829  22.379  1.00  0.00    -0.201 OA
BRANCH  15  18
ATOM     18  C   UNL A   1      33.224  25.857  23.408  1.00  0.00     0.087 A 
ATOM     19  C   UNL A   1      33.658  27.805  25.406  1.00  0.00    -0.048 A 
ATOM     20  C   UNL A   1      33.820  26.445  25.692  1.00  0.00     0.005 A 
ATOM     21  C   UNL A   1      33.171  28.160  24.135  1.00  0.00     0.005 A 
ATOM     22  C   UNL A   1      33.632  25.480  24.695  1.00  0.00     0.022 A 
ATOM     23  C   UNL A   1      32.931  27.194  23.149  1.00  0.00     0.022 A 
BRANCH  19  24
ATOM     24  C   UNL A   1      33.934  28.897  26.422  1.00  0.00     0.038 C 
BRANCH  24  25
ATOM     25  C   UNL A   1      32.742  29.433  27.251  1.00  0.00    -0.013 C 
ATOM     26  C   UNL A   1      31.977  30.545  26.534  1.00  0.00     0.008 C 
ATOM     27  C   UNL A   1      31.771  28.292  27.570  1.00  0.00     0.008 C 
ENDBRANCH  24  25
ENDBRANCH  19  24
ENDBRANCH  15  18
ENDBRANCH  13  15
ENDBRANCH   8  13
BRANCH  12  28
ATOM     28  N   UNL A   1      33.066  18.465  24.311  1.00  0.00    -0.356 N 
ATOM     29  C   UNL A   1      34.295  17.775  23.972  1.00  0.00     0.118 C 
ATOM     30  C   UNL A   1      32.212  17.674  25.177  1.00  0.00     0.118 C 
ATOM     31  C   UNL A   1      33.859  16.315  24.049  1.00  0.00     0.023 C 
ATOM     32  C   UNL A   1      32.918  16.317  25.250  1.00  0.00     0.023 C 
ENDBRANCH  12  28
ENDBRANCH   4   7
ENDBRANCH   2   3
ENDBRANCH   1   2
BRANCH   1  33
ATOM     33  C   UNL A   1      37.862  22.343  26.129  1.00  0.00     0.002 C 
BRANCH  33  34
ATOM     34  C   UNL A   1      39.358  22.003  26.104  1.00  0.00     0.002 C 
BRANCH  34  35
ATOM     35  C   UNL A   1      39.686  20.519  25.917  1.00  0.00     0.021 C 
BRANCH  35  36
ATOM     36  C   UNL A   1      40.774  19.999  26.845  1.00  0.00     0.116 C 
BRANCH  36  37
ATOM     37  N   UNL A   1      41.908  19.481  26.102  1.00  0.00    -0.352 N 
ATOM     38  C   UNL A   1      42.981  20.165  25.588  1.00  0.00     0.251 C 
ATOM     39  H   UNL A   1      41.908  18.508  25.947  1.00  0.00     0.163 HD
ATOM     40  O   UNL A   1      43.747  19.601  24.812  1.00  0.00    -0.269 OA
BRANCH  38  41
ATOM     41  C   UNL A   1      43.190  21.584  25.951  1.00  0.00     0.039 A 
ATOM     42  C   UNL A   1      43.532  21.900  27.268  1.00  0.00     0.014 A 
ATOM     43  C   UNL A   1      43.032  22.601  25.003  1.00  0.00     0.014 A 
ATOM     44  C   UNL A   1      43.757  23.230  27.627  1.00  0.00     0.010 A 
ATOM     45  C   UNL A   1      43.315  23.920  25.346  1.00  0.00     0.010 A 
ATOM     46  C   UNL A   1      43.668  24.248  26.664  1.00  0.00    -0.014 A 
BRANCH  46  47
ATOM     47  C   UNL A   1      43.908  25.668  27.022  1.00  0.00     0.031 A 
ATOM     48  C   UNL A   1      45.300  26.233  26.943  1.00  0.00     0.074 A 
ATOM     49  C   UNL A   1      42.894  26.422  27.486  1.00  0.00     0.049 A 
ATOM     50  N   UNL A   1      45.737  27.415  27.294  1.00  0.00    -0.248 NA
ATOM     51  C   UNL A   1      46.343  25.330  26.436  1.00  0.00     0.031 C 
ATOM     52  C   UNL A   1      41.513  25.966  27.657  1.00  0.00     0.029 A 
ATOM     53  N   UNL A   1      42.871  27.722  27.920  1.00  0.00    -0.354 N 
ATOM     54  C   UNL A   1      47.111  27.391  27.072  1.00  0.00     0.074 A 
ATOM     55  C   UNL A   1      47.435  26.057  26.610  1.00  0.00     0.031 C 
ATOM     56  C   UNL A   1      40.778  26.973  28.154  1.00  0.00     0.029 A 
ATOM     57  C   UNL A   1      41.638  28.133  28.366  1.00  0.00     0.049 A 
ATOM     58  H   UNL A   1      43.664  28.306  27.912  1.00  0.00     0.167 HD
ATOM     59  C   UNL A   1      48.012  28.393  27.222  1.00  0.00     0.034 A 
ATOM     60  C   UNL A   1      41.248  29.306  28.899  1.00  0.00     0.034 A 
ATOM     61  C   UNL A   1      47.664  29.722  27.666  1.00  0.00     0.049 A 
ATOM     62  C   UNL A   1      42.258  30.414  29.042  1.00  0.00     0.074 A 
ATOM     63  C   UNL A   1      48.477  30.836  27.782  1.00  0.00     0.029 A 
ATOM     64  N   UNL A   1      46.395  30.113  28.079  1.00  0.00    -0.354 N 
ATOM     65  N   UNL A   1      43.542  30.399  28.769  1.00  0.00    -0.248 NA
ATOM     66  C   UNL A   1      41.761  31.699  29.547  1.00  0.00     0.031 C 
ATOM     67  C   UNL A   1      47.714  31.882  28.317  1.00  0.00     0.029 A 
ATOM     68  C   UNL A   1      46.410  31.442  28.476  1.00  0.00     0.049 A 
ATOM     69  H   UNL A   1      45.602  29.531  28.088  1.00  0.00     0.167 HD
ATOM     70  C   UNL A   1      44.005  31.680  29.053  1.00  0.00     0.074 A 
ATOM     71  C   UNL A   1      42.857  32.443  29.505  1.00  0.00     0.031 C 
ATOM     72  C   UNL A   1      45.261  32.182  28.944  1.00  0.00     0.034 A 
BRANCH  59  73
ATOM     73  C   UNL A   1      49.459  28.068  26.930  1.00  0.00     0.023 A 
ATOM     74  C   UNL A   1      50.057  28.396  25.700  1.00  0.00     0.031 A 
ATOM     75  C   UNL A   1      50.235  27.367  27.870  1.00  0.00     0.131 A 
ATOM     76  C   UNL A   1      51.350  27.938  25.403  1.00  0.00     0.055 A 
ATOM     77  C   UNL A   1      51.554  26.991  27.602  1.00  0.00     0.041 A 
ATOM     78  F   UNL A   1      49.716  27.009  29.055  1.00  0.00    -0.206 F 
ATOM     79  C   UNL A   1      52.112  27.257  26.355  1.00  0.00     0.022 A 
BRANCH  76  80
ATOM     80  S   UNL A   1      51.951  28.092  23.698  1.00  0.00     0.124 S 
ATOM     81  O   UNL A   1      53.220  28.789  23.895  1.00  0.00    -0.237 OA
ATOM     82  O   UNL A   1      52.045  26.702  23.271  1.00  0.00    -0.237 OA
ATOM     83  O   UNL A   1      50.912  28.881  23.040  1.00  0.00    -0.744 OA
ENDBRANCH  76  80
ENDBRANCH  59  73
BRANCH  60  84
ATOM     84  C   UNL A   1      39.840  29.490  29.344  1.00  0.00     0.023 A 
ATOM     85  C   UNL A   1      39.508  29.517  30.706  1.00  0.00     0.031 A 
ATOM     86  C   UNL A   1      38.805  29.644  28.404  1.00  0.00     0.131 A 
ATOM     87  C   UNL A   1      38.167  29.666  31.094  1.00  0.00     0.055 A 
ATOM     88  C   UNL A   1      37.479  29.829  28.795  1.00  0.00     0.041 A 
ATOM     89  F   UNL A   1      39.077  29.641  27.089  1.00  0.00    -0.206 F 
ATOM     90  C   UNL A   1      37.153  29.833  30.148  1.00  0.00     0.022 A 
BRANCH  87  91
ATOM     91  S   UNL A   1      37.761  29.606  32.861  1.00  0.00     0.124 S 
ATOM     92  O   UNL A   1      36.665  30.564  32.948  1.00  0.00    -0.237 OA
ATOM     93  O   UNL A   1      37.403  28.202  33.041  1.00  0.00    -0.237 OA
ATOM     94  O   UNL A   1      39.005  30.016  33.510  1.00  0.00    -0.744 OA
ENDBRANCH  87  91
ENDBRANCH  60  84
BRANCH  72  95
ATOM     95  C   UNL A   1      45.443  33.638  29.288  1.00  0.00     0.023 A 
ATOM     96  C   UNL A   1      45.790  34.051  30.587  1.00  0.00     0.031 A 
ATOM     97  C   UNL A   1      45.256  34.624  28.305  1.00  0.00     0.131 A 
ATOM     98  C   UNL A   1      45.890  35.420  30.878  1.00  0.00     0.055 A 
ATOM     99  C   UNL A   1      45.406  35.982  28.588  1.00  0.00     0.041 A 
ATOM    100  F   UNL A   1      44.921  34.283  27.050  1.00  0.00    -0.206 F 
ATOM    101  C   UNL A   1      45.715  36.387  29.884  1.00  0.00     0.022 A 
BRANCH  98 102
ATOM    102  S   UNL A   1      46.177  35.927  32.596  1.00  0.00     0.124 S 
ATOM    103  O   UNL A   1      45.538  34.849  33.342  1.00  0.00    -0.237 OA
ATOM    104  O   UNL A   1      47.633  35.978  32.668  1.00  0.00    -0.237 OA
ATOM    105  O   UNL A   1      45.508  37.224  32.687  1.00  0.00    -0.744 OA
ENDBRANCH  98 102
ENDBRANCH  72  95
ENDBRANCH  46  47
ENDBRANCH  38  41
ENDBRANCH  36  37
ENDBRANCH  35  36
ENDBRANCH  34  35
ENDBRANCH  33  34
ENDBRANCH   1  33
TORSDOF 22
ENDMDL
MODEL 2
REMARK VINA RESULT:     -11.6      5.766     10.076
REMARK SMILES CC(C)Cc1ccc(S(=O)(=O)Nc2cnc(N3CCCC3)c(C(=O)NCCCCCCNC(=O)c3ccc(-c4c5nc(c(-c6cc(S(=O)(=O)[O-])ccc6F)c6ccc([nH]6)c(-c6cc(S(=O)(=O)[O-])ccc6F)c6nc(c(-c7cc(S(=O)(=O)[O-])ccc7F)c7ccc4[nH]7)C=C6)C=C5)cc3)c2)cc1
REMARK SMILES IDX 27 1 26 2 25 3 23 4 24 5 22 7 13 8 14 9 98 10 15 11 16 12
REMARK SMILES IDX 12 13 9 15 10 16 11 17 8 18 5 19 6 20 100 21 7 22 99 23 4 24
REMARK SMILES IDX 2 25 1 26 3 27 17 28 18 29 21 30 19 31 20 32 28 33 29 34
REMARK SMILES IDX 30 35 31 36 32 37 33 38 34 40 35 41 36 42 97 43 37 44 96 45
REMARK SMILES IDX 38 46 39 47 40 48 90 49 41 50 95 51 89 52 91 53 42 54 94 55
REMARK SMILES IDX 88 56 87 57 43 59 75 60 55 61 74 62 56 63 59 64 73 65 92 66
REMARK SMILES IDX 57 67 58 68 72 70 93 71 60 72 44 73 45 74 53 75 46 76 52 77
REMARK SMILES IDX 54 78 51 79 47 80 48 81 49 82 50 83 76 84 77 85 85 86 78 87
REMARK SMILES IDX 84 88 86 89 83 90 79 91 80 92 81 93 82 94 61 95 62 96 70 97
REMARK SMILES IDX 63 98 69 99 71 100 68 101 64 102 65 103 66 104 67 105
REMARK H PARENT 25 6 12 14 32 39 91 58 59 69
REMARK Flexibility Score: inf
ROOT
ATOM      1  C   UNL A   1      33.735  29.130  26.117  1.00  0.00     0.021 C 
ENDROOT
BRANCH   1   2
ATOM      2  C   UNL A   1      32.369  29.445  25.512  1.00  0.00     0.116 C 
BRANCH   2   3
ATOM      3  N   UNL A   1      32.453  29.481  24.068  1.00  0.00    -0.352 N 
ATOM      4  C   UNL A   1      31.838  28.863  23.013  1.00  0.00     0.255 C 
ATOM      5  O   UNL A   1      32.288  29.237  21.929  1.00  0.00    -0.269 OA
ATOM      6  H   UNL A   1      33.133  30.124  23.762  1.00  0.00     0.163 HD
BRANCH   4   7
ATOM      7  C   UNL A   1      30.675  27.910  23.124  1.00  0.00     0.084 A 
ATOM      8  C   UNL A   1      29.879  25.818  24.022  1.00  0.00     0.068 A 
ATOM      9  C   UNL A   1      28.608  26.357  24.033  1.00  0.00     0.140 A 
ATOM     10  C   UNL A   1      30.880  26.553  23.409  1.00  0.00     0.046 A 
ATOM     11  N   UNL A   1      28.325  27.599  23.599  1.00  0.00    -0.236 NA
ATOM     12  C   UNL A   1      29.345  28.391  23.164  1.00  0.00     0.141 A 
BRANCH   8  13
ATOM     13  N   UNL A   1      30.083  24.590  24.714  1.00  0.00    -0.278 N 
ATOM     14  H   UNL A   1      29.777  23.758  24.287  1.00  0.00     0.180 HD
BRANCH  13  15
ATOM     15  S   UNL A   1      30.824  24.485  26.228  1.00  0.00     0.261 S 
ATOM     16  O   UNL A   1      29.851  23.870  27.118  1.00  0.00    -0.201 OA
ATOM     17  O   UNL A   1      31.348  25.799  26.496  1.00  0.00    -0.201 OA
BRANCH  15  18
ATOM     18  C   UNL A   1      32.217  23.371  26.149  1.00  0.00     0.087 A 
ATOM     19  C   UNL A   1      34.666  22.019  25.764  1.00  0.00    -0.048 A 
ATOM     20  C   UNL A   1      33.795  22.232  24.690  1.00  0.00     0.005 A 
ATOM     21  C   UNL A   1      34.238  22.399  27.048  1.00  0.00     0.005 A 
ATOM     22  C   UNL A   1      32.594  22.927  24.874  1.00  0.00     0.022 A 
ATOM     23  C   UNL A   1      33.012  23.048  27.247  1.00  0.00     0.022 A 
BRANCH  19  24
ATOM     24  C   UNL A   1      36.020  21.352  25.605  1.00  0.00     0.038 C 
BRANCH  24  25
ATOM     25  C   UNL A   1      37.177  22.193  25.016  1.00  0.00    -0.013 C 
ATOM     26  C   UNL A   1      36.889  23.694  25.042  1.00  0.00     0.008 C 
ATOM     27  C   UNL A   1      38.468  21.924  25.797  1.00  0.00     0.008 C 
ENDBRANCH  24  25
ENDBRANCH  19  24
ENDBRANCH  15  18
ENDBRANCH  13  15
ENDBRANCH   8  13
BRANCH  12  28
ATOM     28  N   UNL A   1      28.957  29.651  22.832  1.00  0.00    -0.356 N 
ATOM     29  C   UNL A   1      28.941  30.796  23.720  1.00  0.00     0.118 C 
ATOM     30  C   UNL A   1      28.634  30.010  21.464  1.00  0.00     0.118 C 
ATOM     31  C   UNL A   1      27.925  31.703  23.033  1.00  0.00     0.023 C 
ATOM     32  C   UNL A   1      28.238  31.487  21.556  1.00  0.00     0.023 C 
ENDBRANCH  12  28
ENDBRANCH   4   7
ENDBRANCH   2   3
ENDBRANCH   1   2
BRANCH   1  33
ATOM     33  C   UNL A   1      33.869  29.579  27.581  1.00  0.00     0.002 C 
BRANCH  33  34
ATOM     34  C   UNL A   1      34.280  31.043  27.782  1.00  0.00     0.002 C 
BRANCH  34  35
ATOM     35  C   UNL A   1      33.126  32.051  27.776  1.00  0.00     0.021 C 
BRANCH  35  36
ATOM     36  C   UNL A   1      33.519  33.447  27.316  1.00  0.00     0.116 C 
BRANCH  36  37
ATOM     37  N   UNL A   1      32.999  34.469  28.206  1.00  0.00    -0.352 N 
ATOM     38  C   UNL A   1      33.356  34.738  29.504  1.00  0.00     0.251 C 
ATOM     39  H   UNL A   1      32.297  35.048  27.827  1.00  0.00     0.163 HD
ATOM     40  O   UNL A   1      32.673  35.506  30.176  1.00  0.00    -0.269 OA
BRANCH  38  41
ATOM     41  C   UNL A   1      34.543  34.079  30.091  1.00  0.00     0.039 A 
ATOM     42  C   UNL A   1      35.810  34.419  29.610  1.00  0.00     0.014 A 
ATOM     43  C   UNL A   1      34.409  33.118  31.099  1.00  0.00     0.014 A 
ATOM     44  C   UNL A   1      36.945  33.827  30.167  1.00  0.00     0.010 A 
ATOM     45  C   UNL A   1      35.543  32.573  31.694  1.00  0.00     0.010 A 
ATOM     46  C   UNL A   1      36.821  32.913  31.224  1.00  0.00    -0.014 A 
BRANCH  46  47
ATOM     47  C   UNL A   1      38.014  32.275  31.835  1.00  0.00     0.031 A 
ATOM     48  C   UNL A   1      38.730  31.174  31.102  1.00  0.00     0.074 A 
ATOM     49  C   UNL A   1      38.405  32.633  33.072  1.00  0.00     0.049 A 
ATOM     50  N   UNL A   1      39.731  30.429  31.494  1.00  0.00    -0.248 NA
ATOM     51  C   UNL A   1      38.223  30.845  29.762  1.00  0.00     0.031 C 
ATOM     52  C   UNL A   1      37.755  33.651  33.900  1.00  0.00     0.029 A 
ATOM     53  N   UNL A   1      39.427  32.168  33.858  1.00  0.00    -0.354 N 
ATOM     54  C   UNL A   1      39.960  29.527  30.460  1.00  0.00     0.074 A 
ATOM     55  C   UNL A   1      38.953  29.786  29.451  1.00  0.00     0.031 C 
ATOM     56  C   UNL A   1      38.399  33.736  35.075  1.00  0.00     0.029 A 
ATOM     57  C   UNL A   1      39.484  32.760  35.097  1.00  0.00     0.049 A 
ATOM     58  H   UNL A   1      40.061  31.475  33.562  1.00  0.00     0.167 HD
ATOM     59  C   UNL A   1      40.930  28.585  30.355  1.00  0.00     0.034 A 
ATOM     60  C   UNL A   1      40.308  32.532  36.137  1.00  0.00     0.034 A 
ATOM     61  C   UNL A   1      41.935  28.356  31.365  1.00  0.00     0.049 A 
ATOM     62  C   UNL A   1      41.390  31.494  35.997  1.00  0.00     0.074 A 
ATOM     63  C   UNL A   1      43.009  27.483  31.335  1.00  0.00     0.029 A 
ATOM     64  N   UNL A   1      41.982  28.999  32.597  1.00  0.00    -0.354 N 
ATOM     65  N   UNL A   1      41.635  30.690  34.988  1.00  0.00    -0.248 NA
ATOM     66  C   UNL A   1      42.314  31.346  37.127  1.00  0.00     0.031 C 
ATOM     67  C   UNL A   1      43.671  27.559  32.567  1.00  0.00     0.029 A 
ATOM     68  C   UNL A   1      43.049  28.523  33.344  1.00  0.00     0.049 A 
ATOM     69  H   UNL A   1      41.349  29.691  32.895  1.00  0.00     0.167 HD
ATOM     70  C   UNL A   1      42.756  29.952  35.356  1.00  0.00     0.074 A 
ATOM     71  C   UNL A   1      43.144  30.418  36.674  1.00  0.00     0.031 C 
ATOM     72  C   UNL A   1      43.410  28.983  34.665  1.00  0.00     0.034 A 
BRANCH  59  73
ATOM     73  C   UNL A   1      40.918  27.719  29.116  1.00  0.00     0.023 A 
ATOM     74  C   UNL A   1      41.858  27.892  28.084  1.00  0.00     0.031 A 
ATOM     75  C   UNL A   1      39.918  26.748  28.935  1.00  0.00     0.131 A 
ATOM     76  C   UNL A   1      41.720  27.182  26.881  1.00  0.00     0.055 A 
ATOM     77  C   UNL A   1      39.839  25.980  27.770  1.00  0.00     0.041 A 
ATOM     78  F   UNL A   1      38.981  26.547  29.875  1.00  0.00    -0.206 F 
ATOM     79  C   UNL A   1      40.730  26.210  26.726  1.00  0.00     0.022 A 
BRANCH  76  80
ATOM     80  S   UNL A   1      42.743  27.674  25.465  1.00  0.00     0.124 S 
ATOM     81  O   UNL A   1      41.860  28.610  24.775  1.00  0.00    -0.237 OA
ATOM     82  O   UNL A   1      43.913  28.255  26.111  1.00  0.00    -0.237 OA
ATOM     83  O   UNL A   1      42.977  26.415  24.761  1.00  0.00    -0.744 OA
ENDBRANCH  76  80
ENDBRANCH  59  73
BRANCH  60  84
ATOM     84  C   UNL A   1      40.136  33.294  37.403  1.00  0.00     0.023 A 
ATOM     85  C   UNL A   1      39.356  32.788  38.453  1.00  0.00     0.031 A 
ATOM     86  C   UNL A   1      40.756  34.544  37.577  1.00  0.00     0.131 A 
ATOM     87  C   UNL A   1      39.193  33.543  39.626  1.00  0.00     0.055 A 
ATOM     88  C   UNL A   1      40.620  35.274  38.758  1.00  0.00     0.041 A 
ATOM     89  F   UNL A   1      41.524  35.062  36.605  1.00  0.00    -0.206 F 
ATOM     90  C   UNL A   1      39.827  34.777  39.789  1.00  0.00     0.022 A 
BRANCH  87  91
ATOM     91  S   UNL A   1      38.105  32.902  40.928  1.00  0.00     0.124 S 
ATOM     92  O   UNL A   1      36.785  33.106  40.342  1.00  0.00    -0.237 OA
ATOM     93  O   UNL A   1      38.551  31.516  41.039  1.00  0.00    -0.237 OA
ATOM     94  O   UNL A   1      38.418  33.746  42.079  1.00  0.00    -0.744 OA
ENDBRANCH  87  91
ENDBRANCH  60  84
BRANCH  72  95
ATOM     95  C   UNL A   1      44.633  28.393  35.317  1.00  0.00     0.023 A 
ATOM     96  C   UNL A   1      44.558  27.244  36.123  1.00  0.00     0.031 A 
ATOM     97  C   UNL A   1      45.890  28.997  35.137  1.00  0.00     0.131 A 
ATOM     98  C   UNL A   1      45.713  26.762  36.760  1.00  0.00     0.055 A 
ATOM     99  C   UNL A   1      47.043  28.484  35.731  1.00  0.00     0.041 A 
ATOM    100  F   UNL A   1      46.015  30.098  34.378  1.00  0.00    -0.206 F 
ATOM    101  C   UNL A   1      46.957  27.367  36.556  1.00  0.00     0.022 A 
BRANCH  98 102
ATOM    102  S   UNL A   1      45.555  25.378  37.921  1.00  0.00     0.124 S 
ATOM    103  O   UNL A   1      44.389  25.771  38.705  1.00  0.00    -0.237 OA
ATOM    104  O   UNL A   1      45.370  24.240  37.029  1.00  0.00    -0.237 OA
ATOM    105  O   UNL A   1      46.824  25.394  38.648  1.00  0.00    -0.744 OA
ENDBRANCH  98 102
ENDBRANCH  72  95
ENDBRANCH  46  47
ENDBRANCH  38  41
ENDBRANCH  36  37
ENDBRANCH  35  36
ENDBRANCH  34  35
ENDBRANCH  33  34
ENDBRANCH   1  33
TORSDOF 22
ENDMDL
MODEL 3
REMARK VINA RESULT:     -11.4      3.513      6.321
REMARK SMILES CC(C)Cc1ccc(S(=O)(=O)Nc2cnc(N3CCCC3)c(C(=O)NCCCCCCNC(=O)c3ccc(-c4c5nc(c(-c6cc(S(=O)(=O)[O-])ccc6F)c6ccc([nH]6)c(-c6cc(S(=O)(=O)[O-])ccc6F)c6nc(c(-c7cc(S(=O)(=O)[O-])ccc7F)c7ccc4[nH]7)C=C6)C=C5)cc3)c2)cc1
REMARK SMILES IDX 27 1 26 2 25 3 23 4 24 5 22 7 13 8 14 9 98 10 15 11 16 12
REMARK SMILES IDX 12 13 9 15 10 16 11 17 8 18 5 19 6 20 100 21 7 22 99 23 4 24
REMARK SMILES IDX 2 25 1 26 3 27 17 28 18 29 21 30 19 31 20 32 28 33 29 34
REMARK SMILES IDX 30 35 31 36 32 37 33 38 34 40 35 41 36 42 97 43 37 44 96 45
REMARK SMILES IDX 38 46 39 47 40 48 90 49 41 50 95 51 89 52 91 53 42 54 94 55
REMARK SMILES IDX 88 56 87 57 43 59 75 60 55 61 74 62 56 63 59 64 73 65 92 66
REMARK SMILES IDX 57 67 58 68 72 70 93 71 60 72 44 73 45 74 53 75 46 76 52 77
REMARK SMILES IDX 54 78 51 79 47 80 48 81 49 82 50 83 76 84 77 85 85 86 78 87
REMARK SMILES IDX 84 88 86 89 83 90 79 91 80 92 81 93 82 94 61 95 62 96 70 97
REMARK SMILES IDX 63 98 69 99 71 100 68 101 64 102 65 103 66 104 67 105
REMARK H PARENT 25 6 12 14 32 39 91 58 59 69
REMARK Flexibility Score: inf
ROOT
ATOM      1  C   UNL A   1      33.391  23.703  21.993  1.00  0.00     0.021 C 
ENDROOT
BRANCH   1   2
ATOM      2  C   UNL A   1      33.713  25.193  21.938  1.00  0.00     0.116 C 
BRANCH   2   3
ATOM      3  N   UNL A   1      32.531  25.952  21.587  1.00  0.00    -0.352 N 
ATOM      4  C   UNL A   1      31.396  26.385  22.216  1.00  0.00     0.255 C 
ATOM      5  O   UNL A   1      30.653  27.008  21.456  1.00  0.00    -0.269 OA
ATOM      6  H   UNL A   1      32.551  26.233  20.644  1.00  0.00     0.163 HD
BRANCH   4   7
ATOM      7  C   UNL A   1      31.105  26.226  23.686  1.00  0.00     0.084 A 
ATOM      8  C   UNL A   1      31.827  25.269  25.779  1.00  0.00     0.068 A 
ATOM      9  C   UNL A   1      31.196  26.315  26.424  1.00  0.00     0.140 A 
ATOM     10  C   UNL A   1      31.632  25.150  24.413  1.00  0.00     0.046 A 
ATOM     11  N   UNL A   1      30.517  27.282  25.781  1.00  0.00    -0.236 NA
ATOM     12  C   UNL A   1      30.481  27.264  24.419  1.00  0.00     0.141 A 
BRANCH   8  13
ATOM     13  N   UNL A   1      32.698  24.444  26.549  1.00  0.00    -0.278 N 
ATOM     14  H   UNL A   1      33.595  24.787  26.763  1.00  0.00     0.180 HD
BRANCH  13  15
ATOM     15  S   UNL A   1      32.272  22.912  27.113  1.00  0.00     0.261 S 
ATOM     16  O   UNL A   1      30.819  22.887  27.176  1.00  0.00    -0.201 OA
ATOM     17  O   UNL A   1      33.069  22.697  28.294  1.00  0.00    -0.201 OA
BRANCH  15  18
ATOM     18  C   UNL A   1      32.751  21.669  25.924  1.00  0.00     0.087 A 
ATOM     19  C   UNL A   1      33.480  19.363  24.466  1.00  0.00    -0.048 A 
ATOM     20  C   UNL A   1      34.378  19.949  25.365  1.00  0.00     0.005 A 
ATOM     21  C   UNL A   1      32.257  20.016  24.233  1.00  0.00     0.005 A 
ATOM     22  C   UNL A   1      34.007  21.075  26.109  1.00  0.00     0.022 A 
ATOM     23  C   UNL A   1      31.902  21.175  24.937  1.00  0.00     0.022 A 
BRANCH  19  24
ATOM     24  C   UNL A   1      33.795  18.092  23.700  1.00  0.00     0.038 C 
BRANCH  24  25
ATOM     25  C   UNL A   1      33.672  16.745  24.451  1.00  0.00    -0.013 C 
ATOM     26  C   UNL A   1      34.995  16.287  25.064  1.00  0.00     0.008 C 
ATOM     27  C   UNL A   1      32.625  16.860  25.564  1.00  0.00     0.008 C 
ENDBRANCH  24  25
ENDBRANCH  19  24
ENDBRANCH  15  18
ENDBRANCH  13  15
ENDBRANCH   8  13
BRANCH  12  28
ATOM     28  N   UNL A   1      29.843  28.333  23.874  1.00  0.00    -0.356 N 
ATOM     29  C   UNL A   1      28.493  28.338  23.347  1.00  0.00     0.118 C 
ATOM     30  C   UNL A   1      30.434  29.658  23.889  1.00  0.00     0.118 C 
ATOM     31  C   UNL A   1      28.539  29.531  22.397  1.00  0.00     0.023 C 
ATOM     32  C   UNL A   1      29.402  30.528  23.164  1.00  0.00     0.023 C 
ENDBRANCH  12  28
ENDBRANCH   4   7
ENDBRANCH   2   3
ENDBRANCH   1   2
BRANCH   1  33
ATOM     33  C   UNL A   1      34.345  22.908  22.901  1.00  0.00     0.002 C 
BRANCH  33  34
ATOM     34  C   UNL A   1      35.131  23.746  23.918  1.00  0.00     0.002 C 
BRANCH  34  35
ATOM     35  C   UNL A   1      36.554  23.256  24.205  1.00  0.00     0.021 C 
BRANCH  35  36
ATOM     36  C   UNL A   1      37.003  23.455  25.645  1.00  0.00     0.116 C 
BRANCH  36  37
ATOM     37  N   UNL A   1      37.971  22.451  26.048  1.00  0.00    -0.352 N 
ATOM     38  C   UNL A   1      39.228  22.631  26.568  1.00  0.00     0.251 C 
ATOM     39  H   UNL A   1      37.686  21.514  25.933  1.00  0.00     0.163 HD
ATOM     40  O   UNL A   1      39.989  21.674  26.664  1.00  0.00    -0.269 OA
BRANCH  38  41
ATOM     41  C   UNL A   1      39.664  23.982  26.984  1.00  0.00     0.039 A 
ATOM     42  C   UNL A   1      40.178  24.852  26.019  1.00  0.00     0.014 A 
ATOM     43  C   UNL A   1      39.581  24.386  28.321  1.00  0.00     0.014 A 
ATOM     44  C   UNL A   1      40.573  26.140  26.386  1.00  0.00     0.010 A 
ATOM     45  C   UNL A   1      39.918  25.690  28.675  1.00  0.00     0.010 A 
ATOM     46  C   UNL A   1      40.429  26.574  27.713  1.00  0.00    -0.014 A 
BRANCH  46  47
ATOM     47  C   UNL A   1      40.836  27.941  28.123  1.00  0.00     0.031 A 
ATOM     48  C   UNL A   1      42.292  28.319  28.122  1.00  0.00     0.074 A 
ATOM     49  C   UNL A   1      39.909  28.810  28.566  1.00  0.00     0.049 A 
ATOM     50  N   UNL A   1      42.864  29.423  28.527  1.00  0.00    -0.248 NA
ATOM     51  C   UNL A   1      43.230  27.298  27.633  1.00  0.00     0.031 C 
ATOM     52  C   UNL A   1      38.474  28.537  28.663  1.00  0.00     0.029 A 
ATOM     53  N   UNL A   1      40.036  30.091  29.038  1.00  0.00    -0.354 N 
ATOM     54  C   UNL A   1      44.232  29.223  28.364  1.00  0.00     0.074 A 
ATOM     55  C   UNL A   1      44.399  27.869  27.877  1.00  0.00     0.031 C 
ATOM     56  C   UNL A   1      37.855  29.620  29.158  1.00  0.00     0.029 A 
ATOM     57  C   UNL A   1      38.849  30.651  29.443  1.00  0.00     0.049 A 
ATOM     58  H   UNL A   1      40.899  30.565  29.082  1.00  0.00     0.167 HD
ATOM     59  C   UNL A   1      45.249  30.093  28.583  1.00  0.00     0.034 A 
ATOM     60  C   UNL A   1      38.591  31.852  29.994  1.00  0.00     0.034 A 
ATOM     61  C   UNL A   1      45.057  31.445  29.053  1.00  0.00     0.049 A 
ATOM     62  C   UNL A   1      39.730  32.812  30.214  1.00  0.00     0.074 A 
ATOM     63  C   UNL A   1      46.002  32.438  29.238  1.00  0.00     0.029 A 
ATOM     64  N   UNL A   1      43.832  31.990  29.422  1.00  0.00    -0.354 N 
ATOM     65  N   UNL A   1      41.013  32.633  29.997  1.00  0.00    -0.248 NA
ATOM     66  C   UNL A   1      39.383  34.139  30.736  1.00  0.00     0.031 C 
ATOM     67  C   UNL A   1      45.360  33.562  29.771  1.00  0.00     0.029 A 
ATOM     68  C   UNL A   1      44.003  33.295  29.860  1.00  0.00     0.049 A 
ATOM     69  H   UNL A   1      42.970  31.518  29.379  1.00  0.00     0.167 HD
ATOM     70  C   UNL A   1      41.625  33.835  30.340  1.00  0.00     0.074 A 
ATOM     71  C   UNL A   1      40.568  34.732  30.765  1.00  0.00     0.031 C 
ATOM     72  C   UNL A   1      42.940  34.169  30.300  1.00  0.00     0.034 A 
BRANCH  59  73
ATOM     73  C   UNL A   1      46.652  29.586  28.345  1.00  0.00     0.023 A 
ATOM     74  C   UNL A   1      47.374  28.911  29.347  1.00  0.00     0.031 A 
ATOM     75  C   UNL A   1      47.301  29.832  27.123  1.00  0.00     0.131 A 
ATOM     76  C   UNL A   1      48.727  28.597  29.146  1.00  0.00     0.055 A 
ATOM     77  C   UNL A   1      48.622  29.437  26.897  1.00  0.00     0.041 A 
ATOM     78  F   UNL A   1      46.672  30.487  26.134  1.00  0.00    -0.206 F 
ATOM     79  C   UNL A   1      49.350  28.834  27.919  1.00  0.00     0.022 A 
BRANCH  76  80
ATOM     80  S   UNL A   1      49.704  28.036  30.569  1.00  0.00     0.124 S 
ATOM     81  O   UNL A   1      51.068  28.207  30.076  1.00  0.00    -0.237 OA
ATOM     82  O   UNL A   1      49.284  28.955  31.620  1.00  0.00    -0.237 OA
ATOM     83  O   UNL A   1      49.283  26.648  30.746  1.00  0.00    -0.744 OA
ENDBRANCH  76  80
ENDBRANCH  59  73
BRANCH  60  84
ATOM     84  C   UNL A   1      37.200  32.209  30.383  1.00  0.00     0.023 A 
ATOM     85  C   UNL A   1      36.317  32.788  29.460  1.00  0.00     0.031 A 
ATOM     86  C   UNL A   1      36.736  31.969  31.688  1.00  0.00     0.131 A 
ATOM     87  C   UNL A   1      35.018  33.137  29.864  1.00  0.00     0.055 A 
ATOM     88  C   UNL A   1      35.433  32.283  32.074  1.00  0.00     0.041 A 
ATOM     89  F   UNL A   1      37.540  31.401  32.601  1.00  0.00    -0.206 F 
ATOM     90  C   UNL A   1      34.568  32.879  31.161  1.00  0.00     0.022 A 
BRANCH  87  91
ATOM     91  S   UNL A   1      33.931  33.968  28.673  1.00  0.00     0.124 S 
ATOM     92  O   UNL A   1      32.918  34.547  29.547  1.00  0.00    -0.237 OA
ATOM     93  O   UNL A   1      34.845  34.911  28.036  1.00  0.00    -0.237 OA
ATOM     94  O   UNL A   1      33.471  32.878  27.815  1.00  0.00    -0.744 OA
ENDBRANCH  87  91
ENDBRANCH  60  84
BRANCH  72  95
ATOM     95  C   UNL A   1      43.296  35.579  30.696  1.00  0.00     0.023 A 
ATOM     96  C   UNL A   1      43.380  36.613  29.748  1.00  0.00     0.031 A 
ATOM     97  C   UNL A   1      43.565  35.887  32.041  1.00  0.00     0.131 A 
ATOM     98  C   UNL A   1      43.773  37.898  30.151  1.00  0.00     0.055 A 
ATOM     99  C   UNL A   1      43.907  37.178  32.444  1.00  0.00     0.041 A 
ATOM    100  F   UNL A   1      43.501  34.935  32.986  1.00  0.00    -0.206 F 
ATOM    101  C   UNL A   1      44.022  38.191  31.496  1.00  0.00     0.022 A 
BRANCH  98 102
ATOM    102  S   UNL A   1      44.031  39.170  28.884  1.00  0.00     0.124 S 
ATOM    103  O   UNL A   1      42.972  40.124  29.191  1.00  0.00    -0.237 OA
ATOM    104  O   UNL A   1      45.392  39.615  29.159  1.00  0.00    -0.237 OA
ATOM    105  O   UNL A   1      43.862  38.440  27.627  1.00  0.00    -0.744 OA
ENDBRANCH  98 102
ENDBRANCH  72  95
ENDBRANCH  46  47
ENDBRANCH  38  41
ENDBRANCH  36  37
ENDBRANCH  35  36
ENDBRANCH  34  35
ENDBRANCH  33  34
ENDBRANCH   1  33
TORSDOF 22
ENDMDL
