MODEL 1
REMARK VINA RESULT:     -12.7      0.000      0.000
REMARK SMILES Cc1cccc(O[C@H](C)C(=O)NNC(=O)[C@H]2[C@@H]3CC[C@@H](C3)[C@@H]2C(=O)NCCCCCCNC(=O)c2ccc(-c3c4nc(c(-c5cc(S(=O)(=O)[O-])ccc5F)c5ccc([nH]5)c(-c5cc(S(=O)(=O)[O-])ccc5F)c5nc(c(-c6cc(S(=O)(=O)[O-])ccc6F)c6ccc3[nH]6)C=C5)C=C4)cc2)c1
REMARK SMILES IDX 27 1 26 2 25 3 23 4 24 5 22 7 16 8 17 9 18 10 21 11 20 12
REMARK SMILES IDX 19 13 14 14 13 15 15 17 12 18 10 19 11 20 8 22 9 23 7 24
REMARK SMILES IDX 6 25 1 26 2 27 3 28 98 29 4 30 5 31 28 32 29 33 30 34 31 35
REMARK SMILES IDX 32 36 33 37 34 39 35 40 36 41 97 42 37 43 96 44 38 45 39 46
REMARK SMILES IDX 40 47 90 48 41 49 95 50 89 51 91 52 42 53 94 54 88 55 87 56
REMARK SMILES IDX 43 58 75 59 55 60 74 61 56 62 59 63 73 64 92 65 57 66 58 67
REMARK SMILES IDX 72 69 93 70 60 71 44 72 45 73 53 74 46 75 52 76 54 77 51 78
REMARK SMILES IDX 47 79 48 80 49 81 50 82 76 83 77 84 85 85 78 86 84 87 86 88
REMARK SMILES IDX 83 89 79 90 80 91 81 92 82 93 61 94 62 95 70 96 63 97 69 98
REMARK SMILES IDX 71 99 68 100 64 101 65 102 66 103 67 104
REMARK H PARENT 25 6 13 16 12 21 32 38 91 57 59 68
REMARK Flexibility Score: inf
ROOT
ATOM      1  C   UNL A   1      34.231  27.976  25.303  1.00  0.00     0.021 C 
ENDROOT
BRANCH   1   2
ATOM      2  C   UNL A   1      33.776  26.572  24.906  1.00  0.00     0.116 C 
BRANCH   2   3
ATOM      3  N   UNL A   1      33.742  25.655  26.033  1.00  0.00    -0.356 N 
ATOM      4  C   UNL A   1      34.016  24.317  26.073  1.00  0.00     0.224 C 
ATOM      5  O   UNL A   1      33.961  23.720  27.145  1.00  0.00    -0.275 OA
ATOM      6  H   UNL A   1      33.483  26.056  26.894  1.00  0.00     0.163 HD
BRANCH   4   7
ATOM      7  C   UNL A   1      34.402  23.636  24.770  1.00  0.00     0.094 C 
ATOM      8  C   UNL A   1      34.208  22.113  24.754  1.00  0.00     0.096 C 
ATOM      9  C   UNL A   1      35.576  21.583  24.258  1.00  0.00     0.002 C 
ATOM     10  C   UNL A   1      36.573  21.698  25.433  1.00  0.00     0.005 C 
ATOM     11  C   UNL A   1      36.099  22.696  23.354  1.00  0.00     0.009 C 
ATOM     12  C   UNL A   1      35.905  23.784  24.416  1.00  0.00     0.002 C 
ATOM     13  C   UNL A   1      36.799  23.218  25.539  1.00  0.00     0.005 C 
BRANCH   8  14
ATOM     14  C   UNL A   1      32.999  21.553  24.006  1.00  0.00     0.242 C 
ATOM     15  N   UNL A   1      32.216  22.247  23.128  1.00  0.00    -0.267 N 
ATOM     16  H   UNL A   1      31.356  21.825  22.901  1.00  0.00     0.191 HD
ATOM     17  O   UNL A   1      32.707  20.362  24.182  1.00  0.00    -0.273 OA
BRANCH  15  18
ATOM     18  N   UNL A   1      32.459  23.452  22.517  1.00  0.00    -0.264 N 
ATOM     19  C   UNL A   1      31.805  24.636  22.648  1.00  0.00     0.279 C 
ATOM     20  O   UNL A   1      32.300  25.570  21.993  1.00  0.00    -0.269 OA
ATOM     21  H   UNL A   1      33.218  23.459  21.890  1.00  0.00     0.191 HD
BRANCH  19  22
ATOM     22  C   UNL A   1      30.503  24.889  23.457  1.00  0.00     0.260 C 
ATOM     23  C   UNL A   1      30.685  24.473  24.923  1.00  0.00     0.064 C 
BRANCH  22  24
ATOM     24  O   UNL A   1      29.557  25.908  23.234  1.00  0.00    -0.481 OA
BRANCH  24  25
ATOM     25  C   UNL A   1      29.706  27.223  23.522  1.00  0.00     0.120 A 
ATOM     26  C   UNL A   1      27.542  30.236  22.634  1.00  0.00     0.044 C 
ATOM     27  C   UNL A   1      28.670  29.405  23.168  1.00  0.00    -0.047 A 
ATOM     28  C   UNL A   1      29.794  30.015  23.728  1.00  0.00     0.003 A 
ATOM     29  C   UNL A   1      28.633  28.008  23.083  1.00  0.00     0.049 A 
ATOM     30  C   UNL A   1      30.848  29.238  24.208  1.00  0.00     0.004 A 
ATOM     31  C   UNL A   1      30.801  27.844  24.116  1.00  0.00     0.046 A 
ENDBRANCH  24  25
ENDBRANCH  22  24
ENDBRANCH  19  22
ENDBRANCH  15  18
ENDBRANCH   8  14
ENDBRANCH   4   7
ENDBRANCH   2   3
ENDBRANCH   1   2
BRANCH   1  32
ATOM     32  C   UNL A   1      34.162  28.288  26.803  1.00  0.00     0.002 C 
BRANCH  32  33
ATOM     33  C   UNL A   1      32.937  29.084  27.277  1.00  0.00     0.002 C 
BRANCH  33  34
ATOM     34  C   UNL A   1      33.133  30.594  27.418  1.00  0.00     0.021 C 
BRANCH  34  35
ATOM     35  C   UNL A   1      34.588  31.038  27.345  1.00  0.00     0.116 C 
BRANCH  35  36
ATOM     36  N   UNL A   1      35.057  31.687  28.563  1.00  0.00    -0.352 N 
ATOM     37  C   UNL A   1      35.990  31.238  29.487  1.00  0.00     0.251 C 
ATOM     38  H   UNL A   1      34.657  32.566  28.757  1.00  0.00     0.163 HD
ATOM     39  O   UNL A   1      36.248  31.858  30.495  1.00  0.00    -0.269 OA
BRANCH  37  40
ATOM     40  C   UNL A   1      36.776  30.028  29.137  1.00  0.00     0.039 A 
ATOM     41  C   UNL A   1      37.016  29.113  30.169  1.00  0.00     0.014 A 
ATOM     42  C   UNL A   1      37.465  29.939  27.931  1.00  0.00     0.014 A 
ATOM     43  C   UNL A   1      38.111  28.261  30.079  1.00  0.00     0.010 A 
ATOM     44  C   UNL A   1      38.604  29.158  27.879  1.00  0.00     0.010 A 
ATOM     45  C   UNL A   1      38.964  28.372  28.981  1.00  0.00    -0.014 A 
BRANCH  45  46
ATOM     46  C   UNL A   1      40.324  27.843  28.991  1.00  0.00     0.031 A 
ATOM     47  C   UNL A   1      40.616  26.467  28.548  1.00  0.00     0.074 A 
ATOM     48  C   UNL A   1      41.343  28.637  29.388  1.00  0.00     0.049 A 
ATOM     49  N   UNL A   1      41.621  25.769  28.960  1.00  0.00    -0.248 NA
ATOM     50  C   UNL A   1      39.756  25.746  27.620  1.00  0.00     0.031 C 
ATOM     51  C   UNL A   1      42.774  28.383  29.251  1.00  0.00     0.029 A 
ATOM     52  N   UNL A   1      41.267  29.740  30.234  1.00  0.00    -0.354 N 
ATOM     53  C   UNL A   1      41.715  24.658  28.156  1.00  0.00     0.074 A 
ATOM     54  C   UNL A   1      40.490  24.652  27.389  1.00  0.00     0.031 C 
ATOM     55  C   UNL A   1      43.433  29.117  30.161  1.00  0.00     0.029 A 
ATOM     56  C   UNL A   1      42.442  29.764  31.001  1.00  0.00     0.049 A 
ATOM     57  H   UNL A   1      40.525  30.386  30.285  1.00  0.00     0.167 HD
ATOM     58  C   UNL A   1      42.880  23.948  28.117  1.00  0.00     0.034 A 
ATOM     59  C   UNL A   1      42.394  29.693  32.363  1.00  0.00     0.034 A 
ATOM     60  C   UNL A   1      43.876  24.481  29.047  1.00  0.00     0.049 A 
ATOM     61  C   UNL A   1      43.108  28.485  32.931  1.00  0.00     0.074 A 
ATOM     62  C   UNL A   1      44.984  25.294  28.871  1.00  0.00     0.029 A 
ATOM     63  N   UNL A   1      43.648  24.420  30.418  1.00  0.00    -0.354 N 
ATOM     64  N   UNL A   1      43.474  27.451  32.224  1.00  0.00    -0.248 NA
ATOM     65  C   UNL A   1      43.453  28.340  34.342  1.00  0.00     0.031 C 
ATOM     66  C   UNL A   1      45.388  25.770  30.145  1.00  0.00     0.029 A 
ATOM     67  C   UNL A   1      44.546  25.222  31.097  1.00  0.00     0.049 A 
ATOM     68  H   UNL A   1      42.946  23.879  30.845  1.00  0.00     0.167 HD
ATOM     69  C   UNL A   1      44.066  26.517  33.038  1.00  0.00     0.074 A 
ATOM     70  C   UNL A   1      44.050  27.136  34.352  1.00  0.00     0.031 C 
ATOM     71  C   UNL A   1      44.509  25.316  32.552  1.00  0.00     0.034 A 
BRANCH  58  72
ATOM     72  C   UNL A   1      43.223  22.982  27.003  1.00  0.00     0.023 A 
ATOM     73  C   UNL A   1      42.697  21.672  27.030  1.00  0.00     0.031 A 
ATOM     74  C   UNL A   1      44.092  23.258  25.930  1.00  0.00     0.131 A 
ATOM     75  C   UNL A   1      43.123  20.687  26.119  1.00  0.00     0.055 A 
ATOM     76  C   UNL A   1      44.568  22.264  25.063  1.00  0.00     0.041 A 
ATOM     77  F   UNL A   1      44.474  24.509  25.642  1.00  0.00    -0.206 F 
ATOM     78  C   UNL A   1      44.098  20.965  25.166  1.00  0.00     0.022 A 
BRANCH  75  79
ATOM     79  S   UNL A   1      42.379  19.035  26.193  1.00  0.00     0.124 S 
ATOM     80  O   UNL A   1      43.221  18.271  25.280  1.00  0.00    -0.237 OA
ATOM     81  O   UNL A   1      42.496  18.707  27.609  1.00  0.00    -0.237 OA
ATOM     82  O   UNL A   1      41.010  19.259  25.726  1.00  0.00    -0.744 OA
ENDBRANCH  75  79
ENDBRANCH  58  72
BRANCH  59  83
ATOM     83  C   UNL A   1      41.188  30.352  32.941  1.00  0.00     0.023 A 
ATOM     84  C   UNL A   1      41.189  31.764  32.987  1.00  0.00     0.031 A 
ATOM     85  C   UNL A   1      39.958  29.693  33.054  1.00  0.00     0.131 A 
ATOM     86  C   UNL A   1      39.980  32.474  32.970  1.00  0.00     0.055 A 
ATOM     87  C   UNL A   1      38.754  30.407  33.107  1.00  0.00     0.041 A 
ATOM     88  F   UNL A   1      39.890  28.355  32.983  1.00  0.00    -0.206 F 
ATOM     89  C   UNL A   1      38.758  31.800  33.018  1.00  0.00     0.022 A 
BRANCH  86  90
ATOM     90  S   UNL A   1      40.001  34.257  32.607  1.00  0.00     0.124 S 
ATOM     91  O   UNL A   1      38.583  34.553  32.446  1.00  0.00    -0.237 OA
ATOM     92  O   UNL A   1      40.639  34.832  33.790  1.00  0.00    -0.237 OA
ATOM     93  O   UNL A   1      40.809  34.340  31.392  1.00  0.00    -0.744 OA
ENDBRANCH  86  90
ENDBRANCH  59  83
BRANCH  71  94
ATOM     94  C   UNL A   1      45.031  24.150  33.371  1.00  0.00     0.023 A 
ATOM     95  C   UNL A   1      46.351  24.051  33.836  1.00  0.00     0.031 A 
ATOM     96  C   UNL A   1      44.163  23.104  33.779  1.00  0.00     0.131 A 
ATOM     97  C   UNL A   1      46.780  22.938  34.586  1.00  0.00     0.055 A 
ATOM     98  C   UNL A   1      44.572  22.039  34.587  1.00  0.00     0.041 A 
ATOM     99  F   UNL A   1      42.873  23.073  33.416  1.00  0.00    -0.206 F 
ATOM    100  C   UNL A   1      45.895  21.941  34.985  1.00  0.00     0.022 A 
BRANCH  97 101
ATOM    101  S   UNL A   1      48.543  22.792  34.981  1.00  0.00     0.124 S 
ATOM    102  O   UNL A   1      48.555  23.086  36.412  1.00  0.00    -0.237 OA
ATOM    103  O   UNL A   1      48.833  21.409  34.617  1.00  0.00    -0.237 OA
ATOM    104  O   UNL A   1      49.174  23.803  34.135  1.00  0.00    -0.744 OA
ENDBRANCH  97 101
ENDBRANCH  71  94
ENDBRANCH  45  46
ENDBRANCH  37  40
ENDBRANCH  35  36
ENDBRANCH  34  35
ENDBRANCH  33  34
ENDBRANCH  32  33
ENDBRANCH   1  32
TORSDOF 21
ENDMDL
MODEL 2
REMARK VINA RESULT:     -12.7      3.860     10.006
REMARK SMILES Cc1cccc(O[C@H](C)C(=O)NNC(=O)[C@H]2[C@@H]3CC[C@@H](C3)[C@@H]2C(=O)NCCCCCCNC(=O)c2ccc(-c3c4nc(c(-c5cc(S(=O)(=O)[O-])ccc5F)c5ccc([nH]5)c(-c5cc(S(=O)(=O)[O-])ccc5F)c5nc(c(-c6cc(S(=O)(=O)[O-])ccc6F)c6ccc3[nH]6)C=C5)C=C4)cc2)c1
REMARK SMILES IDX 27 1 26 2 25 3 23 4 24 5 22 7 16 8 17 9 18 10 21 11 20 12
REMARK SMILES IDX 19 13 14 14 13 15 15 17 12 18 10 19 11 20 8 22 9 23 7 24
REMARK SMILES IDX 6 25 1 26 2 27 3 28 98 29 4 30 5 31 28 32 29 33 30 34 31 35
REMARK SMILES IDX 32 36 33 37 34 39 35 40 36 41 97 42 37 43 96 44 38 45 39 46
REMARK SMILES IDX 40 47 90 48 41 49 95 50 89 51 91 52 42 53 94 54 88 55 87 56
REMARK SMILES IDX 43 58 75 59 55 60 74 61 56 62 59 63 73 64 92 65 57 66 58 67
REMARK SMILES IDX 72 69 93 70 60 71 44 72 45 73 53 74 46 75 52 76 54 77 51 78
REMARK SMILES IDX 47 79 48 80 49 81 50 82 76 83 77 84 85 85 78 86 84 87 86 88
REMARK SMILES IDX 83 89 79 90 80 91 81 92 82 93 61 94 62 95 70 96 63 97 69 98
REMARK SMILES IDX 71 99 68 100 64 101 65 102 66 103 67 104
REMARK H PARENT 25 6 13 16 12 21 32 38 91 57 59 68
REMARK Flexibility Score: inf
ROOT
ATOM      1  C   UNL A   1      36.886  22.765  25.817  1.00  0.00     0.021 C 
ENDROOT
BRANCH   1   2
ATOM      2  C   UNL A   1      36.280  23.959  25.080  1.00  0.00     0.116 C 
BRANCH   2   3
ATOM      3  N   UNL A   1      35.124  24.513  25.765  1.00  0.00    -0.356 N 
ATOM      4  C   UNL A   1      34.013  25.115  25.247  1.00  0.00     0.224 C 
ATOM      5  O   UNL A   1      33.120  25.491  26.002  1.00  0.00    -0.275 OA
ATOM      6  H   UNL A   1      35.145  24.443  26.747  1.00  0.00     0.163 HD
BRANCH   4   7
ATOM      7  C   UNL A   1      33.933  25.269  23.737  1.00  0.00     0.094 C 
ATOM      8  C   UNL A   1      33.046  26.423  23.251  1.00  0.00     0.096 C 
ATOM      9  C   UNL A   1      32.114  25.749  22.215  1.00  0.00     0.002 C 
ATOM     10  C   UNL A   1      31.060  24.935  22.998  1.00  0.00     0.005 C 
ATOM     11  C   UNL A   1      32.957  24.612  21.642  1.00  0.00     0.009 C 
ATOM     12  C   UNL A   1      33.304  24.043  23.022  1.00  0.00     0.002 C 
ATOM     13  C   UNL A   1      31.883  23.758  23.554  1.00  0.00     0.005 C 
BRANCH   8  14
ATOM     14  C   UNL A   1      33.735  27.695  22.754  1.00  0.00     0.242 C 
ATOM     15  N   UNL A   1      34.272  28.669  23.547  1.00  0.00    -0.267 N 
ATOM     16  H   UNL A   1      34.477  29.518  23.093  1.00  0.00     0.191 HD
ATOM     17  O   UNL A   1      33.845  27.856  21.531  1.00  0.00    -0.273 OA
BRANCH  15  18
ATOM     18  N   UNL A   1      34.565  28.631  24.887  1.00  0.00    -0.264 N 
ATOM     19  C   UNL A   1      33.732  28.704  25.958  1.00  0.00     0.279 C 
ATOM     20  O   UNL A   1      34.300  28.589  27.058  1.00  0.00    -0.269 OA
ATOM     21  H   UNL A   1      35.521  28.538  25.104  1.00  0.00     0.191 HD
BRANCH  19  22
ATOM     22  C   UNL A   1      32.203  28.983  25.922  1.00  0.00     0.260 C 
ATOM     23  C   UNL A   1      31.574  28.730  27.299  1.00  0.00     0.064 C 
BRANCH  22  24
ATOM     24  O   UNL A   1      31.538  29.932  25.122  1.00  0.00    -0.481 OA
BRANCH  24  25
ATOM     25  C   UNL A   1      30.515  29.692  24.269  1.00  0.00     0.120 A 
ATOM     26  C   UNL A   1      27.685  31.947  23.064  1.00  0.00     0.044 C 
ATOM     27  C   UNL A   1      28.550  30.740  23.270  1.00  0.00    -0.047 A 
ATOM     28  C   UNL A   1      28.171  29.502  22.748  1.00  0.00     0.003 A 
ATOM     29  C   UNL A   1      29.730  30.824  24.017  1.00  0.00     0.049 A 
ATOM     30  C   UNL A   1      28.970  28.378  22.956  1.00  0.00     0.004 A 
ATOM     31  C   UNL A   1      30.146  28.474  23.706  1.00  0.00     0.046 A 
ENDBRANCH  24  25
ENDBRANCH  22  24
ENDBRANCH  19  22
ENDBRANCH  15  18
ENDBRANCH   8  14
ENDBRANCH   4   7
ENDBRANCH   2   3
ENDBRANCH   1   2
BRANCH   1  32
ATOM     32  C   UNL A   1      37.802  21.869  24.974  1.00  0.00     0.002 C 
BRANCH  32  33
ATOM     33  C   UNL A   1      38.514  20.730  25.719  1.00  0.00     0.002 C 
BRANCH  33  34
ATOM     34  C   UNL A   1      39.933  21.030  26.203  1.00  0.00     0.021 C 
BRANCH  34  35
ATOM     35  C   UNL A   1      40.161  22.488  26.582  1.00  0.00     0.116 C 
BRANCH  35  36
ATOM     36  N   UNL A   1      41.485  22.980  26.222  1.00  0.00    -0.352 N 
ATOM     37  C   UNL A   1      41.938  24.290  26.148  1.00  0.00     0.251 C 
ATOM     38  H   UNL A   1      42.149  22.288  26.001  1.00  0.00     0.163 HD
ATOM     39  O   UNL A   1      43.058  24.563  25.777  1.00  0.00    -0.269 OA
BRANCH  37  40
ATOM     40  C   UNL A   1      41.048  25.355  26.673  1.00  0.00     0.039 A 
ATOM     41  C   UNL A   1      41.049  26.573  25.982  1.00  0.00     0.014 A 
ATOM     42  C   UNL A   1      40.459  25.249  27.929  1.00  0.00     0.014 A 
ATOM     43  C   UNL A   1      40.671  27.733  26.651  1.00  0.00     0.010 A 
ATOM     44  C   UNL A   1      40.170  26.409  28.622  1.00  0.00     0.010 A 
ATOM     45  C   UNL A   1      40.343  27.654  28.004  1.00  0.00    -0.014 A 
BRANCH  45  46
ATOM     46  C   UNL A   1      40.343  28.824  28.877  1.00  0.00     0.031 A 
ATOM     47  C   UNL A   1      39.235  29.797  28.858  1.00  0.00     0.074 A 
ATOM     48  C   UNL A   1      41.366  29.008  29.741  1.00  0.00     0.049 A 
ATOM     49  N   UNL A   1      39.353  31.040  29.185  1.00  0.00    -0.248 NA
ATOM     50  C   UNL A   1      37.892  29.443  28.419  1.00  0.00     0.031 C 
ATOM     51  C   UNL A   1      41.439  29.965  30.841  1.00  0.00     0.029 A 
ATOM     52  N   UNL A   1      42.662  28.515  29.625  1.00  0.00    -0.354 N 
ATOM     53  C   UNL A   1      38.087  31.566  29.292  1.00  0.00     0.074 A 
ATOM     54  C   UNL A   1      37.219  30.554  28.732  1.00  0.00     0.031 C 
ATOM     55  C   UNL A   1      42.729  30.186  31.138  1.00  0.00     0.029 A 
ATOM     56  C   UNL A   1      43.530  29.484  30.152  1.00  0.00     0.049 A 
ATOM     57  H   UNL A   1      42.923  27.646  29.244  1.00  0.00     0.167 HD
ATOM     58  C   UNL A   1      37.894  32.731  29.975  1.00  0.00     0.034 A 
ATOM     59  C   UNL A   1      44.506  30.047  29.382  1.00  0.00     0.034 A 
ATOM     60  C   UNL A   1      39.155  33.298  30.454  1.00  0.00     0.049 A 
ATOM     61  C   UNL A   1      44.363  31.545  29.225  1.00  0.00     0.074 A 
ATOM     62  C   UNL A   1      39.776  33.294  31.693  1.00  0.00     0.029 A 
ATOM     63  N   UNL A   1      40.102  33.754  29.542  1.00  0.00    -0.354 N 
ATOM     64  N   UNL A   1      43.281  32.213  29.519  1.00  0.00    -0.248 NA
ATOM     65  C   UNL A   1      45.422  32.408  28.710  1.00  0.00     0.031 C 
ATOM     66  C   UNL A   1      41.125  33.695  31.511  1.00  0.00     0.029 A 
ATOM     67  C   UNL A   1      41.315  33.973  30.168  1.00  0.00     0.049 A 
ATOM     68  H   UNL A   1      39.931  33.901  28.584  1.00  0.00     0.167 HD
ATOM     69  C   UNL A   1      43.463  33.544  29.234  1.00  0.00     0.074 A 
ATOM     70  C   UNL A   1      44.832  33.615  28.753  1.00  0.00     0.031 C 
ATOM     71  C   UNL A   1      42.464  34.462  29.416  1.00  0.00     0.034 A 
BRANCH  58  72
ATOM     72  C   UNL A   1      36.540  33.176  30.487  1.00  0.00     0.023 A 
ATOM     73  C   UNL A   1      35.706  33.959  29.661  1.00  0.00     0.031 A 
ATOM     74  C   UNL A   1      36.036  32.918  31.776  1.00  0.00     0.131 A 
ATOM     75  C   UNL A   1      34.522  34.542  30.149  1.00  0.00     0.055 A 
ATOM     76  C   UNL A   1      34.894  33.550  32.286  1.00  0.00     0.041 A 
ATOM     77  F   UNL A   1      36.599  32.003  32.578  1.00  0.00    -0.206 F 
ATOM     78  C   UNL A   1      34.138  34.383  31.477  1.00  0.00     0.022 A 
BRANCH  75  79
ATOM     79  S   UNL A   1      33.482  35.510  29.020  1.00  0.00     0.124 S 
ATOM     80  O   UNL A   1      32.872  36.485  29.915  1.00  0.00    -0.237 OA
ATOM     81  O   UNL A   1      34.460  36.027  28.070  1.00  0.00    -0.237 OA
ATOM     82  O   UNL A   1      32.561  34.514  28.472  1.00  0.00    -0.744 OA
ENDBRANCH  75  79
ENDBRANCH  58  72
BRANCH  59  83
ATOM     83  C   UNL A   1      45.066  29.108  28.368  1.00  0.00     0.023 A 
ATOM     84  C   UNL A   1      45.989  28.142  28.829  1.00  0.00     0.031 A 
ATOM     85  C   UNL A   1      44.446  28.884  27.133  1.00  0.00     0.131 A 
ATOM     86  C   UNL A   1      46.140  26.926  28.151  1.00  0.00     0.055 A 
ATOM     87  C   UNL A   1      44.652  27.695  26.422  1.00  0.00     0.041 A 
ATOM     88  F   UNL A   1      43.535  29.747  26.659  1.00  0.00    -0.206 F 
ATOM     89  C   UNL A   1      45.465  26.691  26.952  1.00  0.00     0.022 A 
BRANCH  86  90
ATOM     90  S   UNL A   1      46.999  25.549  28.974  1.00  0.00     0.124 S 
ATOM     91  O   UNL A   1      46.932  24.499  27.965  1.00  0.00    -0.237 OA
ATOM     92  O   UNL A   1      48.330  26.094  29.236  1.00  0.00    -0.237 OA
ATOM     93  O   UNL A   1      46.197  25.327  30.176  1.00  0.00    -0.744 OA
ENDBRANCH  86  90
ENDBRANCH  59  83
BRANCH  71  94
ATOM     94  C   UNL A   1      42.492  35.920  28.993  1.00  0.00     0.023 A 
ATOM     95  C   UNL A   1      43.172  36.924  29.697  1.00  0.00     0.031 A 
ATOM     96  C   UNL A   1      41.871  36.337  27.787  1.00  0.00     0.131 A 
ATOM     97  C   UNL A   1      43.154  38.264  29.260  1.00  0.00     0.055 A 
ATOM     98  C   UNL A   1      41.919  37.652  27.314  1.00  0.00     0.041 A 
ATOM     99  F   UNL A   1      41.194  35.482  27.006  1.00  0.00    -0.206 F 
ATOM    100  C   UNL A   1      42.552  38.632  28.061  1.00  0.00     0.022 A 
BRANCH  97 101
ATOM    101  S   UNL A   1      43.890  39.530  30.328  1.00  0.00     0.124 S 
ATOM    102  O   UNL A   1      44.976  40.035  29.491  1.00  0.00    -0.237 OA
ATOM    103  O   UNL A   1      42.775  40.447  30.541  1.00  0.00    -0.237 OA
ATOM    104  O   UNL A   1      44.314  38.783  31.511  1.00  0.00    -0.744 OA
ENDBRANCH  97 101
ENDBRANCH  71  94
ENDBRANCH  45  46
ENDBRANCH  37  40
ENDBRANCH  35  36
ENDBRANCH  34  35
ENDBRANCH  33  34
ENDBRANCH  32  33
ENDBRANCH   1  32
TORSDOF 21
ENDMDL
MODEL 3
REMARK VINA RESULT:     -12.4      1.331      3.616
REMARK SMILES Cc1cccc(O[C@H](C)C(=O)NNC(=O)[C@H]2[C@@H]3CC[C@@H](C3)[C@@H]2C(=O)NCCCCCCNC(=O)c2ccc(-c3c4nc(c(-c5cc(S(=O)(=O)[O-])ccc5F)c5ccc([nH]5)c(-c5cc(S(=O)(=O)[O-])ccc5F)c5nc(c(-c6cc(S(=O)(=O)[O-])ccc6F)c6ccc3[nH]6)C=C5)C=C4)cc2)c1
REMARK SMILES IDX 27 1 26 2 25 3 23 4 24 5 22 7 16 8 17 9 18 10 21 11 20 12
REMARK SMILES IDX 19 13 14 14 13 15 15 17 12 18 10 19 11 20 8 22 9 23 7 24
REMARK SMILES IDX 6 25 1 26 2 27 3 28 98 29 4 30 5 31 28 32 29 33 30 34 31 35
REMARK SMILES IDX 32 36 33 37 34 39 35 40 36 41 97 42 37 43 96 44 38 45 39 46
REMARK SMILES IDX 40 47 90 48 41 49 95 50 89 51 91 52 42 53 94 54 88 55 87 56
REMARK SMILES IDX 43 58 75 59 55 60 74 61 56 62 59 63 73 64 92 65 57 66 58 67
REMARK SMILES IDX 72 69 93 70 60 71 44 72 45 73 53 74 46 75 52 76 54 77 51 78
REMARK SMILES IDX 47 79 48 80 49 81 50 82 76 83 77 84 85 85 78 86 84 87 86 88
REMARK SMILES IDX 83 89 79 90 80 91 81 92 82 93 61 94 62 95 70 96 63 97 69 98
REMARK SMILES IDX 71 99 68 100 64 101 65 102 66 103 67 104
REMARK H PARENT 25 6 13 16 12 21 32 38 91 57 59 68
REMARK Flexibility Score: inf
ROOT
ATOM      1  C   UNL A   1      32.090  29.147  25.329  1.00  0.00     0.021 C 
ENDROOT
BRANCH   1   2
ATOM      2  C   UNL A   1      31.508  27.848  25.885  1.00  0.00     0.116 C 
BRANCH   2   3
ATOM      3  N   UNL A   1      30.601  27.197  24.955  1.00  0.00    -0.356 N 
ATOM      4  C   UNL A   1      30.585  25.902  24.519  1.00  0.00     0.224 C 
ATOM      5  O   UNL A   1      29.703  25.535  23.747  1.00  0.00    -0.275 OA
ATOM      6  H   UNL A   1      29.894  27.773  24.585  1.00  0.00     0.163 HD
BRANCH   4   7
ATOM      7  C   UNL A   1      31.665  24.968  25.040  1.00  0.00     0.094 C 
ATOM      8  C   UNL A   1      31.682  23.576  24.394  1.00  0.00     0.096 C 
ATOM      9  C   UNL A   1      31.687  22.616  25.610  1.00  0.00     0.002 C 
ATOM     10  C   UNL A   1      30.259  22.603  26.198  1.00  0.00     0.005 C 
ATOM     11  C   UNL A   1      32.416  23.400  26.698  1.00  0.00     0.009 C 
ATOM     12  C   UNL A   1      31.519  24.633  26.548  1.00  0.00     0.002 C 
ATOM     13  C   UNL A   1      30.144  23.996  26.846  1.00  0.00     0.005 C 
BRANCH   8  14
ATOM     14  C   UNL A   1      32.759  23.285  23.349  1.00  0.00     0.242 C 
ATOM     15  N   UNL A   1      33.078  22.051  22.858  1.00  0.00    -0.267 N 
ATOM     16  H   UNL A   1      33.928  21.997  22.367  1.00  0.00     0.191 HD
ATOM     17  O   UNL A   1      33.388  24.244  22.880  1.00  0.00    -0.273 OA
BRANCH  15  18
ATOM     18  N   UNL A   1      32.378  20.874  22.954  1.00  0.00    -0.264 N 
ATOM     19  C   UNL A   1      32.542  19.838  23.819  1.00  0.00     0.279 C 
ATOM     20  O   UNL A   1      31.709  18.923  23.686  1.00  0.00    -0.269 OA
ATOM     21  H   UNL A   1      31.651  20.764  22.300  1.00  0.00     0.191 HD
BRANCH  19  22
ATOM     22  C   UNL A   1      33.680  19.677  24.864  1.00  0.00     0.260 C 
ATOM     23  C   UNL A   1      33.214  18.816  26.045  1.00  0.00     0.064 C 
BRANCH  22  24
ATOM     24  O   UNL A   1      35.064  19.643  24.603  1.00  0.00    -0.481 OA
BRANCH  24  25
ATOM     25  C   UNL A   1      35.978  20.568  24.978  1.00  0.00     0.120 A 
ATOM     26  C   UNL A   1      35.628  24.312  25.617  1.00  0.00     0.044 C 
ATOM     27  C   UNL A   1      36.231  22.949  25.453  1.00  0.00    -0.047 A 
ATOM     28  C   UNL A   1      37.614  22.775  25.523  1.00  0.00     0.003 A 
ATOM     29  C   UNL A   1      35.424  21.835  25.194  1.00  0.00     0.049 A 
ATOM     30  C   UNL A   1      38.172  21.508  25.353  1.00  0.00     0.004 A 
ATOM     31  C   UNL A   1      37.356  20.403  25.092  1.00  0.00     0.046 A 
ENDBRANCH  24  25
ENDBRANCH  22  24
ENDBRANCH  19  22
ENDBRANCH  15  18
ENDBRANCH   8  14
ENDBRANCH   4   7
ENDBRANCH   2   3
ENDBRANCH   1   2
BRANCH   1  32
ATOM     32  C   UNL A   1      33.545  29.435  25.722  1.00  0.00     0.002 C 
BRANCH  32  33
ATOM     33  C   UNL A   1      33.795  29.785  27.196  1.00  0.00     0.002 C 
BRANCH  33  34
ATOM     34  C   UNL A   1      33.777  31.274  27.544  1.00  0.00     0.021 C 
BRANCH  34  35
ATOM     35  C   UNL A   1      35.159  31.867  27.793  1.00  0.00     0.116 C 
BRANCH  35  36
ATOM     36  N   UNL A   1      35.431  32.128  29.201  1.00  0.00    -0.352 N 
ATOM     37  C   UNL A   1      36.148  31.360  30.108  1.00  0.00     0.251 C 
ATOM     38  H   UNL A   1      35.054  32.965  29.558  1.00  0.00     0.163 HD
ATOM     39  O   UNL A   1      36.251  31.670  31.274  1.00  0.00    -0.269 OA
BRANCH  37  40
ATOM     40  C   UNL A   1      36.913  30.205  29.576  1.00  0.00     0.039 A 
ATOM     41  C   UNL A   1      37.085  29.114  30.437  1.00  0.00     0.014 A 
ATOM     42  C   UNL A   1      37.647  30.306  28.398  1.00  0.00     0.014 A 
ATOM     43  C   UNL A   1      38.158  28.253  30.235  1.00  0.00     0.010 A 
ATOM     44  C   UNL A   1      38.765  29.507  28.248  1.00  0.00     0.010 A 
ATOM     45  C   UNL A   1      39.058  28.527  29.204  1.00  0.00    -0.014 A 
BRANCH  45  46
ATOM     46  C   UNL A   1      40.401  27.957  29.167  1.00  0.00     0.031 A 
ATOM     47  C   UNL A   1      40.638  26.577  28.705  1.00  0.00     0.074 A 
ATOM     48  C   UNL A   1      41.455  28.716  29.539  1.00  0.00     0.049 A 
ATOM     49  N   UNL A   1      41.632  25.845  29.079  1.00  0.00    -0.248 NA
ATOM     50  C   UNL A   1      39.727  25.890  27.798  1.00  0.00     0.031 C 
ATOM     51  C   UNL A   1      42.873  28.421  29.356  1.00  0.00     0.029 A 
ATOM     52  N   UNL A   1      41.439  29.813  30.395  1.00  0.00    -0.354 N 
ATOM     53  C   UNL A   1      41.668  24.739  28.263  1.00  0.00     0.074 A 
ATOM     54  C   UNL A   1      40.420  24.777  27.535  1.00  0.00     0.031 C 
ATOM     55  C   UNL A   1      43.582  29.126  30.250  1.00  0.00     0.029 A 
ATOM     56  C   UNL A   1      42.638  29.795  31.126  1.00  0.00     0.049 A 
ATOM     57  H   UNL A   1      40.719  30.480  30.475  1.00  0.00     0.167 HD
ATOM     58  C   UNL A   1      42.809  23.995  28.182  1.00  0.00     0.034 A 
ATOM     59  C   UNL A   1      42.630  29.714  32.488  1.00  0.00     0.034 A 
ATOM     60  C   UNL A   1      43.849  24.490  29.085  1.00  0.00     0.049 A 
ATOM     61  C   UNL A   1      43.324  28.480  33.024  1.00  0.00     0.074 A 
ATOM     62  C   UNL A   1      44.975  25.270  28.881  1.00  0.00     0.029 A 
ATOM     63  N   UNL A   1      43.662  24.422  30.462  1.00  0.00    -0.354 N 
ATOM     64  N   UNL A   1      43.636  27.441  32.297  1.00  0.00    -0.248 NA
ATOM     65  C   UNL A   1      43.708  28.311  34.421  1.00  0.00     0.031 C 
ATOM     66  C   UNL A   1      45.433  25.722  30.146  1.00  0.00     0.029 A 
ATOM     67  C   UNL A   1      44.604  25.191  31.119  1.00  0.00     0.049 A 
ATOM     68  H   UNL A   1      42.957  23.899  30.907  1.00  0.00     0.167 HD
ATOM     69  C   UNL A   1      44.225  26.482  33.085  1.00  0.00     0.074 A 
ATOM     70  C   UNL A   1      44.268  27.090  34.404  1.00  0.00     0.031 C 
ATOM     71  C   UNL A   1      44.616  25.273  32.575  1.00  0.00     0.034 A 
BRANCH  58  72
ATOM     72  C   UNL A   1      43.088  23.029  27.050  1.00  0.00     0.023 A 
ATOM     73  C   UNL A   1      42.582  21.712  27.117  1.00  0.00     0.031 A 
ATOM     74  C   UNL A   1      43.878  23.312  25.919  1.00  0.00     0.131 A 
ATOM     75  C   UNL A   1      42.958  20.730  26.182  1.00  0.00     0.055 A 
ATOM     76  C   UNL A   1      44.307  22.321  25.025  1.00  0.00     0.041 A 
ATOM     77  F   UNL A   1      44.224  24.567  25.603  1.00  0.00    -0.206 F 
ATOM     78  C   UNL A   1      43.861  21.016  25.164  1.00  0.00     0.022 A 
BRANCH  75  79
ATOM     79  S   UNL A   1      42.242  19.068  26.311  1.00  0.00     0.124 S 
ATOM     80  O   UNL A   1      42.275  18.824  27.748  1.00  0.00    -0.237 OA
ATOM     81  O   UNL A   1      40.923  19.255  25.717  1.00  0.00    -0.237 OA
ATOM     82  O   UNL A   1      43.158  18.242  25.523  1.00  0.00    -0.744 OA
ENDBRANCH  75  79
ENDBRANCH  58  72
BRANCH  59  83
ATOM     83  C   UNL A   1      41.463  30.403  33.109  1.00  0.00     0.023 A 
ATOM     84  C   UNL A   1      41.522  31.812  33.195  1.00  0.00     0.031 A 
ATOM     85  C   UNL A   1      40.209  29.791  33.227  1.00  0.00     0.131 A 
ATOM     86  C   UNL A   1      40.343  32.570  33.223  1.00  0.00     0.055 A 
ATOM     87  C   UNL A   1      39.036  30.551  33.325  1.00  0.00     0.041 A 
ATOM     88  F   UNL A   1      40.085  28.460  33.119  1.00  0.00    -0.206 F 
ATOM     89  C   UNL A   1      39.096  31.945  33.276  1.00  0.00     0.022 A 
BRANCH  86  90
ATOM     90  S   UNL A   1      40.430  34.361  32.911  1.00  0.00     0.124 S 
ATOM     91  O   UNL A   1      41.820  34.533  32.508  1.00  0.00    -0.237 OA
ATOM     92  O   UNL A   1      39.434  34.566  31.862  1.00  0.00    -0.237 OA
ATOM     93  O   UNL A   1      40.067  34.942  34.203  1.00  0.00    -0.744 OA
ENDBRANCH  86  90
ENDBRANCH  59  83
BRANCH  71  94
ATOM     94  C   UNL A   1      45.127  24.084  33.368  1.00  0.00     0.023 A 
ATOM     95  C   UNL A   1      46.405  24.020  33.942  1.00  0.00     0.031 A 
ATOM     96  C   UNL A   1      44.285  22.974  33.635  1.00  0.00     0.131 A 
ATOM     97  C   UNL A   1      46.828  22.884  34.661  1.00  0.00     0.055 A 
ATOM     98  C   UNL A   1      44.679  21.881  34.413  1.00  0.00     0.041 A 
ATOM     99  F   UNL A   1      43.033  22.904  33.158  1.00  0.00    -0.206 F 
ATOM    100  C   UNL A   1      45.966  21.822  34.920  1.00  0.00     0.022 A 
BRANCH  97 101
ATOM    101  S   UNL A   1      48.556  22.799  35.202  1.00  0.00     0.124 S 
ATOM    102  O   UNL A   1      48.484  21.817  36.281  1.00  0.00    -0.237 OA
ATOM    103  O   UNL A   1      49.242  22.360  33.991  1.00  0.00    -0.237 OA
ATOM    104  O   UNL A   1      48.855  24.165  35.625  1.00  0.00    -0.744 OA
ENDBRANCH  97 101
ENDBRANCH  71  94
ENDBRANCH  45  46
ENDBRANCH  37  40
ENDBRANCH  35  36
ENDBRANCH  34  35
ENDBRANCH  33  34
ENDBRANCH  32  33
ENDBRANCH   1  32
TORSDOF 21
ENDMDL
