MODEL 1
REMARK VINA RESULT:     -11.4      0.000      0.000
REMARK SMILES CC1=C(C)C[C@@H](C(=O)NCc2cccnc2)[C@H](C(=O)NCCCCCCNC(=O)c2ccc(-c3c4nc(c(-c5cc(S(=O)(=O)[O-])ccc5F)c5ccc([nH]5)c(-c5cc(S(=O)(=O)[O-])ccc5F)c5nc(c(-c6cc(S(=O)(=O)[O-])ccc6F)c6ccc3[nH]6)C=C5)C=C4)cc2)C1
REMARK SMILES IDX 23 1 22 2 21 3 20 4 18 5 19 6 17 8 1 9 2 10 3 11 93 12 4 13
REMARK SMILES IDX 5 14 6 15 7 16 8 17 9 18 10 20 11 21 12 22 16 23 13 24 15 25
REMARK SMILES IDX 14 26 24 27 25 28 26 29 27 30 28 31 29 33 30 34 31 35 92 36
REMARK SMILES IDX 32 37 91 38 33 39 34 40 35 41 85 42 36 43 90 44 84 45 86 46
REMARK SMILES IDX 37 47 89 48 83 49 82 50 38 52 70 53 50 54 69 55 51 56 54 57
REMARK SMILES IDX 68 58 87 59 52 60 53 61 67 63 88 64 55 65 39 66 40 67 48 68
REMARK SMILES IDX 41 69 47 70 49 71 46 72 42 73 43 74 44 75 45 76 71 77 72 78
REMARK SMILES IDX 80 79 73 80 79 81 81 82 78 83 74 84 75 85 76 86 77 87 56 88
REMARK SMILES IDX 57 89 65 90 58 91 64 92 66 93 63 94 59 95 60 96 61 97 62 98
REMARK H PARENT 20 7 9 19 27 32 86 51 54 62
REMARK Flexibility Score: inf
ROOT
ATOM      1  C   UNL A   1      32.300  27.565  25.944  1.00  0.00     0.002 C 
ENDROOT
BRANCH   1   2
ATOM      2  C   UNL A   1      32.726  26.236  25.324  1.00  0.00     0.021 C 
BRANCH   2   3
ATOM      3  C   UNL A   1      33.954  26.351  24.433  1.00  0.00     0.116 C 
BRANCH   3   4
ATOM      4  N   UNL A   1      34.077  25.245  23.514  1.00  0.00    -0.356 N 
ATOM      5  C   UNL A   1      34.465  23.961  23.744  1.00  0.00     0.224 C 
ATOM      6  O   UNL A   1      34.429  23.178  22.790  1.00  0.00    -0.275 OA
ATOM      7  H   UNL A   1      33.844  25.450  22.579  1.00  0.00     0.163 HD
BRANCH   5   8
ATOM      8  C   UNL A   1      34.937  23.482  25.125  1.00  0.00     0.095 C 
ATOM      9  C   UNL A   1      38.695  24.085  26.158  1.00  0.00     0.039 C 
ATOM     10  C   UNL A   1      37.455  23.310  25.792  1.00  0.00    -0.074 C 
ATOM     11  C   UNL A   1      37.446  21.966  25.665  1.00  0.00    -0.074 C 
ATOM     12  C   UNL A   1      36.241  24.174  25.535  1.00  0.00     0.045 C 
ATOM     13  C   UNL A   1      38.669  21.095  25.807  1.00  0.00     0.039 C 
ATOM     14  C   UNL A   1      36.200  21.184  25.315  1.00  0.00     0.045 C 
ATOM     15  C   UNL A   1      34.877  21.954  25.240  1.00  0.00     0.095 C 
BRANCH  15  16
ATOM     16  C   UNL A   1      33.901  21.495  26.325  1.00  0.00     0.224 C 
ATOM     17  O   UNL A   1      34.103  21.805  27.504  1.00  0.00    -0.275 OA
ATOM     18  N   UNL A   1      32.790  20.757  26.081  1.00  0.00    -0.352 N 
ATOM     19  H   UNL A   1      32.276  20.538  26.892  1.00  0.00     0.163 HD
BRANCH  18  20
ATOM     20  C   UNL A   1      32.209  20.228  24.864  1.00  0.00     0.153 C 
BRANCH  20  21
ATOM     21  C   UNL A   1      32.613  18.815  24.556  1.00  0.00    -0.010 A 
ATOM     22  C   UNL A   1      32.855  17.902  25.591  1.00  0.00     0.009 A 
ATOM     23  C   UNL A   1      32.840  18.363  23.260  1.00  0.00     0.116 A 
ATOM     24  C   UNL A   1      33.251  16.601  25.298  1.00  0.00     0.020 A 
ATOM     25  N   UNL A   1      33.244  17.111  22.945  1.00  0.00    -0.264 NA
ATOM     26  C   UNL A   1      33.430  16.255  23.971  1.00  0.00     0.111 A 
ENDBRANCH  20  21
ENDBRANCH  18  20
ENDBRANCH  15  16
ENDBRANCH   5   8
ENDBRANCH   3   4
ENDBRANCH   2   3
ENDBRANCH   1   2
BRANCH   1  27
ATOM     27  C   UNL A   1      31.298  28.370  25.106  1.00  0.00     0.002 C 
BRANCH  27  28
ATOM     28  C   UNL A   1      31.381  29.891  25.276  1.00  0.00     0.021 C 
BRANCH  28  29
ATOM     29  C   UNL A   1      32.253  30.347  26.442  1.00  0.00     0.116 C 
BRANCH  29  30
ATOM     30  N   UNL A   1      32.173  31.785  26.639  1.00  0.00    -0.352 N 
ATOM     31  C   UNL A   1      32.939  32.596  27.434  1.00  0.00     0.251 C 
ATOM     32  H   UNL A   1      31.468  32.242  26.126  1.00  0.00     0.163 HD
ATOM     33  O   UNL A   1      32.565  33.745  27.673  1.00  0.00    -0.269 OA
BRANCH  31  34
ATOM     34  C   UNL A   1      34.198  32.083  28.007  1.00  0.00     0.039 A 
ATOM     35  C   UNL A   1      35.269  32.961  28.189  1.00  0.00     0.014 A 
ATOM     36  C   UNL A   1      34.323  30.735  28.357  1.00  0.00     0.014 A 
ATOM     37  C   UNL A   1      36.447  32.497  28.775  1.00  0.00     0.010 A 
ATOM     38  C   UNL A   1      35.470  30.293  29.008  1.00  0.00     0.010 A 
ATOM     39  C   UNL A   1      36.546  31.168  29.221  1.00  0.00    -0.014 A 
BRANCH  39  40
ATOM     40  C   UNL A   1      37.767  30.676  29.907  1.00  0.00     0.031 A 
ATOM     41  C   UNL A   1      38.083  31.134  31.306  1.00  0.00     0.074 A 
ATOM     42  C   UNL A   1      38.614  29.859  29.252  1.00  0.00     0.049 A 
ATOM     43  N   UNL A   1      39.131  30.873  32.043  1.00  0.00    -0.248 NA
ATOM     44  C   UNL A   1      37.101  32.021  31.948  1.00  0.00     0.031 C 
ATOM     45  C   UNL A   1      38.426  29.369  27.884  1.00  0.00     0.029 A 
ATOM     46  N   UNL A   1      39.803  29.295  29.642  1.00  0.00    -0.354 N 
ATOM     47  C   UNL A   1      38.940  31.569  33.232  1.00  0.00     0.074 A 
ATOM     48  C   UNL A   1      37.707  32.314  33.088  1.00  0.00     0.031 C 
ATOM     49  C   UNL A   1      39.441  28.550  27.565  1.00  0.00     0.029 A 
ATOM     50  C   UNL A   1      40.381  28.500  28.679  1.00  0.00     0.049 A 
ATOM     51  H   UNL A   1      40.204  29.445  30.529  1.00  0.00     0.167 HD
ATOM     52  C   UNL A   1      39.709  31.566  34.349  1.00  0.00     0.034 A 
ATOM     53  C   UNL A   1      41.543  27.816  28.690  1.00  0.00     0.034 A 
ATOM     54  C   UNL A   1      40.932  30.812  34.477  1.00  0.00     0.049 A 
ATOM     55  C   UNL A   1      42.406  27.871  29.926  1.00  0.00     0.074 A 
ATOM     56  C   UNL A   1      41.768  30.706  35.576  1.00  0.00     0.029 A 
ATOM     57  N   UNL A   1      41.500  30.037  33.473  1.00  0.00    -0.354 N 
ATOM     58  N   UNL A   1      42.195  28.509  31.054  1.00  0.00    -0.248 NA
ATOM     59  C   UNL A   1      43.659  27.107  29.892  1.00  0.00     0.031 C 
ATOM     60  C   UNL A   1      42.876  29.935  35.211  1.00  0.00     0.029 A 
ATOM     61  C   UNL A   1      42.691  29.482  33.915  1.00  0.00     0.049 A 
ATOM     62  H   UNL A   1      41.113  29.903  32.577  1.00  0.00     0.167 HD
ATOM     63  C   UNL A   1      43.273  28.191  31.876  1.00  0.00     0.074 A 
ATOM     64  C   UNL A   1      44.122  27.296  31.118  1.00  0.00     0.031 C 
ATOM     65  C   UNL A   1      43.534  28.597  33.145  1.00  0.00     0.034 A 
BRANCH  52  66
ATOM     66  C   UNL A   1      39.260  32.423  35.508  1.00  0.00     0.023 A 
ATOM     67  C   UNL A   1      39.676  33.759  35.644  1.00  0.00     0.031 A 
ATOM     68  C   UNL A   1      38.409  31.898  36.497  1.00  0.00     0.131 A 
ATOM     69  C   UNL A   1      39.301  34.500  36.775  1.00  0.00     0.055 A 
ATOM     70  C   UNL A   1      37.971  32.666  37.577  1.00  0.00     0.041 A 
ATOM     71  F   UNL A   1      37.996  30.622  36.435  1.00  0.00    -0.206 F 
ATOM     72  C   UNL A   1      38.428  33.972  37.728  1.00  0.00     0.022 A 
BRANCH  69  73
ATOM     73  S   UNL A   1      40.082  36.113  37.052  1.00  0.00     0.124 S 
ATOM     74  O   UNL A   1      39.322  36.616  38.194  1.00  0.00    -0.237 OA
ATOM     75  O   UNL A   1      41.469  35.751  37.317  1.00  0.00    -0.237 OA
ATOM     76  O   UNL A   1      39.851  36.825  35.797  1.00  0.00    -0.744 OA
ENDBRANCH  69  73
ENDBRANCH  52  66
BRANCH  53  77
ATOM     77  C   UNL A   1      41.969  27.026  27.498  1.00  0.00     0.023 A 
ATOM     78  C   UNL A   1      41.990  25.622  27.536  1.00  0.00     0.031 A 
ATOM     79  C   UNL A   1      42.405  27.659  26.322  1.00  0.00     0.131 A 
ATOM     80  C   UNL A   1      42.486  24.900  26.441  1.00  0.00     0.055 A 
ATOM     81  C   UNL A   1      42.842  26.934  25.211  1.00  0.00     0.041 A 
ATOM     82  F   UNL A   1      42.403  28.999  26.230  1.00  0.00    -0.206 F 
ATOM     83  C   UNL A   1      42.898  25.546  25.273  1.00  0.00     0.022 A 
BRANCH  80  84
ATOM     84  S   UNL A   1      42.678  23.103  26.602  1.00  0.00     0.124 S 
ATOM     85  O   UNL A   1      44.109  22.938  26.372  1.00  0.00    -0.237 OA
ATOM     86  O   UNL A   1      42.214  22.871  27.965  1.00  0.00    -0.237 OA
ATOM     87  O   UNL A   1      41.811  22.575  25.551  1.00  0.00    -0.744 OA
ENDBRANCH  80  84
ENDBRANCH  53  77
BRANCH  65  88
ATOM     88  C   UNL A   1      44.768  28.032  33.809  1.00  0.00     0.023 A 
ATOM     89  C   UNL A   1      44.729  26.843  34.558  1.00  0.00     0.031 A 
ATOM     90  C   UNL A   1      46.000  28.700  33.692  1.00  0.00     0.131 A 
ATOM     91  C   UNL A   1      45.886  26.390  35.209  1.00  0.00     0.055 A 
ATOM     92  C   UNL A   1      47.163  28.208  34.287  1.00  0.00     0.041 A 
ATOM     93  F   UNL A   1      46.096  29.842  32.993  1.00  0.00    -0.206 F 
ATOM     94  C   UNL A   1      47.106  27.053  35.062  1.00  0.00     0.022 A 
BRANCH  91  95
ATOM     95  S   UNL A   1      45.752  24.976  36.336  1.00  0.00     0.124 S 
ATOM     96  O   UNL A   1      44.918  24.054  35.571  1.00  0.00    -0.237 OA
ATOM     97  O   UNL A   1      47.147  24.579  36.507  1.00  0.00    -0.237 OA
ATOM     98  O   UNL A   1      45.119  25.542  37.526  1.00  0.00    -0.744 OA
ENDBRANCH  91  95
ENDBRANCH  65  88
ENDBRANCH  39  40
ENDBRANCH  31  34
ENDBRANCH  29  30
ENDBRANCH  28  29
ENDBRANCH  27  28
ENDBRANCH   1  27
TORSDOF 19
ENDMDL
MODEL 2
REMARK VINA RESULT:     -11.4      2.469      8.436
REMARK SMILES CC1=C(C)C[C@@H](C(=O)NCc2cccnc2)[C@H](C(=O)NCCCCCCNC(=O)c2ccc(-c3c4nc(c(-c5cc(S(=O)(=O)[O-])ccc5F)c5ccc([nH]5)c(-c5cc(S(=O)(=O)[O-])ccc5F)c5nc(c(-c6cc(S(=O)(=O)[O-])ccc6F)c6ccc3[nH]6)C=C5)C=C4)cc2)C1
REMARK SMILES IDX 23 1 22 2 21 3 20 4 18 5 19 6 17 8 1 9 2 10 3 11 93 12 4 13
REMARK SMILES IDX 5 14 6 15 7 16 8 17 9 18 10 20 11 21 12 22 16 23 13 24 15 25
REMARK SMILES IDX 14 26 24 27 25 28 26 29 27 30 28 31 29 33 30 34 31 35 92 36
REMARK SMILES IDX 32 37 91 38 33 39 34 40 35 41 85 42 36 43 90 44 84 45 86 46
REMARK SMILES IDX 37 47 89 48 83 49 82 50 38 52 70 53 50 54 69 55 51 56 54 57
REMARK SMILES IDX 68 58 87 59 52 60 53 61 67 63 88 64 55 65 39 66 40 67 48 68
REMARK SMILES IDX 41 69 47 70 49 71 46 72 42 73 43 74 44 75 45 76 71 77 72 78
REMARK SMILES IDX 80 79 73 80 79 81 81 82 78 83 74 84 75 85 76 86 77 87 56 88
REMARK SMILES IDX 57 89 65 90 58 91 64 92 66 93 63 94 59 95 60 96 61 97 62 98
REMARK H PARENT 20 7 9 19 27 32 86 51 54 62
REMARK Flexibility Score: inf
ROOT
ATOM      1  C   UNL A   1      31.598  29.036  25.767  1.00  0.00     0.002 C 
ENDROOT
BRANCH   1   2
ATOM      2  C   UNL A   1      32.630  29.357  24.688  1.00  0.00     0.021 C 
BRANCH   2   3
ATOM      3  C   UNL A   1      33.844  28.440  24.722  1.00  0.00     0.116 C 
BRANCH   3   4
ATOM      4  N   UNL A   1      33.854  27.495  23.630  1.00  0.00    -0.356 N 
ATOM      5  C   UNL A   1      33.394  26.216  23.582  1.00  0.00     0.224 C 
ATOM      6  O   UNL A   1      33.465  25.629  22.498  1.00  0.00    -0.275 OA
ATOM      7  H   UNL A   1      34.254  27.828  22.794  1.00  0.00     0.163 HD
BRANCH   5   8
ATOM      8  C   UNL A   1      32.810  25.508  24.812  1.00  0.00     0.095 C 
ATOM      9  C   UNL A   1      34.655  22.318  26.217  1.00  0.00     0.039 C 
ATOM     10  C   UNL A   1      33.556  23.125  25.576  1.00  0.00    -0.074 C 
ATOM     11  C   UNL A   1      32.426  22.565  25.094  1.00  0.00    -0.074 C 
ATOM     12  C   UNL A   1      33.853  24.604  25.479  1.00  0.00     0.045 C 
ATOM     13  C   UNL A   1      32.157  21.081  25.078  1.00  0.00     0.039 C 
ATOM     14  C   UNL A   1      31.314  23.374  24.465  1.00  0.00     0.045 C 
ATOM     15  C   UNL A   1      31.433  24.901  24.511  1.00  0.00     0.095 C 
BRANCH  15  16
ATOM     16  C   UNL A   1      30.329  25.523  25.365  1.00  0.00     0.224 C 
ATOM     17  O   UNL A   1      30.417  25.496  26.598  1.00  0.00    -0.275 OA
ATOM     18  N   UNL A   1      29.229  26.131  24.857  1.00  0.00    -0.352 N 
ATOM     19  H   UNL A   1      28.611  26.469  25.545  1.00  0.00     0.163 HD
BRANCH  18  20
ATOM     20  C   UNL A   1      28.783  26.381  23.502  1.00  0.00     0.153 C 
BRANCH  20  21
ATOM     21  C   UNL A   1      28.606  27.836  23.173  1.00  0.00    -0.010 A 
ATOM     22  C   UNL A   1      29.692  28.602  22.729  1.00  0.00     0.009 A 
ATOM     23  C   UNL A   1      27.402  28.508  23.359  1.00  0.00     0.116 A 
ATOM     24  C   UNL A   1      29.526  29.954  22.447  1.00  0.00     0.020 A 
ATOM     25  N   UNL A   1      27.215  29.826  23.114  1.00  0.00    -0.264 NA
ATOM     26  C   UNL A   1      28.279  30.516  22.654  1.00  0.00     0.111 A 
ENDBRANCH  20  21
ENDBRANCH  18  20
ENDBRANCH  15  16
ENDBRANCH   5   8
ENDBRANCH   3   4
ENDBRANCH   2   3
ENDBRANCH   1   2
BRANCH   1  27
ATOM     27  C   UNL A   1      31.551  30.039  26.927  1.00  0.00     0.002 C 
BRANCH  27  28
ATOM     28  C   UNL A   1      31.411  31.508  26.511  1.00  0.00     0.021 C 
BRANCH  28  29
ATOM     29  C   UNL A   1      32.714  32.301  26.556  1.00  0.00     0.116 C 
BRANCH  29  30
ATOM     30  N   UNL A   1      32.524  33.606  27.168  1.00  0.00    -0.352 N 
ATOM     31  C   UNL A   1      33.117  34.136  28.284  1.00  0.00     0.251 C 
ATOM     32  H   UNL A   1      31.876  34.194  26.716  1.00  0.00     0.163 HD
ATOM     33  O   UNL A   1      32.648  35.149  28.801  1.00  0.00    -0.269 OA
BRANCH  31  34
ATOM     34  C   UNL A   1      34.306  33.481  28.863  1.00  0.00     0.039 A 
ATOM     35  C   UNL A   1      35.547  34.114  28.761  1.00  0.00     0.014 A 
ATOM     36  C   UNL A   1      34.197  32.240  29.498  1.00  0.00     0.014 A 
ATOM     37  C   UNL A   1      36.669  33.526  29.347  1.00  0.00     0.010 A 
ATOM     38  C   UNL A   1      35.300  31.694  30.145  1.00  0.00     0.010 A 
ATOM     39  C   UNL A   1      36.549  32.329  30.073  1.00  0.00    -0.014 A 
BRANCH  39  40
ATOM     40  C   UNL A   1      37.719  31.725  30.760  1.00  0.00     0.031 A 
ATOM     41  C   UNL A   1      38.559  30.695  30.053  1.00  0.00     0.074 A 
ATOM     42  C   UNL A   1      37.993  32.068  32.033  1.00  0.00     0.049 A 
ATOM     43  N   UNL A   1      39.573  30.005  30.505  1.00  0.00    -0.248 NA
ATOM     44  C   UNL A   1      38.191  30.384  28.662  1.00  0.00     0.031 C 
ATOM     45  C   UNL A   1      37.234  33.036  32.828  1.00  0.00     0.029 A 
ATOM     46  N   UNL A   1      38.981  31.645  32.886  1.00  0.00    -0.354 N 
ATOM     47  C   UNL A   1      39.962  29.173  29.460  1.00  0.00     0.074 A 
ATOM     48  C   UNL A   1      39.031  29.400  28.376  1.00  0.00     0.031 C 
ATOM     49  C   UNL A   1      37.806  33.159  34.036  1.00  0.00     0.029 A 
ATOM     50  C   UNL A   1      38.936  32.241  34.125  1.00  0.00     0.049 A 
ATOM     51  H   UNL A   1      39.660  30.977  32.634  1.00  0.00     0.167 HD
ATOM     52  C   UNL A   1      41.014  28.318  29.403  1.00  0.00     0.034 A 
ATOM     53  C   UNL A   1      39.711  32.060  35.213  1.00  0.00     0.034 A 
ATOM     54  C   UNL A   1      41.936  28.110  30.492  1.00  0.00     0.049 A 
ATOM     55  C   UNL A   1      40.843  31.065  35.140  1.00  0.00     0.074 A 
ATOM     56  C   UNL A   1      43.056  27.298  30.528  1.00  0.00     0.029 A 
ATOM     57  N   UNL A   1      41.844  28.712  31.741  1.00  0.00    -0.354 N 
ATOM     58  N   UNL A   1      41.215  30.309  34.134  1.00  0.00    -0.248 NA
ATOM     59  C   UNL A   1      41.661  30.905  36.349  1.00  0.00     0.031 C 
ATOM     60  C   UNL A   1      43.594  27.349  31.818  1.00  0.00     0.029 A 
ATOM     61  C   UNL A   1      42.866  28.262  32.563  1.00  0.00     0.049 A 
ATOM     62  H   UNL A   1      41.154  29.364  32.004  1.00  0.00     0.167 HD
ATOM     63  C   UNL A   1      42.336  29.612  34.578  1.00  0.00     0.074 A 
ATOM     64  C   UNL A   1      42.583  30.049  35.937  1.00  0.00     0.031 C 
ATOM     65  C   UNL A   1      43.096  28.699  33.921  1.00  0.00     0.034 A 
BRANCH  52  66
ATOM     66  C   UNL A   1      41.203  27.530  28.129  1.00  0.00     0.023 A 
ATOM     67  C   UNL A   1      40.888  26.162  28.052  1.00  0.00     0.031 A 
ATOM     68  C   UNL A   1      41.714  28.151  26.975  1.00  0.00     0.131 A 
ATOM     69  C   UNL A   1      41.152  25.445  26.875  1.00  0.00     0.055 A 
ATOM     70  C   UNL A   1      41.895  27.452  25.780  1.00  0.00     0.041 A 
ATOM     71  F   UNL A   1      42.054  29.450  26.992  1.00  0.00    -0.206 F 
ATOM     72  C   UNL A   1      41.626  26.088  25.730  1.00  0.00     0.022 A 
BRANCH  69  73
ATOM     73  S   UNL A   1      40.997  23.639  26.908  1.00  0.00     0.124 S 
ATOM     74  O   UNL A   1      39.564  23.463  26.684  1.00  0.00    -0.237 OA
ATOM     75  O   UNL A   1      41.870  23.228  25.816  1.00  0.00    -0.237 OA
ATOM     76  O   UNL A   1      41.461  23.280  28.247  1.00  0.00    -0.744 OA
ENDBRANCH  69  73
ENDBRANCH  52  66
BRANCH  53  77
ATOM     77  C   UNL A   1      39.449  32.825  36.467  1.00  0.00     0.023 A 
ATOM     78  C   UNL A   1      38.558  32.334  37.435  1.00  0.00     0.031 A 
ATOM     79  C   UNL A   1      40.047  34.076  36.696  1.00  0.00     0.131 A 
ATOM     80  C   UNL A   1      38.250  33.114  38.560  1.00  0.00     0.055 A 
ATOM     81  C   UNL A   1      39.783  34.821  37.847  1.00  0.00     0.041 A 
ATOM     82  F   UNL A   1      40.909  34.591  35.805  1.00  0.00    -0.206 F 
ATOM     83  C   UNL A   1      38.868  34.346  38.781  1.00  0.00     0.022 A 
BRANCH  80  84
ATOM     84  S   UNL A   1      36.951  32.534  39.687  1.00  0.00     0.124 S 
ATOM     85  O   UNL A   1      37.407  31.182  39.990  1.00  0.00    -0.237 OA
ATOM     86  O   UNL A   1      37.040  33.503  40.774  1.00  0.00    -0.237 OA
ATOM     87  O   UNL A   1      35.738  32.618  38.877  1.00  0.00    -0.744 OA
ENDBRANCH  80  84
ENDBRANCH  53  77
BRANCH  65  88
ATOM     88  C   UNL A   1      44.299  28.150  34.651  1.00  0.00     0.023 A 
ATOM     89  C   UNL A   1      44.229  26.975  35.419  1.00  0.00     0.031 A 
ATOM     90  C   UNL A   1      45.533  28.820  34.580  1.00  0.00     0.131 A 
ATOM     91  C   UNL A   1      45.356  26.538  36.131  1.00  0.00     0.055 A 
ATOM     92  C   UNL A   1      46.669  28.344  35.236  1.00  0.00     0.041 A 
ATOM     93  F   UNL A   1      45.658  29.950  33.865  1.00  0.00    -0.206 F 
ATOM     94  C   UNL A   1      46.580  27.203  36.029  1.00  0.00     0.022 A 
BRANCH  91  95
ATOM     95  S   UNL A   1      45.174  25.144  37.276  1.00  0.00     0.124 S 
ATOM     96  O   UNL A   1      45.768  24.047  36.517  1.00  0.00    -0.237 OA
ATOM     97  O   UNL A   1      45.931  25.595  38.440  1.00  0.00    -0.237 OA
ATOM     98  O   UNL A   1      43.729  25.048  37.476  1.00  0.00    -0.744 OA
ENDBRANCH  91  95
ENDBRANCH  65  88
ENDBRANCH  39  40
ENDBRANCH  31  34
ENDBRANCH  29  30
ENDBRANCH  28  29
ENDBRANCH  27  28
ENDBRANCH   1  27
TORSDOF 19
ENDMDL
MODEL 3
REMARK VINA RESULT:     -11.4      1.887      7.665
REMARK SMILES CC1=C(C)C[C@@H](C(=O)NCc2cccnc2)[C@H](C(=O)NCCCCCCNC(=O)c2ccc(-c3c4nc(c(-c5cc(S(=O)(=O)[O-])ccc5F)c5ccc([nH]5)c(-c5cc(S(=O)(=O)[O-])ccc5F)c5nc(c(-c6cc(S(=O)(=O)[O-])ccc6F)c6ccc3[nH]6)C=C5)C=C4)cc2)C1
REMARK SMILES IDX 23 1 22 2 21 3 20 4 18 5 19 6 17 8 1 9 2 10 3 11 93 12 4 13
REMARK SMILES IDX 5 14 6 15 7 16 8 17 9 18 10 20 11 21 12 22 16 23 13 24 15 25
REMARK SMILES IDX 14 26 24 27 25 28 26 29 27 30 28 31 29 33 30 34 31 35 92 36
REMARK SMILES IDX 32 37 91 38 33 39 34 40 35 41 85 42 36 43 90 44 84 45 86 46
REMARK SMILES IDX 37 47 89 48 83 49 82 50 38 52 70 53 50 54 69 55 51 56 54 57
REMARK SMILES IDX 68 58 87 59 52 60 53 61 67 63 88 64 55 65 39 66 40 67 48 68
REMARK SMILES IDX 41 69 47 70 49 71 46 72 42 73 43 74 44 75 45 76 71 77 72 78
REMARK SMILES IDX 80 79 73 80 79 81 81 82 78 83 74 84 75 85 76 86 77 87 56 88
REMARK SMILES IDX 57 89 65 90 58 91 64 92 66 93 63 94 59 95 60 96 61 97 62 98
REMARK H PARENT 20 7 9 19 27 32 86 51 54 62
REMARK Flexibility Score: inf
ROOT
ATOM      1  C   UNL A   1      32.203  29.727  25.292  1.00  0.00     0.002 C 
ENDROOT
BRANCH   1   2
ATOM      2  C   UNL A   1      31.648  28.392  24.802  1.00  0.00     0.021 C 
BRANCH   2   3
ATOM      3  C   UNL A   1      32.594  27.223  25.034  1.00  0.00     0.116 C 
BRANCH   3   4
ATOM      4  N   UNL A   1      33.113  26.677  23.803  1.00  0.00    -0.356 N 
ATOM      5  C   UNL A   1      33.675  25.463  23.558  1.00  0.00     0.224 C 
ATOM      6  O   UNL A   1      33.988  25.209  22.391  1.00  0.00    -0.275 OA
ATOM      7  H   UNL A   1      33.050  27.275  23.022  1.00  0.00     0.163 HD
BRANCH   5   8
ATOM      8  C   UNL A   1      33.922  24.434  24.670  1.00  0.00     0.095 C 
ATOM      9  C   UNL A   1      37.576  24.032  26.101  1.00  0.00     0.039 C 
ATOM     10  C   UNL A   1      36.308  23.648  25.381  1.00  0.00    -0.074 C 
ATOM     11  C   UNL A   1      36.162  22.468  24.741  1.00  0.00    -0.074 C 
ATOM     12  C   UNL A   1      35.239  24.717  25.402  1.00  0.00     0.045 C 
ATOM     13  C   UNL A   1      37.253  21.435  24.612  1.00  0.00     0.039 C 
ATOM     14  C   UNL A   1      34.886  22.072  24.033  1.00  0.00     0.045 C 
ATOM     15  C   UNL A   1      33.676  23.002  24.177  1.00  0.00     0.095 C 
BRANCH  15  16
ATOM     16  C   UNL A   1      32.534  22.321  24.931  1.00  0.00     0.224 C 
ATOM     17  O   UNL A   1      32.012  22.886  25.899  1.00  0.00    -0.275 OA
ATOM     18  N   UNL A   1      32.025  21.108  24.601  1.00  0.00    -0.352 N 
ATOM     19  H   UNL A   1      31.299  20.809  25.195  1.00  0.00     0.163 HD
BRANCH  18  20
ATOM     20  C   UNL A   1      32.339  20.165  23.547  1.00  0.00     0.153 C 
BRANCH  20  21
ATOM     21  C   UNL A   1      32.739  18.804  24.042  1.00  0.00    -0.010 A 
ATOM     22  C   UNL A   1      33.208  17.832  23.148  1.00  0.00     0.009 A 
ATOM     23  C   UNL A   1      32.597  18.415  25.370  1.00  0.00     0.116 A 
ATOM     24  C   UNL A   1      33.555  16.566  23.610  1.00  0.00     0.020 A 
ATOM     25  N   UNL A   1      32.907  17.186  25.845  1.00  0.00    -0.264 NA
ATOM     26  C   UNL A   1      33.389  16.294  24.956  1.00  0.00     0.111 A 
ENDBRANCH  20  21
ENDBRANCH  18  20
ENDBRANCH  15  16
ENDBRANCH   5   8
ENDBRANCH   3   4
ENDBRANCH   2   3
ENDBRANCH   1   2
BRANCH   1  27
ATOM     27  C   UNL A   1      31.416  30.362  26.447  1.00  0.00     0.002 C 
BRANCH  27  28
ATOM     28  C   UNL A   1      31.501  31.890  26.530  1.00  0.00     0.021 C 
BRANCH  28  29
ATOM     29  C   UNL A   1      32.819  32.417  27.092  1.00  0.00     0.116 C 
BRANCH  29  30
ATOM     30  N   UNL A   1      32.679  33.773  27.596  1.00  0.00    -0.352 N 
ATOM     31  C   UNL A   1      33.293  34.368  28.667  1.00  0.00     0.251 C 
ATOM     32  H   UNL A   1      32.054  34.347  27.097  1.00  0.00     0.163 HD
ATOM     33  O   UNL A   1      32.863  35.437  29.100  1.00  0.00    -0.269 OA
BRANCH  31  34
ATOM     34  C   UNL A   1      34.456  33.716  29.301  1.00  0.00     0.039 A 
ATOM     35  C   UNL A   1      35.739  34.177  29.000  1.00  0.00     0.014 A 
ATOM     36  C   UNL A   1      34.279  32.646  30.183  1.00  0.00     0.014 A 
ATOM     37  C   UNL A   1      36.843  33.599  29.629  1.00  0.00     0.010 A 
ATOM     38  C   UNL A   1      35.373  32.124  30.865  1.00  0.00     0.010 A 
ATOM     39  C   UNL A   1      36.666  32.592  30.593  1.00  0.00    -0.014 A 
BRANCH  39  40
ATOM     40  C   UNL A   1      37.824  32.014  31.321  1.00  0.00     0.031 A 
ATOM     41  C   UNL A   1      38.652  30.931  30.683  1.00  0.00     0.074 A 
ATOM     42  C   UNL A   1      38.097  32.429  32.573  1.00  0.00     0.049 A 
ATOM     43  N   UNL A   1      39.653  30.254  31.182  1.00  0.00    -0.248 NA
ATOM     44  C   UNL A   1      38.287  30.541  29.312  1.00  0.00     0.031 C 
ATOM     45  C   UNL A   1      37.348  33.454  33.304  1.00  0.00     0.029 A 
ATOM     46  N   UNL A   1      39.074  32.043  33.456  1.00  0.00    -0.354 N 
ATOM     47  C   UNL A   1      40.035  29.355  30.191  1.00  0.00     0.074 A 
ATOM     48  C   UNL A   1      39.113  29.530  29.090  1.00  0.00     0.031 C 
ATOM     49  C   UNL A   1      37.916  33.641  34.506  1.00  0.00     0.029 A 
ATOM     50  C   UNL A   1      39.032  32.714  34.657  1.00  0.00     0.049 A 
ATOM     51  H   UNL A   1      39.744  31.351  33.249  1.00  0.00     0.167 HD
ATOM     52  C   UNL A   1      41.074  28.483  30.192  1.00  0.00     0.034 A 
ATOM     53  C   UNL A   1      39.799  32.587  35.758  1.00  0.00     0.034 A 
ATOM     54  C   UNL A   1      41.987  28.327  31.297  1.00  0.00     0.049 A 
ATOM     55  C   UNL A   1      40.916  31.573  35.752  1.00  0.00     0.074 A 
ATOM     56  C   UNL A   1      43.095  27.503  31.388  1.00  0.00     0.029 A 
ATOM     57  N   UNL A   1      41.898  29.005  32.507  1.00  0.00    -0.354 N 
ATOM     58  N   UNL A   1      41.282  30.752  34.795  1.00  0.00    -0.248 NA
ATOM     59  C   UNL A   1      41.726  31.475  36.973  1.00  0.00     0.031 C 
ATOM     60  C   UNL A   1      43.627  27.624  32.676  1.00  0.00     0.029 A 
ATOM     61  C   UNL A   1      42.909  28.591  33.360  1.00  0.00     0.049 A 
ATOM     62  H   UNL A   1      41.217  29.681  32.726  1.00  0.00     0.167 HD
ATOM     63  C   UNL A   1      42.390  30.067  35.288  1.00  0.00     0.074 A 
ATOM     64  C   UNL A   1      42.636  30.582  36.619  1.00  0.00     0.031 C 
ATOM     65  C   UNL A   1      43.140  29.105  34.691  1.00  0.00     0.034 A 
BRANCH  52  66
ATOM     66  C   UNL A   1      41.258  27.617  28.969  1.00  0.00     0.023 A 
ATOM     67  C   UNL A   1      42.265  27.878  28.023  1.00  0.00     0.031 A 
ATOM     68  C   UNL A   1      40.410  26.519  28.738  1.00  0.00     0.131 A 
ATOM     69  C   UNL A   1      42.354  27.098  26.859  1.00  0.00     0.055 A 
ATOM     70  C   UNL A   1      40.557  25.695  27.620  1.00  0.00     0.041 A 
ATOM     71  F   UNL A   1      39.415  26.232  29.593  1.00  0.00    -0.206 F 
ATOM     72  C   UNL A   1      41.526  25.991  26.666  1.00  0.00     0.022 A 
BRANCH  69  73
ATOM     73  S   UNL A   1      43.476  27.637  25.541  1.00  0.00     0.124 S 
ATOM     74  O   UNL A   1      42.545  27.860  24.436  1.00  0.00    -0.237 OA
ATOM     75  O   UNL A   1      44.087  28.830  26.113  1.00  0.00    -0.237 OA
ATOM     76  O   UNL A   1      44.374  26.496  25.368  1.00  0.00    -0.744 OA
ENDBRANCH  69  73
ENDBRANCH  52  66
BRANCH  53  77
ATOM     77  C   UNL A   1      39.542  33.430  36.962  1.00  0.00     0.023 A 
ATOM     78  C   UNL A   1      40.301  34.587  37.205  1.00  0.00     0.031 A 
ATOM     79  C   UNL A   1      38.569  33.070  37.910  1.00  0.00     0.131 A 
ATOM     80  C   UNL A   1      40.111  35.311  38.391  1.00  0.00     0.055 A 
ATOM     81  C   UNL A   1      38.343  33.828  39.060  1.00  0.00     0.041 A 
ATOM     82  F   UNL A   1      37.813  31.975  37.727  1.00  0.00    -0.206 F 
ATOM     83  C   UNL A   1      39.127  34.949  39.313  1.00  0.00     0.022 A 
BRANCH  80  84
ATOM     84  S   UNL A   1      41.240  36.683  38.759  1.00  0.00     0.124 S 
ATOM     85  O   UNL A   1      42.060  36.113  39.821  1.00  0.00    -0.237 OA
ATOM     86  O   UNL A   1      41.900  36.884  37.473  1.00  0.00    -0.237 OA
ATOM     87  O   UNL A   1      40.341  37.759  39.172  1.00  0.00    -0.744 OA
ENDBRANCH  80  84
ENDBRANCH  53  77
BRANCH  65  88
ATOM     88  C   UNL A   1      44.330  28.584  35.460  1.00  0.00     0.023 A 
ATOM     89  C   UNL A   1      44.206  27.564  36.419  1.00  0.00     0.031 A 
ATOM     90  C   UNL A   1      45.609  29.123  35.230  1.00  0.00     0.131 A 
ATOM     91  C   UNL A   1      45.329  27.156  37.155  1.00  0.00     0.055 A 
ATOM     92  C   UNL A   1      46.735  28.665  35.916  1.00  0.00     0.041 A 
ATOM     93  F   UNL A   1      45.787  30.101  34.328  1.00  0.00    -0.206 F 
ATOM     94  C   UNL A   1      46.595  27.686  36.895  1.00  0.00     0.022 A 
BRANCH  91  95
ATOM     95  S   UNL A   1      45.095  25.995  38.527  1.00  0.00     0.124 S 
ATOM     96  O   UNL A   1      44.983  24.718  37.829  1.00  0.00    -0.237 OA
ATOM     97  O   UNL A   1      46.312  26.187  39.310  1.00  0.00    -0.237 OA
ATOM     98  O   UNL A   1      43.867  26.462  39.168  1.00  0.00    -0.744 OA
ENDBRANCH  91  95
ENDBRANCH  65  88
ENDBRANCH  39  40
ENDBRANCH  31  34
ENDBRANCH  29  30
ENDBRANCH  28  29
ENDBRANCH  27  28
ENDBRANCH   1  27
TORSDOF 19
ENDMDL
