MODEL 1
REMARK VINA RESULT:     -12.0      0.000      0.000
REMARK SMILES O=C1[NH+]=C(Nc2ccc(C(=O)NCCCCCCNC(=O)c3ccc(-c4c5nc(c(-c6cc(S(=O)(=O)[O-])ccc6F)c6ccc([nH]6)c(-c6cc(S(=O)(=O)[O-])ccc6F)c6nc(c(-c7cc(S(=O)(=O)[O-])ccc7F)c7ccc4[nH]7)C=C6)C=C5)cc3)c(O)c2)S/C1=C\c1ccc[nH]1
REMARK SMILES IDX 16 1 15 2 14 3 13 4 12 5 10 6 11 7 9 9 6 10 7 11 87 12 8 13
REMARK SMILES IDX 85 14 5 15 1 16 2 17 3 18 89 19 4 20 88 22 90 23 91 25 92 26
REMARK SMILES IDX 95 27 93 28 94 29 86 31 17 33 18 34 19 35 20 36 21 38 22 39
REMARK SMILES IDX 23 40 84 41 24 42 83 43 25 44 26 45 27 46 77 47 28 48 82 49
REMARK SMILES IDX 76 50 78 51 29 52 81 53 75 54 74 55 30 57 62 58 42 59 61 60
REMARK SMILES IDX 43 61 46 62 60 63 79 64 44 65 45 66 59 68 80 69 47 70 31 71
REMARK SMILES IDX 32 72 40 73 33 74 39 75 41 76 38 77 34 78 35 79 36 80 37 81
REMARK SMILES IDX 63 82 64 83 72 84 65 85 71 86 73 87 70 88 66 89 67 90 68 91
REMARK SMILES IDX 69 92 48 93 49 94 57 95 50 96 56 97 58 98 55 99 51 100
REMARK SMILES IDX 52 101 53 102 54 103
REMARK H PARENT 12 8 3 21 5 24 95 30 86 32 19 37 78 56 46 67
REMARK Flexibility Score: inf
ROOT
ATOM      1  C   UNL A   1      33.034  28.039  26.613  1.00  0.00     0.002 C 
ENDROOT
BRANCH   1   2
ATOM      2  C   UNL A   1      33.517  28.181  25.167  1.00  0.00     0.002 C 
BRANCH   2   3
ATOM      3  C   UNL A   1      32.856  29.273  24.319  1.00  0.00     0.021 C 
BRANCH   3   4
ATOM      4  C   UNL A   1      31.455  29.707  24.744  1.00  0.00     0.116 C 
BRANCH   4   5
ATOM      5  N   UNL A   1      30.467  29.663  23.680  1.00  0.00    -0.352 N 
ATOM      6  C   UNL A   1      29.947  28.592  22.993  1.00  0.00     0.255 C 
ATOM      7  O   UNL A   1      29.128  28.803  22.100  1.00  0.00    -0.269 OA
ATOM      8  H   UNL A   1      30.114  30.540  23.407  1.00  0.00     0.163 HD
BRANCH   6   9
ATOM      9  C   UNL A   1      30.383  27.198  23.258  1.00  0.00     0.081 A 
ATOM     10  C   UNL A   1      30.952  24.502  23.901  1.00  0.00     0.129 A 
ATOM     11  C   UNL A   1      30.344  25.347  24.835  1.00  0.00     0.053 A 
ATOM     12  C   UNL A   1      31.326  25.042  22.666  1.00  0.00     0.098 A 
ATOM     13  C   UNL A   1      30.068  26.681  24.522  1.00  0.00     0.022 A 
ATOM     14  C   UNL A   1      31.083  26.384  22.365  1.00  0.00     0.132 A 
BRANCH  10  15
ATOM     15  N   UNL A   1      31.119  23.131  24.129  1.00  0.00    -0.234 N 
ATOM     16  O   UNL A   1      35.661  22.189  24.628  1.00  0.00    -0.240 OA
ATOM     17  C   UNL A   1      34.460  21.975  24.514  1.00  0.00     0.346 C 
ATOM     18  N   UNL A   1      33.505  22.941  24.306  1.00  0.00    -0.199 N 
ATOM     19  C   UNL A   1      33.863  20.612  24.580  1.00  0.00     0.111 C 
ATOM     20  C   UNL A   1      32.303  22.470  24.256  1.00  0.00     0.322 C 
ATOM     21  H   UNL A   1      33.715  23.897  24.204  1.00  0.00     0.316 HD
ATOM     22  S   UNL A   1      32.156  20.734  24.417  1.00  0.00     0.006 SA
ATOM     23  C   UNL A   1      34.611  19.514  24.757  1.00  0.00     0.050 C 
ATOM     24  H   UNL A   1      30.299  22.592  24.206  1.00  0.00     0.313 HD
BRANCH  23  25
ATOM     25  C   UNL A   1      34.064  18.209  24.739  1.00  0.00     0.039 A 
ATOM     26  C   UNL A   1      33.984  17.225  23.775  1.00  0.00     0.027 A 
ATOM     27  N   UNL A   1      33.458  17.728  25.874  1.00  0.00    -0.362 N 
ATOM     28  C   UNL A   1      33.282  16.132  24.335  1.00  0.00     0.020 A 
ATOM     29  C   UNL A   1      32.963  16.472  25.629  1.00  0.00     0.083 A 
ATOM     30  H   UNL A   1      33.390  18.210  26.730  1.00  0.00     0.166 HD
ENDBRANCH  23  25
ENDBRANCH  10  15
BRANCH  14  31
ATOM     31  O   UNL A   1      31.604  26.818  21.178  1.00  0.00    -0.507 OA
ATOM     32  H   UNL A   1      31.798  26.201  20.499  1.00  0.00     0.293 HD
ENDBRANCH  14  31
ENDBRANCH   6   9
ENDBRANCH   4   5
ENDBRANCH   3   4
ENDBRANCH   2   3
ENDBRANCH   1   2
BRANCH   1  33
ATOM     33  C   UNL A   1      33.698  28.950  27.647  1.00  0.00     0.021 C 
BRANCH  33  34
ATOM     34  C   UNL A   1      34.158  30.312  27.139  1.00  0.00     0.116 C 
BRANCH  34  35
ATOM     35  N   UNL A   1      34.033  31.359  28.139  1.00  0.00    -0.352 N 
ATOM     36  C   UNL A   1      34.840  31.643  29.215  1.00  0.00     0.251 C 
ATOM     37  H   UNL A   1      33.255  31.952  28.031  1.00  0.00     0.163 HD
ATOM     38  O   UNL A   1      34.481  32.479  30.039  1.00  0.00    -0.269 OA
BRANCH  36  39
ATOM     39  C   UNL A   1      36.117  30.916  29.399  1.00  0.00     0.039 A 
ATOM     40  C   UNL A   1      37.267  31.411  28.781  1.00  0.00     0.014 A 
ATOM     41  C   UNL A   1      36.187  29.761  30.184  1.00  0.00     0.014 A 
ATOM     42  C   UNL A   1      38.500  30.797  29.015  1.00  0.00     0.010 A 
ATOM     43  C   UNL A   1      37.427  29.194  30.476  1.00  0.00     0.010 A 
ATOM     44  C   UNL A   1      38.598  29.712  29.902  1.00  0.00    -0.014 A 
BRANCH  44  45
ATOM     45  C   UNL A   1      39.919  29.131  30.263  1.00  0.00     0.031 A 
ATOM     46  C   UNL A   1      40.756  29.754  31.347  1.00  0.00     0.074 A 
ATOM     47  C   UNL A   1      40.391  28.074  29.569  1.00  0.00     0.049 A 
ATOM     48  N   UNL A   1      41.961  29.436  31.748  1.00  0.00    -0.248 NA
ATOM     49  C   UNL A   1      40.169  30.899  32.060  1.00  0.00     0.031 C 
ATOM     50  C   UNL A   1      39.686  27.402  28.475  1.00  0.00     0.029 A 
ATOM     51  N   UNL A   1      41.575  27.385  29.670  1.00  0.00    -0.354 N 
ATOM     52  C   UNL A   1      42.280  30.344  32.752  1.00  0.00     0.074 A 
ATOM     53  C   UNL A   1      41.164  31.260  32.856  1.00  0.00     0.031 C 
ATOM     54  C   UNL A   1      40.437  26.384  28.026  1.00  0.00     0.029 A 
ATOM     55  C   UNL A   1      41.702  26.364  28.754  1.00  0.00     0.049 A 
ATOM     56  H   UNL A   1      42.268  27.600  30.335  1.00  0.00     0.167 HD
ATOM     57  C   UNL A   1      43.393  30.396  33.526  1.00  0.00     0.034 A 
ATOM     58  C   UNL A   1      42.728  25.524  28.509  1.00  0.00     0.034 A 
ATOM     59  C   UNL A   1      44.496  29.473  33.408  1.00  0.00     0.049 A 
ATOM     60  C   UNL A   1      43.977  25.640  29.346  1.00  0.00     0.074 A 
ATOM     61  C   UNL A   1      45.645  29.403  34.178  1.00  0.00     0.029 A 
ATOM     62  N   UNL A   1      44.599  28.468  32.454  1.00  0.00    -0.354 N 
ATOM     63  N   UNL A   1      44.240  26.471  30.328  1.00  0.00    -0.248 NA
ATOM     64  C   UNL A   1      45.067  24.701  29.045  1.00  0.00     0.031 C 
ATOM     65  C   UNL A   1      46.477  28.419  33.637  1.00  0.00     0.029 A 
ATOM     66  C   UNL A   1      45.811  27.807  32.587  1.00  0.00     0.049 A 
ATOM     67  H   UNL A   1      43.912  28.256  31.782  1.00  0.00     0.167 HD
ATOM     68  C   UNL A   1      45.513  26.134  30.780  1.00  0.00     0.074 A 
ATOM     69  C   UNL A   1      45.955  25.012  29.978  1.00  0.00     0.031 C 
ATOM     70  C   UNL A   1      46.248  26.698  31.772  1.00  0.00     0.034 A 
BRANCH  57  71
ATOM     71  C   UNL A   1      43.485  31.506  34.547  1.00  0.00     0.023 A 
ATOM     72  C   UNL A   1      42.825  31.429  35.785  1.00  0.00     0.031 A 
ATOM     73  C   UNL A   1      44.241  32.660  34.276  1.00  0.00     0.131 A 
ATOM     74  C   UNL A   1      42.876  32.512  36.675  1.00  0.00     0.055 A 
ATOM     75  C   UNL A   1      44.359  33.699  35.202  1.00  0.00     0.041 A 
ATOM     76  F   UNL A   1      44.876  32.803  33.102  1.00  0.00    -0.206 F 
ATOM     77  C   UNL A   1      43.662  33.635  36.405  1.00  0.00     0.022 A 
BRANCH  74  78
ATOM     78  S   UNL A   1      41.789  32.493  38.127  1.00  0.00     0.124 S 
ATOM     79  O   UNL A   1      41.739  33.912  38.476  1.00  0.00    -0.237 OA
ATOM     80  O   UNL A   1      40.558  31.924  37.591  1.00  0.00    -0.237 OA
ATOM     81  O   UNL A   1      42.505  31.650  39.081  1.00  0.00    -0.744 OA
ENDBRANCH  74  78
ENDBRANCH  57  71
BRANCH  58  82
ATOM     82  C   UNL A   1      42.638  24.517  27.410  1.00  0.00     0.023 A 
ATOM     83  C   UNL A   1      41.941  23.311  27.586  1.00  0.00     0.031 A 
ATOM     84  C   UNL A   1      43.300  24.719  26.185  1.00  0.00     0.131 A 
ATOM     85  C   UNL A   1      41.966  22.334  26.578  1.00  0.00     0.055 A 
ATOM     86  C   UNL A   1      43.267  23.771  25.160  1.00  0.00     0.041 A 
ATOM     87  F   UNL A   1      43.986  25.852  25.962  1.00  0.00    -0.206 F 
ATOM     88  C   UNL A   1      42.610  22.562  25.361  1.00  0.00     0.022 A 
BRANCH  85  89
ATOM     89  S   UNL A   1      41.239  20.708  26.929  1.00  0.00     0.124 S 
ATOM     90  O   UNL A   1      40.764  20.886  28.296  1.00  0.00    -0.237 OA
ATOM     91  O   UNL A   1      40.211  20.610  25.899  1.00  0.00    -0.237 OA
ATOM     92  O   UNL A   1      42.366  19.792  26.772  1.00  0.00    -0.744 OA
ENDBRANCH  85  89
ENDBRANCH  58  82
BRANCH  70  93
ATOM     93  C   UNL A   1      47.595  26.081  32.070  1.00  0.00     0.023 A 
ATOM     94  C   UNL A   1      47.773  25.158  33.115  1.00  0.00     0.031 A 
ATOM     95  C   UNL A   1      48.717  26.424  31.295  1.00  0.00     0.131 A 
ATOM     96  C   UNL A   1      49.052  24.651  33.390  1.00  0.00     0.055 A 
ATOM     97  C   UNL A   1      49.974  25.864  31.529  1.00  0.00     0.041 A 
ATOM     98  F   UNL A   1      48.610  27.306  30.287  1.00  0.00    -0.206 F 
ATOM     99  C   UNL A   1      50.149  24.981  32.590  1.00  0.00     0.022 A 
BRANCH  96 100
ATOM    100  S   UNL A   1      49.282  23.625  34.867  1.00  0.00     0.124 S 
ATOM    101  O   UNL A   1      49.240  24.618  35.936  1.00  0.00    -0.237 OA
ATOM    102  O   UNL A   1      48.143  22.715  34.799  1.00  0.00    -0.237 OA
ATOM    103  O   UNL A   1      50.586  23.000  34.652  1.00  0.00    -0.744 OA
ENDBRANCH  96 100
ENDBRANCH  70  93
ENDBRANCH  44  45
ENDBRANCH  36  39
ENDBRANCH  34  35
ENDBRANCH  33  34
ENDBRANCH   1  33
TORSDOF 19
ENDMDL
MODEL 2
REMARK VINA RESULT:     -11.9      1.193      1.523
REMARK SMILES O=C1[NH+]=C(Nc2ccc(C(=O)NCCCCCCNC(=O)c3ccc(-c4c5nc(c(-c6cc(S(=O)(=O)[O-])ccc6F)c6ccc([nH]6)c(-c6cc(S(=O)(=O)[O-])ccc6F)c6nc(c(-c7cc(S(=O)(=O)[O-])ccc7F)c7ccc4[nH]7)C=C6)C=C5)cc3)c(O)c2)S/C1=C\c1ccc[nH]1
REMARK SMILES IDX 16 1 15 2 14 3 13 4 12 5 10 6 11 7 9 9 6 10 7 11 87 12 8 13
REMARK SMILES IDX 85 14 5 15 1 16 2 17 3 18 89 19 4 20 88 22 90 23 91 25 92 26
REMARK SMILES IDX 95 27 93 28 94 29 86 31 17 33 18 34 19 35 20 36 21 38 22 39
REMARK SMILES IDX 23 40 84 41 24 42 83 43 25 44 26 45 27 46 77 47 28 48 82 49
REMARK SMILES IDX 76 50 78 51 29 52 81 53 75 54 74 55 30 57 62 58 42 59 61 60
REMARK SMILES IDX 43 61 46 62 60 63 79 64 44 65 45 66 59 68 80 69 47 70 31 71
REMARK SMILES IDX 32 72 40 73 33 74 39 75 41 76 38 77 34 78 35 79 36 80 37 81
REMARK SMILES IDX 63 82 64 83 72 84 65 85 71 86 73 87 70 88 66 89 67 90 68 91
REMARK SMILES IDX 69 92 48 93 49 94 57 95 50 96 56 97 58 98 55 99 51 100
REMARK SMILES IDX 52 101 53 102 54 103
REMARK H PARENT 12 8 3 21 5 24 95 30 86 32 19 37 78 56 46 67
REMARK Flexibility Score: inf
ROOT
ATOM      1  C   UNL A   1      33.139  28.117  26.541  1.00  0.00     0.002 C 
ENDROOT
BRANCH   1   2
ATOM      2  C   UNL A   1      33.661  28.331  25.118  1.00  0.00     0.002 C 
BRANCH   2   3
ATOM      3  C   UNL A   1      32.856  29.275  24.218  1.00  0.00     0.021 C 
BRANCH   3   4
ATOM      4  C   UNL A   1      31.491  29.712  24.745  1.00  0.00     0.116 C 
BRANCH   4   5
ATOM      5  N   UNL A   1      30.428  29.673  23.755  1.00  0.00    -0.352 N 
ATOM      6  C   UNL A   1      29.863  28.605  23.100  1.00  0.00     0.255 C 
ATOM      7  O   UNL A   1      28.980  28.818  22.270  1.00  0.00    -0.269 OA
ATOM      8  H   UNL A   1      30.052  30.550  23.516  1.00  0.00     0.163 HD
BRANCH   6   9
ATOM      9  C   UNL A   1      30.323  27.210  23.321  1.00  0.00     0.081 A 
ATOM     10  C   UNL A   1      30.931  24.500  23.863  1.00  0.00     0.129 A 
ATOM     11  C   UNL A   1      30.247  25.282  24.800  1.00  0.00     0.053 A 
ATOM     12  C   UNL A   1      31.359  25.112  22.679  1.00  0.00     0.098 A 
ATOM     13  C   UNL A   1      29.951  26.623  24.537  1.00  0.00     0.022 A 
ATOM     14  C   UNL A   1      31.095  26.461  22.431  1.00  0.00     0.132 A 
BRANCH  10  15
ATOM     15  N   UNL A   1      31.124  23.125  24.033  1.00  0.00    -0.234 N 
ATOM     16  O   UNL A   1      35.640  22.286  24.848  1.00  0.00    -0.240 OA
ATOM     17  C   UNL A   1      34.460  22.045  24.626  1.00  0.00     0.346 C 
ATOM     18  N   UNL A   1      33.493  22.993  24.391  1.00  0.00    -0.199 N 
ATOM     19  C   UNL A   1      33.904  20.663  24.573  1.00  0.00     0.111 C 
ATOM     20  C   UNL A   1      32.315  22.491  24.221  1.00  0.00     0.322 C 
ATOM     21  H   UNL A   1      33.680  23.959  24.356  1.00  0.00     0.316 HD
ATOM     22  S   UNL A   1      32.212  20.746  24.280  1.00  0.00     0.006 SA
ATOM     23  C   UNL A   1      34.671  19.579  24.753  1.00  0.00     0.050 C 
ATOM     24  H   UNL A   1      30.318  22.559  24.015  1.00  0.00     0.313 HD
BRANCH  23  25
ATOM     25  C   UNL A   1      34.169  18.262  24.624  1.00  0.00     0.039 A 
ATOM     26  C   UNL A   1      34.075  17.380  23.567  1.00  0.00     0.027 A 
ATOM     27  N   UNL A   1      33.639  17.643  25.729  1.00  0.00    -0.362 N 
ATOM     28  C   UNL A   1      33.441  16.208  24.041  1.00  0.00     0.020 A 
ATOM     29  C   UNL A   1      33.176  16.399  25.377  1.00  0.00     0.083 A 
ATOM     30  H   UNL A   1      33.597  18.031  26.633  1.00  0.00     0.166 HD
ENDBRANCH  23  25
ENDBRANCH  10  15
BRANCH  14  31
ATOM     31  O   UNL A   1      31.670  26.967  21.299  1.00  0.00    -0.507 OA
ATOM     32  H   UNL A   1      32.557  26.750  21.087  1.00  0.00     0.293 HD
ENDBRANCH  14  31
ENDBRANCH   6   9
ENDBRANCH   4   5
ENDBRANCH   3   4
ENDBRANCH   2   3
ENDBRANCH   1   2
BRANCH   1  33
ATOM     33  C   UNL A   1      33.756  28.991  27.634  1.00  0.00     0.021 C 
BRANCH  33  34
ATOM     34  C   UNL A   1      34.265  30.358  27.188  1.00  0.00     0.116 C 
BRANCH  34  35
ATOM     35  N   UNL A   1      34.113  31.379  28.210  1.00  0.00    -0.352 N 
ATOM     36  C   UNL A   1      34.889  31.634  29.315  1.00  0.00     0.251 C 
ATOM     37  H   UNL A   1      33.338  31.975  28.095  1.00  0.00     0.163 HD
ATOM     38  O   UNL A   1      34.509  32.450  30.150  1.00  0.00    -0.269 OA
BRANCH  36  39
ATOM     39  C   UNL A   1      36.161  30.901  29.515  1.00  0.00     0.039 A 
ATOM     40  C   UNL A   1      37.326  31.406  28.935  1.00  0.00     0.014 A 
ATOM     41  C   UNL A   1      36.210  29.731  30.279  1.00  0.00     0.014 A 
ATOM     42  C   UNL A   1      38.552  30.785  29.187  1.00  0.00     0.010 A 
ATOM     43  C   UNL A   1      37.442  29.157  30.590  1.00  0.00     0.010 A 
ATOM     44  C   UNL A   1      38.628  29.684  30.055  1.00  0.00    -0.014 A 
BRANCH  44  45
ATOM     45  C   UNL A   1      39.939  29.092  30.437  1.00  0.00     0.031 A 
ATOM     46  C   UNL A   1      40.687  29.607  31.636  1.00  0.00     0.074 A 
ATOM     47  C   UNL A   1      40.483  28.130  29.663  1.00  0.00     0.049 A 
ATOM     48  N   UNL A   1      41.872  29.272  32.078  1.00  0.00    -0.248 NA
ATOM     49  C   UNL A   1      40.024  30.653  32.430  1.00  0.00     0.031 C 
ATOM     50  C   UNL A   1      39.867  27.570  28.457  1.00  0.00     0.029 A 
ATOM     51  N   UNL A   1      41.676  27.458  29.765  1.00  0.00    -0.354 N 
ATOM     52  C   UNL A   1      42.102  30.069  33.195  1.00  0.00     0.074 A 
ATOM     53  C   UNL A   1      40.956  30.944  33.325  1.00  0.00     0.031 C 
ATOM     54  C   UNL A   1      40.674  26.624  27.950  1.00  0.00     0.029 A 
ATOM     55  C   UNL A   1      41.890  26.550  28.753  1.00  0.00     0.049 A 
ATOM     56  H   UNL A   1      42.320  27.612  30.495  1.00  0.00     0.167 HD
ATOM     57  C   UNL A   1      43.161  30.056  34.042  1.00  0.00     0.034 A 
ATOM     58  C   UNL A   1      42.952  25.763  28.486  1.00  0.00     0.034 A 
ATOM     59  C   UNL A   1      44.294  29.175  33.897  1.00  0.00     0.049 A 
ATOM     60  C   UNL A   1      44.143  25.810  29.411  1.00  0.00     0.074 A 
ATOM     61  C   UNL A   1      45.394  29.043  34.729  1.00  0.00     0.029 A 
ATOM     62  N   UNL A   1      44.486  28.286  32.847  1.00  0.00    -0.354 N 
ATOM     63  N   UNL A   1      44.319  26.531  30.494  1.00  0.00    -0.248 NA
ATOM     64  C   UNL A   1      45.275  24.934  29.082  1.00  0.00     0.031 C 
ATOM     65  C   UNL A   1      46.286  28.144  34.138  1.00  0.00     0.029 A 
ATOM     66  C   UNL A   1      45.705  27.639  32.986  1.00  0.00     0.049 A 
ATOM     67  H   UNL A   1      43.849  28.136  32.111  1.00  0.00     0.167 HD
ATOM     68  C   UNL A   1      45.569  26.172  30.990  1.00  0.00     0.074 A 
ATOM     69  C   UNL A   1      46.092  25.157  30.100  1.00  0.00     0.031 C 
ATOM     70  C   UNL A   1      46.224  26.637  32.084  1.00  0.00     0.034 A 
BRANCH  57  71
ATOM     71  C   UNL A   1      43.157  31.047  35.183  1.00  0.00     0.023 A 
ATOM     72  C   UNL A   1      43.689  32.339  35.043  1.00  0.00     0.031 A 
ATOM     73  C   UNL A   1      42.616  30.691  36.431  1.00  0.00     0.131 A 
ATOM     74  C   UNL A   1      43.733  33.203  36.148  1.00  0.00     0.055 A 
ATOM     75  C   UNL A   1      42.585  31.586  37.504  1.00  0.00     0.041 A 
ATOM     76  F   UNL A   1      42.113  29.463  36.635  1.00  0.00    -0.206 F 
ATOM     77  C   UNL A   1      43.158  32.846  37.369  1.00  0.00     0.022 A 
BRANCH  74  78
ATOM     78  S   UNL A   1      44.677  34.745  36.005  1.00  0.00     0.124 S 
ATOM     79  O   UNL A   1      43.876  35.493  35.038  1.00  0.00    -0.237 OA
ATOM     80  O   UNL A   1      44.665  35.250  37.373  1.00  0.00    -0.237 OA
ATOM     81  O   UNL A   1      45.980  34.305  35.513  1.00  0.00    -0.744 OA
ENDBRANCH  74  78
ENDBRANCH  57  71
BRANCH  58  82
ATOM     82  C   UNL A   1      42.961  24.884  27.278  1.00  0.00     0.023 A 
ATOM     83  C   UNL A   1      42.405  23.595  27.316  1.00  0.00     0.031 A 
ATOM     84  C   UNL A   1      43.580  25.297  26.085  1.00  0.00     0.131 A 
ATOM     85  C   UNL A   1      42.526  22.747  26.203  1.00  0.00     0.055 A 
ATOM     86  C   UNL A   1      43.640  24.474  24.958  1.00  0.00     0.041 A 
ATOM     87  F   UNL A   1      44.133  26.517  25.992  1.00  0.00    -0.206 F 
ATOM     88  C   UNL A   1      43.124  23.184  25.020  1.00  0.00     0.022 A 
BRANCH  85  89
ATOM     89  S   UNL A   1      41.988  21.022  26.366  1.00  0.00     0.124 S 
ATOM     90  O   UNL A   1      42.806  20.361  25.356  1.00  0.00    -0.237 OA
ATOM     91  O   UNL A   1      42.323  20.732  27.756  1.00  0.00    -0.237 OA
ATOM     92  O   UNL A   1      40.559  21.083  26.070  1.00  0.00    -0.744 OA
ENDBRANCH  85  89
ENDBRANCH  58  82
BRANCH  70  93
ATOM     93  C   UNL A   1      47.565  26.019  32.401  1.00  0.00     0.023 A 
ATOM     94  C   UNL A   1      47.701  24.982  33.341  1.00  0.00     0.031 A 
ATOM     95  C   UNL A   1      48.727  26.476  31.751  1.00  0.00     0.131 A 
ATOM     96  C   UNL A   1      48.974  24.474  33.643  1.00  0.00     0.055 A 
ATOM     97  C   UNL A   1      49.981  25.919  32.006  1.00  0.00     0.041 A 
ATOM     98  F   UNL A   1      48.660  27.469  30.849  1.00  0.00    -0.206 F 
ATOM     99  C   UNL A   1      50.111  24.921  32.966  1.00  0.00     0.022 A 
BRANCH  96 100
ATOM    100  S   UNL A   1      49.135  23.285  35.002  1.00  0.00     0.124 S 
ATOM    101  O   UNL A   1      49.129  22.010  34.292  1.00  0.00    -0.237 OA
ATOM    102  O   UNL A   1      50.406  23.670  35.607  1.00  0.00    -0.237 OA
ATOM    103  O   UNL A   1      47.955  23.542  35.826  1.00  0.00    -0.744 OA
ENDBRANCH  96 100
ENDBRANCH  70  93
ENDBRANCH  44  45
ENDBRANCH  36  39
ENDBRANCH  34  35
ENDBRANCH  33  34
ENDBRANCH   1  33
TORSDOF 19
ENDMDL
MODEL 3
REMARK VINA RESULT:     -11.9      3.139      8.193
REMARK SMILES O=C1[NH+]=C(Nc2ccc(C(=O)NCCCCCCNC(=O)c3ccc(-c4c5nc(c(-c6cc(S(=O)(=O)[O-])ccc6F)c6ccc([nH]6)c(-c6cc(S(=O)(=O)[O-])ccc6F)c6nc(c(-c7cc(S(=O)(=O)[O-])ccc7F)c7ccc4[nH]7)C=C6)C=C5)cc3)c(O)c2)S/C1=C\c1ccc[nH]1
REMARK SMILES IDX 16 1 15 2 14 3 13 4 12 5 10 6 11 7 9 9 6 10 7 11 87 12 8 13
REMARK SMILES IDX 85 14 5 15 1 16 2 17 3 18 89 19 4 20 88 22 90 23 91 25 92 26
REMARK SMILES IDX 95 27 93 28 94 29 86 31 17 33 18 34 19 35 20 36 21 38 22 39
REMARK SMILES IDX 23 40 84 41 24 42 83 43 25 44 26 45 27 46 77 47 28 48 82 49
REMARK SMILES IDX 76 50 78 51 29 52 81 53 75 54 74 55 30 57 62 58 42 59 61 60
REMARK SMILES IDX 43 61 46 62 60 63 79 64 44 65 45 66 59 68 80 69 47 70 31 71
REMARK SMILES IDX 32 72 40 73 33 74 39 75 41 76 38 77 34 78 35 79 36 80 37 81
REMARK SMILES IDX 63 82 64 83 72 84 65 85 71 86 73 87 70 88 66 89 67 90 68 91
REMARK SMILES IDX 69 92 48 93 49 94 57 95 50 96 56 97 58 98 55 99 51 100
REMARK SMILES IDX 52 101 53 102 54 103
REMARK H PARENT 12 8 3 21 5 24 95 30 86 32 19 37 78 56 46 67
REMARK Flexibility Score: inf
ROOT
ATOM      1  C   UNL A   1      34.038  30.398  27.211  1.00  0.00     0.002 C 
ENDROOT
BRANCH   1   2
ATOM      2  C   UNL A   1      33.257  29.301  26.483  1.00  0.00     0.002 C 
BRANCH   2   3
ATOM      3  C   UNL A   1      32.648  29.668  25.125  1.00  0.00     0.021 C 
BRANCH   3   4
ATOM      4  C   UNL A   1      31.128  29.798  25.077  1.00  0.00     0.116 C 
BRANCH   4   5
ATOM      5  N   UNL A   1      30.586  29.986  23.742  1.00  0.00    -0.352 N 
ATOM      6  C   UNL A   1      30.432  29.091  22.711  1.00  0.00     0.255 C 
ATOM      7  O   UNL A   1      29.966  29.490  21.645  1.00  0.00    -0.269 OA
ATOM      8  H   UNL A   1      30.280  30.901  23.545  1.00  0.00     0.163 HD
BRANCH   6   9
ATOM      9  C   UNL A   1      30.862  27.674  22.826  1.00  0.00     0.081 A 
ATOM     10  C   UNL A   1      31.399  24.900  22.974  1.00  0.00     0.129 A 
ATOM     11  C   UNL A   1      30.218  25.429  23.502  1.00  0.00     0.053 A 
ATOM     12  C   UNL A   1      32.333  25.786  22.427  1.00  0.00     0.098 A 
ATOM     13  C   UNL A   1      29.953  26.800  23.436  1.00  0.00     0.022 A 
ATOM     14  C   UNL A   1      32.086  27.161  22.392  1.00  0.00     0.132 A 
BRANCH  10  15
ATOM     15  N   UNL A   1      31.636  23.523  22.900  1.00  0.00    -0.234 N 
ATOM     16  O   UNL A   1      33.057  21.972  27.064  1.00  0.00    -0.240 OA
ATOM     17  C   UNL A   1      32.795  21.943  25.867  1.00  0.00     0.346 C 
ATOM     18  N   UNL A   1      32.374  23.022  25.127  1.00  0.00    -0.199 N 
ATOM     19  C   UNL A   1      32.904  20.711  25.037  1.00  0.00     0.111 C 
ATOM     20  C   UNL A   1      32.125  22.730  23.894  1.00  0.00     0.322 C 
ATOM     21  H   UNL A   1      32.273  23.928  25.500  1.00  0.00     0.316 HD
ATOM     22  S   UNL A   1      32.412  21.069  23.429  1.00  0.00     0.006 SA
ATOM     23  C   UNL A   1      33.315  19.542  25.546  1.00  0.00     0.050 C 
ATOM     24  H   UNL A   1      31.428  23.083  22.044  1.00  0.00     0.313 HD
BRANCH  23  25
ATOM     25  C   UNL A   1      33.501  18.388  24.749  1.00  0.00     0.039 A 
ATOM     26  C   UNL A   1      34.618  17.738  24.262  1.00  0.00     0.027 A 
ATOM     27  N   UNL A   1      32.397  17.697  24.313  1.00  0.00    -0.362 N 
ATOM     28  C   UNL A   1      34.172  16.643  23.485  1.00  0.00     0.020 A 
ATOM     29  C   UNL A   1      32.797  16.646  23.527  1.00  0.00     0.083 A 
ATOM     30  H   UNL A   1      31.463  17.922  24.531  1.00  0.00     0.166 HD
ENDBRANCH  23  25
ENDBRANCH  10  15
BRANCH  14  31
ATOM     31  O   UNL A   1      33.125  27.928  21.945  1.00  0.00    -0.507 OA
ATOM     32  H   UNL A   1      32.994  28.840  21.774  1.00  0.00     0.293 HD
ENDBRANCH  14  31
ENDBRANCH   6   9
ENDBRANCH   4   5
ENDBRANCH   3   4
ENDBRANCH   2   3
ENDBRANCH   1   2
BRANCH   1  33
ATOM     33  C   UNL A   1      33.224  31.581  27.738  1.00  0.00     0.021 C 
BRANCH  33  34
ATOM     34  C   UNL A   1      33.659  32.960  27.252  1.00  0.00     0.116 C 
BRANCH  34  35
ATOM     35  N   UNL A   1      33.026  34.043  27.985  1.00  0.00    -0.352 N 
ATOM     36  C   UNL A   1      33.324  34.552  29.226  1.00  0.00     0.251 C 
ATOM     37  H   UNL A   1      32.271  34.476  27.525  1.00  0.00     0.163 HD
ATOM     38  O   UNL A   1      32.571  35.373  29.743  1.00  0.00    -0.269 OA
BRANCH  36  39
ATOM     39  C   UNL A   1      34.527  34.084  29.953  1.00  0.00     0.039 A 
ATOM     40  C   UNL A   1      34.365  33.209  31.028  1.00  0.00     0.014 A 
ATOM     41  C   UNL A   1      35.808  34.494  29.571  1.00  0.00     0.014 A 
ATOM     42  C   UNL A   1      35.489  32.681  31.669  1.00  0.00     0.010 A 
ATOM     43  C   UNL A   1      36.928  33.911  30.163  1.00  0.00     0.010 A 
ATOM     44  C   UNL A   1      36.780  32.990  31.211  1.00  0.00    -0.014 A 
BRANCH  44  45
ATOM     45  C   UNL A   1      37.981  32.336  31.798  1.00  0.00     0.031 A 
ATOM     46  C   UNL A   1      38.663  31.206  31.076  1.00  0.00     0.074 A 
ATOM     47  C   UNL A   1      38.421  32.724  33.013  1.00  0.00     0.049 A 
ATOM     48  N   UNL A   1      39.670  30.465  31.462  1.00  0.00    -0.248 NA
ATOM     49  C   UNL A   1      38.126  30.847  29.754  1.00  0.00     0.031 C 
ATOM     50  C   UNL A   1      37.825  33.787  33.825  1.00  0.00     0.029 A 
ATOM     51  N   UNL A   1      39.462  32.266  33.783  1.00  0.00    -0.354 N 
ATOM     52  C   UNL A   1      39.884  29.549  30.438  1.00  0.00     0.074 A 
ATOM     53  C   UNL A   1      38.863  29.790  29.441  1.00  0.00     0.031 C 
ATOM     54  C   UNL A   1      38.524  33.917  34.964  1.00  0.00     0.029 A 
ATOM     55  C   UNL A   1      39.580  32.910  34.995  1.00  0.00     0.049 A 
ATOM     56  H   UNL A   1      40.067  31.544  33.497  1.00  0.00     0.167 HD
ATOM     57  C   UNL A   1      40.854  28.607  30.333  1.00  0.00     0.034 A 
ATOM     58  C   UNL A   1      40.424  32.700  36.025  1.00  0.00     0.034 A 
ATOM     59  C   UNL A   1      41.866  28.380  31.336  1.00  0.00     0.049 A 
ATOM     60  C   UNL A   1      41.457  31.607  35.906  1.00  0.00     0.074 A 
ATOM     61  C   UNL A   1      42.926  27.489  31.304  1.00  0.00     0.029 A 
ATOM     62  N   UNL A   1      41.939  29.035  32.559  1.00  0.00    -0.354 N 
ATOM     63  N   UNL A   1      41.679  30.785  34.907  1.00  0.00    -0.248 NA
ATOM     64  C   UNL A   1      42.357  31.416  37.053  1.00  0.00     0.031 C 
ATOM     65  C   UNL A   1      43.583  27.544  32.537  1.00  0.00     0.029 A 
ATOM     66  C   UNL A   1      42.996  28.535  33.306  1.00  0.00     0.049 A 
ATOM     67  H   UNL A   1      41.330  29.751  32.853  1.00  0.00     0.167 HD
ATOM     68  C   UNL A   1      42.763  30.001  35.294  1.00  0.00     0.074 A 
ATOM     69  C   UNL A   1      43.161  30.462  36.607  1.00  0.00     0.031 C 
ATOM     70  C   UNL A   1      43.376  28.993  34.622  1.00  0.00     0.034 A 
BRANCH  57  71
ATOM     71  C   UNL A   1      40.848  27.729  29.102  1.00  0.00     0.023 A 
ATOM     72  C   UNL A   1      41.769  27.915  28.056  1.00  0.00     0.031 A 
ATOM     73  C   UNL A   1      39.905  26.694  28.971  1.00  0.00     0.131 A 
ATOM     74  C   UNL A   1      41.683  27.126  26.899  1.00  0.00     0.055 A 
ATOM     75  C   UNL A   1      39.879  25.857  27.854  1.00  0.00     0.041 A 
ATOM     76  F   UNL A   1      38.985  26.482  29.926  1.00  0.00    -0.206 F 
ATOM     77  C   UNL A   1      40.763  26.080  26.802  1.00  0.00     0.022 A 
BRANCH  74  78
ATOM     78  S   UNL A   1      42.696  27.580  25.465  1.00  0.00     0.124 S 
ATOM     79  O   UNL A   1      44.008  27.770  26.080  1.00  0.00    -0.237 OA
ATOM     80  O   UNL A   1      42.558  26.415  24.599  1.00  0.00    -0.237 OA
ATOM     81  O   UNL A   1      42.065  28.802  24.972  1.00  0.00    -0.744 OA
ENDBRANCH  74  78
ENDBRANCH  57  71
BRANCH  58  82
ATOM     82  C   UNL A   1      40.318  33.515  37.272  1.00  0.00     0.023 A 
ATOM     83  C   UNL A   1      39.508  33.101  38.342  1.00  0.00     0.031 A 
ATOM     84  C   UNL A   1      40.980  34.750  37.390  1.00  0.00     0.131 A 
ATOM     85  C   UNL A   1      39.337  33.938  39.456  1.00  0.00     0.055 A 
ATOM     86  C   UNL A   1      40.859  35.549  38.529  1.00  0.00     0.041 A 
ATOM     87  F   UNL A   1      41.765  35.198  36.398  1.00  0.00    -0.206 F 
ATOM     88  C   UNL A   1      40.020  35.151  39.564  1.00  0.00     0.022 A 
BRANCH  85  89
ATOM     89  S   UNL A   1      38.116  33.469  40.713  1.00  0.00     0.124 S 
ATOM     90  O   UNL A   1      37.130  32.750  39.915  1.00  0.00    -0.237 OA
ATOM     91  O   UNL A   1      38.918  32.661  41.626  1.00  0.00    -0.237 OA
ATOM     92  O   UNL A   1      37.670  34.753  41.248  1.00  0.00    -0.744 OA
ENDBRANCH  85  89
ENDBRANCH  58  82
BRANCH  70  93
ATOM     93  C   UNL A   1      44.571  28.349  35.284  1.00  0.00     0.023 A 
ATOM     94  C   UNL A   1      44.444  27.199  36.083  1.00  0.00     0.031 A 
ATOM     95  C   UNL A   1      45.856  28.894  35.112  1.00  0.00     0.131 A 
ATOM     96  C   UNL A   1      45.573  26.664  36.723  1.00  0.00     0.055 A 
ATOM     97  C   UNL A   1      46.985  28.318  35.695  1.00  0.00     0.041 A 
ATOM     98  F   UNL A   1      46.037  29.996  34.365  1.00  0.00    -0.206 F 
ATOM     99  C   UNL A   1      46.846  27.203  36.516  1.00  0.00     0.022 A 
BRANCH  96 100
ATOM    100  S   UNL A   1      45.343  25.309  37.905  1.00  0.00     0.124 S 
ATOM    101  O   UNL A   1      46.566  25.387  38.698  1.00  0.00    -0.237 OA
ATOM    102  O   UNL A   1      44.114  25.695  38.591  1.00  0.00    -0.237 OA
ATOM    103  O   UNL A   1      45.231  24.126  37.054  1.00  0.00    -0.744 OA
ENDBRANCH  96 100
ENDBRANCH  70  93
ENDBRANCH  44  45
ENDBRANCH  36  39
ENDBRANCH  34  35
ENDBRANCH  33  34
ENDBRANCH   1  33
TORSDOF 19
ENDMDL
