MODEL 1
REMARK VINA RESULT:     -11.5      0.000      0.000
REMARK SMILES Cc1ccc(O)c(C(=O)NCc2ccc(C(=O)NCCCCCCNC(=O)c3ccc(-c4c5nc(c(-c6cc(S(=O)(=O)[O-])ccc6F)c6ccc([nH]6)c(-c6cc(S(=O)(=O)[O-])ccc6F)c6nc(c(-c7cc(S(=O)(=O)[O-])ccc7F)c7ccc4[nH]7)C=C6)C=C5)cc3)o2)c1
REMARK SMILES IDX 21 1 20 2 19 3 18 4 16 5 17 6 15 8 12 9 13 10 91 11 14 12
REMARK SMILES IDX 11 13 10 14 8 15 9 16 7 18 1 19 2 20 3 21 92 22 4 23 5 24
REMARK SMILES IDX 6 25 22 27 23 28 24 29 25 30 26 31 27 33 28 34 29 35 90 36
REMARK SMILES IDX 30 37 89 38 31 39 32 40 33 41 83 42 34 43 88 44 82 45 84 46
REMARK SMILES IDX 35 47 87 48 81 49 80 50 36 52 68 53 48 54 67 55 49 56 52 57
REMARK SMILES IDX 66 58 85 59 50 60 51 61 65 63 86 64 53 65 37 66 38 67 46 68
REMARK SMILES IDX 39 69 45 70 47 71 44 72 40 73 41 74 42 75 43 76 69 77 70 78
REMARK SMILES IDX 78 79 71 80 77 81 79 82 76 83 72 84 73 85 74 86 75 87 54 88
REMARK SMILES IDX 55 89 63 90 56 91 62 92 64 93 61 94 57 95 58 96 59 97 60 98
REMARK H PARENT 18 7 10 17 6 26 25 32 84 51 52 62
REMARK Flexibility Score: inf
ROOT
ATOM      1  C   UNL A   1      34.768  24.381  25.094  1.00  0.00     0.002 C 
ENDROOT
BRANCH   1   2
ATOM      2  C   UNL A   1      34.380  25.778  24.592  1.00  0.00     0.021 C 
BRANCH   2   3
ATOM      3  C   UNL A   1      34.021  26.738  25.724  1.00  0.00     0.116 C 
BRANCH   3   4
ATOM      4  N   UNL A   1      32.851  27.518  25.386  1.00  0.00    -0.349 N 
ATOM      5  C   UNL A   1      31.623  27.175  24.885  1.00  0.00     0.286 C 
ATOM      6  O   UNL A   1      30.850  28.124  24.703  1.00  0.00    -0.266 OA
ATOM      7  H   UNL A   1      32.959  28.483  25.548  1.00  0.00     0.163 HD
BRANCH   5   8
ATOM      8  C   UNL A   1      31.245  25.801  24.608  1.00  0.00     0.191 A 
ATOM      9  C   UNL A   1      30.851  23.718  25.280  1.00  0.00     0.124 A 
ATOM     10  C   UNL A   1      30.649  23.732  23.921  1.00  0.00     0.048 A 
ATOM     11  O   UNL A   1      31.227  24.958  25.696  1.00  0.00    -0.454 OA
ATOM     12  C   UNL A   1      30.863  25.065  23.500  1.00  0.00     0.056 A 
BRANCH   9  13
ATOM     13  C   UNL A   1      30.688  22.699  26.344  1.00  0.00     0.191 C 
BRANCH  13  14
ATOM     14  N   UNL A   1      32.006  22.252  26.738  1.00  0.00    -0.345 N 
ATOM     15  C   UNL A   1      32.887  21.308  26.294  1.00  0.00     0.255 C 
ATOM     16  O   UNL A   1      33.945  21.221  26.929  1.00  0.00    -0.269 OA
ATOM     17  H   UNL A   1      32.351  22.747  27.517  1.00  0.00     0.164 HD
BRANCH  15  18
ATOM     18  C   UNL A   1      32.698  20.388  25.127  1.00  0.00     0.081 A 
ATOM     19  C   UNL A   1      31.931  20.372  21.378  1.00  0.00     0.044 C 
ATOM     20  C   UNL A   1      32.234  19.889  22.768  1.00  0.00    -0.050 A 
ATOM     21  C   UNL A   1      32.280  18.522  23.036  1.00  0.00     0.007 A 
ATOM     22  C   UNL A   1      32.455  20.804  23.813  1.00  0.00     0.021 A 
ATOM     23  C   UNL A   1      32.526  18.077  24.331  1.00  0.00     0.047 A 
ATOM     24  C   UNL A   1      32.723  18.997  25.362  1.00  0.00     0.128 A 
BRANCH  24  25
ATOM     25  O   UNL A   1      32.927  18.438  26.600  1.00  0.00    -0.507 OA
ATOM     26  H   UNL A   1      33.678  17.899  26.753  1.00  0.00     0.293 HD
ENDBRANCH  24  25
ENDBRANCH  15  18
ENDBRANCH  13  14
ENDBRANCH   9  13
ENDBRANCH   5   8
ENDBRANCH   3   4
ENDBRANCH   2   3
ENDBRANCH   1   2
BRANCH   1  27
ATOM     27  C   UNL A   1      35.151  23.390  23.987  1.00  0.00     0.002 C 
BRANCH  27  28
ATOM     28  C   UNL A   1      36.217  22.364  24.384  1.00  0.00     0.021 C 
BRANCH  28  29
ATOM     29  C   UNL A   1      36.967  22.715  25.664  1.00  0.00     0.116 C 
BRANCH  29  30
ATOM     30  N   UNL A   1      37.971  21.714  25.978  1.00  0.00    -0.352 N 
ATOM     31  C   UNL A   1      39.274  21.885  26.364  1.00  0.00     0.251 C 
ATOM     32  H   UNL A   1      37.672  20.779  25.902  1.00  0.00     0.163 HD
ATOM     33  O   UNL A   1      40.049  20.933  26.318  1.00  0.00    -0.269 OA
BRANCH  31  34
ATOM     34  C   UNL A   1      39.739  23.211  26.825  1.00  0.00     0.039 A 
ATOM     35  C   UNL A   1      39.371  24.344  26.098  1.00  0.00     0.014 A 
ATOM     36  C   UNL A   1      40.566  23.333  27.946  1.00  0.00     0.014 A 
ATOM     37  C   UNL A   1      39.815  25.603  26.510  1.00  0.00     0.010 A 
ATOM     38  C   UNL A   1      40.933  24.594  28.405  1.00  0.00     0.010 A 
ATOM     39  C   UNL A   1      40.588  25.741  27.676  1.00  0.00    -0.014 A 
BRANCH  39  40
ATOM     40  C   UNL A   1      41.086  27.072  28.106  1.00  0.00     0.031 A 
ATOM     41  C   UNL A   1      42.534  27.435  27.895  1.00  0.00     0.074 A 
ATOM     42  C   UNL A   1      40.247  27.940  28.701  1.00  0.00     0.049 A 
ATOM     43  N   UNL A   1      43.168  28.533  28.219  1.00  0.00    -0.248 NA
ATOM     44  C   UNL A   1      43.386  26.414  27.267  1.00  0.00     0.031 C 
ATOM     45  C   UNL A   1      38.834  27.685  28.992  1.00  0.00     0.029 A 
ATOM     46  N   UNL A   1      40.455  29.215  29.164  1.00  0.00    -0.354 N 
ATOM     47  C   UNL A   1      44.492  28.330  27.842  1.00  0.00     0.074 A 
ATOM     48  C   UNL A   1      44.582  26.977  27.339  1.00  0.00     0.031 C 
ATOM     49  C   UNL A   1      38.295  28.782  29.548  1.00  0.00     0.029 A 
ATOM     50  C   UNL A   1      39.329  29.801  29.697  1.00  0.00     0.049 A 
ATOM     51  H   UNL A   1      41.328  29.667  29.121  1.00  0.00     0.167 HD
ATOM     52  C   UNL A   1      45.530  29.202  27.880  1.00  0.00     0.034 A 
ATOM     53  C   UNL A   1      39.153  31.019  30.244  1.00  0.00     0.034 A 
ATOM     54  C   UNL A   1      45.418  30.553  28.376  1.00  0.00     0.049 A 
ATOM     55  C   UNL A   1      40.327  31.965  30.294  1.00  0.00     0.074 A 
ATOM     56  C   UNL A   1      46.392  31.536  28.429  1.00  0.00     0.029 A 
ATOM     57  N   UNL A   1      44.263  31.111  28.911  1.00  0.00    -0.354 N 
ATOM     58  N   UNL A   1      41.563  31.775  29.890  1.00  0.00    -0.248 NA
ATOM     59  C   UNL A   1      40.075  33.296  30.857  1.00  0.00     0.031 C 
ATOM     60  C   UNL A   1      45.848  32.659  29.062  1.00  0.00     0.029 A 
ATOM     61  C   UNL A   1      44.508  32.413  29.322  1.00  0.00     0.049 A 
ATOM     62  H   UNL A   1      43.398  30.650  28.987  1.00  0.00     0.167 HD
ATOM     63  C   UNL A   1      42.224  32.981  30.115  1.00  0.00     0.074 A 
ATOM     64  C   UNL A   1      41.242  33.892  30.668  1.00  0.00     0.031 C 
ATOM     65  C   UNL A   1      43.522  33.309  29.883  1.00  0.00     0.034 A 
BRANCH  52  66
ATOM     66  C   UNL A   1      46.875  28.705  27.398  1.00  0.00     0.023 A 
ATOM     67  C   UNL A   1      47.130  28.464  26.035  1.00  0.00     0.031 A 
ATOM     68  C   UNL A   1      47.907  28.436  28.314  1.00  0.00     0.131 A 
ATOM     69  C   UNL A   1      48.349  27.891  25.640  1.00  0.00     0.055 A 
ATOM     70  C   UNL A   1      49.152  27.952  27.903  1.00  0.00     0.041 A 
ATOM     71  F   UNL A   1      47.719  28.621  29.630  1.00  0.00    -0.206 F 
ATOM     72  C   UNL A   1      49.372  27.661  26.560  1.00  0.00     0.022 A 
BRANCH  69  73
ATOM     73  S   UNL A   1      48.514  27.302  23.932  1.00  0.00     0.124 S 
ATOM     74  O   UNL A   1      48.933  25.918  24.137  1.00  0.00    -0.237 OA
ATOM     75  O   UNL A   1      47.169  27.491  23.401  1.00  0.00    -0.237 OA
ATOM     76  O   UNL A   1      49.538  28.178  23.365  1.00  0.00    -0.744 OA
ENDBRANCH  69  73
ENDBRANCH  52  66
BRANCH  53  77
ATOM     77  C   UNL A   1      37.822  31.424  30.786  1.00  0.00     0.023 A 
ATOM     78  C   UNL A   1      36.880  32.083  29.981  1.00  0.00     0.031 A 
ATOM     79  C   UNL A   1      37.495  31.205  32.136  1.00  0.00     0.131 A 
ATOM     80  C   UNL A   1      35.682  32.550  30.543  1.00  0.00     0.055 A 
ATOM     81  C   UNL A   1      36.276  31.618  32.677  1.00  0.00     0.041 A 
ATOM     82  F   UNL A   1      38.357  30.576  32.952  1.00  0.00    -0.206 F 
ATOM     83  C   UNL A   1      35.368  32.310  31.882  1.00  0.00     0.022 A 
BRANCH  80  84
ATOM     84  S   UNL A   1      34.583  33.570  29.523  1.00  0.00     0.124 S 
ATOM     85  O   UNL A   1      35.533  34.454  28.857  1.00  0.00    -0.237 OA
ATOM     86  O   UNL A   1      33.937  32.569  28.680  1.00  0.00    -0.237 OA
ATOM     87  O   UNL A   1      33.711  34.215  30.502  1.00  0.00    -0.744 OA
ENDBRANCH  80  84
ENDBRANCH  53  77
BRANCH  65  88
ATOM     88  C   UNL A   1      43.932  34.733  30.181  1.00  0.00     0.023 A 
ATOM     89  C   UNL A   1      43.822  35.754  29.221  1.00  0.00     0.031 A 
ATOM     90  C   UNL A   1      44.485  35.063  31.432  1.00  0.00     0.131 A 
ATOM     91  C   UNL A   1      44.339  37.029  29.493  1.00  0.00     0.055 A 
ATOM     92  C   UNL A   1      44.921  36.356  31.726  1.00  0.00     0.041 A 
ATOM     93  F   UNL A   1      44.619  34.131  32.389  1.00  0.00    -0.206 F 
ATOM     94  C   UNL A   1      44.869  37.342  30.746  1.00  0.00     0.022 A 
BRANCH  91  95
ATOM     95  S   UNL A   1      44.443  38.230  28.137  1.00  0.00     0.124 S 
ATOM     96  O   UNL A   1      45.881  38.457  28.044  1.00  0.00    -0.237 OA
ATOM     97  O   UNL A   1      43.841  37.499  27.027  1.00  0.00    -0.237 OA
ATOM     98  O   UNL A   1      43.665  39.367  28.626  1.00  0.00    -0.744 OA
ENDBRANCH  91  95
ENDBRANCH  65  88
ENDBRANCH  39  40
ENDBRANCH  31  34
ENDBRANCH  29  30
ENDBRANCH  28  29
ENDBRANCH  27  28
ENDBRANCH   1  27
TORSDOF 20
ENDMDL
MODEL 2
REMARK VINA RESULT:     -11.5      2.249      2.709
REMARK SMILES Cc1ccc(O)c(C(=O)NCc2ccc(C(=O)NCCCCCCNC(=O)c3ccc(-c4c5nc(c(-c6cc(S(=O)(=O)[O-])ccc6F)c6ccc([nH]6)c(-c6cc(S(=O)(=O)[O-])ccc6F)c6nc(c(-c7cc(S(=O)(=O)[O-])ccc7F)c7ccc4[nH]7)C=C6)C=C5)cc3)o2)c1
REMARK SMILES IDX 21 1 20 2 19 3 18 4 16 5 17 6 15 8 12 9 13 10 91 11 14 12
REMARK SMILES IDX 11 13 10 14 8 15 9 16 7 18 1 19 2 20 3 21 92 22 4 23 5 24
REMARK SMILES IDX 6 25 22 27 23 28 24 29 25 30 26 31 27 33 28 34 29 35 90 36
REMARK SMILES IDX 30 37 89 38 31 39 32 40 33 41 83 42 34 43 88 44 82 45 84 46
REMARK SMILES IDX 35 47 87 48 81 49 80 50 36 52 68 53 48 54 67 55 49 56 52 57
REMARK SMILES IDX 66 58 85 59 50 60 51 61 65 63 86 64 53 65 37 66 38 67 46 68
REMARK SMILES IDX 39 69 45 70 47 71 44 72 40 73 41 74 42 75 43 76 69 77 70 78
REMARK SMILES IDX 78 79 71 80 77 81 79 82 76 83 72 84 73 85 74 86 75 87 54 88
REMARK SMILES IDX 55 89 63 90 56 91 62 92 64 93 61 94 57 95 58 96 59 97 60 98
REMARK H PARENT 18 7 10 17 6 26 25 32 84 51 52 62
REMARK Flexibility Score: inf
ROOT
ATOM      1  C   UNL A   1      33.953  23.764  22.615  1.00  0.00     0.002 C 
ENDROOT
BRANCH   1   2
ATOM      2  C   UNL A   1      32.834  24.645  22.045  1.00  0.00     0.021 C 
BRANCH   2   3
ATOM      3  C   UNL A   1      33.278  26.084  21.794  1.00  0.00     0.116 C 
BRANCH   3   4
ATOM      4  N   UNL A   1      32.141  26.974  21.747  1.00  0.00    -0.349 N 
ATOM      5  C   UNL A   1      31.234  27.367  22.697  1.00  0.00     0.286 C 
ATOM      6  O   UNL A   1      30.363  28.149  22.294  1.00  0.00    -0.266 OA
ATOM      7  H   UNL A   1      31.988  27.375  20.861  1.00  0.00     0.163 HD
BRANCH   5   8
ATOM      8  C   UNL A   1      31.298  26.919  24.076  1.00  0.00     0.191 A 
ATOM      9  C   UNL A   1      30.847  25.425  25.659  1.00  0.00     0.124 A 
ATOM     10  C   UNL A   1      31.517  26.453  26.276  1.00  0.00     0.048 A 
ATOM     11  O   UNL A   1      30.697  25.709  24.337  1.00  0.00    -0.454 OA
ATOM     12  C   UNL A   1      31.838  27.385  25.262  1.00  0.00     0.056 A 
BRANCH   9  13
ATOM     13  C   UNL A   1      30.336  24.105  26.100  1.00  0.00     0.191 C 
BRANCH  13  14
ATOM     14  N   UNL A   1      31.183  23.636  27.175  1.00  0.00    -0.345 N 
ATOM     15  C   UNL A   1      32.204  22.735  27.288  1.00  0.00     0.255 C 
ATOM     16  O   UNL A   1      32.681  22.604  28.421  1.00  0.00    -0.269 OA
ATOM     17  H   UNL A   1      30.972  24.069  28.034  1.00  0.00     0.164 HD
BRANCH  15  18
ATOM     18  C   UNL A   1      32.793  21.910  26.185  1.00  0.00     0.081 A 
ATOM     19  C   UNL A   1      31.996  20.456  22.735  1.00  0.00     0.044 C 
ATOM     20  C   UNL A   1      32.735  20.789  24.000  1.00  0.00    -0.050 A 
ATOM     21  C   UNL A   1      34.008  20.264  24.223  1.00  0.00     0.007 A 
ATOM     22  C   UNL A   1      32.150  21.614  24.977  1.00  0.00     0.021 A 
ATOM     23  C   UNL A   1      34.675  20.546  25.410  1.00  0.00     0.047 A 
ATOM     24  C   UNL A   1      34.072  21.349  26.380  1.00  0.00     0.128 A 
BRANCH  24  25
ATOM     25  O   UNL A   1      34.816  21.530  27.521  1.00  0.00    -0.507 OA
ATOM     26  H   UNL A   1      34.472  21.268  28.352  1.00  0.00     0.293 HD
ENDBRANCH  24  25
ENDBRANCH  15  18
ENDBRANCH  13  14
ENDBRANCH   9  13
ENDBRANCH   5   8
ENDBRANCH   3   4
ENDBRANCH   2   3
ENDBRANCH   1   2
BRANCH   1  27
ATOM     27  C   UNL A   1      34.592  24.299  23.904  1.00  0.00     0.002 C 
BRANCH  27  28
ATOM     28  C   UNL A   1      36.011  23.791  24.177  1.00  0.00     0.021 C 
BRANCH  28  29
ATOM     29  C   UNL A   1      36.458  23.950  25.625  1.00  0.00     0.116 C 
BRANCH  29  30
ATOM     30  N   UNL A   1      37.367  22.888  26.015  1.00  0.00    -0.352 N 
ATOM     31  C   UNL A   1      38.651  22.975  26.487  1.00  0.00     0.251 C 
ATOM     32  H   UNL A   1      37.011  21.974  25.930  1.00  0.00     0.163 HD
ATOM     33  O   UNL A   1      39.360  21.972  26.502  1.00  0.00    -0.269 OA
BRANCH  31  34
ATOM     34  C   UNL A   1      39.175  24.273  26.965  1.00  0.00     0.039 A 
ATOM     35  C   UNL A   1      38.938  24.650  28.287  1.00  0.00     0.014 A 
ATOM     36  C   UNL A   1      39.863  25.132  26.102  1.00  0.00     0.014 A 
ATOM     37  C   UNL A   1      39.411  25.880  28.750  1.00  0.00     0.010 A 
ATOM     38  C   UNL A   1      40.410  26.314  26.589  1.00  0.00     0.010 A 
ATOM     39  C   UNL A   1      40.164  26.716  27.909  1.00  0.00    -0.014 A 
BRANCH  39  40
ATOM     40  C   UNL A   1      40.649  28.037  28.385  1.00  0.00     0.031 A 
ATOM     41  C   UNL A   1      42.130  28.298  28.495  1.00  0.00     0.074 A 
ATOM     42  C   UNL A   1      39.763  28.988  28.737  1.00  0.00     0.049 A 
ATOM     43  N   UNL A   1      42.753  29.372  28.907  1.00  0.00    -0.248 NA
ATOM     44  C   UNL A   1      43.025  27.193  28.120  1.00  0.00     0.031 C 
ATOM     45  C   UNL A   1      38.306  28.837  28.710  1.00  0.00     0.029 A 
ATOM     46  N   UNL A   1      39.953  30.273  29.181  1.00  0.00    -0.354 N 
ATOM     47  C   UNL A   1      44.109  29.068  28.850  1.00  0.00     0.074 A 
ATOM     48  C   UNL A   1      44.211  27.685  28.439  1.00  0.00     0.031 C 
ATOM     49  C   UNL A   1      37.736  29.994  29.082  1.00  0.00     0.029 A 
ATOM     50  C   UNL A   1      38.783  30.955  29.419  1.00  0.00     0.049 A 
ATOM     51  H   UNL A   1      40.844  30.667  29.318  1.00  0.00     0.167 HD
ATOM     52  C   UNL A   1      45.173  29.876  29.087  1.00  0.00     0.034 A 
ATOM     53  C   UNL A   1      38.577  32.211  29.860  1.00  0.00     0.034 A 
ATOM     54  C   UNL A   1      45.051  31.257  29.486  1.00  0.00     0.049 A 
ATOM     55  C   UNL A   1      39.775  33.086  30.136  1.00  0.00     0.074 A 
ATOM     56  C   UNL A   1      46.056  32.180  29.718  1.00  0.00     0.029 A 
ATOM     57  N   UNL A   1      43.849  31.915  29.721  1.00  0.00    -0.354 N 
ATOM     58  N   UNL A   1      41.053  32.798  30.032  1.00  0.00    -0.248 NA
ATOM     59  C   UNL A   1      39.501  34.459  30.570  1.00  0.00     0.031 C 
ATOM     60  C   UNL A   1      45.467  33.369  30.164  1.00  0.00     0.029 A 
ATOM     61  C   UNL A   1      44.089  33.220  30.122  1.00  0.00     0.049 A 
ATOM     62  H   UNL A   1      42.957  31.512  29.618  1.00  0.00     0.167 HD
ATOM     63  C   UNL A   1      41.732  33.971  30.350  1.00  0.00     0.074 A 
ATOM     64  C   UNL A   1      40.721  34.971  30.626  1.00  0.00     0.031 C 
ATOM     65  C   UNL A   1      43.070  34.205  30.406  1.00  0.00     0.034 A 
BRANCH  52  66
ATOM     66  C   UNL A   1      46.552  29.271  28.944  1.00  0.00     0.023 A 
ATOM     67  C   UNL A   1      47.186  29.158  27.693  1.00  0.00     0.031 A 
ATOM     68  C   UNL A   1      47.230  28.768  30.068  1.00  0.00     0.131 A 
ATOM     69  C   UNL A   1      48.412  28.484  27.585  1.00  0.00     0.055 A 
ATOM     70  C   UNL A   1      48.494  28.181  29.966  1.00  0.00     0.041 A 
ATOM     71  F   UNL A   1      46.670  28.822  31.287  1.00  0.00    -0.206 F 
ATOM     72  C   UNL A   1      49.085  28.020  28.716  1.00  0.00     0.022 A 
BRANCH  69  73
ATOM     73  S   UNL A   1      49.034  28.080  25.929  1.00  0.00     0.124 S 
ATOM     74  O   UNL A   1      50.128  29.038  25.784  1.00  0.00    -0.237 OA
ATOM     75  O   UNL A   1      49.422  26.683  26.070  1.00  0.00    -0.237 OA
ATOM     76  O   UNL A   1      47.883  28.325  25.062  1.00  0.00    -0.744 OA
ENDBRANCH  69  73
ENDBRANCH  52  66
BRANCH  53  77
ATOM     77  C   UNL A   1      37.192  32.727  30.067  1.00  0.00     0.023 A 
ATOM     78  C   UNL A   1      36.693  32.971  31.357  1.00  0.00     0.031 A 
ATOM     79  C   UNL A   1      36.327  32.933  28.978  1.00  0.00     0.131 A 
ATOM     80  C   UNL A   1      35.353  33.349  31.530  1.00  0.00     0.055 A 
ATOM     81  C   UNL A   1      35.012  33.369  29.151  1.00  0.00     0.041 A 
ATOM     82  F   UNL A   1      36.752  32.719  27.721  1.00  0.00    -0.206 F 
ATOM     83  C   UNL A   1      34.513  33.564  30.435  1.00  0.00     0.022 A 
BRANCH  80  84
ATOM     84  S   UNL A   1      34.691  33.458  33.215  1.00  0.00     0.124 S 
ATOM     85  O   UNL A   1      34.831  34.882  33.496  1.00  0.00    -0.237 OA
ATOM     86  O   UNL A   1      33.328  32.969  33.037  1.00  0.00    -0.237 OA
ATOM     87  O   UNL A   1      35.572  32.581  33.983  1.00  0.00    -0.744 OA
ENDBRANCH  80  84
ENDBRANCH  53  77
BRANCH  65  88
ATOM     88  C   UNL A   1      43.505  35.617  30.729  1.00  0.00     0.023 A 
ATOM     89  C   UNL A   1      43.755  36.033  32.048  1.00  0.00     0.031 A 
ATOM     90  C   UNL A   1      43.625  36.572  29.703  1.00  0.00     0.131 A 
ATOM     91  C   UNL A   1      44.023  37.384  32.316  1.00  0.00     0.055 A 
ATOM     92  C   UNL A   1      43.975  37.896  29.969  1.00  0.00     0.041 A 
ATOM     93  F   UNL A   1      43.396  36.235  28.423  1.00  0.00    -0.206 F 
ATOM     94  C   UNL A   1      44.155  38.314  31.283  1.00  0.00     0.022 A 
BRANCH  91  95
ATOM     95  S   UNL A   1      44.050  37.936  34.044  1.00  0.00     0.124 S 
ATOM     96  O   UNL A   1      42.669  38.360  34.248  1.00  0.00    -0.237 OA
ATOM     97  O   UNL A   1      44.456  36.726  34.751  1.00  0.00    -0.237 OA
ATOM     98  O   UNL A   1      45.037  39.015  34.043  1.00  0.00    -0.744 OA
ENDBRANCH  91  95
ENDBRANCH  65  88
ENDBRANCH  39  40
ENDBRANCH  31  34
ENDBRANCH  29  30
ENDBRANCH  28  29
ENDBRANCH  27  28
ENDBRANCH   1  27
TORSDOF 20
ENDMDL
MODEL 3
REMARK VINA RESULT:     -11.5      4.391      9.218
REMARK SMILES Cc1ccc(O)c(C(=O)NCc2ccc(C(=O)NCCCCCCNC(=O)c3ccc(-c4c5nc(c(-c6cc(S(=O)(=O)[O-])ccc6F)c6ccc([nH]6)c(-c6cc(S(=O)(=O)[O-])ccc6F)c6nc(c(-c7cc(S(=O)(=O)[O-])ccc7F)c7ccc4[nH]7)C=C6)C=C5)cc3)o2)c1
REMARK SMILES IDX 21 1 20 2 19 3 18 4 16 5 17 6 15 8 12 9 13 10 91 11 14 12
REMARK SMILES IDX 11 13 10 14 8 15 9 16 7 18 1 19 2 20 3 21 92 22 4 23 5 24
REMARK SMILES IDX 6 25 22 27 23 28 24 29 25 30 26 31 27 33 28 34 29 35 90 36
REMARK SMILES IDX 30 37 89 38 31 39 32 40 33 41 83 42 34 43 88 44 82 45 84 46
REMARK SMILES IDX 35 47 87 48 81 49 80 50 36 52 68 53 48 54 67 55 49 56 52 57
REMARK SMILES IDX 66 58 85 59 50 60 51 61 65 63 86 64 53 65 37 66 38 67 46 68
REMARK SMILES IDX 39 69 45 70 47 71 44 72 40 73 41 74 42 75 43 76 69 77 70 78
REMARK SMILES IDX 78 79 71 80 77 81 79 82 76 83 72 84 73 85 74 86 75 87 54 88
REMARK SMILES IDX 55 89 63 90 56 91 62 92 64 93 61 94 57 95 58 96 59 97 60 98
REMARK H PARENT 18 7 10 17 6 26 25 32 84 51 52 62
REMARK Flexibility Score: inf
ROOT
ATOM      1  C   UNL A   1      31.166  27.840  25.076  1.00  0.00     0.002 C 
ENDROOT
BRANCH   1   2
ATOM      2  C   UNL A   1      31.308  28.650  23.781  1.00  0.00     0.021 C 
BRANCH   2   3
ATOM      3  C   UNL A   1      30.800  27.900  22.552  1.00  0.00     0.116 C 
BRANCH   3   4
ATOM      4  N   UNL A   1      31.897  27.310  21.818  1.00  0.00    -0.349 N 
ATOM      5  C   UNL A   1      32.420  26.044  21.793  1.00  0.00     0.286 C 
ATOM      6  O   UNL A   1      33.390  25.894  21.039  1.00  0.00    -0.266 OA
ATOM      7  H   UNL A   1      32.359  27.942  21.221  1.00  0.00     0.163 HD
BRANCH   5   8
ATOM      8  C   UNL A   1      31.866  24.952  22.574  1.00  0.00     0.191 A 
ATOM      9  C   UNL A   1      32.030  22.924  23.472  1.00  0.00     0.124 A 
ATOM     10  C   UNL A   1      30.783  23.396  23.803  1.00  0.00     0.048 A 
ATOM     11  O   UNL A   1      32.680  23.850  22.716  1.00  0.00    -0.454 OA
ATOM     12  C   UNL A   1      30.694  24.701  23.265  1.00  0.00     0.056 A 
BRANCH   9  13
ATOM     13  C   UNL A   1      32.801  21.703  23.805  1.00  0.00     0.191 C 
BRANCH  13  14
ATOM     14  N   UNL A   1      32.884  21.608  25.246  1.00  0.00    -0.345 N 
ATOM     15  C   UNL A   1      33.896  21.573  26.163  1.00  0.00     0.255 C 
ATOM     16  O   UNL A   1      33.546  21.471  27.345  1.00  0.00    -0.269 OA
ATOM     17  H   UNL A   1      31.996  21.552  25.669  1.00  0.00     0.164 HD
BRANCH  15  18
ATOM     18  C   UNL A   1      35.364  21.651  25.876  1.00  0.00     0.081 A 
ATOM     19  C   UNL A   1      38.376  24.000  26.122  1.00  0.00     0.044 C 
ATOM     20  C   UNL A   1      37.542  22.784  25.830  1.00  0.00    -0.050 A 
ATOM     21  C   UNL A   1      38.116  21.681  25.198  1.00  0.00     0.007 A 
ATOM     22  C   UNL A   1      36.179  22.751  26.172  1.00  0.00     0.021 A 
ATOM     23  C   UNL A   1      37.334  20.571  24.898  1.00  0.00     0.047 A 
ATOM     24  C   UNL A   1      35.977  20.561  25.224  1.00  0.00     0.128 A 
BRANCH  24  25
ATOM     25  O   UNL A   1      35.304  19.422  24.850  1.00  0.00    -0.507 OA
ATOM     26  H   UNL A   1      35.652  18.580  25.068  1.00  0.00     0.293 HD
ENDBRANCH  24  25
ENDBRANCH  15  18
ENDBRANCH  13  14
ENDBRANCH   9  13
ENDBRANCH   5   8
ENDBRANCH   3   4
ENDBRANCH   2   3
ENDBRANCH   1   2
BRANCH   1  27
ATOM     27  C   UNL A   1      32.495  27.487  25.756  1.00  0.00     0.002 C 
BRANCH  27  28
ATOM     28  C   UNL A   1      32.915  28.441  26.879  1.00  0.00     0.021 C 
BRANCH  28  29
ATOM     29  C   UNL A   1      34.078  29.355  26.512  1.00  0.00     0.116 C 
BRANCH  29  30
ATOM     30  N   UNL A   1      33.882  30.694  27.038  1.00  0.00    -0.352 N 
ATOM     31  C   UNL A   1      34.560  31.340  28.039  1.00  0.00     0.251 C 
ATOM     32  H   UNL A   1      33.158  31.212  26.616  1.00  0.00     0.163 HD
ATOM     33  O   UNL A   1      34.081  32.356  28.536  1.00  0.00    -0.269 OA
BRANCH  31  34
ATOM     34  C   UNL A   1      35.853  30.807  28.517  1.00  0.00     0.039 A 
ATOM     35  C   UNL A   1      37.035  31.363  28.025  1.00  0.00     0.014 A 
ATOM     36  C   UNL A   1      35.902  29.737  29.417  1.00  0.00     0.014 A 
ATOM     37  C   UNL A   1      38.266  30.860  28.453  1.00  0.00     0.010 A 
ATOM     38  C   UNL A   1      37.126  29.298  29.909  1.00  0.00     0.010 A 
ATOM     39  C   UNL A   1      38.322  29.833  29.410  1.00  0.00    -0.014 A 
BRANCH  39  40
ATOM     40  C   UNL A   1      39.626  29.275  29.851  1.00  0.00     0.031 A 
ATOM     41  C   UNL A   1      40.360  29.906  31.007  1.00  0.00     0.074 A 
ATOM     42  C   UNL A   1      40.156  28.220  29.203  1.00  0.00     0.049 A 
ATOM     43  N   UNL A   1      41.516  29.584  31.529  1.00  0.00    -0.248 NA
ATOM     44  C   UNL A   1      39.724  31.073  31.635  1.00  0.00     0.031 C 
ATOM     45  C   UNL A   1      39.555  27.550  28.047  1.00  0.00     0.029 A 
ATOM     46  N   UNL A   1      41.316  27.521  29.425  1.00  0.00    -0.354 N 
ATOM     47  C   UNL A   1      41.747  30.513  32.539  1.00  0.00     0.074 A 
ATOM     48  C   UNL A   1      40.650  31.454  32.501  1.00  0.00     0.031 C 
ATOM     49  C   UNL A   1      40.331  26.515  27.687  1.00  0.00     0.029 A 
ATOM     50  C   UNL A   1      41.506  26.474  28.552  1.00  0.00     0.049 A 
ATOM     51  H   UNL A   1      41.953  27.749  30.140  1.00  0.00     0.167 HD
ATOM     52  C   UNL A   1      42.763  30.558  33.436  1.00  0.00     0.034 A 
ATOM     53  C   UNL A   1      42.513  25.585  28.460  1.00  0.00     0.034 A 
ATOM     54  C   UNL A   1      43.844  29.603  33.465  1.00  0.00     0.049 A 
ATOM     55  C   UNL A   1      43.643  25.666  29.457  1.00  0.00     0.074 A 
ATOM     56  C   UNL A   1      44.906  29.528  34.350  1.00  0.00     0.029 A 
ATOM     57  N   UNL A   1      44.006  28.557  32.564  1.00  0.00    -0.354 N 
ATOM     58  N   UNL A   1      43.824  26.523  30.437  1.00  0.00    -0.248 NA
ATOM     59  C   UNL A   1      44.693  24.649  29.345  1.00  0.00     0.031 C 
ATOM     60  C   UNL A   1      45.747  28.487  33.940  1.00  0.00     0.029 A 
ATOM     61  C   UNL A   1      45.164  27.851  32.854  1.00  0.00     0.049 A 
ATOM     62  H   UNL A   1      43.389  28.348  31.827  1.00  0.00     0.167 HD
ATOM     63  C   UNL A   1      44.990  26.119  31.083  1.00  0.00     0.074 A 
ATOM     64  C   UNL A   1      45.452  24.932  30.393  1.00  0.00     0.031 C 
ATOM     65  C   UNL A   1      45.621  26.675  32.150  1.00  0.00     0.034 A 
BRANCH  52  66
ATOM     66  C   UNL A   1      42.758  31.693  34.436  1.00  0.00     0.023 A 
ATOM     67  C   UNL A   1      42.109  31.583  35.679  1.00  0.00     0.031 A 
ATOM     68  C   UNL A   1      43.382  32.916  34.130  1.00  0.00     0.131 A 
ATOM     69  C   UNL A   1      42.025  32.696  36.529  1.00  0.00     0.055 A 
ATOM     70  C   UNL A   1      43.374  33.992  35.022  1.00  0.00     0.041 A 
ATOM     71  F   UNL A   1      43.997  33.094  32.951  1.00  0.00    -0.206 F 
ATOM     72  C   UNL A   1      42.677  33.891  36.223  1.00  0.00     0.022 A 
BRANCH  69  73
ATOM     73  S   UNL A   1      40.915  32.610  37.961  1.00  0.00     0.124 S 
ATOM     74  O   UNL A   1      39.745  31.949  37.388  1.00  0.00    -0.237 OA
ATOM     75  O   UNL A   1      41.690  31.825  38.915  1.00  0.00    -0.237 OA
ATOM     76  O   UNL A   1      40.713  34.012  38.324  1.00  0.00    -0.744 OA
ENDBRANCH  69  73
ENDBRANCH  52  66
BRANCH  53  77
ATOM     77  C   UNL A   1      42.509  24.539  27.396  1.00  0.00     0.023 A 
ATOM     78  C   UNL A   1      41.930  23.279  27.617  1.00  0.00     0.031 A 
ATOM     79  C   UNL A   1      43.134  24.766  26.157  1.00  0.00     0.131 A 
ATOM     80  C   UNL A   1      42.037  22.277  26.641  1.00  0.00     0.055 A 
ATOM     81  C   UNL A   1      43.184  23.786  25.164  1.00  0.00     0.041 A 
ATOM     82  F   UNL A   1      43.701  25.954  25.888  1.00  0.00    -0.206 F 
ATOM     83  C   UNL A   1      42.647  22.526  25.410  1.00  0.00     0.022 A 
BRANCH  80  84
ATOM     84  S   UNL A   1      41.455  20.606  27.043  1.00  0.00     0.124 S 
ATOM     85  O   UNL A   1      42.584  20.073  27.796  1.00  0.00    -0.237 OA
ATOM     86  O   UNL A   1      40.245  20.883  27.810  1.00  0.00    -0.237 OA
ATOM     87  O   UNL A   1      41.235  19.999  25.732  1.00  0.00    -0.744 OA
ENDBRANCH  80  84
ENDBRANCH  53  77
BRANCH  65  88
ATOM     88  C   UNL A   1      46.852  25.963  32.664  1.00  0.00     0.023 A 
ATOM     89  C   UNL A   1      48.080  26.015  31.980  1.00  0.00     0.031 A 
ATOM     90  C   UNL A   1      46.782  25.181  33.831  1.00  0.00     0.131 A 
ATOM     91  C   UNL A   1      49.157  25.230  32.417  1.00  0.00     0.055 A 
ATOM     92  C   UNL A   1      47.884  24.470  34.308  1.00  0.00     0.041 A 
ATOM     93  F   UNL A   1      45.637  25.090  34.527  1.00  0.00    -0.206 F 
ATOM     94  C   UNL A   1      49.074  24.474  33.588  1.00  0.00     0.022 A 
BRANCH  91  95
ATOM     95  S   UNL A   1      50.621  25.097  31.353  1.00  0.00     0.124 S 
ATOM     96  O   UNL A   1      50.035  25.198  30.020  1.00  0.00    -0.237 OA
ATOM     97  O   UNL A   1      51.423  26.237  31.783  1.00  0.00    -0.237 OA
ATOM     98  O   UNL A   1      51.172  23.786  31.691  1.00  0.00    -0.744 OA
ENDBRANCH  91  95
ENDBRANCH  65  88
ENDBRANCH  39  40
ENDBRANCH  31  34
ENDBRANCH  29  30
ENDBRANCH  28  29
ENDBRANCH  27  28
ENDBRANCH   1  27
TORSDOF 20
ENDMDL
