MODEL 1
REMARK VINA RESULT:     -12.3      0.000      0.000
REMARK SMILES Cc1ccc(F)cc1S(=O)(=O)Nc1cc(C(=O)NCCCCCCNC(=O)c2ccc(-c3c4nc(c(-c5cc(S(=O)(=O)[O-])ccc5F)c5ccc([nH]5)c(-c5cc(S(=O)(=O)[O-])ccc5F)c5nc(c(-c6cc(S(=O)(=O)[O-])ccc6F)c6ccc3[nH]6)C=C5)C=C4)cc2)ccc1N(C)Cc1ccccc1
REMARK SMILES IDX 21 1 20 2 19 3 18 4 16 5 17 6 15 8 13 9 14 10 93 11 92 12
REMARK SMILES IDX 91 13 12 14 9 16 10 17 11 18 8 19 1 20 2 21 3 22 4 23 7 24
REMARK SMILES IDX 5 25 6 26 94 27 95 28 96 29 97 30 98 31 102 32 99 33 101 34
REMARK SMILES IDX 100 35 22 36 23 37 24 38 25 39 26 40 27 42 28 43 29 44 90 45
REMARK SMILES IDX 30 46 89 47 31 48 32 49 33 50 83 51 34 52 88 53 82 54 84 55
REMARK SMILES IDX 35 56 87 57 81 58 80 59 36 61 68 62 48 63 67 64 49 65 52 66
REMARK SMILES IDX 66 67 85 68 50 69 51 70 65 72 86 73 53 74 37 75 38 76 46 77
REMARK SMILES IDX 39 78 45 79 47 80 44 81 40 82 41 83 42 84 43 85 69 86 70 87
REMARK SMILES IDX 78 88 71 89 77 90 79 91 76 92 72 93 73 94 74 95 75 96 54 97
REMARK SMILES IDX 55 98 63 99 56 100 62 101 64 102 61 103 57 104 58 105 59 106
REMARK SMILES IDX 60 107
REMARK H PARENT 18 7 12 15 25 41 84 60 52 71
REMARK Flexibility Score: inf
ROOT
ATOM      1  C   UNL A   1      33.386  29.197  26.650  1.00  0.00     0.002 C 
ENDROOT
BRANCH   1   2
ATOM      2  C   UNL A   1      31.960  29.024  26.093  1.00  0.00     0.021 C 
BRANCH   2   3
ATOM      3  C   UNL A   1      31.813  29.319  24.599  1.00  0.00     0.116 C 
BRANCH   3   4
ATOM      4  N   UNL A   1      30.470  29.003  24.166  1.00  0.00    -0.352 N 
ATOM      5  C   UNL A   1      29.911  28.063  23.340  1.00  0.00     0.251 C 
ATOM      6  O   UNL A   1      28.742  28.291  23.012  1.00  0.00    -0.269 OA
ATOM      7  H   UNL A   1      29.796  29.605  24.558  1.00  0.00     0.163 HD
BRANCH   5   8
ATOM      8  C   UNL A   1      30.528  26.757  22.907  1.00  0.00     0.042 A 
ATOM      9  C   UNL A   1      30.657  24.389  23.561  1.00  0.00     0.073 A 
ATOM     10  C   UNL A   1      29.973  25.631  23.522  1.00  0.00     0.042 A 
ATOM     11  C   UNL A   1      31.748  24.073  22.742  1.00  0.00     0.061 A 
ATOM     12  C   UNL A   1      32.218  25.208  22.020  1.00  0.00     0.029 A 
ATOM     13  C   UNL A   1      31.658  26.526  22.132  1.00  0.00     0.016 A 
BRANCH   9  14
ATOM     14  N   UNL A   1      30.551  23.679  24.797  1.00  0.00    -0.277 N 
ATOM     15  H   UNL A   1      29.998  22.874  24.923  1.00  0.00     0.180 HD
BRANCH  14  16
ATOM     16  S   UNL A   1      31.511  24.401  26.047  1.00  0.00     0.262 S 
ATOM     17  O   UNL A   1      31.074  23.837  27.300  1.00  0.00    -0.201 OA
ATOM     18  O   UNL A   1      31.356  25.835  25.861  1.00  0.00    -0.201 OA
BRANCH  16  19
ATOM     19  C   UNL A   1      33.264  23.975  25.835  1.00  0.00     0.093 A 
ATOM     20  C   UNL A   1      33.975  26.206  24.854  1.00  0.00     0.046 C 
ATOM     21  C   UNL A   1      34.263  24.876  25.469  1.00  0.00    -0.030 A 
ATOM     22  C   UNL A   1      35.624  24.520  25.669  1.00  0.00     0.008 A 
ATOM     23  C   UNL A   1      36.001  23.258  26.126  1.00  0.00     0.039 A 
ATOM     24  C   UNL A   1      33.688  22.699  26.184  1.00  0.00     0.061 A 
ATOM     25  C   UNL A   1      35.016  22.328  26.330  1.00  0.00     0.124 A 
ATOM     26  F   UNL A   1      35.323  21.066  26.662  1.00  0.00    -0.207 F 
ENDBRANCH  16  19
ENDBRANCH  14  16
ENDBRANCH   9  14
BRANCH  11  27
ATOM     27  N   UNL A   1      32.405  22.810  22.776  1.00  0.00    -0.369 N 
ATOM     28  C   UNL A   1      33.857  22.861  22.543  1.00  0.00     0.144 C 
BRANCH  27  29
ATOM     29  C   UNL A   1      31.780  21.440  22.474  1.00  0.00     0.151 C 
BRANCH  29  30
ATOM     30  C   UNL A   1      32.251  20.073  23.071  1.00  0.00    -0.029 A 
ATOM     31  C   UNL A   1      32.375  18.826  22.424  1.00  0.00     0.005 A 
ATOM     32  C   UNL A   1      32.447  20.013  24.466  1.00  0.00     0.005 A 
ATOM     33  C   UNL A   1      33.000  17.717  23.036  1.00  0.00     0.000 A 
ATOM     34  C   UNL A   1      32.953  18.871  25.116  1.00  0.00     0.000 A 
ATOM     35  C   UNL A   1      33.313  17.749  24.384  1.00  0.00     0.000 A 
ENDBRANCH  29  30
ENDBRANCH  27  29
ENDBRANCH  11  27
ENDBRANCH   5   8
ENDBRANCH   3   4
ENDBRANCH   2   3
ENDBRANCH   1   2
BRANCH   1  36
ATOM     36  C   UNL A   1      33.616  30.426  27.538  1.00  0.00     0.002 C 
BRANCH  36  37
ATOM     37  C   UNL A   1      33.360  31.779  26.867  1.00  0.00     0.021 C 
BRANCH  37  38
ATOM     38  C   UNL A   1      32.240  32.603  27.494  1.00  0.00     0.116 C 
BRANCH  38  39
ATOM     39  N   UNL A   1      32.603  34.003  27.622  1.00  0.00    -0.352 N 
ATOM     40  C   UNL A   1      33.583  34.587  28.384  1.00  0.00     0.251 C 
ATOM     41  H   UNL A   1      32.066  34.625  27.080  1.00  0.00     0.163 HD
ATOM     42  O   UNL A   1      33.573  35.804  28.547  1.00  0.00    -0.269 OA
BRANCH  40  43
ATOM     43  C   UNL A   1      34.633  33.758  29.019  1.00  0.00     0.039 A 
ATOM     44  C   UNL A   1      35.938  33.844  28.531  1.00  0.00     0.014 A 
ATOM     45  C   UNL A   1      34.336  32.879  30.065  1.00  0.00     0.014 A 
ATOM     46  C   UNL A   1      36.949  33.086  29.122  1.00  0.00     0.010 A 
ATOM     47  C   UNL A   1      35.360  32.186  30.708  1.00  0.00     0.010 A 
ATOM     48  C   UNL A   1      36.678  32.275  30.239  1.00  0.00    -0.014 A 
BRANCH  48  49
ATOM     49  C   UNL A   1      37.779  31.543  30.917  1.00  0.00     0.031 A 
ATOM     50  C   UNL A   1      38.575  30.497  30.186  1.00  0.00     0.074 A 
ATOM     51  C   UNL A   1      38.049  31.819  32.208  1.00  0.00     0.049 A 
ATOM     52  N   UNL A   1      39.599  29.796  30.603  1.00  0.00    -0.248 NA
ATOM     53  C   UNL A   1      38.149  30.177  28.816  1.00  0.00     0.031 C 
ATOM     54  C   UNL A   1      37.308  32.774  33.037  1.00  0.00     0.029 A 
ATOM     55  N   UNL A   1      39.025  31.342  33.046  1.00  0.00    -0.354 N 
ATOM     56  C   UNL A   1      39.942  28.957  29.549  1.00  0.00     0.074 A 
ATOM     57  C   UNL A   1      38.966  29.183  28.503  1.00  0.00     0.031 C 
ATOM     58  C   UNL A   1      37.890  32.854  34.243  1.00  0.00     0.029 A 
ATOM     59  C   UNL A   1      39.013  31.925  34.292  1.00  0.00     0.049 A 
ATOM     60  H   UNL A   1      39.672  30.650  32.780  1.00  0.00     0.167 HD
ATOM     61  C   UNL A   1      40.990  28.099  29.451  1.00  0.00     0.034 A 
ATOM     62  C   UNL A   1      39.819  31.736  35.355  1.00  0.00     0.034 A 
ATOM     63  C   UNL A   1      41.948  27.881  30.510  1.00  0.00     0.049 A 
ATOM     64  C   UNL A   1      40.958  30.760  35.233  1.00  0.00     0.074 A 
ATOM     65  C   UNL A   1      43.071  27.073  30.507  1.00  0.00     0.029 A 
ATOM     66  N   UNL A   1      41.888  28.463  31.773  1.00  0.00    -0.354 N 
ATOM     67  N   UNL A   1      41.311  30.023  34.204  1.00  0.00    -0.248 NA
ATOM     68  C   UNL A   1      41.818  30.604  36.412  1.00  0.00     0.031 C 
ATOM     69  C   UNL A   1      43.640  27.101  31.786  1.00  0.00     0.029 A 
ATOM     70  C   UNL A   1      42.928  27.999  32.565  1.00  0.00     0.049 A 
ATOM     71  H   UNL A   1      41.205  29.112  32.061  1.00  0.00     0.167 HD
ATOM     72  C   UNL A   1      42.450  29.330  34.607  1.00  0.00     0.074 A 
ATOM     73  C   UNL A   1      42.740  29.768  35.958  1.00  0.00     0.031 C 
ATOM     74  C   UNL A   1      43.188  28.415  33.925  1.00  0.00     0.034 A 
BRANCH  61  75
ATOM     75  C   UNL A   1      41.128  27.315  28.164  1.00  0.00     0.023 A 
ATOM     76  C   UNL A   1      40.821  25.943  28.096  1.00  0.00     0.031 A 
ATOM     77  C   UNL A   1      41.608  27.934  26.996  1.00  0.00     0.131 A 
ATOM     78  C   UNL A   1      41.080  25.221  26.920  1.00  0.00     0.055 A 
ATOM     79  C   UNL A   1      41.775  27.230  25.802  1.00  0.00     0.041 A 
ATOM     80  F   UNL A   1      41.942  29.234  26.999  1.00  0.00    -0.206 F 
ATOM     81  C   UNL A   1      41.528  25.861  25.763  1.00  0.00     0.022 A 
BRANCH  78  82
ATOM     82  S   UNL A   1      40.986  23.411  26.979  1.00  0.00     0.124 S 
ATOM     83  O   UNL A   1      41.520  23.132  28.310  1.00  0.00    -0.237 OA
ATOM     84  O   UNL A   1      39.562  23.162  26.795  1.00  0.00    -0.237 OA
ATOM     85  O   UNL A   1      41.843  22.987  25.873  1.00  0.00    -0.744 OA
ENDBRANCH  78  82
ENDBRANCH  61  75
BRANCH  62  86
ATOM     86  C   UNL A   1      39.585  32.487  36.622  1.00  0.00     0.023 A 
ATOM     87  C   UNL A   1      38.631  32.056  37.558  1.00  0.00     0.031 A 
ATOM     88  C   UNL A   1      40.294  33.670  36.902  1.00  0.00     0.131 A 
ATOM     89  C   UNL A   1      38.381  32.822  38.706  1.00  0.00     0.055 A 
ATOM     90  C   UNL A   1      40.083  34.397  38.073  1.00  0.00     0.041 A 
ATOM     91  F   UNL A   1      41.221  34.126  36.044  1.00  0.00    -0.206 F 
ATOM     92  C   UNL A   1      39.112  33.982  38.978  1.00  0.00     0.022 A 
BRANCH  89  93
ATOM     93  S   UNL A   1      37.024  32.327  39.803  1.00  0.00     0.124 S 
ATOM     94  O   UNL A   1      36.986  33.438  40.749  1.00  0.00    -0.237 OA
ATOM     95  O   UNL A   1      35.902  32.236  38.875  1.00  0.00    -0.237 OA
ATOM     96  O   UNL A   1      37.480  31.053  40.354  1.00  0.00    -0.744 OA
ENDBRANCH  89  93
ENDBRANCH  62  86
BRANCH  74  97
ATOM     97  C   UNL A   1      44.393  27.848  34.642  1.00  0.00     0.023 A 
ATOM     98  C   UNL A   1      44.305  26.675  35.415  1.00  0.00     0.031 A 
ATOM     99  C   UNL A   1      45.628  28.517  34.603  1.00  0.00     0.131 A 
ATOM    100  C   UNL A   1      45.400  26.262  36.189  1.00  0.00     0.055 A 
ATOM    101  C   UNL A   1      46.741  28.053  35.309  1.00  0.00     0.041 A 
ATOM    102  F   UNL A   1      45.776  29.644  33.888  1.00  0.00    -0.206 F 
ATOM    103  C   UNL A   1      46.623  26.932  36.126  1.00  0.00     0.022 A 
BRANCH 100 104
ATOM    104  S   UNL A   1      45.152  24.930  37.395  1.00  0.00     0.124 S 
ATOM    105  O   UNL A   1      46.447  24.887  38.067  1.00  0.00    -0.237 OA
ATOM    106  O   UNL A   1      44.038  25.433  38.191  1.00  0.00    -0.237 OA
ATOM    107  O   UNL A   1      44.847  23.767  36.563  1.00  0.00    -0.744 OA
ENDBRANCH 100 104
ENDBRANCH  74  97
ENDBRANCH  48  49
ENDBRANCH  40  43
ENDBRANCH  38  39
ENDBRANCH  37  38
ENDBRANCH  36  37
ENDBRANCH   1  36
TORSDOF 22
ENDMDL
MODEL 2
REMARK VINA RESULT:     -12.1      1.488      2.244
REMARK SMILES Cc1ccc(F)cc1S(=O)(=O)Nc1cc(C(=O)NCCCCCCNC(=O)c2ccc(-c3c4nc(c(-c5cc(S(=O)(=O)[O-])ccc5F)c5ccc([nH]5)c(-c5cc(S(=O)(=O)[O-])ccc5F)c5nc(c(-c6cc(S(=O)(=O)[O-])ccc6F)c6ccc3[nH]6)C=C5)C=C4)cc2)ccc1N(C)Cc1ccccc1
REMARK SMILES IDX 21 1 20 2 19 3 18 4 16 5 17 6 15 8 13 9 14 10 93 11 92 12
REMARK SMILES IDX 91 13 12 14 9 16 10 17 11 18 8 19 1 20 2 21 3 22 4 23 7 24
REMARK SMILES IDX 5 25 6 26 94 27 95 28 96 29 97 30 98 31 102 32 99 33 101 34
REMARK SMILES IDX 100 35 22 36 23 37 24 38 25 39 26 40 27 42 28 43 29 44 90 45
REMARK SMILES IDX 30 46 89 47 31 48 32 49 33 50 83 51 34 52 88 53 82 54 84 55
REMARK SMILES IDX 35 56 87 57 81 58 80 59 36 61 68 62 48 63 67 64 49 65 52 66
REMARK SMILES IDX 66 67 85 68 50 69 51 70 65 72 86 73 53 74 37 75 38 76 46 77
REMARK SMILES IDX 39 78 45 79 47 80 44 81 40 82 41 83 42 84 43 85 69 86 70 87
REMARK SMILES IDX 78 88 71 89 77 90 79 91 76 92 72 93 73 94 74 95 75 96 54 97
REMARK SMILES IDX 55 98 63 99 56 100 62 101 64 102 61 103 57 104 58 105 59 106
REMARK SMILES IDX 60 107
REMARK H PARENT 18 7 12 15 25 41 84 60 52 71
REMARK Flexibility Score: inf
ROOT
ATOM      1  C   UNL A   1      30.966  29.654  24.410  1.00  0.00     0.002 C 
ENDROOT
BRANCH   1   2
ATOM      2  C   UNL A   1      29.962  28.946  23.480  1.00  0.00     0.021 C 
BRANCH   2   3
ATOM      3  C   UNL A   1      30.343  27.515  23.092  1.00  0.00     0.116 C 
BRANCH   3   4
ATOM      4  N   UNL A   1      31.433  27.540  22.142  1.00  0.00    -0.352 N 
ATOM      5  C   UNL A   1      32.442  26.678  21.797  1.00  0.00     0.251 C 
ATOM      6  O   UNL A   1      33.344  27.180  21.118  1.00  0.00    -0.269 OA
ATOM      7  H   UNL A   1      31.457  28.373  21.617  1.00  0.00     0.163 HD
BRANCH   5   8
ATOM      8  C   UNL A   1      32.492  25.193  22.057  1.00  0.00     0.042 A 
ATOM      9  C   UNL A   1      32.040  23.541  23.823  1.00  0.00     0.073 A 
ATOM     10  C   UNL A   1      31.790  24.788  23.196  1.00  0.00     0.042 A 
ATOM     11  C   UNL A   1      32.734  22.488  23.215  1.00  0.00     0.061 A 
ATOM     12  C   UNL A   1      33.334  22.885  21.985  1.00  0.00     0.029 A 
ATOM     13  C   UNL A   1      33.259  24.213  21.441  1.00  0.00     0.016 A 
BRANCH   9  14
ATOM     14  N   UNL A   1      32.036  23.571  25.252  1.00  0.00    -0.277 N 
ATOM     15  H   UNL A   1      31.335  23.160  25.809  1.00  0.00     0.180 HD
BRANCH  14  16
ATOM     16  S   UNL A   1      33.410  24.414  25.890  1.00  0.00     0.262 S 
ATOM     17  O   UNL A   1      34.414  24.438  24.855  1.00  0.00    -0.201 OA
ATOM     18  O   UNL A   1      33.734  23.725  27.129  1.00  0.00    -0.201 OA
BRANCH  16  19
ATOM     19  C   UNL A   1      32.982  26.136  26.279  1.00  0.00     0.093 A 
ATOM     20  C   UNL A   1      30.474  25.775  26.416  1.00  0.00     0.046 C 
ATOM     21  C   UNL A   1      31.711  26.576  26.647  1.00  0.00    -0.030 A 
ATOM     22  C   UNL A   1      31.570  27.853  27.254  1.00  0.00     0.008 A 
ATOM     23  C   UNL A   1      32.646  28.726  27.406  1.00  0.00     0.039 A 
ATOM     24  C   UNL A   1      34.002  27.077  26.352  1.00  0.00     0.061 A 
ATOM     25  C   UNL A   1      33.859  28.344  26.896  1.00  0.00     0.124 A 
ATOM     26  F   UNL A   1      34.904  29.184  26.911  1.00  0.00    -0.207 F 
ENDBRANCH  16  19
ENDBRANCH  14  16
ENDBRANCH   9  14
BRANCH  11  27
ATOM     27  N   UNL A   1      32.953  21.232  23.850  1.00  0.00    -0.369 N 
ATOM     28  C   UNL A   1      34.266  21.085  24.496  1.00  0.00     0.144 C 
BRANCH  27  29
ATOM     29  C   UNL A   1      32.287  19.894  23.495  1.00  0.00     0.151 C 
BRANCH  29  30
ATOM     30  C   UNL A   1      32.704  18.494  24.054  1.00  0.00    -0.029 A 
ATOM     31  C   UNL A   1      32.480  17.957  25.339  1.00  0.00     0.005 A 
ATOM     32  C   UNL A   1      33.535  17.697  23.239  1.00  0.00     0.005 A 
ATOM     33  C   UNL A   1      32.737  16.602  25.646  1.00  0.00     0.000 A 
ATOM     34  C   UNL A   1      33.907  16.384  23.586  1.00  0.00     0.000 A 
ATOM     35  C   UNL A   1      33.434  15.805  24.754  1.00  0.00     0.000 A 
ENDBRANCH  29  30
ENDBRANCH  27  29
ENDBRANCH  11  27
ENDBRANCH   5   8
ENDBRANCH   3   4
ENDBRANCH   2   3
ENDBRANCH   1   2
BRANCH   1  36
ATOM     36  C   UNL A   1      30.661  31.122  24.735  1.00  0.00     0.002 C 
BRANCH  36  37
ATOM     37  C   UNL A   1      30.869  31.528  26.197  1.00  0.00     0.021 C 
BRANCH  37  38
ATOM     38  C   UNL A   1      32.278  32.005  26.534  1.00  0.00     0.116 C 
BRANCH  38  39
ATOM     39  N   UNL A   1      32.293  33.393  26.962  1.00  0.00    -0.352 N 
ATOM     40  C   UNL A   1      33.023  33.995  27.954  1.00  0.00     0.251 C 
ATOM     41  H   UNL A   1      31.688  33.990  26.465  1.00  0.00     0.163 HD
ATOM     42  O   UNL A   1      32.715  35.124  28.327  1.00  0.00    -0.269 OA
BRANCH  40  43
ATOM     43  C   UNL A   1      34.162  33.286  28.582  1.00  0.00     0.039 A 
ATOM     44  C   UNL A   1      35.363  33.976  28.758  1.00  0.00     0.014 A 
ATOM     45  C   UNL A   1      34.063  31.946  28.969  1.00  0.00     0.014 A 
ATOM     46  C   UNL A   1      36.446  33.336  29.362  1.00  0.00     0.010 A 
ATOM     47  C   UNL A   1      35.117  31.335  29.646  1.00  0.00     0.010 A 
ATOM     48  C   UNL A   1      36.324  32.020  29.844  1.00  0.00    -0.014 A 
BRANCH  48  49
ATOM     49  C   UNL A   1      37.453  31.380  30.567  1.00  0.00     0.031 A 
ATOM     50  C   UNL A   1      38.336  30.372  29.882  1.00  0.00     0.074 A 
ATOM     51  C   UNL A   1      37.673  31.705  31.856  1.00  0.00     0.049 A 
ATOM     52  N   UNL A   1      39.393  29.752  30.342  1.00  0.00    -0.248 NA
ATOM     53  C   UNL A   1      37.966  29.991  28.511  1.00  0.00     0.031 C 
ATOM     54  C   UNL A   1      36.848  32.629  32.642  1.00  0.00     0.029 A 
ATOM     55  N   UNL A   1      38.656  31.316  32.729  1.00  0.00    -0.354 N 
ATOM     56  C   UNL A   1      39.817  28.912  29.318  1.00  0.00     0.074 A 
ATOM     57  C   UNL A   1      38.856  29.047  28.244  1.00  0.00     0.031 C 
ATOM     58  C   UNL A   1      37.394  32.778  33.859  1.00  0.00     0.029 A 
ATOM     59  C   UNL A   1      38.575  31.927  33.959  1.00  0.00     0.049 A 
ATOM     60  H   UNL A   1      39.354  30.662  32.497  1.00  0.00     0.167 HD
ATOM     61  C   UNL A   1      40.922  28.124  29.267  1.00  0.00     0.034 A 
ATOM     62  C   UNL A   1      39.364  31.819  35.045  1.00  0.00     0.034 A 
ATOM     63  C   UNL A   1      41.866  27.998  30.354  1.00  0.00     0.049 A 
ATOM     64  C   UNL A   1      40.569  30.918  34.975  1.00  0.00     0.074 A 
ATOM     65  C   UNL A   1      43.040  27.267  30.397  1.00  0.00     0.029 A 
ATOM     66  N   UNL A   1      41.735  28.606  31.599  1.00  0.00    -0.354 N 
ATOM     67  N   UNL A   1      40.995  30.182  33.974  1.00  0.00    -0.248 NA
ATOM     68  C   UNL A   1      41.407  30.849  36.177  1.00  0.00     0.031 C 
ATOM     69  C   UNL A   1      43.574  27.365  31.688  1.00  0.00     0.029 A 
ATOM     70  C   UNL A   1      42.784  28.232  32.427  1.00  0.00     0.049 A 
ATOM     71  H   UNL A   1      41.004  29.213  31.854  1.00  0.00     0.167 HD
ATOM     72  C   UNL A   1      42.168  29.577  34.422  1.00  0.00     0.074 A 
ATOM     73  C   UNL A   1      42.394  30.067  35.767  1.00  0.00     0.031 C 
ATOM     74  C   UNL A   1      42.982  28.698  33.782  1.00  0.00     0.034 A 
BRANCH  61  75
ATOM     75  C   UNL A   1      41.144  27.320  28.004  1.00  0.00     0.023 A 
ATOM     76  C   UNL A   1      40.839  25.948  27.937  1.00  0.00     0.031 A 
ATOM     77  C   UNL A   1      41.703  27.921  26.861  1.00  0.00     0.131 A 
ATOM     78  C   UNL A   1      41.175  25.208  26.793  1.00  0.00     0.055 A 
ATOM     79  C   UNL A   1      41.948  27.198  25.692  1.00  0.00     0.041 A 
ATOM     80  F   UNL A   1      42.039  29.220  26.867  1.00  0.00    -0.206 F 
ATOM     81  C   UNL A   1      41.701  25.828  25.659  1.00  0.00     0.022 A 
BRANCH  78  82
ATOM     82  S   UNL A   1      41.073  23.398  26.874  1.00  0.00     0.124 S 
ATOM     83  O   UNL A   1      39.646  23.174  26.658  1.00  0.00    -0.237 OA
ATOM     84  O   UNL A   1      41.957  22.983  25.792  1.00  0.00    -0.237 OA
ATOM     85  O   UNL A   1      41.547  23.088  28.222  1.00  0.00    -0.744 OA
ENDBRANCH  78  82
ENDBRANCH  61  75
BRANCH  62  86
ATOM     86  C   UNL A   1      39.049  32.584  36.286  1.00  0.00     0.023 A 
ATOM     87  C   UNL A   1      38.263  32.023  37.306  1.00  0.00     0.031 A 
ATOM     88  C   UNL A   1      39.507  33.903  36.457  1.00  0.00     0.131 A 
ATOM     89  C   UNL A   1      37.921  32.792  38.429  1.00  0.00     0.055 A 
ATOM     90  C   UNL A   1      39.214  34.643  37.603  1.00  0.00     0.041 A 
ATOM     91  F   UNL A   1      40.267  34.486  35.515  1.00  0.00    -0.206 F 
ATOM     92  C   UNL A   1      38.405  34.093  38.592  1.00  0.00     0.022 A 
BRANCH  89  93
ATOM     93  S   UNL A   1      36.764  32.097  39.640  1.00  0.00     0.124 S 
ATOM     94  O   UNL A   1      37.151  32.800  40.858  1.00  0.00    -0.237 OA
ATOM     95  O   UNL A   1      35.472  32.463  39.069  1.00  0.00    -0.237 OA
ATOM     96  O   UNL A   1      37.070  30.667  39.620  1.00  0.00    -0.744 OA
ENDBRANCH  89  93
ENDBRANCH  62  86
BRANCH  74  97
ATOM     97  C   UNL A   1      44.203  28.230  34.541  1.00  0.00     0.023 A 
ATOM     98  C   UNL A   1      44.118  27.230  35.528  1.00  0.00     0.031 A 
ATOM     99  C   UNL A   1      45.455  28.830  34.320  1.00  0.00     0.131 A 
ATOM    100  C   UNL A   1      45.238  26.930  36.318  1.00  0.00     0.055 A 
ATOM    101  C   UNL A   1      46.587  28.466  35.052  1.00  0.00     0.041 A 
ATOM    102  F   UNL A   1      45.600  29.793  33.395  1.00  0.00    -0.206 F 
ATOM    103  C   UNL A   1      46.477  27.527  36.074  1.00  0.00     0.022 A 
BRANCH 100 104
ATOM    104  S   UNL A   1      45.011  25.863  37.768  1.00  0.00     0.124 S 
ATOM    105  O   UNL A   1      43.973  26.575  38.506  1.00  0.00    -0.237 OA
ATOM    106  O   UNL A   1      44.609  24.598  37.164  1.00  0.00    -0.237 OA
ATOM    107  O   UNL A   1      46.329  25.859  38.400  1.00  0.00    -0.744 OA
ENDBRANCH 100 104
ENDBRANCH  74  97
ENDBRANCH  48  49
ENDBRANCH  40  43
ENDBRANCH  38  39
ENDBRANCH  37  38
ENDBRANCH  36  37
ENDBRANCH   1  36
TORSDOF 22
ENDMDL
MODEL 3
REMARK VINA RESULT:     -11.8      2.237      7.341
REMARK SMILES Cc1ccc(F)cc1S(=O)(=O)Nc1cc(C(=O)NCCCCCCNC(=O)c2ccc(-c3c4nc(c(-c5cc(S(=O)(=O)[O-])ccc5F)c5ccc([nH]5)c(-c5cc(S(=O)(=O)[O-])ccc5F)c5nc(c(-c6cc(S(=O)(=O)[O-])ccc6F)c6ccc3[nH]6)C=C5)C=C4)cc2)ccc1N(C)Cc1ccccc1
REMARK SMILES IDX 21 1 20 2 19 3 18 4 16 5 17 6 15 8 13 9 14 10 93 11 92 12
REMARK SMILES IDX 91 13 12 14 9 16 10 17 11 18 8 19 1 20 2 21 3 22 4 23 7 24
REMARK SMILES IDX 5 25 6 26 94 27 95 28 96 29 97 30 98 31 102 32 99 33 101 34
REMARK SMILES IDX 100 35 22 36 23 37 24 38 25 39 26 40 27 42 28 43 29 44 90 45
REMARK SMILES IDX 30 46 89 47 31 48 32 49 33 50 83 51 34 52 88 53 82 54 84 55
REMARK SMILES IDX 35 56 87 57 81 58 80 59 36 61 68 62 48 63 67 64 49 65 52 66
REMARK SMILES IDX 66 67 85 68 50 69 51 70 65 72 86 73 53 74 37 75 38 76 46 77
REMARK SMILES IDX 39 78 45 79 47 80 44 81 40 82 41 83 42 84 43 85 69 86 70 87
REMARK SMILES IDX 78 88 71 89 77 90 79 91 76 92 72 93 73 94 74 95 75 96 54 97
REMARK SMILES IDX 55 98 63 99 56 100 62 101 64 102 61 103 57 104 58 105 59 106
REMARK SMILES IDX 60 107
REMARK H PARENT 18 7 12 15 25 41 84 60 52 71
REMARK Flexibility Score: inf
ROOT
ATOM      1  C   UNL A   1      33.527  29.940  26.392  1.00  0.00     0.002 C 
ENDROOT
BRANCH   1   2
ATOM      2  C   UNL A   1      32.180  29.869  25.647  1.00  0.00     0.021 C 
BRANCH   2   3
ATOM      3  C   UNL A   1      32.178  28.979  24.403  1.00  0.00     0.116 C 
BRANCH   3   4
ATOM      4  N   UNL A   1      30.826  28.570  24.094  1.00  0.00    -0.352 N 
ATOM      5  C   UNL A   1      30.258  27.515  23.429  1.00  0.00     0.251 C 
ATOM      6  O   UNL A   1      29.064  27.663  23.144  1.00  0.00    -0.269 OA
ATOM      7  H   UNL A   1      30.153  29.197  24.446  1.00  0.00     0.163 HD
BRANCH   5   8
ATOM      8  C   UNL A   1      30.898  26.183  23.129  1.00  0.00     0.042 A 
ATOM      9  C   UNL A   1      30.812  23.820  23.808  1.00  0.00     0.073 A 
ATOM     10  C   UNL A   1      30.195  25.084  23.633  1.00  0.00     0.042 A 
ATOM     11  C   UNL A   1      32.027  23.456  23.216  1.00  0.00     0.061 A 
ATOM     12  C   UNL A   1      32.668  24.564  22.592  1.00  0.00     0.029 A 
ATOM     13  C   UNL A   1      32.146  25.903  22.588  1.00  0.00     0.016 A 
BRANCH   9  14
ATOM     14  N   UNL A   1      30.445  23.129  25.005  1.00  0.00    -0.277 N 
ATOM     15  H   UNL A   1      29.968  22.268  25.019  1.00  0.00     0.180 HD
BRANCH  14  16
ATOM     16  S   UNL A   1      30.940  23.986  26.429  1.00  0.00     0.262 S 
ATOM     17  O   UNL A   1      30.704  23.115  27.554  1.00  0.00    -0.201 OA
ATOM     18  O   UNL A   1      30.211  25.244  26.385  1.00  0.00    -0.201 OA
BRANCH  16  19
ATOM     19  C   UNL A   1      32.720  24.344  26.375  1.00  0.00     0.093 A 
ATOM     20  C   UNL A   1      33.484  22.083  27.239  1.00  0.00     0.046 C 
ATOM     21  C   UNL A   1      33.727  23.404  26.588  1.00  0.00    -0.030 A 
ATOM     22  C   UNL A   1      35.055  23.711  26.187  1.00  0.00     0.008 A 
ATOM     23  C   UNL A   1      35.407  24.960  25.679  1.00  0.00     0.039 A 
ATOM     24  C   UNL A   1      33.135  25.606  25.967  1.00  0.00     0.061 A 
ATOM     25  C   UNL A   1      34.439  25.927  25.624  1.00  0.00     0.124 A 
ATOM     26  F   UNL A   1      34.741  27.178  25.249  1.00  0.00    -0.207 F 
ENDBRANCH  16  19
ENDBRANCH  14  16
ENDBRANCH   9  14
BRANCH  11  27
ATOM     27  N   UNL A   1      32.619  22.171  23.383  1.00  0.00    -0.369 N 
ATOM     28  C   UNL A   1      34.087  22.148  23.286  1.00  0.00     0.144 C 
BRANCH  27  29
ATOM     29  C   UNL A   1      31.961  20.812  23.100  1.00  0.00     0.151 C 
BRANCH  29  30
ATOM     30  C   UNL A   1      32.388  19.446  23.729  1.00  0.00    -0.029 A 
ATOM     31  C   UNL A   1      32.562  19.120  25.091  1.00  0.00     0.005 A 
ATOM     32  C   UNL A   1      32.796  18.427  22.843  1.00  0.00     0.005 A 
ATOM     33  C   UNL A   1      32.759  17.792  25.530  1.00  0.00     0.000 A 
ATOM     34  C   UNL A   1      33.118  17.126  23.274  1.00  0.00     0.000 A 
ATOM     35  C   UNL A   1      33.015  16.785  24.615  1.00  0.00     0.000 A 
ENDBRANCH  29  30
ENDBRANCH  27  29
ENDBRANCH  11  27
ENDBRANCH   5   8
ENDBRANCH   3   4
ENDBRANCH   2   3
ENDBRANCH   1   2
BRANCH   1  36
ATOM     36  C   UNL A   1      33.601  30.936  27.555  1.00  0.00     0.002 C 
BRANCH  36  37
ATOM     37  C   UNL A   1      33.421  32.408  27.172  1.00  0.00     0.021 C 
BRANCH  37  38
ATOM     38  C   UNL A   1      32.267  33.116  27.875  1.00  0.00     0.116 C 
BRANCH  38  39
ATOM     39  N   UNL A   1      32.512  34.539  28.022  1.00  0.00    -0.352 N 
ATOM     40  C   UNL A   1      33.462  35.191  28.767  1.00  0.00     0.251 C 
ATOM     41  H   UNL A   1      31.907  35.124  27.511  1.00  0.00     0.163 HD
ATOM     42  O   UNL A   1      33.353  36.399  28.957  1.00  0.00    -0.269 OA
BRANCH  40  43
ATOM     43  C   UNL A   1      34.599  34.444  29.352  1.00  0.00     0.039 A 
ATOM     44  C   UNL A   1      35.844  34.522  28.725  1.00  0.00     0.014 A 
ATOM     45  C   UNL A   1      34.440  33.647  30.490  1.00  0.00     0.014 A 
ATOM     46  C   UNL A   1      36.935  33.841  29.265  1.00  0.00     0.010 A 
ATOM     47  C   UNL A   1      35.547  33.035  31.075  1.00  0.00     0.010 A 
ATOM     48  C   UNL A   1      36.806  33.118  30.465  1.00  0.00    -0.014 A 
BRANCH  48  49
ATOM     49  C   UNL A   1      37.995  32.472  31.080  1.00  0.00     0.031 A 
ATOM     50  C   UNL A   1      38.585  32.999  32.359  1.00  0.00     0.074 A 
ATOM     51  C   UNL A   1      38.549  31.407  30.468  1.00  0.00     0.049 A 
ATOM     52  N   UNL A   1      39.586  32.532  33.062  1.00  0.00    -0.248 NA
ATOM     53  C   UNL A   1      37.990  34.226  32.907  1.00  0.00     0.031 C 
ATOM     54  C   UNL A   1      38.097  30.840  29.194  1.00  0.00     0.029 A 
ATOM     55  N   UNL A   1      39.596  30.601  30.835  1.00  0.00    -0.354 N 
ATOM     56  C   UNL A   1      39.739  33.404  34.134  1.00  0.00     0.074 A 
ATOM     57  C   UNL A   1      38.777  34.469  33.944  1.00  0.00     0.031 C 
ATOM     58  C   UNL A   1      38.824  29.747  28.916  1.00  0.00     0.029 A 
ATOM     59  C   UNL A   1      39.823  29.561  29.963  1.00  0.00     0.049 A 
ATOM     60  H   UNL A   1      40.133  30.751  31.646  1.00  0.00     0.167 HD
ATOM     61  C   UNL A   1      40.583  33.309  35.193  1.00  0.00     0.034 A 
ATOM     62  C   UNL A   1      40.731  28.567  30.003  1.00  0.00     0.034 A 
ATOM     63  C   UNL A   1      41.542  32.242  35.360  1.00  0.00     0.049 A 
ATOM     64  C   UNL A   1      41.675  28.496  31.174  1.00  0.00     0.074 A 
ATOM     65  C   UNL A   1      42.414  32.019  36.412  1.00  0.00     0.029 A 
ATOM     66  N   UNL A   1      41.769  31.222  34.441  1.00  0.00    -0.354 N 
ATOM     67  N   UNL A   1      41.761  29.291  32.216  1.00  0.00    -0.248 NA
ATOM     68  C   UNL A   1      42.631  27.385  31.179  1.00  0.00     0.031 C 
ATOM     69  C   UNL A   1      43.221  30.920  36.092  1.00  0.00     0.029 A 
ATOM     70  C   UNL A   1      42.793  30.397  34.883  1.00  0.00     0.049 A 
ATOM     71  H   UNL A   1      41.273  31.103  33.598  1.00  0.00     0.167 HD
ATOM     72  C   UNL A   1      42.771  28.759  33.015  1.00  0.00     0.074 A 
ATOM     73  C   UNL A   1      43.233  27.559  32.346  1.00  0.00     0.031 C 
ATOM     74  C   UNL A   1      43.272  29.221  34.190  1.00  0.00     0.034 A 
BRANCH  61  75
ATOM     75  C   UNL A   1      40.520  34.408  36.232  1.00  0.00     0.023 A 
ATOM     76  C   UNL A   1      41.572  35.328  36.401  1.00  0.00     0.031 A 
ATOM     77  C   UNL A   1      39.413  34.519  37.092  1.00  0.00     0.131 A 
ATOM     78  C   UNL A   1      41.534  36.254  37.456  1.00  0.00     0.055 A 
ATOM     79  C   UNL A   1      39.340  35.503  38.080  1.00  0.00     0.041 A 
ATOM     80  F   UNL A   1      38.387  33.658  37.000  1.00  0.00    -0.206 F 
ATOM     81  C   UNL A   1      40.413  36.367  38.279  1.00  0.00     0.022 A 
BRANCH  78  82
ATOM     82  S   UNL A   1      43.041  37.187  37.840  1.00  0.00     0.124 S 
ATOM     83  O   UNL A   1      43.371  37.764  36.539  1.00  0.00    -0.237 OA
ATOM     84  O   UNL A   1      42.582  38.123  38.859  1.00  0.00    -0.237 OA
ATOM     85  O   UNL A   1      43.970  36.160  38.309  1.00  0.00    -0.744 OA
ENDBRANCH  78  82
ENDBRANCH  61  75
BRANCH  62  86
ATOM     86  C   UNL A   1      40.789  27.555  28.909  1.00  0.00     0.023 A 
ATOM     87  C   UNL A   1      41.715  27.671  27.859  1.00  0.00     0.031 A 
ATOM     88  C   UNL A   1      39.896  26.468  28.881  1.00  0.00     0.131 A 
ATOM     89  C   UNL A   1      41.699  26.744  26.806  1.00  0.00     0.055 A 
ATOM     90  C   UNL A   1      39.922  25.517  27.861  1.00  0.00     0.041 A 
ATOM     91  F   UNL A   1      38.992  26.306  29.862  1.00  0.00    -0.206 F 
ATOM     92  C   UNL A   1      40.819  25.658  26.807  1.00  0.00     0.022 A 
BRANCH  89  93
ATOM     93  S   UNL A   1      42.790  27.024  25.385  1.00  0.00     0.124 S 
ATOM     94  O   UNL A   1      42.607  25.794  24.622  1.00  0.00    -0.237 OA
ATOM     95  O   UNL A   1      42.221  28.233  24.799  1.00  0.00    -0.237 OA
ATOM     96  O   UNL A   1      44.108  27.190  25.996  1.00  0.00    -0.744 OA
ENDBRANCH  89  93
ENDBRANCH  62  86
BRANCH  74  97
ATOM     97  C   UNL A   1      44.370  28.398  34.828  1.00  0.00     0.023 A 
ATOM     98  C   UNL A   1      44.082  27.382  35.758  1.00  0.00     0.031 A 
ATOM     99  C   UNL A   1      45.720  28.671  34.550  1.00  0.00     0.131 A 
ATOM    100  C   UNL A   1      45.128  26.745  36.444  1.00  0.00     0.055 A 
ATOM    101  C   UNL A   1      46.757  27.974  35.173  1.00  0.00     0.041 A 
ATOM    102  F   UNL A   1      46.060  29.632  33.675  1.00  0.00    -0.206 F 
ATOM    103  C   UNL A   1      46.463  27.020  36.144  1.00  0.00     0.022 A 
BRANCH 100 104
ATOM    104  S   UNL A   1      44.712  25.666  37.842  1.00  0.00     0.124 S 
ATOM    105  O   UNL A   1      46.032  25.246  38.301  1.00  0.00    -0.237 OA
ATOM    106  O   UNL A   1      43.987  26.569  38.729  1.00  0.00    -0.237 OA
ATOM    107  O   UNL A   1      43.903  24.611  37.232  1.00  0.00    -0.744 OA
ENDBRANCH 100 104
ENDBRANCH  74  97
ENDBRANCH  48  49
ENDBRANCH  40  43
ENDBRANCH  38  39
ENDBRANCH  37  38
ENDBRANCH  36  37
ENDBRANCH   1  36
TORSDOF 22
ENDMDL
