MODEL 1
REMARK VINA RESULT:     -10.3      0.000      0.000
REMARK SMILES CCC(CC)(CC)NC(=O)NC[C@@H]1CC[C@H](C(=O)NCCCCCCNC(=O)c2ccc(-c3c4nc(c(-c5cc(S(=O)(=O)[O-])ccc5F)c5ccc([nH]5)c(-c5cc(S(=O)(=O)[O-])ccc5F)c5nc(c(-c6cc(S(=O)(=O)[O-])ccc6F)c6ccc3[nH]6)C=C5)C=C4)cc2)O1
REMARK SMILES IDX 22 1 21 2 20 3 19 4 17 5 18 6 16 8 13 9 14 10 92 11 15 12
REMARK SMILES IDX 12 13 11 14 8 15 9 16 10 18 3 20 2 21 1 22 4 23 5 24 6 25
REMARK SMILES IDX 7 26 23 27 24 28 25 29 26 30 27 31 28 33 29 34 30 35 91 36
REMARK SMILES IDX 31 37 90 38 32 39 33 40 34 41 84 42 35 43 89 44 83 45 85 46
REMARK SMILES IDX 36 47 88 48 82 49 81 50 37 52 69 53 49 54 68 55 50 56 53 57
REMARK SMILES IDX 67 58 86 59 51 60 52 61 66 63 87 64 54 65 38 66 39 67 47 68
REMARK SMILES IDX 40 69 46 70 48 71 45 72 41 73 42 74 43 75 44 76 70 77 71 78
REMARK SMILES IDX 79 79 72 80 78 81 80 82 77 83 73 84 74 85 75 86 76 87 55 88
REMARK SMILES IDX 56 89 64 90 57 91 63 92 65 93 62 94 58 95 59 96 60 97 61 98
REMARK H PARENT 19 7 8 17 11 19 26 32 85 51 53 62
REMARK Flexibility Score: inf
ROOT
ATOM      1  C   UNL A   1      33.547  25.254  26.348  1.00  0.00     0.002 C 
ENDROOT
BRANCH   1   2
ATOM      2  C   UNL A   1      34.543  24.149  26.016  1.00  0.00     0.021 C 
BRANCH   2   3
ATOM      3  C   UNL A   1      34.128  22.806  26.602  1.00  0.00     0.116 C 
BRANCH   3   4
ATOM      4  N   UNL A   1      34.928  21.706  26.122  1.00  0.00    -0.354 N 
ATOM      5  C   UNL A   1      34.690  20.882  25.059  1.00  0.00     0.249 C 
ATOM      6  O   UNL A   1      35.556  20.053  24.764  1.00  0.00    -0.272 OA
ATOM      7  H   UNL A   1      35.754  21.526  26.627  1.00  0.00     0.163 HD
BRANCH   5   8
ATOM      8  C   UNL A   1      33.358  20.953  24.283  1.00  0.00     0.207 C 
ATOM      9  C   UNL A   1      31.970  22.691  23.534  1.00  0.00     0.138 C 
ATOM     10  C   UNL A   1      31.396  22.220  24.869  1.00  0.00     0.037 C 
ATOM     11  O   UNL A   1      33.269  22.081  23.407  1.00  0.00    -0.363 OA
ATOM     12  C   UNL A   1      32.140  20.948  25.194  1.00  0.00     0.045 C 
BRANCH   9  13
ATOM     13  C   UNL A   1      32.122  24.229  23.415  1.00  0.00     0.149 C 
BRANCH  13  14
ATOM     14  N   UNL A   1      32.222  24.701  22.046  1.00  0.00    -0.336 N 
ATOM     15  N   UNL A   1      31.336  26.906  21.807  1.00  0.00    -0.333 N 
ATOM     16  C   UNL A   1      32.050  25.855  21.408  1.00  0.00     0.315 C 
ATOM     17  H   UNL A   1      31.443  27.631  21.151  1.00  0.00     0.165 HD
ATOM     18  O   UNL A   1      32.587  25.949  20.299  1.00  0.00    -0.249 OA
ATOM     19  H   UNL A   1      32.487  23.979  21.431  1.00  0.00     0.165 HD
BRANCH  15  20
ATOM     20  C   UNL A   1      30.433  27.375  22.895  1.00  0.00     0.041 C 
BRANCH  20  21
ATOM     21  C   UNL A   1      29.452  28.486  22.462  1.00  0.00     0.025 C 
ATOM     22  C   UNL A   1      28.037  28.333  23.023  1.00  0.00     0.006 C 
ENDBRANCH  20  21
BRANCH  20  23
ATOM     23  C   UNL A   1      31.371  28.000  24.003  1.00  0.00     0.025 C 
ATOM     24  C   UNL A   1      31.054  29.443  24.402  1.00  0.00     0.006 C 
ENDBRANCH  20  23
BRANCH  20  25
ATOM     25  C   UNL A   1      29.709  26.160  23.566  1.00  0.00     0.025 C 
ATOM     26  C   UNL A   1      29.731  26.054  25.087  1.00  0.00     0.006 C 
ENDBRANCH  20  25
ENDBRANCH  15  20
ENDBRANCH  13  14
ENDBRANCH   9  13
ENDBRANCH   5   8
ENDBRANCH   3   4
ENDBRANCH   2   3
ENDBRANCH   1   2
BRANCH   1  27
ATOM     27  C   UNL A   1      33.811  26.581  25.621  1.00  0.00     0.002 C 
BRANCH  27  28
ATOM     28  C   UNL A   1      33.755  27.835  26.497  1.00  0.00     0.021 C 
BRANCH  28  29
ATOM     29  C   UNL A   1      34.400  29.071  25.877  1.00  0.00     0.116 C 
BRANCH  29  30
ATOM     30  N   UNL A   1      34.046  30.282  26.603  1.00  0.00    -0.352 N 
ATOM     31  C   UNL A   1      34.568  30.795  27.756  1.00  0.00     0.251 C 
ATOM     32  H   UNL A   1      33.320  30.811  26.203  1.00  0.00     0.163 HD
ATOM     33  O   UNL A   1      33.958  31.691  28.349  1.00  0.00    -0.269 OA
BRANCH  31  34
ATOM     34  C   UNL A   1      35.847  30.289  28.288  1.00  0.00     0.039 A 
ATOM     35  C   UNL A   1      37.022  30.530  27.572  1.00  0.00     0.014 A 
ATOM     36  C   UNL A   1      35.883  29.530  29.462  1.00  0.00     0.014 A 
ATOM     37  C   UNL A   1      38.235  30.030  28.046  1.00  0.00     0.010 A 
ATOM     38  C   UNL A   1      37.101  29.103  29.976  1.00  0.00     0.010 A 
ATOM     39  C   UNL A   1      38.286  29.324  29.258  1.00  0.00    -0.014 A 
BRANCH  39  40
ATOM     40  C   UNL A   1      39.560  28.749  29.757  1.00  0.00     0.031 A 
ATOM     41  C   UNL A   1      40.204  29.329  30.988  1.00  0.00     0.074 A 
ATOM     42  C   UNL A   1      40.150  27.741  29.085  1.00  0.00     0.049 A 
ATOM     43  N   UNL A   1      41.346  29.023  31.548  1.00  0.00    -0.248 NA
ATOM     44  C   UNL A   1      39.482  30.421  31.658  1.00  0.00     0.031 C 
ATOM     45  C   UNL A   1      39.629  27.121  27.865  1.00  0.00     0.029 A 
ATOM     46  N   UNL A   1      41.315  27.064  29.331  1.00  0.00    -0.354 N 
ATOM     47  C   UNL A   1      41.484  29.893  32.625  1.00  0.00     0.074 A 
ATOM     48  C   UNL A   1      40.345  30.785  32.592  1.00  0.00     0.031 C 
ATOM     49  C   UNL A   1      40.457  26.134  27.487  1.00  0.00     0.029 A 
ATOM     50  C   UNL A   1      41.589  26.081  28.407  1.00  0.00     0.049 A 
ATOM     51  H   UNL A   1      41.902  27.260  30.097  1.00  0.00     0.167 HD
ATOM     52  C   UNL A   1      42.456  29.926  33.571  1.00  0.00     0.034 A 
ATOM     53  C   UNL A   1      42.638  25.241  28.312  1.00  0.00     0.034 A 
ATOM     54  C   UNL A   1      43.574  29.015  33.594  1.00  0.00     0.049 A 
ATOM     55  C   UNL A   1      43.719  25.310  29.362  1.00  0.00     0.074 A 
ATOM     56  C   UNL A   1      44.597  28.929  34.521  1.00  0.00     0.029 A 
ATOM     57  N   UNL A   1      43.817  28.031  32.644  1.00  0.00    -0.354 N 
ATOM     58  N   UNL A   1      43.818  26.116  30.394  1.00  0.00    -0.248 NA
ATOM     59  C   UNL A   1      44.821  24.348  29.241  1.00  0.00     0.031 C 
ATOM     60  C   UNL A   1      45.492  27.942  34.095  1.00  0.00     0.029 A 
ATOM     61  C   UNL A   1      44.985  27.351  32.949  1.00  0.00     0.049 A 
ATOM     62  H   UNL A   1      43.242  27.843  31.867  1.00  0.00     0.167 HD
ATOM     63  C   UNL A   1      44.972  25.725  31.071  1.00  0.00     0.074 A 
ATOM     64  C   UNL A   1      45.525  24.608  30.332  1.00  0.00     0.031 C 
ATOM     65  C   UNL A   1      45.522  26.237  32.201  1.00  0.00     0.034 A 
BRANCH  52  66
ATOM     66  C   UNL A   1      42.355  30.994  34.635  1.00  0.00     0.023 A 
ATOM     67  C   UNL A   1      42.913  32.273  34.453  1.00  0.00     0.031 A 
ATOM     68  C   UNL A   1      41.722  30.724  35.860  1.00  0.00     0.131 A 
ATOM     69  C   UNL A   1      42.902  33.200  35.507  1.00  0.00     0.055 A 
ATOM     70  C   UNL A   1      41.633  31.684  36.872  1.00  0.00     0.041 A 
ATOM     71  F   UNL A   1      41.190  29.516  36.104  1.00  0.00    -0.206 F 
ATOM     72  C   UNL A   1      42.240  32.924  36.705  1.00  0.00     0.022 A 
BRANCH  69  73
ATOM     73  S   UNL A   1      43.899  34.706  35.345  1.00  0.00     0.124 S 
ATOM     74  O   UNL A   1      43.211  35.614  36.260  1.00  0.00    -0.237 OA
ATOM     75  O   UNL A   1      45.221  34.256  35.764  1.00  0.00    -0.237 OA
ATOM     76  O   UNL A   1      43.776  35.048  33.930  1.00  0.00    -0.744 OA
ENDBRANCH  69  73
ENDBRANCH  52  66
BRANCH  53  77
ATOM     77  C   UNL A   1      42.725  24.261  27.190  1.00  0.00     0.023 A 
ATOM     78  C   UNL A   1      42.049  23.033  27.250  1.00  0.00     0.031 A 
ATOM     79  C   UNL A   1      43.526  24.517  26.062  1.00  0.00     0.131 A 
ATOM     80  C   UNL A   1      42.229  22.083  26.234  1.00  0.00     0.055 A 
ATOM     81  C   UNL A   1      43.655  23.592  25.024  1.00  0.00     0.041 A 
ATOM     82  F   UNL A   1      44.191  25.677  25.950  1.00  0.00    -0.206 F 
ATOM     83  C   UNL A   1      43.017  22.359  25.115  1.00  0.00     0.022 A 
BRANCH  80  84
ATOM     84  S   UNL A   1      41.501  20.435  26.448  1.00  0.00     0.124 S 
ATOM     85  O   UNL A   1      42.143  19.686  25.374  1.00  0.00    -0.237 OA
ATOM     86  O   UNL A   1      41.915  20.095  27.805  1.00  0.00    -0.237 OA
ATOM     87  O   UNL A   1      40.070  20.671  26.275  1.00  0.00    -0.744 OA
ENDBRANCH  80  84
ENDBRANCH  53  77
BRANCH  65  88
ATOM     88  C   UNL A   1      46.752  25.547  32.742  1.00  0.00     0.023 A 
ATOM     89  C   UNL A   1      46.673  24.565  33.744  1.00  0.00     0.031 A 
ATOM     90  C   UNL A   1      48.023  25.890  32.250  1.00  0.00     0.131 A 
ATOM     91  C   UNL A   1      47.849  24.005  34.264  1.00  0.00     0.055 A 
ATOM     92  C   UNL A   1      49.185  25.282  32.724  1.00  0.00     0.041 A 
ATOM     93  F   UNL A   1      48.157  26.824  31.294  1.00  0.00    -0.206 F 
ATOM     94  C   UNL A   1      49.104  24.342  33.748  1.00  0.00     0.022 A 
BRANCH  91  95
ATOM     95  S   UNL A   1      47.727  22.902  35.699  1.00  0.00     0.124 S 
ATOM     96  O   UNL A   1      49.129  22.715  36.059  1.00  0.00    -0.237 OA
ATOM     97  O   UNL A   1      46.931  23.692  36.632  1.00  0.00    -0.237 OA
ATOM     98  O   UNL A   1      47.060  21.716  35.165  1.00  0.00    -0.744 OA
ENDBRANCH  91  95
ENDBRANCH  65  88
ENDBRANCH  39  40
ENDBRANCH  31  34
ENDBRANCH  29  30
ENDBRANCH  28  29
ENDBRANCH  27  28
ENDBRANCH   1  27
TORSDOF 22
ENDMDL
MODEL 2
REMARK VINA RESULT:     -10.1      4.217      8.977
REMARK SMILES CCC(CC)(CC)NC(=O)NC[C@@H]1CC[C@H](C(=O)NCCCCCCNC(=O)c2ccc(-c3c4nc(c(-c5cc(S(=O)(=O)[O-])ccc5F)c5ccc([nH]5)c(-c5cc(S(=O)(=O)[O-])ccc5F)c5nc(c(-c6cc(S(=O)(=O)[O-])ccc6F)c6ccc3[nH]6)C=C5)C=C4)cc2)O1
REMARK SMILES IDX 22 1 21 2 20 3 19 4 17 5 18 6 16 8 13 9 14 10 92 11 15 12
REMARK SMILES IDX 12 13 11 14 8 15 9 16 10 18 3 20 2 21 1 22 4 23 5 24 6 25
REMARK SMILES IDX 7 26 23 27 24 28 25 29 26 30 27 31 28 33 29 34 30 35 91 36
REMARK SMILES IDX 31 37 90 38 32 39 33 40 34 41 84 42 35 43 89 44 83 45 85 46
REMARK SMILES IDX 36 47 88 48 82 49 81 50 37 52 69 53 49 54 68 55 50 56 53 57
REMARK SMILES IDX 67 58 86 59 51 60 52 61 66 63 87 64 54 65 38 66 39 67 47 68
REMARK SMILES IDX 40 69 46 70 48 71 45 72 41 73 42 74 43 75 44 76 70 77 71 78
REMARK SMILES IDX 79 79 72 80 78 81 80 82 77 83 73 84 74 85 75 86 76 87 55 88
REMARK SMILES IDX 56 89 64 90 57 91 63 92 65 93 62 94 58 95 59 96 60 97 61 98
REMARK H PARENT 19 7 8 17 11 19 26 32 85 51 53 62
REMARK Flexibility Score: inf
ROOT
ATOM      1  C   UNL A   1      35.495  23.443  25.913  1.00  0.00     0.002 C 
ENDROOT
BRANCH   1   2
ATOM      2  C   UNL A   1      34.925  22.858  27.200  1.00  0.00     0.021 C 
BRANCH   2   3
ATOM      3  C   UNL A   1      33.406  22.755  27.161  1.00  0.00     0.116 C 
BRANCH   3   4
ATOM      4  N   UNL A   1      32.935  21.601  26.435  1.00  0.00    -0.354 N 
ATOM      5  C   UNL A   1      32.050  21.555  25.394  1.00  0.00     0.249 C 
ATOM      6  O   UNL A   1      31.851  20.463  24.853  1.00  0.00    -0.272 OA
ATOM      7  H   UNL A   1      33.298  20.734  26.727  1.00  0.00     0.163 HD
BRANCH   5   8
ATOM      8  C   UNL A   1      31.289  22.819  24.943  1.00  0.00     0.207 C 
ATOM      9  C   UNL A   1      31.817  25.100  24.786  1.00  0.00     0.138 C 
ATOM     10  C   UNL A   1      31.107  24.909  26.126  1.00  0.00     0.037 C 
ATOM     11  O   UNL A   1      32.121  23.782  24.291  1.00  0.00    -0.363 OA
ATOM     12  C   UNL A   1      30.553  23.506  26.083  1.00  0.00     0.045 C 
BRANCH   9  13
ATOM     13  C   UNL A   1      33.128  25.921  24.874  1.00  0.00     0.149 C 
BRANCH  13  14
ATOM     14  N   UNL A   1      33.242  26.949  23.855  1.00  0.00    -0.336 N 
ATOM     15  N   UNL A   1      33.531  29.116  24.819  1.00  0.00    -0.333 N 
ATOM     16  C   UNL A   1      33.567  28.238  23.818  1.00  0.00     0.315 C 
ATOM     17  H   UNL A   1      33.881  29.977  24.499  1.00  0.00     0.165 HD
ATOM     18  O   UNL A   1      33.908  28.681  22.715  1.00  0.00    -0.249 OA
ATOM     19  H   UNL A   1      33.022  26.601  22.961  1.00  0.00     0.165 HD
BRANCH  15  20
ATOM     20  C   UNL A   1      33.149  29.256  26.251  1.00  0.00     0.041 C 
BRANCH  20  21
ATOM     21  C   UNL A   1      34.134  28.583  27.233  1.00  0.00     0.025 C 
ATOM     22  C   UNL A   1      35.392  29.402  27.526  1.00  0.00     0.006 C 
ENDBRANCH  20  21
BRANCH  20  23
ATOM     23  C   UNL A   1      31.765  28.509  26.410  1.00  0.00     0.025 C 
ATOM     24  C   UNL A   1      31.418  28.050  27.829  1.00  0.00     0.006 C 
ENDBRANCH  20  23
BRANCH  20  25
ATOM     25  C   UNL A   1      32.882  30.757  26.603  1.00  0.00     0.025 C 
ATOM     26  C   UNL A   1      31.494  31.328  26.333  1.00  0.00     0.006 C 
ENDBRANCH  20  25
ENDBRANCH  15  20
ENDBRANCH  13  14
ENDBRANCH   9  13
ENDBRANCH   5   8
ENDBRANCH   3   4
ENDBRANCH   2   3
ENDBRANCH   1   2
BRANCH   1  27
ATOM     27  C   UNL A   1      35.785  22.402  24.820  1.00  0.00     0.002 C 
BRANCH  27  28
ATOM     28  C   UNL A   1      37.223  21.879  24.773  1.00  0.00     0.021 C 
BRANCH  28  29
ATOM     29  C   UNL A   1      38.169  22.535  25.773  1.00  0.00     0.116 C 
BRANCH  29  30
ATOM     30  N   UNL A   1      39.370  21.738  25.978  1.00  0.00    -0.352 N 
ATOM     31  C   UNL A   1      40.633  22.130  26.318  1.00  0.00     0.251 C 
ATOM     32  H   UNL A   1      39.254  20.769  25.852  1.00  0.00     0.163 HD
ATOM     33  O   UNL A   1      41.568  21.333  26.188  1.00  0.00    -0.269 OA
BRANCH  31  34
ATOM     34  C   UNL A   1      40.879  23.488  26.838  1.00  0.00     0.039 A 
ATOM     35  C   UNL A   1      40.671  24.583  25.997  1.00  0.00     0.014 A 
ATOM     36  C   UNL A   1      41.368  23.680  28.134  1.00  0.00     0.014 A 
ATOM     37  C   UNL A   1      40.930  25.872  26.464  1.00  0.00     0.010 A 
ATOM     38  C   UNL A   1      41.548  24.967  28.625  1.00  0.00     0.010 A 
ATOM     39  C   UNL A   1      41.358  26.075  27.786  1.00  0.00    -0.014 A 
BRANCH  39  40
ATOM     40  C   UNL A   1      41.679  27.434  28.287  1.00  0.00     0.031 A 
ATOM     41  C   UNL A   1      43.116  27.882  28.351  1.00  0.00     0.074 A 
ATOM     42  C   UNL A   1      40.691  28.242  28.716  1.00  0.00     0.049 A 
ATOM     43  N   UNL A   1      43.616  28.996  28.820  1.00  0.00    -0.248 NA
ATOM     44  C   UNL A   1      44.124  26.934  27.853  1.00  0.00     0.031 C 
ATOM     45  C   UNL A   1      39.266  27.901  28.725  1.00  0.00     0.029 A 
ATOM     46  N   UNL A   1      40.732  29.512  29.229  1.00  0.00    -0.354 N 
ATOM     47  C   UNL A   1      44.996  28.876  28.684  1.00  0.00     0.074 A 
ATOM     48  C   UNL A   1      45.253  27.552  28.160  1.00  0.00     0.031 C 
ATOM     49  C   UNL A   1      38.568  28.949  29.192  1.00  0.00     0.029 A 
ATOM     50  C   UNL A   1      39.494  30.016  29.557  1.00  0.00     0.049 A 
ATOM     51  H   UNL A   1      41.568  30.018  29.350  1.00  0.00     0.167 HD
ATOM     52  C   UNL A   1      45.958  29.797  28.946  1.00  0.00     0.034 A 
ATOM     53  C   UNL A   1      39.150  31.202  30.099  1.00  0.00     0.034 A 
ATOM     54  C   UNL A   1      45.677  31.118  29.453  1.00  0.00     0.049 A 
ATOM     55  C   UNL A   1      40.238  32.201  30.403  1.00  0.00     0.074 A 
ATOM     56  C   UNL A   1      46.564  32.146  29.719  1.00  0.00     0.029 A 
ATOM     57  N   UNL A   1      44.411  31.594  29.770  1.00  0.00    -0.354 N 
ATOM     58  N   UNL A   1      41.537  32.087  30.238  1.00  0.00    -0.248 NA
ATOM     59  C   UNL A   1      39.813  33.494  30.953  1.00  0.00     0.031 C 
ATOM     60  C   UNL A   1      45.844  33.216  30.261  1.00  0.00     0.029 A 
ATOM     61  C   UNL A   1      44.497  32.891  30.253  1.00  0.00     0.049 A 
ATOM     62  H   UNL A   1      43.575  31.086  29.666  1.00  0.00     0.167 HD
ATOM     63  C   UNL A   1      42.077  33.312  30.622  1.00  0.00     0.074 A 
ATOM     64  C   UNL A   1      40.962  34.149  31.018  1.00  0.00     0.031 C 
ATOM     65  C   UNL A   1      43.374  33.712  30.642  1.00  0.00     0.034 A 
BRANCH  52  66
ATOM     66  C   UNL A   1      47.393  29.389  28.709  1.00  0.00     0.023 A 
ATOM     67  C   UNL A   1      47.894  29.165  27.413  1.00  0.00     0.031 A 
ATOM     68  C   UNL A   1      48.267  29.190  29.792  1.00  0.00     0.131 A 
ATOM     69  C   UNL A   1      49.197  28.674  27.239  1.00  0.00     0.055 A 
ATOM     70  C   UNL A   1      49.593  28.791  29.606  1.00  0.00     0.041 A 
ATOM     71  F   UNL A   1      47.845  29.366  31.053  1.00  0.00    -0.206 F 
ATOM     72  C   UNL A   1      50.060  28.513  28.325  1.00  0.00     0.022 A 
BRANCH  69  73
ATOM     73  S   UNL A   1      49.692  28.102  25.591  1.00  0.00     0.124 S 
ATOM     74  O   UNL A   1      50.175  26.753  25.882  1.00  0.00    -0.237 OA
ATOM     75  O   UNL A   1      48.446  28.186  24.839  1.00  0.00    -0.237 OA
ATOM     76  O   UNL A   1      50.727  29.053  25.194  1.00  0.00    -0.744 OA
ENDBRANCH  69  73
ENDBRANCH  52  66
BRANCH  53  77
ATOM     77  C   UNL A   1      37.721  31.516  30.389  1.00  0.00     0.023 A 
ATOM     78  C   UNL A   1      36.937  32.225  29.467  1.00  0.00     0.031 A 
ATOM     79  C   UNL A   1      37.132  31.156  31.615  1.00  0.00     0.131 A 
ATOM     80  C   UNL A   1      35.628  32.603  29.803  1.00  0.00     0.055 A 
ATOM     81  C   UNL A   1      35.809  31.482  31.922  1.00  0.00     0.041 A 
ATOM     82  F   UNL A   1      37.835  30.472  32.531  1.00  0.00    -0.206 F 
ATOM     83  C   UNL A   1      35.054  32.225  31.019  1.00  0.00     0.022 A 
BRANCH  80  84
ATOM     84  S   UNL A   1      34.720  33.689  28.670  1.00  0.00     0.124 S 
ATOM     85  O   UNL A   1      33.352  33.211  28.833  1.00  0.00    -0.237 OA
ATOM     86  O   UNL A   1      35.009  35.009  29.220  1.00  0.00    -0.237 OA
ATOM     87  O   UNL A   1      35.328  33.410  27.371  1.00  0.00    -0.744 OA
ENDBRANCH  80  84
ENDBRANCH  53  77
BRANCH  65  88
ATOM     88  C   UNL A   1      43.647  35.142  31.045  1.00  0.00     0.023 A 
ATOM     89  C   UNL A   1      43.777  35.523  32.391  1.00  0.00     0.031 A 
ATOM     90  C   UNL A   1      43.767  36.138  30.061  1.00  0.00     0.131 A 
ATOM     91  C   UNL A   1      43.958  36.875  32.719  1.00  0.00     0.055 A 
ATOM     92  C   UNL A   1      44.014  37.471  30.389  1.00  0.00     0.041 A 
ATOM     93  F   UNL A   1      43.649  35.830  28.759  1.00  0.00    -0.206 F 
ATOM     94  C   UNL A   1      44.097  37.849  31.726  1.00  0.00     0.022 A 
BRANCH  91  95
ATOM     95  S   UNL A   1      43.908  37.362  34.465  1.00  0.00     0.124 S 
ATOM     96  O   UNL A   1      45.290  37.140  34.882  1.00  0.00    -0.237 OA
ATOM     97  O   UNL A   1      43.483  38.755  34.389  1.00  0.00    -0.237 OA
ATOM     98  O   UNL A   1      42.930  36.447  35.049  1.00  0.00    -0.744 OA
ENDBRANCH  91  95
ENDBRANCH  65  88
ENDBRANCH  39  40
ENDBRANCH  31  34
ENDBRANCH  29  30
ENDBRANCH  28  29
ENDBRANCH  27  28
ENDBRANCH   1  27
TORSDOF 22
ENDMDL
MODEL 3
REMARK VINA RESULT:     -10.0      4.151      9.085
REMARK SMILES CCC(CC)(CC)NC(=O)NC[C@@H]1CC[C@H](C(=O)NCCCCCCNC(=O)c2ccc(-c3c4nc(c(-c5cc(S(=O)(=O)[O-])ccc5F)c5ccc([nH]5)c(-c5cc(S(=O)(=O)[O-])ccc5F)c5nc(c(-c6cc(S(=O)(=O)[O-])ccc6F)c6ccc3[nH]6)C=C5)C=C4)cc2)O1
REMARK SMILES IDX 22 1 21 2 20 3 19 4 17 5 18 6 16 8 13 9 14 10 92 11 15 12
REMARK SMILES IDX 12 13 11 14 8 15 9 16 10 18 3 20 2 21 1 22 4 23 5 24 6 25
REMARK SMILES IDX 7 26 23 27 24 28 25 29 26 30 27 31 28 33 29 34 30 35 91 36
REMARK SMILES IDX 31 37 90 38 32 39 33 40 34 41 84 42 35 43 89 44 83 45 85 46
REMARK SMILES IDX 36 47 88 48 82 49 81 50 37 52 69 53 49 54 68 55 50 56 53 57
REMARK SMILES IDX 67 58 86 59 51 60 52 61 66 63 87 64 54 65 38 66 39 67 47 68
REMARK SMILES IDX 40 69 46 70 48 71 45 72 41 73 42 74 43 75 44 76 70 77 71 78
REMARK SMILES IDX 79 79 72 80 78 81 80 82 77 83 73 84 74 85 75 86 76 87 55 88
REMARK SMILES IDX 56 89 64 90 57 91 63 92 65 93 62 94 58 95 59 96 60 97 61 98
REMARK H PARENT 19 7 8 17 11 19 26 32 85 51 53 62
REMARK Flexibility Score: inf
ROOT
ATOM      1  C   UNL A   1      35.439  23.377  26.067  1.00  0.00     0.002 C 
ENDROOT
BRANCH   1   2
ATOM      2  C   UNL A   1      34.908  22.512  27.204  1.00  0.00     0.021 C 
BRANCH   2   3
ATOM      3  C   UNL A   1      33.405  22.292  27.105  1.00  0.00     0.116 C 
BRANCH   3   4
ATOM      4  N   UNL A   1      33.055  21.052  26.456  1.00  0.00    -0.354 N 
ATOM      5  C   UNL A   1      32.266  20.861  25.358  1.00  0.00     0.249 C 
ATOM      6  O   UNL A   1      32.168  19.715  24.908  1.00  0.00    -0.272 OA
ATOM      7  H   UNL A   1      33.435  20.238  26.858  1.00  0.00     0.163 HD
BRANCH   5   8
ATOM      8  C   UNL A   1      31.483  22.033  24.730  1.00  0.00     0.207 C 
ATOM      9  C   UNL A   1      31.918  24.312  24.375  1.00  0.00     0.138 C 
ATOM     10  C   UNL A   1      31.124  24.218  25.677  1.00  0.00     0.037 C 
ATOM     11  O   UNL A   1      32.316  22.969  24.039  1.00  0.00    -0.363 OA
ATOM     12  C   UNL A   1      30.638  22.791  25.742  1.00  0.00     0.045 C 
BRANCH   9  13
ATOM     13  C   UNL A   1      33.182  25.204  24.465  1.00  0.00     0.149 C 
BRANCH  13  14
ATOM     14  N   UNL A   1      33.320  26.135  23.360  1.00  0.00    -0.336 N 
ATOM     15  N   UNL A   1      33.403  28.398  24.120  1.00  0.00    -0.333 N 
ATOM     16  C   UNL A   1      33.572  27.433  23.218  1.00  0.00     0.315 C 
ATOM     17  H   UNL A   1      33.728  29.246  23.742  1.00  0.00     0.165 HD
ATOM     18  O   UNL A   1      33.975  27.789  22.105  1.00  0.00    -0.249 OA
ATOM     19  H   UNL A   1      33.194  25.689  22.491  1.00  0.00     0.165 HD
BRANCH  15  20
ATOM     20  C   UNL A   1      32.898  28.649  25.498  1.00  0.00     0.041 C 
BRANCH  20  21
ATOM     21  C   UNL A   1      31.482  28.091  25.759  1.00  0.00     0.025 C 
ATOM     22  C   UNL A   1      31.323  27.374  27.101  1.00  0.00     0.006 C 
ENDBRANCH  20  21
BRANCH  20  23
ATOM     23  C   UNL A   1      32.805  30.219  25.651  1.00  0.00     0.025 C 
ATOM     24  C   UNL A   1      31.742  30.730  26.626  1.00  0.00     0.006 C 
ENDBRANCH  20  23
BRANCH  20  25
ATOM     25  C   UNL A   1      33.940  28.165  26.560  1.00  0.00     0.025 C 
ATOM     26  C   UNL A   1      34.988  29.158  27.051  1.00  0.00     0.006 C 
ENDBRANCH  20  25
ENDBRANCH  15  20
ENDBRANCH  13  14
ENDBRANCH   9  13
ENDBRANCH   5   8
ENDBRANCH   3   4
ENDBRANCH   2   3
ENDBRANCH   1   2
BRANCH   1  27
ATOM     27  C   UNL A   1      35.835  22.592  24.807  1.00  0.00     0.002 C 
BRANCH  27  28
ATOM     28  C   UNL A   1      37.320  22.240  24.690  1.00  0.00     0.021 C 
BRANCH  28  29
ATOM     29  C   UNL A   1      38.198  22.819  25.795  1.00  0.00     0.116 C 
BRANCH  29  30
ATOM     30  N   UNL A   1      39.421  22.048  25.968  1.00  0.00    -0.352 N 
ATOM     31  C   UNL A   1      40.681  22.467  26.285  1.00  0.00     0.251 C 
ATOM     32  H   UNL A   1      39.325  21.078  25.835  1.00  0.00     0.163 HD
ATOM     33  O   UNL A   1      41.631  21.692  26.128  1.00  0.00    -0.269 OA
BRANCH  31  34
ATOM     34  C   UNL A   1      40.907  23.825  26.811  1.00  0.00     0.039 A 
ATOM     35  C   UNL A   1      40.734  24.919  25.959  1.00  0.00     0.014 A 
ATOM     36  C   UNL A   1      41.342  24.020  28.126  1.00  0.00     0.014 A 
ATOM     37  C   UNL A   1      40.976  26.209  26.434  1.00  0.00     0.010 A 
ATOM     38  C   UNL A   1      41.503  25.309  28.620  1.00  0.00     0.010 A 
ATOM     39  C   UNL A   1      41.349  26.414  27.772  1.00  0.00    -0.014 A 
BRANCH  39  40
ATOM     40  C   UNL A   1      41.650  27.774  28.282  1.00  0.00     0.031 A 
ATOM     41  C   UNL A   1      43.075  28.262  28.302  1.00  0.00     0.074 A 
ATOM     42  C   UNL A   1      40.656  28.548  28.760  1.00  0.00     0.049 A 
ATOM     43  N   UNL A   1      43.561  29.383  28.770  1.00  0.00    -0.248 NA
ATOM     44  C   UNL A   1      44.091  27.351  27.753  1.00  0.00     0.031 C 
ATOM     45  C   UNL A   1      39.243  28.167  28.815  1.00  0.00     0.029 A 
ATOM     46  N   UNL A   1      40.681  29.811  29.291  1.00  0.00    -0.354 N 
ATOM     47  C   UNL A   1      44.939  29.304  28.583  1.00  0.00     0.074 A 
ATOM     48  C   UNL A   1      45.213  27.996  28.029  1.00  0.00     0.031 C 
ATOM     49  C   UNL A   1      38.533  29.188  29.323  1.00  0.00     0.029 A 
ATOM     50  C   UNL A   1      39.442  30.275  29.671  1.00  0.00     0.049 A 
ATOM     51  H   UNL A   1      41.506  30.338  29.390  1.00  0.00     0.167 HD
ATOM     52  C   UNL A   1      45.883  30.248  28.825  1.00  0.00     0.034 A 
ATOM     53  C   UNL A   1      39.086  31.442  30.244  1.00  0.00     0.034 A 
ATOM     54  C   UNL A   1      45.584  31.552  29.362  1.00  0.00     0.049 A 
ATOM     55  C   UNL A   1      40.156  32.467  30.524  1.00  0.00     0.074 A 
ATOM     56  C   UNL A   1      46.451  32.601  29.612  1.00  0.00     0.029 A 
ATOM     57  N   UNL A   1      44.318  31.988  29.732  1.00  0.00    -0.354 N 
ATOM     58  N   UNL A   1      41.450  32.392  30.310  1.00  0.00    -0.248 NA
ATOM     59  C   UNL A   1      39.715  33.739  31.110  1.00  0.00     0.031 C 
ATOM     60  C   UNL A   1      45.722  33.642  30.197  1.00  0.00     0.029 A 
ATOM     61  C   UNL A   1      44.386  33.279  30.232  1.00  0.00     0.049 A 
ATOM     62  H   UNL A   1      43.493  31.458  29.650  1.00  0.00     0.167 HD
ATOM     63  C   UNL A   1      41.970  33.626  30.695  1.00  0.00     0.074 A 
ATOM     64  C   UNL A   1      40.848  34.426  31.143  1.00  0.00     0.031 C 
ATOM     65  C   UNL A   1      43.255  34.063  30.674  1.00  0.00     0.034 A 
BRANCH  52  66
ATOM     66  C   UNL A   1      47.320  29.884  28.529  1.00  0.00     0.023 A 
ATOM     67  C   UNL A   1      48.141  29.274  29.494  1.00  0.00     0.031 A 
ATOM     68  C   UNL A   1      47.888  30.180  27.278  1.00  0.00     0.131 A 
ATOM     69  C   UNL A   1      49.501  29.058  29.224  1.00  0.00     0.055 A 
ATOM     70  C   UNL A   1      49.220  29.877  26.984  1.00  0.00     0.041 A 
ATOM     71  F   UNL A   1      47.164  30.783  26.323  1.00  0.00    -0.206 F 
ATOM     72  C   UNL A   1      50.040  29.329  27.965  1.00  0.00     0.022 A 
BRANCH  69  73
ATOM     73  S   UNL A   1      50.587  28.566  30.590  1.00  0.00     0.124 S 
ATOM     74  O   UNL A   1      51.883  28.481  29.920  1.00  0.00    -0.237 OA
ATOM     75  O   UNL A   1      50.426  29.666  31.534  1.00  0.00    -0.237 OA
ATOM     76  O   UNL A   1      50.034  27.285  31.025  1.00  0.00    -0.744 OA
ENDBRANCH  69  73
ENDBRANCH  52  66
BRANCH  53  77
ATOM     77  C   UNL A   1      37.659  31.712  30.590  1.00  0.00     0.023 A 
ATOM     78  C   UNL A   1      36.809  32.366  29.686  1.00  0.00     0.031 A 
ATOM     79  C   UNL A   1      37.140  31.363  31.850  1.00  0.00     0.131 A 
ATOM     80  C   UNL A   1      35.504  32.705  30.072  1.00  0.00     0.055 A 
ATOM     81  C   UNL A   1      35.820  31.649  32.208  1.00  0.00     0.041 A 
ATOM     82  F   UNL A   1      37.907  30.731  32.750  1.00  0.00    -0.206 F 
ATOM     83  C   UNL A   1      34.999  32.339  31.321  1.00  0.00     0.022 A 
BRANCH  80  84
ATOM     84  S   UNL A   1      34.506  33.726  28.954  1.00  0.00     0.124 S 
ATOM     85  O   UNL A   1      35.480  34.716  28.508  1.00  0.00    -0.237 OA
ATOM     86  O   UNL A   1      34.078  32.752  27.956  1.00  0.00    -0.237 OA
ATOM     87  O   UNL A   1      33.445  34.239  29.817  1.00  0.00    -0.744 OA
ENDBRANCH  80  84
ENDBRANCH  53  77
BRANCH  65  88
ATOM     88  C   UNL A   1      43.503  35.493  31.089  1.00  0.00     0.023 A 
ATOM     89  C   UNL A   1      43.535  36.543  30.156  1.00  0.00     0.031 A 
ATOM     90  C   UNL A   1      43.720  35.804  32.443  1.00  0.00     0.131 A 
ATOM     91  C   UNL A   1      43.841  37.845  30.581  1.00  0.00     0.055 A 
ATOM     92  C   UNL A   1      43.957  37.110  32.869  1.00  0.00     0.041 A 
ATOM     93  F   UNL A   1      43.702  34.839  33.377  1.00  0.00    -0.206 F 
ATOM     94  C   UNL A   1      44.033  38.139  31.934  1.00  0.00     0.022 A 
BRANCH  91  95
ATOM     95  S   UNL A   1      44.086  39.134  29.330  1.00  0.00     0.124 S 
ATOM     96  O   UNL A   1      43.816  38.410  28.091  1.00  0.00    -0.237 OA
ATOM     97  O   UNL A   1      43.093  40.132  29.712  1.00  0.00    -0.237 OA
ATOM     98  O   UNL A   1      45.477  39.539  29.521  1.00  0.00    -0.744 OA
ENDBRANCH  91  95
ENDBRANCH  65  88
ENDBRANCH  39  40
ENDBRANCH  31  34
ENDBRANCH  29  30
ENDBRANCH  28  29
ENDBRANCH  27  28
ENDBRANCH   1  27
TORSDOF 22
ENDMDL
