MODEL 1
REMARK VINA RESULT:     -12.0      0.000      0.000
REMARK SMILES Cc1ccccc1OCC(=O)c1nc(C)c(C(=O)NCCCCCCNC(=O)c2ccc(-c3c4nc(c(-c5cc(S(=O)(=O)[O-])ccc5F)c5ccc([nH]5)c(-c5cc(S(=O)(=O)[O-])ccc5F)c5nc(c(-c6cc(S(=O)(=O)[O-])ccc6F)c6ccc3[nH]6)C=C5)C=C4)cc2)s1
REMARK SMILES IDX 22 1 21 2 20 3 19 4 17 5 18 6 16 8 12 9 13 10 92 11 14 12
REMARK SMILES IDX 15 13 10 14 11 15 9 16 8 17 7 18 1 19 2 20 3 21 4 22 6 23
REMARK SMILES IDX 5 24 23 25 24 26 25 27 26 28 27 29 28 31 29 32 30 33 91 34
REMARK SMILES IDX 31 35 90 36 32 37 33 38 34 39 84 40 35 41 89 42 83 43 85 44
REMARK SMILES IDX 36 45 88 46 82 47 81 48 37 50 69 51 49 52 68 53 50 54 53 55
REMARK SMILES IDX 67 56 86 57 51 58 52 59 66 61 87 62 54 63 38 64 39 65 47 66
REMARK SMILES IDX 40 67 46 68 48 69 45 70 41 71 42 72 43 73 44 74 70 75 71 76
REMARK SMILES IDX 79 77 72 78 78 79 80 80 77 81 73 82 74 83 75 84 76 85 55 86
REMARK SMILES IDX 56 87 64 88 57 89 63 90 65 91 62 92 58 93 59 94 60 95 61 96
REMARK H PARENT 19 7 26 30 85 49 53 60
REMARK Flexibility Score: inf
ROOT
ATOM      1  C   UNL A   1      36.165  23.039  26.025  1.00  0.00     0.002 C 
ENDROOT
BRANCH   1   2
ATOM      2  C   UNL A   1      35.502  21.690  26.328  1.00  0.00     0.021 C 
BRANCH   2   3
ATOM      3  C   UNL A   1      35.441  20.731  25.136  1.00  0.00     0.116 C 
BRANCH   3   4
ATOM      4  N   UNL A   1      34.207  19.983  25.134  1.00  0.00    -0.351 N 
ATOM      5  C   UNL A   1      32.886  20.305  24.975  1.00  0.00     0.263 C 
ATOM      6  O   UNL A   1      32.145  19.312  24.972  1.00  0.00    -0.268 OA
ATOM      7  H   UNL A   1      34.347  19.019  25.281  1.00  0.00     0.163 HD
BRANCH   5   8
ATOM      8  C   UNL A   1      32.359  21.655  24.781  1.00  0.00     0.115 A 
ATOM      9  C   UNL A   1      31.046  23.687  25.280  1.00  0.00     0.164 A 
ATOM     10  N   UNL A   1      31.750  23.846  24.183  1.00  0.00    -0.237 NA
ATOM     11  S   UNL A   1      31.204  22.159  25.994  1.00  0.00    -0.105 S 
ATOM     12  C   UNL A   1      32.556  22.739  23.927  1.00  0.00     0.062 A 
ATOM     13  C   UNL A   1      33.512  22.964  22.815  1.00  0.00     0.068 C 
BRANCH   9  14
ATOM     14  C   UNL A   1      30.229  24.773  25.812  1.00  0.00     0.228 C 
ATOM     15  O   UNL A   1      29.632  24.688  26.895  1.00  0.00    -0.288 OA
BRANCH  14  16
ATOM     16  C   UNL A   1      29.990  26.033  24.971  1.00  0.00     0.313 C 
BRANCH  16  17
ATOM     17  O   UNL A   1      30.671  27.240  25.183  1.00  0.00    -0.485 OA
BRANCH  17  18
ATOM     18  C   UNL A   1      31.794  27.624  24.518  1.00  0.00     0.122 A 
ATOM     19  C   UNL A   1      33.700  26.432  25.809  1.00  0.00     0.048 C 
ATOM     20  C   UNL A   1      33.143  27.308  24.726  1.00  0.00    -0.009 A 
ATOM     21  C   UNL A   1      34.098  27.822  23.816  1.00  0.00     0.007 A 
ATOM     22  C   UNL A   1      33.739  28.659  22.761  1.00  0.00     0.001 A 
ATOM     23  C   UNL A   1      31.453  28.483  23.454  1.00  0.00     0.047 A 
ATOM     24  C   UNL A   1      32.410  29.001  22.584  1.00  0.00     0.004 A 
ENDBRANCH  17  18
ENDBRANCH  16  17
ENDBRANCH  14  16
ENDBRANCH   9  14
ENDBRANCH   5   8
ENDBRANCH   3   4
ENDBRANCH   2   3
ENDBRANCH   1   2
BRANCH   1  25
ATOM     25  C   UNL A   1      37.470  22.984  25.212  1.00  0.00     0.002 C 
BRANCH  25  26
ATOM     26  C   UNL A   1      38.542  22.030  25.735  1.00  0.00     0.021 C 
BRANCH  26  27
ATOM     27  C   UNL A   1      39.412  22.635  26.830  1.00  0.00     0.116 C 
BRANCH  27  28
ATOM     28  N   UNL A   1      40.756  23.009  26.380  1.00  0.00    -0.352 N 
ATOM     29  C   UNL A   1      41.325  24.261  26.297  1.00  0.00     0.251 C 
ATOM     30  H   UNL A   1      41.332  22.262  26.097  1.00  0.00     0.163 HD
ATOM     31  O   UNL A   1      42.454  24.423  25.869  1.00  0.00    -0.269 OA
BRANCH  29  32
ATOM     32  C   UNL A   1      40.571  25.416  26.852  1.00  0.00     0.039 A 
ATOM     33  C   UNL A   1      40.759  26.662  26.246  1.00  0.00     0.014 A 
ATOM     34  C   UNL A   1      39.895  25.307  28.065  1.00  0.00     0.014 A 
ATOM     35  C   UNL A   1      40.471  27.816  26.969  1.00  0.00     0.010 A 
ATOM     36  C   UNL A   1      39.688  26.449  28.815  1.00  0.00     0.010 A 
ATOM     37  C   UNL A   1      40.037  27.697  28.291  1.00  0.00    -0.014 A 
BRANCH  37  38
ATOM     38  C   UNL A   1      40.069  28.813  29.228  1.00  0.00     0.031 A 
ATOM     39  C   UNL A   1      38.981  29.809  29.257  1.00  0.00     0.074 A 
ATOM     40  C   UNL A   1      41.134  28.988  30.041  1.00  0.00     0.049 A 
ATOM     41  N   UNL A   1      39.167  31.068  29.478  1.00  0.00    -0.248 NA
ATOM     42  C   UNL A   1      37.587  29.464  28.998  1.00  0.00     0.031 C 
ATOM     43  C   UNL A   1      41.265  29.954  31.129  1.00  0.00     0.029 A 
ATOM     44  N   UNL A   1      42.409  28.466  29.907  1.00  0.00    -0.354 N 
ATOM     45  C   UNL A   1      37.933  31.641  29.654  1.00  0.00     0.074 A 
ATOM     46  C   UNL A   1      36.978  30.624  29.273  1.00  0.00     0.031 C 
ATOM     47  C   UNL A   1      42.568  30.132  31.397  1.00  0.00     0.029 A 
ATOM     48  C   UNL A   1      43.330  29.387  30.408  1.00  0.00     0.049 A 
ATOM     49  H   UNL A   1      42.631  27.588  29.520  1.00  0.00     0.167 HD
ATOM     50  C   UNL A   1      37.816  32.863  30.244  1.00  0.00     0.034 A 
ATOM     51  C   UNL A   1      44.321  29.906  29.627  1.00  0.00     0.034 A 
ATOM     52  C   UNL A   1      39.102  33.393  30.675  1.00  0.00     0.049 A 
ATOM     53  C   UNL A   1      44.235  31.409  29.453  1.00  0.00     0.074 A 
ATOM     54  C   UNL A   1      39.747  33.383  31.900  1.00  0.00     0.029 A 
ATOM     55  N   UNL A   1      40.046  33.783  29.734  1.00  0.00    -0.354 N 
ATOM     56  N   UNL A   1      43.184  32.123  29.750  1.00  0.00    -0.248 NA
ATOM     57  C   UNL A   1      45.316  32.218  28.897  1.00  0.00     0.031 C 
ATOM     58  C   UNL A   1      41.107  33.717  31.683  1.00  0.00     0.029 A 
ATOM     59  C   UNL A   1      41.279  33.964  30.333  1.00  0.00     0.049 A 
ATOM     60  H   UNL A   1      39.864  33.913  28.775  1.00  0.00     0.167 HD
ATOM     61  C   UNL A   1      43.405  33.435  29.408  1.00  0.00     0.074 A 
ATOM     62  C   UNL A   1      44.768  33.447  28.909  1.00  0.00     0.031 C 
ATOM     63  C   UNL A   1      42.432  34.387  29.551  1.00  0.00     0.034 A 
BRANCH  50  64
ATOM     64  C   UNL A   1      36.490  33.397  30.713  1.00  0.00     0.023 A 
ATOM     65  C   UNL A   1      35.631  34.039  29.800  1.00  0.00     0.031 A 
ATOM     66  C   UNL A   1      36.043  33.330  32.045  1.00  0.00     0.131 A 
ATOM     67  C   UNL A   1      34.448  34.663  30.230  1.00  0.00     0.055 A 
ATOM     68  C   UNL A   1      34.888  33.992  32.483  1.00  0.00     0.041 A 
ATOM     69  F   UNL A   1      36.710  32.616  32.966  1.00  0.00    -0.206 F 
ATOM     70  C   UNL A   1      34.091  34.676  31.576  1.00  0.00     0.022 A 
BRANCH  67  71
ATOM     71  S   UNL A   1      33.385  35.466  28.998  1.00  0.00     0.124 S 
ATOM     72  O   UNL A   1      32.693  34.330  28.397  1.00  0.00    -0.237 OA
ATOM     73  O   UNL A   1      32.573  36.353  29.824  1.00  0.00    -0.237 OA
ATOM     74  O   UNL A   1      34.338  36.142  28.118  1.00  0.00    -0.744 OA
ENDBRANCH  67  71
ENDBRANCH  50  64
BRANCH  51  75
ATOM     75  C   UNL A   1      44.832  28.959  28.598  1.00  0.00     0.023 A 
ATOM     76  C   UNL A   1      45.667  27.906  29.027  1.00  0.00     0.031 A 
ATOM     77  C   UNL A   1      44.239  28.854  27.333  1.00  0.00     0.131 A 
ATOM     78  C   UNL A   1      45.793  26.743  28.253  1.00  0.00     0.055 A 
ATOM     79  C   UNL A   1      44.388  27.702  26.552  1.00  0.00     0.041 A 
ATOM     80  F   UNL A   1      43.408  29.808  26.887  1.00  0.00    -0.206 F 
ATOM     81  C   UNL A   1      45.135  26.624  27.028  1.00  0.00     0.022 A 
BRANCH  78  82
ATOM     82  S   UNL A   1      46.642  25.301  28.961  1.00  0.00     0.124 S 
ATOM     83  O   UNL A   1      47.275  25.870  30.144  1.00  0.00    -0.237 OA
ATOM     84  O   UNL A   1      45.544  24.372  29.212  1.00  0.00    -0.237 OA
ATOM     85  O   UNL A   1      47.552  24.889  27.896  1.00  0.00    -0.744 OA
ENDBRANCH  78  82
ENDBRANCH  51  75
BRANCH  63  86
ATOM     86  C   UNL A   1      42.489  35.819  29.054  1.00  0.00     0.023 A 
ATOM     87  C   UNL A   1      43.219  36.835  29.684  1.00  0.00     0.031 A 
ATOM     88  C   UNL A   1      41.845  36.192  27.844  1.00  0.00     0.131 A 
ATOM     89  C   UNL A   1      43.232  38.149  29.174  1.00  0.00     0.055 A 
ATOM     90  C   UNL A   1      41.926  37.476  27.297  1.00  0.00     0.041 A 
ATOM     91  F   UNL A   1      41.113  35.322  27.134  1.00  0.00    -0.206 F 
ATOM     92  C   UNL A   1      42.612  38.472  27.972  1.00  0.00     0.022 A 
BRANCH  89  93
ATOM     93  S   UNL A   1      44.030  39.446  30.157  1.00  0.00     0.124 S 
ATOM     94  O   UNL A   1      45.269  39.665  29.414  1.00  0.00    -0.237 OA
ATOM     95  O   UNL A   1      43.056  40.530  30.098  1.00  0.00    -0.237 OA
ATOM     96  O   UNL A   1      44.197  38.830  31.472  1.00  0.00    -0.744 OA
ENDBRANCH  89  93
ENDBRANCH  63  86
ENDBRANCH  37  38
ENDBRANCH  29  32
ENDBRANCH  27  28
ENDBRANCH  26  27
ENDBRANCH  25  26
ENDBRANCH   1  25
TORSDOF 20
ENDMDL
MODEL 2
REMARK VINA RESULT:     -11.8      1.463      2.236
REMARK SMILES Cc1ccccc1OCC(=O)c1nc(C)c(C(=O)NCCCCCCNC(=O)c2ccc(-c3c4nc(c(-c5cc(S(=O)(=O)[O-])ccc5F)c5ccc([nH]5)c(-c5cc(S(=O)(=O)[O-])ccc5F)c5nc(c(-c6cc(S(=O)(=O)[O-])ccc6F)c6ccc3[nH]6)C=C5)C=C4)cc2)s1
REMARK SMILES IDX 22 1 21 2 20 3 19 4 17 5 18 6 16 8 12 9 13 10 92 11 14 12
REMARK SMILES IDX 15 13 10 14 11 15 9 16 8 17 7 18 1 19 2 20 3 21 4 22 6 23
REMARK SMILES IDX 5 24 23 25 24 26 25 27 26 28 27 29 28 31 29 32 30 33 91 34
REMARK SMILES IDX 31 35 90 36 32 37 33 38 34 39 84 40 35 41 89 42 83 43 85 44
REMARK SMILES IDX 36 45 88 46 82 47 81 48 37 50 69 51 49 52 68 53 50 54 53 55
REMARK SMILES IDX 67 56 86 57 51 58 52 59 66 61 87 62 54 63 38 64 39 65 47 66
REMARK SMILES IDX 40 67 46 68 48 69 45 70 41 71 42 72 43 73 44 74 70 75 71 76
REMARK SMILES IDX 79 77 72 78 78 79 80 80 77 81 73 82 74 83 75 84 76 85 55 86
REMARK SMILES IDX 56 87 64 88 57 89 63 90 65 91 62 92 58 93 59 94 60 95 61 96
REMARK H PARENT 19 7 26 30 85 49 53 60
REMARK Flexibility Score: inf
ROOT
ATOM      1  C   UNL A   1      35.988  23.236  26.163  1.00  0.00     0.002 C 
ENDROOT
BRANCH   1   2
ATOM      2  C   UNL A   1      35.086  22.321  25.326  1.00  0.00     0.021 C 
BRANCH   2   3
ATOM      3  C   UNL A   1      35.099  22.620  23.824  1.00  0.00     0.116 C 
BRANCH   3   4
ATOM      4  N   UNL A   1      33.756  22.732  23.306  1.00  0.00    -0.351 N 
ATOM      5  C   UNL A   1      32.712  23.593  23.515  1.00  0.00     0.263 C 
ATOM      6  O   UNL A   1      31.740  23.358  22.785  1.00  0.00    -0.268 OA
ATOM      7  H   UNL A   1      33.541  22.028  22.653  1.00  0.00     0.163 HD
BRANCH   5   8
ATOM      8  C   UNL A   1      32.712  24.714  24.455  1.00  0.00     0.115 A 
ATOM      9  C   UNL A   1      32.924  27.054  25.217  1.00  0.00     0.164 A 
ATOM     10  N   UNL A   1      32.585  26.270  26.213  1.00  0.00    -0.237 NA
ATOM     11  S   UNL A   1      33.155  26.249  23.743  1.00  0.00    -0.105 S 
ATOM     12  C   UNL A   1      32.385  24.958  25.788  1.00  0.00     0.062 A 
ATOM     13  C   UNL A   1      31.805  24.089  26.841  1.00  0.00     0.068 C 
BRANCH   9  14
ATOM     14  C   UNL A   1      33.058  28.495  25.407  1.00  0.00     0.228 C 
ATOM     15  O   UNL A   1      34.107  29.019  25.810  1.00  0.00    -0.288 OA
BRANCH  14  16
ATOM     16  C   UNL A   1      31.840  29.407  25.215  1.00  0.00     0.313 C 
BRANCH  16  17
ATOM     17  O   UNL A   1      31.273  29.682  23.962  1.00  0.00    -0.485 OA
BRANCH  17  18
ATOM     18  C   UNL A   1      29.949  29.569  23.670  1.00  0.00     0.122 A 
ATOM     19  C   UNL A   1      29.115  32.024  23.677  1.00  0.00     0.048 C 
ATOM     20  C   UNL A   1      28.950  30.541  23.521  1.00  0.00    -0.009 A 
ATOM     21  C   UNL A   1      27.653  30.114  23.149  1.00  0.00     0.007 A 
ATOM     22  C   UNL A   1      27.338  28.767  22.976  1.00  0.00     0.001 A 
ATOM     23  C   UNL A   1      29.608  28.212  23.503  1.00  0.00     0.047 A 
ATOM     24  C   UNL A   1      28.318  27.810  23.163  1.00  0.00     0.004 A 
ENDBRANCH  17  18
ENDBRANCH  16  17
ENDBRANCH  14  16
ENDBRANCH   9  14
ENDBRANCH   5   8
ENDBRANCH   3   4
ENDBRANCH   2   3
ENDBRANCH   1   2
BRANCH   1  25
ATOM     25  C   UNL A   1      37.374  23.546  25.571  1.00  0.00     0.002 C 
BRANCH  25  26
ATOM     26  C   UNL A   1      38.431  22.455  25.741  1.00  0.00     0.021 C 
BRANCH  26  27
ATOM     27  C   UNL A   1      39.413  22.732  26.873  1.00  0.00     0.116 C 
BRANCH  27  28
ATOM     28  N   UNL A   1      40.757  23.095  26.414  1.00  0.00    -0.352 N 
ATOM     29  C   UNL A   1      41.331  24.343  26.315  1.00  0.00     0.251 C 
ATOM     30  H   UNL A   1      41.329  22.343  26.138  1.00  0.00     0.163 HD
ATOM     31  O   UNL A   1      42.460  24.496  25.883  1.00  0.00    -0.269 OA
BRANCH  29  32
ATOM     32  C   UNL A   1      40.584  25.508  26.859  1.00  0.00     0.039 A 
ATOM     33  C   UNL A   1      40.781  26.748  26.243  1.00  0.00     0.014 A 
ATOM     34  C   UNL A   1      39.906  25.414  28.072  1.00  0.00     0.014 A 
ATOM     35  C   UNL A   1      40.499  27.910  26.955  1.00  0.00     0.010 A 
ATOM     36  C   UNL A   1      39.705  26.563  28.812  1.00  0.00     0.010 A 
ATOM     37  C   UNL A   1      40.063  27.804  28.279  1.00  0.00    -0.014 A 
BRANCH  37  38
ATOM     38  C   UNL A   1      40.101  28.929  29.206  1.00  0.00     0.031 A 
ATOM     39  C   UNL A   1      39.007  29.919  29.240  1.00  0.00     0.074 A 
ATOM     40  C   UNL A   1      41.175  29.116  30.004  1.00  0.00     0.049 A 
ATOM     41  N   UNL A   1      39.190  31.180  29.449  1.00  0.00    -0.248 NA
ATOM     42  C   UNL A   1      37.612  29.565  29.002  1.00  0.00     0.031 C 
ATOM     43  C   UNL A   1      41.314  30.091  31.082  1.00  0.00     0.029 A 
ATOM     44  N   UNL A   1      42.451  28.599  29.858  1.00  0.00    -0.354 N 
ATOM     45  C   UNL A   1      37.955  31.749  29.636  1.00  0.00     0.074 A 
ATOM     46  C   UNL A   1      37.001  30.723  29.275  1.00  0.00     0.031 C 
ATOM     47  C   UNL A   1      42.620  30.278  31.332  1.00  0.00     0.029 A 
ATOM     48  C   UNL A   1      43.373  29.529  30.340  1.00  0.00     0.049 A 
ATOM     49  H   UNL A   1      42.672  27.719  29.476  1.00  0.00     0.167 HD
ATOM     50  C   UNL A   1      37.839  32.975  30.218  1.00  0.00     0.034 A 
ATOM     51  C   UNL A   1      44.351  30.046  29.542  1.00  0.00     0.034 A 
ATOM     52  C   UNL A   1      39.127  33.515  30.627  1.00  0.00     0.049 A 
ATOM     53  C   UNL A   1      44.255  31.548  29.357  1.00  0.00     0.074 A 
ATOM     54  C   UNL A   1      39.788  33.519  31.845  1.00  0.00     0.029 A 
ATOM     55  N   UNL A   1      40.057  33.902  29.672  1.00  0.00    -0.354 N 
ATOM     56  N   UNL A   1      43.205  32.259  29.662  1.00  0.00    -0.248 NA
ATOM     57  C   UNL A   1      45.324  32.358  28.781  1.00  0.00     0.031 C 
ATOM     58  C   UNL A   1      41.143  33.858  31.608  1.00  0.00     0.029 A 
ATOM     59  C   UNL A   1      41.297  34.095  30.254  1.00  0.00     0.049 A 
ATOM     60  H   UNL A   1      39.862  34.023  28.715  1.00  0.00     0.167 HD
ATOM     61  C   UNL A   1      43.413  33.569  29.306  1.00  0.00     0.074 A 
ATOM     62  C   UNL A   1      44.770  33.584  28.790  1.00  0.00     0.031 C 
ATOM     63  C   UNL A   1      42.437  34.517  29.454  1.00  0.00     0.034 A 
BRANCH  50  64
ATOM     64  C   UNL A   1      36.516  33.506  30.699  1.00  0.00     0.023 A 
ATOM     65  C   UNL A   1      35.648  34.148  29.795  1.00  0.00     0.031 A 
ATOM     66  C   UNL A   1      36.080  33.435  32.035  1.00  0.00     0.131 A 
ATOM     67  C   UNL A   1      34.468  34.769  30.236  1.00  0.00     0.055 A 
ATOM     68  C   UNL A   1      34.928  34.094  32.484  1.00  0.00     0.041 A 
ATOM     69  F   UNL A   1      36.757  32.720  32.948  1.00  0.00    -0.206 F 
ATOM     70  C   UNL A   1      34.122  34.779  31.585  1.00  0.00     0.022 A 
BRANCH  67  71
ATOM     71  S   UNL A   1      33.394  35.573  29.015  1.00  0.00     0.124 S 
ATOM     72  O   UNL A   1      32.691  34.438  28.424  1.00  0.00    -0.237 OA
ATOM     73  O   UNL A   1      32.594  36.464  29.848  1.00  0.00    -0.237 OA
ATOM     74  O   UNL A   1      34.338  36.244  28.123  1.00  0.00    -0.744 OA
ENDBRANCH  67  71
ENDBRANCH  50  64
BRANCH  51  75
ATOM     75  C   UNL A   1      44.855  29.094  28.514  1.00  0.00     0.023 A 
ATOM     76  C   UNL A   1      45.772  28.105  28.925  1.00  0.00     0.031 A 
ATOM     77  C   UNL A   1      44.195  28.913  27.291  1.00  0.00     0.131 A 
ATOM     78  C   UNL A   1      45.918  26.923  28.182  1.00  0.00     0.055 A 
ATOM     79  C   UNL A   1      44.364  27.744  26.540  1.00  0.00     0.041 A 
ATOM     80  F   UNL A   1      43.287  29.804  26.867  1.00  0.00    -0.206 F 
ATOM     81  C   UNL A   1      45.198  26.727  27.003  1.00  0.00     0.022 A 
BRANCH  78  82
ATOM     82  S   UNL A   1      46.888  25.556  28.883  1.00  0.00     0.124 S 
ATOM     83  O   UNL A   1      46.575  25.656  30.303  1.00  0.00    -0.237 OA
ATOM     84  O   UNL A   1      46.345  24.389  28.192  1.00  0.00    -0.237 OA
ATOM     85  O   UNL A   1      48.260  25.892  28.515  1.00  0.00    -0.744 OA
ENDBRANCH  78  82
ENDBRANCH  51  75
BRANCH  63  86
ATOM     86  C   UNL A   1      42.480  35.946  28.944  1.00  0.00     0.023 A 
ATOM     87  C   UNL A   1      43.182  36.979  29.579  1.00  0.00     0.031 A 
ATOM     88  C   UNL A   1      41.854  36.297  27.719  1.00  0.00     0.131 A 
ATOM     89  C   UNL A   1      43.183  38.289  29.057  1.00  0.00     0.055 A 
ATOM     90  C   UNL A   1      41.925  37.577  27.162  1.00  0.00     0.041 A 
ATOM     91  F   UNL A   1      41.150  35.408  27.003  1.00  0.00    -0.206 F 
ATOM     92  C   UNL A   1      42.580  38.590  27.840  1.00  0.00     0.022 A 
BRANCH  89  93
ATOM     93  S   UNL A   1      43.940  39.607  30.043  1.00  0.00     0.124 S 
ATOM     94  O   UNL A   1      43.481  39.274  31.390  1.00  0.00    -0.237 OA
ATOM     95  O   UNL A   1      45.364  39.408  29.792  1.00  0.00    -0.237 OA
ATOM     96  O   UNL A   1      43.374  40.830  29.480  1.00  0.00    -0.744 OA
ENDBRANCH  89  93
ENDBRANCH  63  86
ENDBRANCH  37  38
ENDBRANCH  29  32
ENDBRANCH  27  28
ENDBRANCH  26  27
ENDBRANCH  25  26
ENDBRANCH   1  25
TORSDOF 20
ENDMDL
MODEL 3
REMARK VINA RESULT:     -11.2      4.192     10.667
REMARK SMILES Cc1ccccc1OCC(=O)c1nc(C)c(C(=O)NCCCCCCNC(=O)c2ccc(-c3c4nc(c(-c5cc(S(=O)(=O)[O-])ccc5F)c5ccc([nH]5)c(-c5cc(S(=O)(=O)[O-])ccc5F)c5nc(c(-c6cc(S(=O)(=O)[O-])ccc6F)c6ccc3[nH]6)C=C5)C=C4)cc2)s1
REMARK SMILES IDX 22 1 21 2 20 3 19 4 17 5 18 6 16 8 12 9 13 10 92 11 14 12
REMARK SMILES IDX 15 13 10 14 11 15 9 16 8 17 7 18 1 19 2 20 3 21 4 22 6 23
REMARK SMILES IDX 5 24 23 25 24 26 25 27 26 28 27 29 28 31 29 32 30 33 91 34
REMARK SMILES IDX 31 35 90 36 32 37 33 38 34 39 84 40 35 41 89 42 83 43 85 44
REMARK SMILES IDX 36 45 88 46 82 47 81 48 37 50 69 51 49 52 68 53 50 54 53 55
REMARK SMILES IDX 67 56 86 57 51 58 52 59 66 61 87 62 54 63 38 64 39 65 47 66
REMARK SMILES IDX 40 67 46 68 48 69 45 70 41 71 42 72 43 73 44 74 70 75 71 76
REMARK SMILES IDX 79 77 72 78 78 79 80 80 77 81 73 82 74 83 75 84 76 85 55 86
REMARK SMILES IDX 56 87 64 88 57 89 63 90 65 91 62 92 58 93 59 94 60 95 61 96
REMARK H PARENT 19 7 26 30 85 49 53 60
REMARK Flexibility Score: inf
ROOT
ATOM      1  C   UNL A   1      34.580  30.907  28.182  1.00  0.00     0.002 C 
ENDROOT
BRANCH   1   2
ATOM      2  C   UNL A   1      35.127  29.495  27.939  1.00  0.00     0.021 C 
BRANCH   2   3
ATOM      3  C   UNL A   1      34.524  28.781  26.727  1.00  0.00     0.116 C 
BRANCH   3   4
ATOM      4  N   UNL A   1      33.386  29.505  26.212  1.00  0.00    -0.351 N 
ATOM      5  C   UNL A   1      32.356  29.201  25.361  1.00  0.00     0.263 C 
ATOM      6  O   UNL A   1      31.536  30.123  25.250  1.00  0.00    -0.268 OA
ATOM      7  H   UNL A   1      33.339  30.429  26.548  1.00  0.00     0.163 HD
BRANCH   5   8
ATOM      8  C   UNL A   1      32.175  27.925  24.671  1.00  0.00     0.115 A 
ATOM      9  C   UNL A   1      32.615  26.138  23.023  1.00  0.00     0.164 A 
ATOM     10  N   UNL A   1      31.633  25.799  23.826  1.00  0.00    -0.237 NA
ATOM     11  S   UNL A   1      33.251  27.681  23.313  1.00  0.00    -0.105 S 
ATOM     12  C   UNL A   1      31.421  26.761  24.811  1.00  0.00     0.062 A 
ATOM     13  C   UNL A   1      30.462  26.320  25.855  1.00  0.00     0.068 C 
BRANCH   9  14
ATOM     14  C   UNL A   1      33.096  25.220  21.996  1.00  0.00     0.228 C 
ATOM     15  O   UNL A   1      33.278  25.571  20.821  1.00  0.00    -0.288 OA
BRANCH  14  16
ATOM     16  C   UNL A   1      33.288  23.735  22.327  1.00  0.00     0.313 C 
BRANCH  16  17
ATOM     17  O   UNL A   1      33.457  23.252  23.633  1.00  0.00    -0.485 OA
BRANCH  17  18
ATOM     18  C   UNL A   1      34.517  22.511  24.054  1.00  0.00     0.122 A 
ATOM     19  C   UNL A   1      33.409  20.492  25.245  1.00  0.00     0.048 C 
ATOM     20  C   UNL A   1      34.575  21.298  24.753  1.00  0.00    -0.009 A 
ATOM     21  C   UNL A   1      35.848  20.731  25.001  1.00  0.00     0.007 A 
ATOM     22  C   UNL A   1      37.029  21.363  24.615  1.00  0.00     0.001 A 
ATOM     23  C   UNL A   1      35.721  23.141  23.684  1.00  0.00     0.047 A 
ATOM     24  C   UNL A   1      36.966  22.581  23.962  1.00  0.00     0.004 A 
ENDBRANCH  17  18
ENDBRANCH  16  17
ENDBRANCH  14  16
ENDBRANCH   9  14
ENDBRANCH   5   8
ENDBRANCH   3   4
ENDBRANCH   2   3
ENDBRANCH   1   2
BRANCH   1  25
ATOM     25  C   UNL A   1      35.425  32.066  27.626  1.00  0.00     0.002 C 
BRANCH  25  26
ATOM     26  C   UNL A   1      35.609  33.264  28.557  1.00  0.00     0.021 C 
BRANCH  26  27
ATOM     27  C   UNL A   1      36.772  33.104  29.529  1.00  0.00     0.116 C 
BRANCH  27  28
ATOM     28  N   UNL A   1      36.383  32.560  30.834  1.00  0.00    -0.352 N 
ATOM     29  C   UNL A   1      36.600  31.300  31.346  1.00  0.00     0.251 C 
ATOM     30  H   UNL A   1      35.899  33.180  31.425  1.00  0.00     0.163 HD
ATOM     31  O   UNL A   1      36.187  30.977  32.446  1.00  0.00    -0.269 OA
BRANCH  29  32
ATOM     32  C   UNL A   1      37.458  30.363  30.574  1.00  0.00     0.039 A 
ATOM     33  C   UNL A   1      37.570  29.051  31.045  1.00  0.00     0.014 A 
ATOM     34  C   UNL A   1      38.297  30.833  29.567  1.00  0.00     0.014 A 
ATOM     35  C   UNL A   1      38.670  28.288  30.667  1.00  0.00     0.010 A 
ATOM     36  C   UNL A   1      39.433  30.110  29.257  1.00  0.00     0.010 A 
ATOM     37  C   UNL A   1      39.651  28.867  29.857  1.00  0.00    -0.014 A 
BRANCH  37  38
ATOM     38  C   UNL A   1      40.986  28.298  29.718  1.00  0.00     0.031 A 
ATOM     39  C   UNL A   1      41.184  26.973  29.099  1.00  0.00     0.074 A 
ATOM     40  C   UNL A   1      42.059  28.951  30.216  1.00  0.00     0.049 A 
ATOM     41  N   UNL A   1      42.075  26.126  29.492  1.00  0.00    -0.248 NA
ATOM     42  C   UNL A   1      40.356  26.481  28.003  1.00  0.00     0.031 C 
ATOM     43  C   UNL A   1      43.465  28.603  30.037  1.00  0.00     0.029 A 
ATOM     44  N   UNL A   1      42.084  29.951  31.173  1.00  0.00    -0.354 N 
ATOM     45  C   UNL A   1      42.123  25.118  28.561  1.00  0.00     0.074 A 
ATOM     46  C   UNL A   1      40.987  25.342  27.694  1.00  0.00     0.031 C 
ATOM     47  C   UNL A   1      44.184  29.187  31.009  1.00  0.00     0.029 A 
ATOM     48  C   UNL A   1      43.254  29.829  31.923  1.00  0.00     0.049 A 
ATOM     49  H   UNL A   1      41.389  30.637  31.304  1.00  0.00     0.167 HD
ATOM     50  C   UNL A   1      43.191  24.276  28.507  1.00  0.00     0.034 A 
ATOM     51  C   UNL A   1      43.221  29.635  33.274  1.00  0.00     0.034 A 
ATOM     52  C   UNL A   1      44.217  24.623  29.480  1.00  0.00     0.049 A 
ATOM     53  C   UNL A   1      43.842  28.325  33.716  1.00  0.00     0.074 A 
ATOM     54  C   UNL A   1      45.387  25.358  29.375  1.00  0.00     0.029 A 
ATOM     55  N   UNL A   1      43.976  24.457  30.838  1.00  0.00    -0.354 N 
ATOM     56  N   UNL A   1      44.117  27.335  32.911  1.00  0.00    -0.248 NA
ATOM     57  C   UNL A   1      44.168  28.016  35.105  1.00  0.00     0.031 C 
ATOM     58  C   UNL A   1      45.821  25.683  30.684  1.00  0.00     0.029 A 
ATOM     59  C   UNL A   1      44.936  25.115  31.584  1.00  0.00     0.049 A 
ATOM     60  H   UNL A   1      43.227  23.941  31.216  1.00  0.00     0.167 HD
ATOM     61  C   UNL A   1      44.602  26.272  33.634  1.00  0.00     0.074 A 
ATOM     62  C   UNL A   1      44.646  26.763  35.000  1.00  0.00     0.031 C 
ATOM     63  C   UNL A   1      44.904  25.078  33.039  1.00  0.00     0.034 A 
BRANCH  50  64
ATOM     64  C   UNL A   1      43.421  23.353  27.341  1.00  0.00     0.023 A 
ATOM     65  C   UNL A   1      42.740  22.122  27.277  1.00  0.00     0.031 A 
ATOM     66  C   UNL A   1      44.318  23.623  26.291  1.00  0.00     0.131 A 
ATOM     67  C   UNL A   1      43.028  21.183  26.273  1.00  0.00     0.055 A 
ATOM     68  C   UNL A   1      44.640  22.669  25.317  1.00  0.00     0.041 A 
ATOM     69  F   UNL A   1      44.907  24.824  26.174  1.00  0.00    -0.206 F 
ATOM     70  C   UNL A   1      44.005  21.435  25.313  1.00  0.00     0.022 A 
BRANCH  67  71
ATOM     71  S   UNL A   1      42.109  19.619  26.248  1.00  0.00     0.124 S 
ATOM     72  O   UNL A   1      42.653  18.958  25.066  1.00  0.00    -0.237 OA
ATOM     73  O   UNL A   1      42.465  19.032  27.536  1.00  0.00    -0.237 OA
ATOM     74  O   UNL A   1      40.716  20.047  26.128  1.00  0.00    -0.744 OA
ENDBRANCH  67  71
ENDBRANCH  50  64
BRANCH  51  75
ATOM     75  C   UNL A   1      42.075  30.302  33.949  1.00  0.00     0.023 A 
ATOM     76  C   UNL A   1      42.195  31.675  34.252  1.00  0.00     0.031 A 
ATOM     77  C   UNL A   1      40.792  29.737  33.955  1.00  0.00     0.131 A 
ATOM     78  C   UNL A   1      41.048  32.463  34.431  1.00  0.00     0.055 A 
ATOM     79  C   UNL A   1      39.652  30.523  34.160  1.00  0.00     0.041 A 
ATOM     80  F   UNL A   1      40.614  28.446  33.641  1.00  0.00    -0.206 F 
ATOM     81  C   UNL A   1      39.774  31.898  34.360  1.00  0.00     0.022 A 
BRANCH  78  82
ATOM     82  S   UNL A   1      41.227  34.268  34.535  1.00  0.00     0.124 S 
ATOM     83  O   UNL A   1      41.337  34.481  35.973  1.00  0.00    -0.237 OA
ATOM     84  O   UNL A   1      42.441  34.517  33.761  1.00  0.00    -0.237 OA
ATOM     85  O   UNL A   1      40.002  34.765  33.916  1.00  0.00    -0.744 OA
ENDBRANCH  78  82
ENDBRANCH  51  75
BRANCH  63  86
ATOM     86  C   UNL A   1      45.277  23.786  33.742  1.00  0.00     0.023 A 
ATOM     87  C   UNL A   1      46.560  23.507  34.231  1.00  0.00     0.031 A 
ATOM     88  C   UNL A   1      44.294  22.799  34.014  1.00  0.00     0.131 A 
ATOM     89  C   UNL A   1      46.846  22.286  34.875  1.00  0.00     0.055 A 
ATOM     90  C   UNL A   1      44.561  21.625  34.725  1.00  0.00     0.041 A 
ATOM     91  F   UNL A   1      43.023  22.934  33.607  1.00  0.00    -0.206 F 
ATOM     92  C   UNL A   1      45.851  21.354  35.148  1.00  0.00     0.022 A 
BRANCH  89  93
ATOM     93  S   UNL A   1      48.571  21.919  35.294  1.00  0.00     0.124 S 
ATOM     94  O   UNL A   1      48.918  23.049  36.152  1.00  0.00    -0.237 OA
ATOM     95  O   UNL A   1      48.463  20.626  35.962  1.00  0.00    -0.237 OA
ATOM     96  O   UNL A   1      49.245  21.895  33.998  1.00  0.00    -0.744 OA
ENDBRANCH  89  93
ENDBRANCH  63  86
ENDBRANCH  37  38
ENDBRANCH  29  32
ENDBRANCH  27  28
ENDBRANCH  26  27
ENDBRANCH  25  26
ENDBRANCH   1  25
TORSDOF 20
ENDMDL
