MODEL 1
REMARK VINA RESULT:     -11.5      0.000      0.000
REMARK SMILES CC(C)c1cc(C2CC[NH+](Cc3c[nH]nc3C(=O)NCCCCCCNC(=O)c3ccc(-c4c5nc(c(-c6cc(S(=O)(=O)[O-])ccc6F)c6ccc([nH]6)c(-c6cc(S(=O)(=O)[O-])ccc6F)c6nc(c(-c7cc(S(=O)(=O)[O-])ccc7F)c7ccc4[nH]7)C=C6)C=C5)cc3)CC2)n[nH]1
REMARK SMILES IDX 22 1 21 2 20 3 19 4 17 5 18 6 16 8 12 9 13 10 14 11 15 12
REMARK SMILES IDX 11 14 10 15 7 16 8 17 93 18 9 19 92 20 6 22 4 23 5 24 95 25
REMARK SMILES IDX 94 26 2 28 1 29 3 30 23 31 24 32 25 33 26 34 27 35 28 37
REMARK SMILES IDX 29 38 30 39 91 40 31 41 90 42 32 43 33 44 34 45 84 46 35 47
REMARK SMILES IDX 89 48 83 49 85 50 36 51 88 52 82 53 81 54 37 56 69 57 49 58
REMARK SMILES IDX 68 59 50 60 53 61 67 62 86 63 51 64 52 65 66 67 87 68 54 69
REMARK SMILES IDX 38 70 39 71 47 72 40 73 46 74 48 75 45 76 41 77 42 78 43 79
REMARK SMILES IDX 44 80 70 81 71 82 79 83 72 84 78 85 80 86 77 87 73 88 74 89
REMARK SMILES IDX 75 90 76 91 55 92 56 93 64 94 57 95 63 96 65 97 62 98 58 99
REMARK SMILES IDX 59 100 60 101 61 102
REMARK H PARENT 19 7 14 13 10 21 95 27 26 36 85 55 53 66
REMARK Flexibility Score: inf
ROOT
ATOM      1  C   UNL A   1      36.756  21.859  24.236  1.00  0.00     0.002 C 
ENDROOT
BRANCH   1   2
ATOM      2  C   UNL A   1      36.329  23.036  25.107  1.00  0.00     0.021 C 
BRANCH   2   3
ATOM      3  C   UNL A   1      35.876  22.678  26.517  1.00  0.00     0.116 C 
BRANCH   3   4
ATOM      4  N   UNL A   1      34.600  23.202  26.881  1.00  0.00    -0.351 N 
ATOM      5  C   UNL A   1      33.345  23.014  26.355  1.00  0.00     0.272 C 
ATOM      6  O   UNL A   1      32.483  23.668  26.961  1.00  0.00    -0.267 OA
ATOM      7  H   UNL A   1      34.624  23.813  27.652  1.00  0.00     0.163 HD
BRANCH   5   8
ATOM      8  C   UNL A   1      32.964  22.139  25.191  1.00  0.00     0.158 A 
ATOM      9  C   UNL A   1      32.999  22.183  23.729  1.00  0.00     0.057 A 
ATOM     10  C   UNL A   1      32.570  20.920  23.341  1.00  0.00     0.115 A 
ATOM     11  N   UNL A   1      32.238  20.247  24.461  1.00  0.00    -0.284 N 
ATOM     12  N   UNL A   1      32.447  20.939  25.568  1.00  0.00    -0.170 NA
ATOM     13  H   UNL A   1      31.875  19.333  24.455  1.00  0.00     0.189 HD
BRANCH   9  14
ATOM     14  C   UNL A   1      33.429  23.196  22.700  1.00  0.00     0.303 C 
BRANCH  14  15
ATOM     15  N   UNL A   1      32.392  24.195  22.332  1.00  0.00    -0.331 N 
ATOM     16  C   UNL A   1      31.077  26.868  22.387  1.00  0.00     0.051 C 
ATOM     17  C   UNL A   1      30.540  25.678  23.183  1.00  0.00     0.071 C 
ATOM     18  C   UNL A   1      31.753  26.333  21.129  1.00  0.00     0.071 C 
ATOM     19  C   UNL A   1      31.620  24.641  23.498  1.00  0.00     0.263 C 
ATOM     20  C   UNL A   1      32.810  25.266  21.420  1.00  0.00     0.263 C 
ATOM     21  H   UNL A   1      31.744  23.684  21.734  1.00  0.00     0.348 HD
BRANCH  16  22
ATOM     22  C   UNL A   1      31.955  27.792  23.195  1.00  0.00     0.066 A 
ATOM     23  C   UNL A   1      33.002  28.895  24.827  1.00  0.00     0.038 A 
ATOM     24  C   UNL A   1      32.099  27.886  24.598  1.00  0.00     0.049 A 
ATOM     25  N   UNL A   1      33.364  29.333  23.584  1.00  0.00    -0.282 N 
ATOM     26  N   UNL A   1      32.744  28.684  22.582  1.00  0.00    -0.180 NA
ATOM     27  H   UNL A   1      34.016  30.055  23.435  1.00  0.00     0.190 HD
BRANCH  23  28
ATOM     28  C   UNL A   1      33.495  29.454  26.121  1.00  0.00     0.031 C 
ATOM     29  C   UNL A   1      32.363  29.953  27.015  1.00  0.00     0.014 C 
ATOM     30  C   UNL A   1      34.374  28.435  26.846  1.00  0.00     0.014 C 
ENDBRANCH  23  28
ENDBRANCH  16  22
ENDBRANCH  14  15
ENDBRANCH   9  14
ENDBRANCH   5   8
ENDBRANCH   3   4
ENDBRANCH   2   3
ENDBRANCH   1   2
BRANCH   1  31
ATOM     31  C   UNL A   1      36.665  20.475  24.886  1.00  0.00     0.002 C 
BRANCH  31  32
ATOM     32  C   UNL A   1      37.960  19.658  24.966  1.00  0.00     0.021 C 
BRANCH  32  33
ATOM     33  C   UNL A   1      39.110  20.282  25.753  1.00  0.00     0.116 C 
BRANCH  33  34
ATOM     34  N   UNL A   1      40.224  19.371  25.929  1.00  0.00    -0.352 N 
ATOM     35  C   UNL A   1      41.549  19.624  26.160  1.00  0.00     0.251 C 
ATOM     36  H   UNL A   1      39.990  18.417  25.874  1.00  0.00     0.163 HD
ATOM     37  O   UNL A   1      42.349  18.684  26.109  1.00  0.00    -0.269 OA
BRANCH  35  38
ATOM     38  C   UNL A   1      42.038  20.991  26.448  1.00  0.00     0.039 A 
ATOM     39  C   UNL A   1      42.252  21.860  25.371  1.00  0.00     0.014 A 
ATOM     40  C   UNL A   1      42.345  21.411  27.746  1.00  0.00     0.014 A 
ATOM     41  C   UNL A   1      42.733  23.152  25.597  1.00  0.00     0.010 A 
ATOM     42  C   UNL A   1      42.763  22.722  27.977  1.00  0.00     0.010 A 
ATOM     43  C   UNL A   1      42.974  23.603  26.904  1.00  0.00    -0.014 A 
BRANCH  43  44
ATOM     44  C   UNL A   1      43.478  24.979  27.156  1.00  0.00     0.031 A 
ATOM     45  C   UNL A   1      42.555  26.032  27.709  1.00  0.00     0.074 A 
ATOM     46  C   UNL A   1      44.754  25.292  26.853  1.00  0.00     0.049 A 
ATOM     47  N   UNL A   1      42.789  27.297  27.950  1.00  0.00    -0.248 NA
ATOM     48  C   UNL A   1      41.179  25.609  28.004  1.00  0.00     0.031 C 
ATOM     49  C   UNL A   1      45.736  24.368  26.280  1.00  0.00     0.029 A 
ATOM     50  N   UNL A   1      45.444  26.471  26.978  1.00  0.00    -0.354 N 
ATOM     51  C   UNL A   1      41.586  27.825  28.411  1.00  0.00     0.074 A 
ATOM     52  C   UNL A   1      40.614  26.754  28.359  1.00  0.00     0.031 C 
ATOM     53  C   UNL A   1      46.904  25.010  26.125  1.00  0.00     0.029 A 
ATOM     54  C   UNL A   1      46.748  26.398  26.548  1.00  0.00     0.049 A 
ATOM     55  H   UNL A   1      45.042  27.293  27.341  1.00  0.00     0.167 HD
ATOM     56  C   UNL A   1      41.323  29.080  28.857  1.00  0.00     0.034 A 
ATOM     57  C   UNL A   1      47.707  27.343  26.494  1.00  0.00     0.034 A 
ATOM     58  C   UNL A   1      42.308  30.134  28.917  1.00  0.00     0.049 A 
ATOM     59  C   UNL A   1      47.391  28.731  26.989  1.00  0.00     0.074 A 
ATOM     60  C   UNL A   1      42.163  31.427  29.391  1.00  0.00     0.029 A 
ATOM     61  N   UNL A   1      43.624  30.018  28.483  1.00  0.00    -0.354 N 
ATOM     62  N   UNL A   1      46.261  29.204  27.461  1.00  0.00    -0.248 NA
ATOM     63  C   UNL A   1      48.487  29.709  26.960  1.00  0.00     0.031 C 
ATOM     64  C   UNL A   1      43.369  32.108  29.190  1.00  0.00     0.029 A 
ATOM     65  C   UNL A   1      44.292  31.221  28.659  1.00  0.00     0.049 A 
ATOM     66  H   UNL A   1      44.023  29.202  28.107  1.00  0.00     0.167 HD
ATOM     67  C   UNL A   1      46.521  30.525  27.816  1.00  0.00     0.074 A 
ATOM     68  C   UNL A   1      47.917  30.768  27.515  1.00  0.00     0.031 C 
ATOM     69  C   UNL A   1      45.682  31.452  28.346  1.00  0.00     0.034 A 
BRANCH  56  70
ATOM     70  C   UNL A   1      39.906  29.379  29.288  1.00  0.00     0.023 A 
ATOM     71  C   UNL A   1      39.562  29.538  30.642  1.00  0.00     0.031 A 
ATOM     72  C   UNL A   1      38.875  29.471  28.335  1.00  0.00     0.131 A 
ATOM     73  C   UNL A   1      38.218  29.697  31.012  1.00  0.00     0.055 A 
ATOM     74  C   UNL A   1      37.550  29.715  28.703  1.00  0.00     0.041 A 
ATOM     75  F   UNL A   1      39.136  29.311  27.028  1.00  0.00    -0.206 F 
ATOM     76  C   UNL A   1      37.212  29.811  30.050  1.00  0.00     0.022 A 
BRANCH  73  77
ATOM     77  S   UNL A   1      37.787  29.599  32.771  1.00  0.00     0.124 S 
ATOM     78  O   UNL A   1      36.699  30.570  32.862  1.00  0.00    -0.237 OA
ATOM     79  O   UNL A   1      37.409  28.200  32.926  1.00  0.00    -0.237 OA
ATOM     80  O   UNL A   1      39.020  29.992  33.449  1.00  0.00    -0.744 OA
ENDBRANCH  73  77
ENDBRANCH  56  70
BRANCH  57  81
ATOM     81  C   UNL A   1      49.057  27.018  25.951  1.00  0.00     0.023 A 
ATOM     82  C   UNL A   1      49.430  27.410  24.655  1.00  0.00     0.031 A 
ATOM     83  C   UNL A   1      49.981  26.276  26.707  1.00  0.00     0.131 A 
ATOM     84  C   UNL A   1      50.672  27.017  24.136  1.00  0.00     0.055 A 
ATOM     85  C   UNL A   1      51.237  25.931  26.205  1.00  0.00     0.041 A 
ATOM     86  F   UNL A   1      49.677  25.883  27.954  1.00  0.00    -0.206 F 
ATOM     87  C   UNL A   1      51.584  26.291  24.906  1.00  0.00     0.022 A 
BRANCH  84  88
ATOM     88  S   UNL A   1      51.051  27.403  22.404  1.00  0.00     0.124 S 
ATOM     89  O   UNL A   1      51.116  28.859  22.431  1.00  0.00    -0.237 OA
ATOM     90  O   UNL A   1      52.319  26.706  22.211  1.00  0.00    -0.237 OA
ATOM     91  O   UNL A   1      49.917  26.841  21.675  1.00  0.00    -0.744 OA
ENDBRANCH  84  88
ENDBRANCH  57  81
BRANCH  69  92
ATOM     92  C   UNL A   1      46.278  32.798  28.681  1.00  0.00     0.023 A 
ATOM     93  C   UNL A   1      46.341  33.837  27.736  1.00  0.00     0.031 A 
ATOM     94  C   UNL A   1      46.812  33.034  29.961  1.00  0.00     0.131 A 
ATOM     95  C   UNL A   1      46.978  35.044  28.067  1.00  0.00     0.055 A 
ATOM     96  C   UNL A   1      47.391  34.256  30.302  1.00  0.00     0.041 A 
ATOM     97  F   UNL A   1      46.780  32.075  30.901  1.00  0.00    -0.206 F 
ATOM     98  C   UNL A   1      47.490  35.264  29.347  1.00  0.00     0.022 A 
BRANCH  95  99
ATOM     99  S   UNL A   1      47.216  36.286  26.767  1.00  0.00     0.124 S 
ATOM    100  O   UNL A   1      46.202  37.280  27.106  1.00  0.00    -0.237 OA
ATOM    101  O   UNL A   1      48.601  36.693  26.974  1.00  0.00    -0.237 OA
ATOM    102  O   UNL A   1      46.968  35.543  25.533  1.00  0.00    -0.744 OA
ENDBRANCH  95  99
ENDBRANCH  69  92
ENDBRANCH  43  44
ENDBRANCH  35  38
ENDBRANCH  33  34
ENDBRANCH  32  33
ENDBRANCH  31  32
ENDBRANCH   1  31
TORSDOF 20
ENDMDL
MODEL 2
REMARK VINA RESULT:     -11.2      1.254      2.082
REMARK SMILES CC(C)c1cc(C2CC[NH+](Cc3c[nH]nc3C(=O)NCCCCCCNC(=O)c3ccc(-c4c5nc(c(-c6cc(S(=O)(=O)[O-])ccc6F)c6ccc([nH]6)c(-c6cc(S(=O)(=O)[O-])ccc6F)c6nc(c(-c7cc(S(=O)(=O)[O-])ccc7F)c7ccc4[nH]7)C=C6)C=C5)cc3)CC2)n[nH]1
REMARK SMILES IDX 22 1 21 2 20 3 19 4 17 5 18 6 16 8 12 9 13 10 14 11 15 12
REMARK SMILES IDX 11 14 10 15 7 16 8 17 93 18 9 19 92 20 6 22 4 23 5 24 95 25
REMARK SMILES IDX 94 26 2 28 1 29 3 30 23 31 24 32 25 33 26 34 27 35 28 37
REMARK SMILES IDX 29 38 30 39 91 40 31 41 90 42 32 43 33 44 34 45 84 46 35 47
REMARK SMILES IDX 89 48 83 49 85 50 36 51 88 52 82 53 81 54 37 56 69 57 49 58
REMARK SMILES IDX 68 59 50 60 53 61 67 62 86 63 51 64 52 65 66 67 87 68 54 69
REMARK SMILES IDX 38 70 39 71 47 72 40 73 46 74 48 75 45 76 41 77 42 78 43 79
REMARK SMILES IDX 44 80 70 81 71 82 79 83 72 84 78 85 80 86 77 87 73 88 74 89
REMARK SMILES IDX 75 90 76 91 55 92 56 93 64 94 57 95 63 96 65 97 62 98 58 99
REMARK SMILES IDX 59 100 60 101 61 102
REMARK H PARENT 19 7 14 13 10 21 95 27 26 36 85 55 53 66
REMARK Flexibility Score: inf
ROOT
ATOM      1  C   UNL A   1      37.014  21.998  25.411  1.00  0.00     0.002 C 
ENDROOT
BRANCH   1   2
ATOM      2  C   UNL A   1      35.656  21.843  26.087  1.00  0.00     0.021 C 
BRANCH   2   3
ATOM      3  C   UNL A   1      34.674  20.918  25.381  1.00  0.00     0.116 C 
BRANCH   3   4
ATOM      4  N   UNL A   1      33.301  21.204  25.640  1.00  0.00    -0.351 N 
ATOM      5  C   UNL A   1      32.427  22.104  25.079  1.00  0.00     0.272 C 
ATOM      6  O   UNL A   1      31.302  22.048  25.599  1.00  0.00    -0.267 OA
ATOM      7  H   UNL A   1      32.905  20.654  26.355  1.00  0.00     0.163 HD
BRANCH   5   8
ATOM      8  C   UNL A   1      32.707  23.075  23.964  1.00  0.00     0.158 A 
ATOM      9  C   UNL A   1      33.219  24.436  23.798  1.00  0.00     0.057 A 
ATOM     10  C   UNL A   1      33.298  24.604  22.422  1.00  0.00     0.115 A 
ATOM     11  N   UNL A   1      32.800  23.489  21.852  1.00  0.00    -0.284 N 
ATOM     12  N   UNL A   1      32.433  22.571  22.732  1.00  0.00    -0.170 NA
ATOM     13  H   UNL A   1      32.718  23.369  20.879  1.00  0.00     0.189 HD
BRANCH   9  14
ATOM     14  C   UNL A   1      33.684  25.523  24.732  1.00  0.00     0.303 C 
BRANCH  14  15
ATOM     15  N   UNL A   1      32.675  26.575  25.022  1.00  0.00    -0.331 N 
ATOM     16  C   UNL A   1      31.723  29.173  26.128  1.00  0.00     0.051 C 
ATOM     17  C   UNL A   1      31.452  27.840  26.827  1.00  0.00     0.071 C 
ATOM     18  C   UNL A   1      31.790  28.917  24.626  1.00  0.00     0.071 C 
ATOM     19  C   UNL A   1      32.476  26.762  26.464  1.00  0.00     0.263 C 
ATOM     20  C   UNL A   1      32.780  27.815  24.246  1.00  0.00     0.263 C 
ATOM     21  H   UNL A   1      31.800  26.200  24.656  1.00  0.00     0.348 HD
BRANCH  16  22
ATOM     22  C   UNL A   1      32.926  29.907  26.667  1.00  0.00     0.066 A 
ATOM     23  C   UNL A   1      34.312  31.374  27.616  1.00  0.00     0.038 A 
ATOM     24  C   UNL A   1      32.984  31.134  27.367  1.00  0.00     0.049 A 
ATOM     25  N   UNL A   1      34.970  30.300  27.087  1.00  0.00    -0.282 N 
ATOM     26  N   UNL A   1      34.156  29.401  26.506  1.00  0.00    -0.180 NA
ATOM     27  H   UNL A   1      35.949  30.194  27.126  1.00  0.00     0.190 HD
BRANCH  23  28
ATOM     28  C   UNL A   1      34.958  32.545  28.283  1.00  0.00     0.031 C 
ATOM     29  C   UNL A   1      34.236  33.858  27.994  1.00  0.00     0.014 C 
ATOM     30  C   UNL A   1      35.092  32.298  29.785  1.00  0.00     0.014 C 
ENDBRANCH  23  28
ENDBRANCH  16  22
ENDBRANCH  14  15
ENDBRANCH   9  14
ENDBRANCH   5   8
ENDBRANCH   3   4
ENDBRANCH   2   3
ENDBRANCH   1   2
BRANCH   1  31
ATOM     31  C   UNL A   1      37.401  20.894  24.421  1.00  0.00     0.002 C 
BRANCH  31  32
ATOM     32  C   UNL A   1      38.256  19.742  24.963  1.00  0.00     0.021 C 
BRANCH  32  33
ATOM     33  C   UNL A   1      39.303  20.108  26.011  1.00  0.00     0.116 C 
BRANCH  33  34
ATOM     34  N   UNL A   1      40.430  19.196  26.015  1.00  0.00    -0.352 N 
ATOM     35  C   UNL A   1      41.775  19.447  26.068  1.00  0.00     0.251 C 
ATOM     36  H   UNL A   1      40.190  18.242  25.972  1.00  0.00     0.163 HD
ATOM     37  O   UNL A   1      42.559  18.509  25.888  1.00  0.00    -0.269 OA
BRANCH  35  38
ATOM     38  C   UNL A   1      42.300  20.808  26.314  1.00  0.00     0.039 A 
ATOM     39  C   UNL A   1      42.558  21.192  27.635  1.00  0.00     0.014 A 
ATOM     40  C   UNL A   1      42.485  21.729  25.278  1.00  0.00     0.014 A 
ATOM     41  C   UNL A   1      43.034  22.476  27.913  1.00  0.00     0.010 A 
ATOM     42  C   UNL A   1      43.022  22.988  25.549  1.00  0.00     0.010 A 
ATOM     43  C   UNL A   1      43.290  23.380  26.870  1.00  0.00    -0.014 A 
BRANCH  43  44
ATOM     44  C   UNL A   1      43.805  24.746  27.155  1.00  0.00     0.031 A 
ATOM     45  C   UNL A   1      42.888  25.796  27.723  1.00  0.00     0.074 A 
ATOM     46  C   UNL A   1      45.086  25.053  26.868  1.00  0.00     0.049 A 
ATOM     47  N   UNL A   1      43.131  27.053  27.993  1.00  0.00    -0.248 NA
ATOM     48  C   UNL A   1      41.505  25.380  27.999  1.00  0.00     0.031 C 
ATOM     49  C   UNL A   1      46.063  24.131  26.283  1.00  0.00     0.029 A 
ATOM     50  N   UNL A   1      45.786  26.223  27.023  1.00  0.00    -0.354 N 
ATOM     51  C   UNL A   1      41.931  27.583  28.456  1.00  0.00     0.074 A 
ATOM     52  C   UNL A   1      40.949  26.523  28.374  1.00  0.00     0.031 C 
ATOM     53  C   UNL A   1      47.238  24.765  26.150  1.00  0.00     0.029 A 
ATOM     54  C   UNL A   1      47.093  26.146  26.602  1.00  0.00     0.049 A 
ATOM     55  H   UNL A   1      45.389  27.041  27.401  1.00  0.00     0.167 HD
ATOM     56  C   UNL A   1      41.676  28.831  28.927  1.00  0.00     0.034 A 
ATOM     57  C   UNL A   1      48.061  27.082  26.575  1.00  0.00     0.034 A 
ATOM     58  C   UNL A   1      42.671  29.873  29.016  1.00  0.00     0.049 A 
ATOM     59  C   UNL A   1      47.755  28.463  27.098  1.00  0.00     0.074 A 
ATOM     60  C   UNL A   1      42.534  31.157  29.517  1.00  0.00     0.029 A 
ATOM     61  N   UNL A   1      43.988  29.754  28.590  1.00  0.00    -0.354 N 
ATOM     62  N   UNL A   1      46.625  28.936  27.571  1.00  0.00    -0.248 NA
ATOM     63  C   UNL A   1      48.861  29.430  27.097  1.00  0.00     0.031 C 
ATOM     64  C   UNL A   1      43.749  31.831  29.339  1.00  0.00     0.029 A 
ATOM     65  C   UNL A   1      44.666  30.947  28.797  1.00  0.00     0.049 A 
ATOM     66  H   UNL A   1      44.383  28.942  28.200  1.00  0.00     0.167 HD
ATOM     67  C   UNL A   1      46.895  30.246  27.956  1.00  0.00     0.074 A 
ATOM     68  C   UNL A   1      48.296  30.482  27.671  1.00  0.00     0.031 C 
ATOM     69  C   UNL A   1      46.062  31.170  28.499  1.00  0.00     0.034 A 
BRANCH  56  70
ATOM     70  C   UNL A   1      40.259  29.134  29.353  1.00  0.00     0.023 A 
ATOM     71  C   UNL A   1      39.863  29.075  30.701  1.00  0.00     0.031 A 
ATOM     72  C   UNL A   1      39.278  29.452  28.395  1.00  0.00     0.131 A 
ATOM     73  C   UNL A   1      38.514  29.248  31.045  1.00  0.00     0.055 A 
ATOM     74  C   UNL A   1      37.953  29.707  28.754  1.00  0.00     0.041 A 
ATOM     75  F   UNL A   1      39.589  29.507  27.091  1.00  0.00    -0.206 F 
ATOM     76  C   UNL A   1      37.559  29.587  30.084  1.00  0.00     0.022 A 
BRANCH  73  77
ATOM     77  S   UNL A   1      37.999  28.871  32.744  1.00  0.00     0.124 S 
ATOM     78  O   UNL A   1      38.119  27.416  32.772  1.00  0.00    -0.237 OA
ATOM     79  O   UNL A   1      38.972  29.609  33.539  1.00  0.00    -0.237 OA
ATOM     80  O   UNL A   1      36.629  29.377  32.807  1.00  0.00    -0.744 OA
ENDBRANCH  73  77
ENDBRANCH  56  70
BRANCH  57  81
ATOM     81  C   UNL A   1      49.413  26.756  26.035  1.00  0.00     0.023 A 
ATOM     82  C   UNL A   1      49.803  27.182  24.756  1.00  0.00     0.031 A 
ATOM     83  C   UNL A   1      50.318  25.978  26.777  1.00  0.00     0.131 A 
ATOM     84  C   UNL A   1      51.046  26.789  24.238  1.00  0.00     0.055 A 
ATOM     85  C   UNL A   1      51.574  25.631  26.277  1.00  0.00     0.041 A 
ATOM     86  F   UNL A   1      49.997  25.551  28.009  1.00  0.00    -0.206 F 
ATOM     87  C   UNL A   1      51.939  26.026  24.993  1.00  0.00     0.022 A 
BRANCH  84  88
ATOM     88  S   UNL A   1      51.447  27.222  22.522  1.00  0.00     0.124 S 
ATOM     89  O   UNL A   1      51.627  28.666  22.615  1.00  0.00    -0.237 OA
ATOM     90  O   UNL A   1      52.655  26.437  22.288  1.00  0.00    -0.237 OA
ATOM     91  O   UNL A   1      50.269  26.786  21.777  1.00  0.00    -0.744 OA
ENDBRANCH  84  88
ENDBRANCH  57  81
BRANCH  69  92
ATOM     92  C   UNL A   1      46.668  32.503  28.868  1.00  0.00     0.023 A 
ATOM     93  C   UNL A   1      46.648  33.596  27.983  1.00  0.00     0.031 A 
ATOM     94  C   UNL A   1      47.295  32.672  30.115  1.00  0.00     0.131 A 
ATOM     95  C   UNL A   1      47.297  34.790  28.336  1.00  0.00     0.055 A 
ATOM     96  C   UNL A   1      47.885  33.881  30.484  1.00  0.00     0.041 A 
ATOM     97  F   UNL A   1      47.343  31.660  30.997  1.00  0.00    -0.206 F 
ATOM     98  C   UNL A   1      47.902  34.944  29.585  1.00  0.00     0.022 A 
BRANCH  95  99
ATOM     99  S   UNL A   1      47.424  36.109  27.097  1.00  0.00     0.124 S 
ATOM    100  O   UNL A   1      48.821  36.512  27.223  1.00  0.00    -0.237 OA
ATOM    101  O   UNL A   1      47.070  35.414  25.864  1.00  0.00    -0.237 OA
ATOM    102  O   UNL A   1      46.450  37.100  27.549  1.00  0.00    -0.744 OA
ENDBRANCH  95  99
ENDBRANCH  69  92
ENDBRANCH  43  44
ENDBRANCH  35  38
ENDBRANCH  33  34
ENDBRANCH  32  33
ENDBRANCH  31  32
ENDBRANCH   1  31
TORSDOF 20
ENDMDL
MODEL 3
REMARK VINA RESULT:     -11.2      5.834     10.389
REMARK SMILES CC(C)c1cc(C2CC[NH+](Cc3c[nH]nc3C(=O)NCCCCCCNC(=O)c3ccc(-c4c5nc(c(-c6cc(S(=O)(=O)[O-])ccc6F)c6ccc([nH]6)c(-c6cc(S(=O)(=O)[O-])ccc6F)c6nc(c(-c7cc(S(=O)(=O)[O-])ccc7F)c7ccc4[nH]7)C=C6)C=C5)cc3)CC2)n[nH]1
REMARK SMILES IDX 22 1 21 2 20 3 19 4 17 5 18 6 16 8 12 9 13 10 14 11 15 12
REMARK SMILES IDX 11 14 10 15 7 16 8 17 93 18 9 19 92 20 6 22 4 23 5 24 95 25
REMARK SMILES IDX 94 26 2 28 1 29 3 30 23 31 24 32 25 33 26 34 27 35 28 37
REMARK SMILES IDX 29 38 30 39 91 40 31 41 90 42 32 43 33 44 34 45 84 46 35 47
REMARK SMILES IDX 89 48 83 49 85 50 36 51 88 52 82 53 81 54 37 56 69 57 49 58
REMARK SMILES IDX 68 59 50 60 53 61 67 62 86 63 51 64 52 65 66 67 87 68 54 69
REMARK SMILES IDX 38 70 39 71 47 72 40 73 46 74 48 75 45 76 41 77 42 78 43 79
REMARK SMILES IDX 44 80 70 81 71 82 79 83 72 84 78 85 80 86 77 87 73 88 74 89
REMARK SMILES IDX 75 90 76 91 55 92 56 93 64 94 57 95 63 96 65 97 62 98 58 99
REMARK SMILES IDX 59 100 60 101 61 102
REMARK H PARENT 19 7 14 13 10 21 95 27 26 36 85 55 53 66
REMARK Flexibility Score: inf
ROOT
ATOM      1  C   UNL A   1      34.557  31.730  28.722  1.00  0.00     0.002 C 
ENDROOT
BRANCH   1   2
ATOM      2  C   UNL A   1      34.735  30.923  27.441  1.00  0.00     0.021 C 
BRANCH   2   3
ATOM      3  C   UNL A   1      34.696  29.410  27.608  1.00  0.00     0.116 C 
BRANCH   3   4
ATOM      4  N   UNL A   1      33.411  28.882  27.932  1.00  0.00    -0.351 N 
ATOM      5  C   UNL A   1      32.322  28.571  27.155  1.00  0.00     0.272 C 
ATOM      6  O   UNL A   1      31.376  28.137  27.831  1.00  0.00    -0.267 OA
ATOM      7  H   UNL A   1      33.280  28.709  28.893  1.00  0.00     0.163 HD
BRANCH   5   8
ATOM      8  C   UNL A   1      32.198  28.702  25.661  1.00  0.00     0.158 A 
ATOM      9  C   UNL A   1      32.647  27.999  24.458  1.00  0.00     0.057 A 
ATOM     10  C   UNL A   1      32.018  28.670  23.417  1.00  0.00     0.115 A 
ATOM     11  N   UNL A   1      31.348  29.708  23.957  1.00  0.00    -0.284 N 
ATOM     12  N   UNL A   1      31.440  29.762  25.275  1.00  0.00    -0.170 NA
ATOM     13  H   UNL A   1      30.840  30.360  23.423  1.00  0.00     0.189 HD
BRANCH   9  14
ATOM     14  C   UNL A   1      33.501  26.788  24.185  1.00  0.00     0.303 C 
BRANCH  14  15
ATOM     15  N   UNL A   1      32.776  25.628  23.602  1.00  0.00    -0.331 N 
ATOM     16  C   UNL A   1      32.324  22.741  23.021  1.00  0.00     0.051 C 
ATOM     17  C   UNL A   1      32.900  23.703  21.980  1.00  0.00     0.071 C 
ATOM     18  C   UNL A   1      31.392  23.531  23.935  1.00  0.00     0.071 C 
ATOM     19  C   UNL A   1      33.590  24.914  22.611  1.00  0.00     0.263 C 
ATOM     20  C   UNL A   1      32.053  24.768  24.545  1.00  0.00     0.263 C 
ATOM     21  H   UNL A   1      31.997  26.042  23.092  1.00  0.00     0.348 HD
BRANCH  16  22
ATOM     22  C   UNL A   1      33.375  21.956  23.767  1.00  0.00     0.066 A 
ATOM     23  C   UNL A   1      35.243  21.255  24.764  1.00  0.00     0.038 A 
ATOM     24  C   UNL A   1      34.695  22.329  24.107  1.00  0.00     0.049 A 
ATOM     25  N   UNL A   1      34.247  20.321  24.803  1.00  0.00    -0.282 N 
ATOM     26  N   UNL A   1      33.110  20.718  24.206  1.00  0.00    -0.180 NA
ATOM     27  H   UNL A   1      34.353  19.438  25.228  1.00  0.00     0.190 HD
BRANCH  23  28
ATOM     28  C   UNL A   1      36.623  21.077  25.308  1.00  0.00     0.031 C 
ATOM     29  C   UNL A   1      37.248  19.746  24.902  1.00  0.00     0.014 C 
ATOM     30  C   UNL A   1      37.511  22.257  24.913  1.00  0.00     0.014 C 
ENDBRANCH  23  28
ENDBRANCH  16  22
ENDBRANCH  14  15
ENDBRANCH   9  14
ENDBRANCH   5   8
ENDBRANCH   3   4
ENDBRANCH   2   3
ENDBRANCH   1   2
BRANCH   1  31
ATOM     31  C   UNL A   1      34.794  33.240  28.603  1.00  0.00     0.002 C 
BRANCH  31  32
ATOM     32  C   UNL A   1      33.552  34.130  28.472  1.00  0.00     0.021 C 
BRANCH  32  33
ATOM     33  C   UNL A   1      33.670  35.546  29.028  1.00  0.00     0.116 C 
BRANCH  33  34
ATOM     34  N   UNL A   1      32.872  35.745  30.222  1.00  0.00    -0.352 N 
ATOM     35  C   UNL A   1      33.028  35.246  31.487  1.00  0.00     0.251 C 
ATOM     36  H   UNL A   1      32.091  36.334  30.104  1.00  0.00     0.163 HD
ATOM     37  O   UNL A   1      32.120  35.420  32.307  1.00  0.00    -0.269 OA
BRANCH  35  38
ATOM     38  C   UNL A   1      34.240  34.494  31.879  1.00  0.00     0.039 A 
ATOM     39  C   UNL A   1      35.478  35.141  31.800  1.00  0.00     0.014 A 
ATOM     40  C   UNL A   1      34.186  33.150  32.264  1.00  0.00     0.014 A 
ATOM     41  C   UNL A   1      36.649  34.460  32.141  1.00  0.00     0.010 A 
ATOM     42  C   UNL A   1      35.348  32.491  32.666  1.00  0.00     0.010 A 
ATOM     43  C   UNL A   1      36.594  33.134  32.596  1.00  0.00    -0.014 A 
BRANCH  43  44
ATOM     44  C   UNL A   1      37.834  32.403  32.970  1.00  0.00     0.031 A 
ATOM     45  C   UNL A   1      38.513  32.689  34.282  1.00  0.00     0.074 A 
ATOM     46  C   UNL A   1      38.369  31.510  32.113  1.00  0.00     0.049 A 
ATOM     47  N   UNL A   1      39.625  32.197  34.766  1.00  0.00    -0.248 NA
ATOM     48  C   UNL A   1      37.868  33.682  35.153  1.00  0.00     0.031 C 
ATOM     49  C   UNL A   1      37.823  31.171  30.797  1.00  0.00     0.029 A 
ATOM     50  N   UNL A   1      39.493  30.728  32.216  1.00  0.00    -0.354 N 
ATOM     51  C   UNL A   1      39.820  32.829  35.991  1.00  0.00     0.074 A 
ATOM     52  C   UNL A   1      38.742  33.782  36.144  1.00  0.00     0.031 C 
ATOM     53  C   UNL A   1      38.599  30.237  30.227  1.00  0.00     0.029 A 
ATOM     54  C   UNL A   1      39.719  29.936  31.115  1.00  0.00     0.049 A 
ATOM     55  H   UNL A   1      40.082  30.735  33.005  1.00  0.00     0.167 HD
ATOM     56  C   UNL A   1      40.796  32.620  36.912  1.00  0.00     0.034 A 
ATOM     57  C   UNL A   1      40.717  29.072  30.848  1.00  0.00     0.034 A 
ATOM     58  C   UNL A   1      41.857  31.654  36.750  1.00  0.00     0.049 A 
ATOM     59  C   UNL A   1      41.793  28.858  31.882  1.00  0.00     0.074 A 
ATOM     60  C   UNL A   1      42.871  31.328  37.635  1.00  0.00     0.029 A 
ATOM     61  N   UNL A   1      42.047  30.861  35.625  1.00  0.00    -0.354 N 
ATOM     62  N   UNL A   1      41.940  29.434  33.053  1.00  0.00    -0.248 NA
ATOM     63  C   UNL A   1      42.827  27.865  31.564  1.00  0.00     0.031 C 
ATOM     64  C   UNL A   1      43.704  30.384  37.024  1.00  0.00     0.029 A 
ATOM     65  C   UNL A   1      43.171  30.064  35.786  1.00  0.00     0.049 A 
ATOM     66  H   UNL A   1      41.467  30.863  34.830  1.00  0.00     0.167 HD
ATOM     67  C   UNL A   1      43.066  28.847  33.624  1.00  0.00     0.074 A 
ATOM     68  C   UNL A   1      43.549  27.865  32.675  1.00  0.00     0.031 C 
ATOM     69  C   UNL A   1      43.646  29.095  34.827  1.00  0.00     0.034 A 
BRANCH  56  70
ATOM     70  C   UNL A   1      40.767  33.473  38.158  1.00  0.00     0.023 A 
ATOM     71  C   UNL A   1      40.041  33.089  39.299  1.00  0.00     0.031 A 
ATOM     72  C   UNL A   1      41.445  34.705  38.195  1.00  0.00     0.131 A 
ATOM     73  C   UNL A   1      39.941  33.962  40.394  1.00  0.00     0.055 A 
ATOM     74  C   UNL A   1      41.411  35.531  39.321  1.00  0.00     0.041 A 
ATOM     75  F   UNL A   1      42.140  35.135  37.131  1.00  0.00    -0.206 F 
ATOM     76  C   UNL A   1      40.641  35.170  40.423  1.00  0.00     0.022 A 
BRANCH  73  77
ATOM     77  S   UNL A   1      38.761  33.564  41.714  1.00  0.00     0.124 S 
ATOM     78  O   UNL A   1      37.540  34.194  41.217  1.00  0.00    -0.237 OA
ATOM     79  O   UNL A   1      38.773  32.106  41.717  1.00  0.00    -0.237 OA
ATOM     80  O   UNL A   1      39.343  34.195  42.896  1.00  0.00    -0.744 OA
ENDBRANCH  73  77
ENDBRANCH  56  70
BRANCH  57  81
ATOM     81  C   UNL A   1      40.755  28.341  29.549  1.00  0.00     0.023 A 
ATOM     82  C   UNL A   1      41.706  28.659  28.567  1.00  0.00     0.031 A 
ATOM     83  C   UNL A   1      39.813  27.339  29.256  1.00  0.00     0.131 A 
ATOM     84  C   UNL A   1      41.667  28.017  27.320  1.00  0.00     0.055 A 
ATOM     85  C   UNL A   1      39.810  26.667  28.032  1.00  0.00     0.041 A 
ATOM     86  F   UNL A   1      38.887  26.991  30.162  1.00  0.00    -0.206 F 
ATOM     87  C   UNL A   1      40.732  27.014  27.050  1.00  0.00     0.022 A 
BRANCH  84  88
ATOM     88  S   UNL A   1      42.808  28.568  26.022  1.00  0.00     0.124 S 
ATOM     89  O   UNL A   1      44.019  27.829  26.357  1.00  0.00    -0.237 OA
ATOM     90  O   UNL A   1      42.111  28.148  24.811  1.00  0.00    -0.237 OA
ATOM     91  O   UNL A   1      42.881  30.013  26.226  1.00  0.00    -0.744 OA
ENDBRANCH  84  88
ENDBRANCH  57  81
BRANCH  69  92
ATOM     92  C   UNL A   1      44.838  28.246  35.197  1.00  0.00     0.023 A 
ATOM     93  C   UNL A   1      44.690  26.980  35.793  1.00  0.00     0.031 A 
ATOM     94  C   UNL A   1      46.141  28.722  34.971  1.00  0.00     0.131 A 
ATOM     95  C   UNL A   1      45.827  26.262  36.197  1.00  0.00     0.055 A 
ATOM     96  C   UNL A   1      47.268  27.977  35.319  1.00  0.00     0.041 A 
ATOM     97  F   UNL A   1      46.339  29.925  34.406  1.00  0.00    -0.206 F 
ATOM     98  C   UNL A   1      47.114  26.746  35.950  1.00  0.00     0.022 A 
BRANCH  95  99
ATOM     99  S   UNL A   1      45.598  24.729  37.138  1.00  0.00     0.124 S 
ATOM    100  O   UNL A   1      46.430  23.788  36.395  1.00  0.00    -0.237 OA
ATOM    101  O   UNL A   1      46.084  25.101  38.463  1.00  0.00    -0.237 OA
ATOM    102  O   UNL A   1      44.159  24.486  37.054  1.00  0.00    -0.744 OA
ENDBRANCH  95  99
ENDBRANCH  69  92
ENDBRANCH  43  44
ENDBRANCH  35  38
ENDBRANCH  33  34
ENDBRANCH  32  33
ENDBRANCH  31  32
ENDBRANCH   1  31
TORSDOF 20
ENDMDL
