MODEL 1
REMARK VINA RESULT:     -11.9      0.000      0.000
REMARK SMILES CC(C)[C@H](C)CNC(=O)N1CC(n2cc(C(=O)NCCCCCCNC(=O)c3ccc(-c4c5nc(c(-c6cc(S(=O)(=O)[O-])ccc6F)c6ccc([nH]6)c(-c6cc(S(=O)(=O)[O-])ccc6F)c6nc(c(-c7cc(S(=O)(=O)[O-])ccc7F)c7ccc4[nH]7)C=C6)C=C5)cc3)nn2)C1
REMARK SMILES IDX 21 1 20 2 19 3 18 4 16 5 17 6 15 8 13 9 14 10 92 11 91 12
REMARK SMILES IDX 12 13 7 14 8 15 9 17 10 18 11 19 93 20 6 21 4 22 5 23 2 24
REMARK SMILES IDX 1 25 3 26 22 27 23 28 24 29 25 30 26 31 27 33 28 34 29 35
REMARK SMILES IDX 90 36 30 37 89 38 31 39 32 40 33 41 83 42 34 43 88 44 82 45
REMARK SMILES IDX 84 46 35 47 87 48 81 49 80 50 36 52 68 53 48 54 67 55 49 56
REMARK SMILES IDX 52 57 66 58 85 59 50 60 51 61 65 63 86 64 53 65 37 66 38 67
REMARK SMILES IDX 46 68 39 69 45 70 47 71 44 72 40 73 41 74 42 75 43 76 69 77
REMARK SMILES IDX 70 78 78 79 71 80 77 81 79 82 76 83 72 84 73 85 74 86 75 87
REMARK SMILES IDX 54 88 55 89 63 90 56 91 62 92 64 93 61 94 57 95 58 96 59 97
REMARK SMILES IDX 60 98
REMARK H PARENT 18 7 7 16 25 32 84 51 52 62
REMARK Flexibility Score: inf
ROOT
ATOM      1  C   UNL A   1      37.044  21.395  24.212  1.00  0.00     0.002 C 
ENDROOT
BRANCH   1   2
ATOM      2  C   UNL A   1      36.242  20.317  24.953  1.00  0.00     0.021 C 
BRANCH   2   3
ATOM      3  C   UNL A   1      35.165  20.875  25.881  1.00  0.00     0.116 C 
BRANCH   3   4
ATOM      4  N   UNL A   1      33.973  20.052  25.851  1.00  0.00    -0.351 N 
ATOM      5  C   UNL A   1      32.870  20.058  25.031  1.00  0.00     0.273 C 
ATOM      6  O   UNL A   1      32.072  19.129  25.175  1.00  0.00    -0.267 OA
ATOM      7  H   UNL A   1      33.948  19.359  26.549  1.00  0.00     0.163 HD
BRANCH   5   8
ATOM      8  C   UNL A   1      32.680  21.078  24.004  1.00  0.00     0.170 A 
ATOM      9  N   UNL A   1      32.641  22.842  22.732  1.00  0.00    -0.245 N 
ATOM     10  C   UNL A   1      32.920  22.439  24.009  1.00  0.00     0.145 A 
ATOM     11  N   UNL A   1      32.177  21.823  21.994  1.00  0.00    -0.066 NA
ATOM     12  N   UNL A   1      32.161  20.747  22.768  1.00  0.00    -0.125 NA
BRANCH   9  13
ATOM     13  C   UNL A   1      32.942  24.147  22.232  1.00  0.00     0.148 C 
ATOM     14  N   UNL A   1      31.675  28.142  22.188  1.00  0.00    -0.338 N 
ATOM     15  C   UNL A   1      32.766  27.383  22.469  1.00  0.00     0.317 C 
ATOM     16  H   UNL A   1      31.856  28.951  21.656  1.00  0.00     0.165 HD
ATOM     17  O   UNL A   1      33.876  27.909  22.400  1.00  0.00    -0.249 OA
ATOM     18  N   UNL A   1      32.599  26.084  22.822  1.00  0.00    -0.320 N 
ATOM     19  C   UNL A   1      33.625  25.116  23.206  1.00  0.00     0.150 C 
ATOM     20  C   UNL A   1      31.698  25.058  22.327  1.00  0.00     0.150 C 
BRANCH  14  21
ATOM     21  C   UNL A   1      30.281  27.944  22.553  1.00  0.00     0.121 C 
BRANCH  21  22
ATOM     22  C   UNL A   1      29.798  28.992  23.580  1.00  0.00     0.008 C 
ATOM     23  C   UNL A   1      30.996  29.536  24.382  1.00  0.00     0.010 C 
BRANCH  22  24
ATOM     24  C   UNL A   1      29.006  30.200  22.980  1.00  0.00    -0.013 C 
ATOM     25  C   UNL A   1      29.347  30.568  21.535  1.00  0.00     0.008 C 
ATOM     26  C   UNL A   1      27.496  29.941  23.085  1.00  0.00     0.008 C 
ENDBRANCH  22  24
ENDBRANCH  21  22
ENDBRANCH  14  21
ENDBRANCH   9  13
ENDBRANCH   5   8
ENDBRANCH   3   4
ENDBRANCH   2   3
ENDBRANCH   1   2
BRANCH   1  27
ATOM     27  C   UNL A   1      36.595  22.848  24.448  1.00  0.00     0.002 C 
BRANCH  27  28
ATOM     28  C   UNL A   1      37.649  23.806  25.025  1.00  0.00     0.021 C 
BRANCH  28  29
ATOM     29  C   UNL A   1      37.917  23.604  26.507  1.00  0.00     0.116 C 
BRANCH  29  30
ATOM     30  N   UNL A   1      39.088  22.765  26.757  1.00  0.00    -0.352 N 
ATOM     31  C   UNL A   1      40.342  23.163  27.170  1.00  0.00     0.251 C 
ATOM     32  H   UNL A   1      38.965  21.798  26.613  1.00  0.00     0.163 HD
ATOM     33  O   UNL A   1      41.322  22.451  26.945  1.00  0.00    -0.269 OA
BRANCH  31  34
ATOM     34  C   UNL A   1      40.488  24.448  27.876  1.00  0.00     0.039 A 
ATOM     35  C   UNL A   1      41.732  24.931  28.284  1.00  0.00     0.014 A 
ATOM     36  C   UNL A   1      39.334  25.194  28.107  1.00  0.00     0.014 A 
ATOM     37  C   UNL A   1      41.803  26.205  28.848  1.00  0.00     0.010 A 
ATOM     38  C   UNL A   1      39.425  26.507  28.497  1.00  0.00     0.010 A 
ATOM     39  C   UNL A   1      40.645  27.002  28.927  1.00  0.00    -0.014 A 
BRANCH  39  40
ATOM     40  C   UNL A   1      40.716  28.409  29.318  1.00  0.00     0.031 A 
ATOM     41  C   UNL A   1      41.773  29.167  28.602  1.00  0.00     0.074 A 
ATOM     42  C   UNL A   1      39.817  29.040  30.108  1.00  0.00     0.049 A 
ATOM     43  N   UNL A   1      42.911  29.538  29.080  1.00  0.00    -0.248 NA
ATOM     44  C   UNL A   1      41.652  29.362  27.148  1.00  0.00     0.031 C 
ATOM     45  C   UNL A   1      38.576  28.517  30.692  1.00  0.00     0.029 A 
ATOM     46  N   UNL A   1      39.790  30.345  30.501  1.00  0.00    -0.354 N 
ATOM     47  C   UNL A   1      43.535  30.258  28.071  1.00  0.00     0.074 A 
ATOM     48  C   UNL A   1      42.832  29.920  26.863  1.00  0.00     0.031 C 
ATOM     49  C   UNL A   1      37.824  29.538  31.168  1.00  0.00     0.029 A 
ATOM     50  C   UNL A   1      38.593  30.767  31.082  1.00  0.00     0.049 A 
ATOM     51  H   UNL A   1      40.561  30.946  30.382  1.00  0.00     0.167 HD
ATOM     52  C   UNL A   1      44.405  31.260  28.377  1.00  0.00     0.034 A 
ATOM     53  C   UNL A   1      38.267  32.028  31.486  1.00  0.00     0.034 A 
ATOM     54  C   UNL A   1      44.817  31.174  29.766  1.00  0.00     0.049 A 
ATOM     55  C   UNL A   1      39.551  32.726  31.739  1.00  0.00     0.074 A 
ATOM     56  C   UNL A   1      45.417  30.193  30.536  1.00  0.00     0.029 A 
ATOM     57  N   UNL A   1      44.235  32.036  30.671  1.00  0.00    -0.354 N 
ATOM     58  N   UNL A   1      40.370  32.375  32.691  1.00  0.00    -0.248 NA
ATOM     59  C   UNL A   1      40.158  33.454  30.634  1.00  0.00     0.031 C 
ATOM     60  C   UNL A   1      44.714  30.224  31.778  1.00  0.00     0.029 A 
ATOM     61  C   UNL A   1      43.806  31.285  31.741  1.00  0.00     0.049 A 
ATOM     62  H   UNL A   1      44.141  33.010  30.570  1.00  0.00     0.167 HD
ATOM     63  C   UNL A   1      41.628  32.420  32.112  1.00  0.00     0.074 A 
ATOM     64  C   UNL A   1      41.444  33.178  30.873  1.00  0.00     0.031 C 
ATOM     65  C   UNL A   1      42.635  31.600  32.538  1.00  0.00     0.034 A 
BRANCH  52  66
ATOM     66  C   UNL A   1      44.576  32.530  27.571  1.00  0.00     0.023 A 
ATOM     67  C   UNL A   1      43.906  33.675  28.043  1.00  0.00     0.031 A 
ATOM     68  C   UNL A   1      45.086  32.620  26.256  1.00  0.00     0.131 A 
ATOM     69  C   UNL A   1      43.652  34.766  27.196  1.00  0.00     0.055 A 
ATOM     70  C   UNL A   1      44.889  33.737  25.439  1.00  0.00     0.041 A 
ATOM     71  F   UNL A   1      45.720  31.611  25.650  1.00  0.00    -0.206 F 
ATOM     72  C   UNL A   1      44.137  34.805  25.893  1.00  0.00     0.022 A 
BRANCH  69  73
ATOM     73  S   UNL A   1      42.509  36.044  27.775  1.00  0.00     0.124 S 
ATOM     74  O   UNL A   1      42.555  36.996  26.671  1.00  0.00    -0.237 OA
ATOM     75  O   UNL A   1      41.269  35.290  27.925  1.00  0.00    -0.237 OA
ATOM     76  O   UNL A   1      43.118  36.501  29.022  1.00  0.00    -0.744 OA
ENDBRANCH  69  73
ENDBRANCH  52  66
BRANCH  53  77
ATOM     77  C   UNL A   1      36.966  32.752  31.356  1.00  0.00     0.023 A 
ATOM     78  C   UNL A   1      36.483  33.250  30.119  1.00  0.00     0.031 A 
ATOM     79  C   UNL A   1      36.038  32.711  32.419  1.00  0.00     0.131 A 
ATOM     80  C   UNL A   1      35.131  33.655  29.984  1.00  0.00     0.055 A 
ATOM     81  C   UNL A   1      34.703  33.102  32.276  1.00  0.00     0.041 A 
ATOM     82  F   UNL A   1      36.372  32.197  33.613  1.00  0.00    -0.206 F 
ATOM     83  C   UNL A   1      34.239  33.562  31.054  1.00  0.00     0.022 A 
BRANCH  80  84
ATOM     84  S   UNL A   1      34.469  34.217  28.376  1.00  0.00     0.124 S 
ATOM     85  O   UNL A   1      35.448  33.684  27.435  1.00  0.00    -0.237 OA
ATOM     86  O   UNL A   1      33.143  33.609  28.347  1.00  0.00    -0.237 OA
ATOM     87  O   UNL A   1      34.468  35.676  28.499  1.00  0.00    -0.744 OA
ENDBRANCH  80  84
ENDBRANCH  53  77
BRANCH  65  88
ATOM     88  C   UNL A   1      42.442  30.829  33.833  1.00  0.00     0.023 A 
ATOM     89  C   UNL A   1      42.170  29.441  33.931  1.00  0.00     0.031 A 
ATOM     90  C   UNL A   1      42.645  31.532  35.034  1.00  0.00     0.131 A 
ATOM     91  C   UNL A   1      42.094  28.822  35.197  1.00  0.00     0.055 A 
ATOM     92  C   UNL A   1      42.595  30.911  36.281  1.00  0.00     0.041 A 
ATOM     93  F   UNL A   1      42.928  32.844  35.013  1.00  0.00    -0.206 F 
ATOM     94  C   UNL A   1      42.311  29.554  36.368  1.00  0.00     0.022 A 
BRANCH  91  95
ATOM     95  S   UNL A   1      41.681  27.050  35.351  1.00  0.00     0.124 S 
ATOM     96  O   UNL A   1      42.937  26.378  35.041  1.00  0.00    -0.237 OA
ATOM     97  O   UNL A   1      41.228  26.949  36.736  1.00  0.00    -0.237 OA
ATOM     98  O   UNL A   1      40.627  26.859  34.353  1.00  0.00    -0.744 OA
ENDBRANCH  91  95
ENDBRANCH  65  88
ENDBRANCH  39  40
ENDBRANCH  31  34
ENDBRANCH  29  30
ENDBRANCH  28  29
ENDBRANCH  27  28
ENDBRANCH   1  27
TORSDOF 20
ENDMDL
MODEL 2
REMARK VINA RESULT:     -11.8      1.578      2.162
REMARK SMILES CC(C)[C@H](C)CNC(=O)N1CC(n2cc(C(=O)NCCCCCCNC(=O)c3ccc(-c4c5nc(c(-c6cc(S(=O)(=O)[O-])ccc6F)c6ccc([nH]6)c(-c6cc(S(=O)(=O)[O-])ccc6F)c6nc(c(-c7cc(S(=O)(=O)[O-])ccc7F)c7ccc4[nH]7)C=C6)C=C5)cc3)nn2)C1
REMARK SMILES IDX 21 1 20 2 19 3 18 4 16 5 17 6 15 8 13 9 14 10 92 11 91 12
REMARK SMILES IDX 12 13 7 14 8 15 9 17 10 18 11 19 93 20 6 21 4 22 5 23 2 24
REMARK SMILES IDX 1 25 3 26 22 27 23 28 24 29 25 30 26 31 27 33 28 34 29 35
REMARK SMILES IDX 90 36 30 37 89 38 31 39 32 40 33 41 83 42 34 43 88 44 82 45
REMARK SMILES IDX 84 46 35 47 87 48 81 49 80 50 36 52 68 53 48 54 67 55 49 56
REMARK SMILES IDX 52 57 66 58 85 59 50 60 51 61 65 63 86 64 53 65 37 66 38 67
REMARK SMILES IDX 46 68 39 69 45 70 47 71 44 72 40 73 41 74 42 75 43 76 69 77
REMARK SMILES IDX 70 78 78 79 71 80 77 81 79 82 76 83 72 84 73 85 74 86 75 87
REMARK SMILES IDX 54 88 55 89 63 90 56 91 62 92 64 93 61 94 57 95 58 96 59 97
REMARK SMILES IDX 60 98
REMARK H PARENT 18 7 7 16 25 32 84 51 52 62
REMARK Flexibility Score: inf
ROOT
ATOM      1  C   UNL A   1      37.019  21.685  24.215  1.00  0.00     0.002 C 
ENDROOT
BRANCH   1   2
ATOM      2  C   UNL A   1      36.217  20.695  25.072  1.00  0.00     0.021 C 
BRANCH   2   3
ATOM      3  C   UNL A   1      35.075  21.338  25.854  1.00  0.00     0.116 C 
BRANCH   3   4
ATOM      4  N   UNL A   1      33.902  20.487  25.861  1.00  0.00    -0.351 N 
ATOM      5  C   UNL A   1      32.717  20.546  25.168  1.00  0.00     0.273 C 
ATOM      6  O   UNL A   1      31.958  19.582  25.293  1.00  0.00    -0.267 OA
ATOM      7  H   UNL A   1      33.967  19.722  26.477  1.00  0.00     0.163 HD
BRANCH   5   8
ATOM      8  C   UNL A   1      32.396  21.663  24.285  1.00  0.00     0.170 A 
ATOM      9  N   UNL A   1      31.657  23.450  23.289  1.00  0.00    -0.245 N 
ATOM     10  C   UNL A   1      31.378  22.596  24.322  1.00  0.00     0.145 A 
ATOM     11  N   UNL A   1      32.728  23.037  22.597  1.00  0.00    -0.066 NA
ATOM     12  N   UNL A   1      33.169  21.927  23.172  1.00  0.00    -0.125 NA
BRANCH   9  13
ATOM     13  C   UNL A   1      30.969  24.685  23.078  1.00  0.00     0.148 C 
ATOM     14  N   UNL A   1      30.832  28.726  24.185  1.00  0.00    -0.338 N 
ATOM     15  C   UNL A   1      30.914  27.935  23.084  1.00  0.00     0.317 C 
ATOM     16  H   UNL A   1      30.193  29.472  24.115  1.00  0.00     0.165 HD
ATOM     17  O   UNL A   1      30.525  28.388  22.009  1.00  0.00    -0.249 OA
ATOM     18  N   UNL A   1      31.426  26.684  23.201  1.00  0.00    -0.320 N 
ATOM     19  C   UNL A   1      31.646  25.698  22.144  1.00  0.00     0.150 C 
ATOM     20  C   UNL A   1      31.271  25.670  24.230  1.00  0.00     0.150 C 
BRANCH  14  21
ATOM     21  C   UNL A   1      31.544  28.641  25.451  1.00  0.00     0.121 C 
BRANCH  21  22
ATOM     22  C   UNL A   1      32.460  29.863  25.682  1.00  0.00     0.008 C 
ATOM     23  C   UNL A   1      31.740  30.904  26.560  1.00  0.00     0.010 C 
BRANCH  22  24
ATOM     24  C   UNL A   1      33.851  29.543  26.322  1.00  0.00    -0.013 C 
ATOM     25  C   UNL A   1      34.328  30.519  27.399  1.00  0.00     0.008 C 
ATOM     26  C   UNL A   1      33.847  28.122  26.904  1.00  0.00     0.008 C 
ENDBRANCH  22  24
ENDBRANCH  21  22
ENDBRANCH  14  21
ENDBRANCH   9  13
ENDBRANCH   5   8
ENDBRANCH   3   4
ENDBRANCH   2   3
ENDBRANCH   1   2
BRANCH   1  27
ATOM     27  C   UNL A   1      36.730  23.175  24.463  1.00  0.00     0.002 C 
BRANCH  27  28
ATOM     28  C   UNL A   1      37.825  23.974  25.188  1.00  0.00     0.021 C 
BRANCH  28  29
ATOM     29  C   UNL A   1      37.964  23.629  26.662  1.00  0.00     0.116 C 
BRANCH  29  30
ATOM     30  N   UNL A   1      39.143  22.810  26.937  1.00  0.00    -0.352 N 
ATOM     31  C   UNL A   1      40.392  23.233  27.341  1.00  0.00     0.251 C 
ATOM     32  H   UNL A   1      39.030  21.838  26.822  1.00  0.00     0.163 HD
ATOM     33  O   UNL A   1      41.380  22.525  27.138  1.00  0.00    -0.269 OA
BRANCH  31  34
ATOM     34  C   UNL A   1      40.523  24.540  28.010  1.00  0.00     0.039 A 
ATOM     35  C   UNL A   1      41.760  25.041  28.416  1.00  0.00     0.014 A 
ATOM     36  C   UNL A   1      39.363  25.286  28.205  1.00  0.00     0.014 A 
ATOM     37  C   UNL A   1      41.818  26.332  28.942  1.00  0.00     0.010 A 
ATOM     38  C   UNL A   1      39.442  26.610  28.556  1.00  0.00     0.010 A 
ATOM     39  C   UNL A   1      40.655  27.125  28.984  1.00  0.00    -0.014 A 
BRANCH  39  40
ATOM     40  C   UNL A   1      40.714  28.543  29.334  1.00  0.00     0.031 A 
ATOM     41  C   UNL A   1      41.743  29.295  28.572  1.00  0.00     0.074 A 
ATOM     42  C   UNL A   1      39.823  29.184  30.126  1.00  0.00     0.049 A 
ATOM     43  N   UNL A   1      42.886  29.696  29.014  1.00  0.00    -0.248 NA
ATOM     44  C   UNL A   1      41.587  29.446  27.116  1.00  0.00     0.031 C 
ATOM     45  C   UNL A   1      38.604  28.661  30.752  1.00  0.00     0.029 A 
ATOM     46  N   UNL A   1      39.787  30.500  30.482  1.00  0.00    -0.354 N 
ATOM     47  C   UNL A   1      43.478  30.394  27.970  1.00  0.00     0.074 A 
ATOM     48  C   UNL A   1      42.752  30.012  26.789  1.00  0.00     0.031 C 
ATOM     49  C   UNL A   1      37.848  29.684  31.216  1.00  0.00     0.029 A 
ATOM     50  C   UNL A   1      38.597  30.921  31.078  1.00  0.00     0.049 A 
ATOM     51  H   UNL A   1      40.546  31.108  30.328  1.00  0.00     0.167 HD
ATOM     52  C   UNL A   1      44.339  31.418  28.228  1.00  0.00     0.034 A 
ATOM     53  C   UNL A   1      38.261  32.189  31.452  1.00  0.00     0.034 A 
ATOM     54  C   UNL A   1      44.783  31.377  29.609  1.00  0.00     0.049 A 
ATOM     55  C   UNL A   1      39.541  32.911  31.656  1.00  0.00     0.074 A 
ATOM     56  C   UNL A   1      45.415  30.427  30.393  1.00  0.00     0.029 A 
ATOM     57  N   UNL A   1      44.209  32.257  30.502  1.00  0.00    -0.354 N 
ATOM     58  N   UNL A   1      40.386  32.600  32.600  1.00  0.00    -0.248 NA
ATOM     59  C   UNL A   1      40.112  33.616  30.518  1.00  0.00     0.031 C 
ATOM     60  C   UNL A   1      44.739  30.484  31.650  1.00  0.00     0.029 A 
ATOM     61  C   UNL A   1      43.816  31.530  31.603  1.00  0.00     0.049 A 
ATOM     62  H   UNL A   1      44.099  33.226  30.376  1.00  0.00     0.167 HD
ATOM     63  C   UNL A   1      41.629  32.645  31.991  1.00  0.00     0.074 A 
ATOM     64  C   UNL A   1      41.407  33.365  30.735  1.00  0.00     0.031 C 
ATOM     65  C   UNL A   1      42.658  31.853  32.417  1.00  0.00     0.034 A 
BRANCH  52  66
ATOM     66  C   UNL A   1      44.474  32.666  27.382  1.00  0.00     0.023 A 
ATOM     67  C   UNL A   1      43.815  33.821  27.849  1.00  0.00     0.031 A 
ATOM     68  C   UNL A   1      44.934  32.722  26.047  1.00  0.00     0.131 A 
ATOM     69  C   UNL A   1      43.525  34.887  26.982  1.00  0.00     0.055 A 
ATOM     70  C   UNL A   1      44.701  33.816  25.209  1.00  0.00     0.041 A 
ATOM     71  F   UNL A   1      45.550  31.700  25.445  1.00  0.00    -0.206 F 
ATOM     72  C   UNL A   1      43.960  34.893  25.662  1.00  0.00     0.022 A 
BRANCH  69  73
ATOM     73  S   UNL A   1      42.397  36.176  27.569  1.00  0.00     0.124 S 
ATOM     74  O   UNL A   1      42.531  37.177  26.518  1.00  0.00    -0.237 OA
ATOM     75  O   UNL A   1      41.126  35.460  27.621  1.00  0.00    -0.237 OA
ATOM     76  O   UNL A   1      42.957  36.549  28.866  1.00  0.00    -0.744 OA
ENDBRANCH  69  73
ENDBRANCH  52  66
BRANCH  53  77
ATOM     77  C   UNL A   1      36.948  32.891  31.331  1.00  0.00     0.023 A 
ATOM     78  C   UNL A   1      36.463  33.408  30.104  1.00  0.00     0.031 A 
ATOM     79  C   UNL A   1      36.014  32.806  32.387  1.00  0.00     0.131 A 
ATOM     80  C   UNL A   1      35.104  33.790  29.970  1.00  0.00     0.055 A 
ATOM     81  C   UNL A   1      34.673  33.175  32.245  1.00  0.00     0.041 A 
ATOM     82  F   UNL A   1      36.352  32.270  33.571  1.00  0.00    -0.206 F 
ATOM     83  C   UNL A   1      34.207  33.655  31.032  1.00  0.00     0.022 A 
BRANCH  80  84
ATOM     84  S   UNL A   1      34.440  34.377  28.372  1.00  0.00     0.124 S 
ATOM     85  O   UNL A   1      33.197  33.621  28.258  1.00  0.00    -0.237 OA
ATOM     86  O   UNL A   1      34.308  35.814  28.589  1.00  0.00    -0.237 OA
ATOM     87  O   UNL A   1      35.477  33.999  27.412  1.00  0.00    -0.744 OA
ENDBRANCH  80  84
ENDBRANCH  53  77
BRANCH  65  88
ATOM     88  C   UNL A   1      42.505  31.116  33.737  1.00  0.00     0.023 A 
ATOM     89  C   UNL A   1      42.801  31.650  35.016  1.00  0.00     0.031 A 
ATOM     90  C   UNL A   1      41.934  29.831  33.692  1.00  0.00     0.131 A 
ATOM     91  C   UNL A   1      42.538  30.893  36.179  1.00  0.00     0.055 A 
ATOM     92  C   UNL A   1      41.653  29.097  34.843  1.00  0.00     0.041 A 
ATOM     93  F   UNL A   1      41.611  29.273  32.514  1.00  0.00    -0.206 F 
ATOM     94  C   UNL A   1      41.961  29.623  36.092  1.00  0.00     0.022 A 
BRANCH  91  95
ATOM     95  S   UNL A   1      42.969  31.534  37.833  1.00  0.00     0.124 S 
ATOM     96  O   UNL A   1      43.662  32.784  37.546  1.00  0.00    -0.237 OA
ATOM     97  O   UNL A   1      41.663  31.661  38.474  1.00  0.00    -0.237 OA
ATOM     98  O   UNL A   1      43.820  30.483  38.393  1.00  0.00    -0.744 OA
ENDBRANCH  91  95
ENDBRANCH  65  88
ENDBRANCH  39  40
ENDBRANCH  31  34
ENDBRANCH  29  30
ENDBRANCH  28  29
ENDBRANCH  27  28
ENDBRANCH   1  27
TORSDOF 20
ENDMDL
MODEL 3
REMARK VINA RESULT:     -11.4      2.265      2.695
REMARK SMILES CC(C)[C@H](C)CNC(=O)N1CC(n2cc(C(=O)NCCCCCCNC(=O)c3ccc(-c4c5nc(c(-c6cc(S(=O)(=O)[O-])ccc6F)c6ccc([nH]6)c(-c6cc(S(=O)(=O)[O-])ccc6F)c6nc(c(-c7cc(S(=O)(=O)[O-])ccc7F)c7ccc4[nH]7)C=C6)C=C5)cc3)nn2)C1
REMARK SMILES IDX 21 1 20 2 19 3 18 4 16 5 17 6 15 8 13 9 14 10 92 11 91 12
REMARK SMILES IDX 12 13 7 14 8 15 9 17 10 18 11 19 93 20 6 21 4 22 5 23 2 24
REMARK SMILES IDX 1 25 3 26 22 27 23 28 24 29 25 30 26 31 27 33 28 34 29 35
REMARK SMILES IDX 90 36 30 37 89 38 31 39 32 40 33 41 83 42 34 43 88 44 82 45
REMARK SMILES IDX 84 46 35 47 87 48 81 49 80 50 36 52 68 53 48 54 67 55 49 56
REMARK SMILES IDX 52 57 66 58 85 59 50 60 51 61 65 63 86 64 53 65 37 66 38 67
REMARK SMILES IDX 46 68 39 69 45 70 47 71 44 72 40 73 41 74 42 75 43 76 69 77
REMARK SMILES IDX 70 78 78 79 71 80 77 81 79 82 76 83 72 84 73 85 74 86 75 87
REMARK SMILES IDX 54 88 55 89 63 90 56 91 62 92 64 93 61 94 57 95 58 96 59 97
REMARK SMILES IDX 60 98
REMARK H PARENT 18 7 7 16 25 32 84 51 52 62
REMARK Flexibility Score: inf
ROOT
ATOM      1  C   UNL A   1      37.620  21.844  25.306  1.00  0.00     0.002 C 
ENDROOT
BRANCH   1   2
ATOM      2  C   UNL A   1      36.310  21.083  25.057  1.00  0.00     0.021 C 
BRANCH   2   3
ATOM      3  C   UNL A   1      35.228  21.356  26.098  1.00  0.00     0.116 C 
BRANCH   3   4
ATOM      4  N   UNL A   1      33.995  20.672  25.762  1.00  0.00    -0.351 N 
ATOM      5  C   UNL A   1      32.731  21.135  25.486  1.00  0.00     0.273 C 
ATOM      6  O   UNL A   1      31.912  20.299  25.096  1.00  0.00    -0.267 OA
ATOM      7  H   UNL A   1      34.080  19.693  25.725  1.00  0.00     0.163 HD
BRANCH   5   8
ATOM      8  C   UNL A   1      32.388  22.550  25.594  1.00  0.00     0.170 A 
ATOM      9  N   UNL A   1      32.272  24.721  25.595  1.00  0.00    -0.245 N 
ATOM     10  C   UNL A   1      33.166  23.689  25.517  1.00  0.00     0.145 A 
ATOM     11  N   UNL A   1      31.026  24.268  25.792  1.00  0.00    -0.066 NA
ATOM     12  N   UNL A   1      31.086  22.945  25.830  1.00  0.00    -0.125 NA
BRANCH   9  13
ATOM     13  C   UNL A   1      32.620  26.087  25.356  1.00  0.00     0.148 C 
ATOM     14  N   UNL A   1      31.121  29.813  24.152  1.00  0.00    -0.338 N 
ATOM     15  C   UNL A   1      31.806  29.228  25.169  1.00  0.00     0.317 C 
ATOM     16  H   UNL A   1      31.488  30.672  23.842  1.00  0.00     0.165 HD
ATOM     17  O   UNL A   1      32.541  29.934  25.859  1.00  0.00    -0.249 OA
ATOM     18  N   UNL A   1      31.654  27.900  25.397  1.00  0.00    -0.320 N 
ATOM     19  C   UNL A   1      32.255  27.093  26.458  1.00  0.00     0.150 C 
ATOM     20  C   UNL A   1      31.540  26.772  24.488  1.00  0.00     0.150 C 
BRANCH  14  21
ATOM     21  C   UNL A   1      29.928  29.364  23.451  1.00  0.00     0.121 C 
BRANCH  21  22
ATOM     22  C   UNL A   1      29.287  30.495  22.619  1.00  0.00     0.008 C 
ATOM     23  C   UNL A   1      28.156  29.928  21.740  1.00  0.00     0.010 C 
BRANCH  22  24
ATOM     24  C   UNL A   1      28.724  31.697  23.447  1.00  0.00    -0.013 C 
ATOM     25  C   UNL A   1      28.772  33.061  22.756  1.00  0.00     0.008 C 
ATOM     26  C   UNL A   1      27.280  31.407  23.877  1.00  0.00     0.008 C 
ENDBRANCH  22  24
ENDBRANCH  21  22
ENDBRANCH  14  21
ENDBRANCH   9  13
ENDBRANCH   5   8
ENDBRANCH   3   4
ENDBRANCH   2   3
ENDBRANCH   1   2
BRANCH   1  27
ATOM     27  C   UNL A   1      37.471  23.309  25.752  1.00  0.00     0.002 C 
BRANCH  27  28
ATOM     28  C   UNL A   1      38.766  24.047  26.123  1.00  0.00     0.021 C 
BRANCH  28  29
ATOM     29  C   UNL A   1      39.382  23.587  27.434  1.00  0.00     0.116 C 
BRANCH  29  30
ATOM     30  N   UNL A   1      40.727  23.040  27.260  1.00  0.00    -0.352 N 
ATOM     31  C   UNL A   1      41.893  23.728  26.996  1.00  0.00     0.251 C 
ATOM     32  H   UNL A   1      40.810  22.062  27.343  1.00  0.00     0.163 HD
ATOM     33  O   UNL A   1      42.847  23.150  26.471  1.00  0.00    -0.269 OA
BRANCH  31  34
ATOM     34  C   UNL A   1      41.976  25.157  27.347  1.00  0.00     0.039 A 
ATOM     35  C   UNL A   1      41.624  26.161  26.444  1.00  0.00     0.014 A 
ATOM     36  C   UNL A   1      42.395  25.483  28.635  1.00  0.00     0.014 A 
ATOM     37  C   UNL A   1      41.623  27.485  26.885  1.00  0.00     0.010 A 
ATOM     38  C   UNL A   1      42.226  26.758  29.116  1.00  0.00     0.010 A 
ATOM     39  C   UNL A   1      41.899  27.776  28.235  1.00  0.00    -0.014 A 
BRANCH  39  40
ATOM     40  C   UNL A   1      41.706  29.119  28.778  1.00  0.00     0.031 A 
ATOM     41  C   UNL A   1      42.715  30.098  28.297  1.00  0.00     0.074 A 
ATOM     42  C   UNL A   1      40.632  29.518  29.496  1.00  0.00     0.049 A 
ATOM     43  N   UNL A   1      43.716  30.560  28.966  1.00  0.00    -0.248 NA
ATOM     44  C   UNL A   1      42.744  30.453  26.869  1.00  0.00     0.031 C 
ATOM     45  C   UNL A   1      39.424  28.762  29.844  1.00  0.00     0.029 A 
ATOM     46  N   UNL A   1      40.359  30.749  30.016  1.00  0.00    -0.354 N 
ATOM     47  C   UNL A   1      44.342  31.478  28.134  1.00  0.00     0.074 A 
ATOM     48  C   UNL A   1      43.851  31.199  26.811  1.00  0.00     0.031 C 
ATOM     49  C   UNL A   1      38.472  29.603  30.315  1.00  0.00     0.029 A 
ATOM     50  C   UNL A   1      39.050  30.927  30.466  1.00  0.00     0.049 A 
ATOM     51  H   UNL A   1      41.038  31.460  30.069  1.00  0.00     0.167 HD
ATOM     52  C   UNL A   1      45.005  32.544  28.661  1.00  0.00     0.034 A 
ATOM     53  C   UNL A   1      38.488  32.073  30.950  1.00  0.00     0.034 A 
ATOM     54  C   UNL A   1      45.252  32.344  30.077  1.00  0.00     0.049 A 
ATOM     55  C   UNL A   1      39.611  32.903  31.451  1.00  0.00     0.074 A 
ATOM     56  C   UNL A   1      45.897  31.368  30.816  1.00  0.00     0.029 A 
ATOM     57  N   UNL A   1      44.440  33.000  30.977  1.00  0.00    -0.354 N 
ATOM     58  N   UNL A   1      40.351  32.553  32.466  1.00  0.00    -0.248 NA
ATOM     59  C   UNL A   1      40.230  33.838  30.523  1.00  0.00     0.031 C 
ATOM     60  C   UNL A   1      45.051  31.148  31.945  1.00  0.00     0.029 A 
ATOM     61  C   UNL A   1      44.003  32.070  31.893  1.00  0.00     0.049 A 
ATOM     62  H   UNL A   1      44.212  33.957  30.967  1.00  0.00     0.167 HD
ATOM     63  C   UNL A   1      41.648  32.841  32.075  1.00  0.00     0.074 A 
ATOM     64  C   UNL A   1      41.504  33.714  30.908  1.00  0.00     0.031 C 
ATOM     65  C   UNL A   1      42.709  32.121  32.548  1.00  0.00     0.034 A 
BRANCH  52  66
ATOM     66  C   UNL A   1      45.078  33.916  28.023  1.00  0.00     0.023 A 
ATOM     67  C   UNL A   1      46.363  34.467  27.853  1.00  0.00     0.031 A 
ATOM     68  C   UNL A   1      44.000  34.814  27.853  1.00  0.00     0.131 A 
ATOM     69  C   UNL A   1      46.538  35.848  27.667  1.00  0.00     0.055 A 
ATOM     70  C   UNL A   1      44.180  36.177  27.599  1.00  0.00     0.041 A 
ATOM     71  F   UNL A   1      42.722  34.456  28.010  1.00  0.00    -0.206 F 
ATOM     72  C   UNL A   1      45.455  36.710  27.541  1.00  0.00     0.022 A 
BRANCH  69  73
ATOM     73  S   UNL A   1      48.217  36.515  27.787  1.00  0.00     0.124 S 
ATOM     74  O   UNL A   1      48.988  35.485  27.103  1.00  0.00    -0.237 OA
ATOM     75  O   UNL A   1      48.081  37.790  27.089  1.00  0.00    -0.237 OA
ATOM     76  O   UNL A   1      48.439  36.613  29.227  1.00  0.00    -0.744 OA
ENDBRANCH  69  73
ENDBRANCH  52  66
BRANCH  53  77
ATOM     77  C   UNL A   1      37.118  32.621  30.717  1.00  0.00     0.023 A 
ATOM     78  C   UNL A   1      36.245  32.982  31.773  1.00  0.00     0.031 A 
ATOM     79  C   UNL A   1      36.758  33.069  29.427  1.00  0.00     0.131 A 
ATOM     80  C   UNL A   1      35.092  33.768  31.519  1.00  0.00     0.055 A 
ATOM     81  C   UNL A   1      35.626  33.853  29.185  1.00  0.00     0.041 A 
ATOM     82  F   UNL A   1      37.549  32.840  28.367  1.00  0.00    -0.206 F 
ATOM     83  C   UNL A   1      34.796  34.219  30.231  1.00  0.00     0.022 A 
BRANCH  80  84
ATOM     84  S   UNL A   1      34.002  34.316  32.879  1.00  0.00     0.124 S 
ATOM     85  O   UNL A   1      34.961  34.768  33.881  1.00  0.00    -0.237 OA
ATOM     86  O   UNL A   1      33.191  35.348  32.243  1.00  0.00    -0.237 OA
ATOM     87  O   UNL A   1      33.269  33.101  33.239  1.00  0.00    -0.744 OA
ENDBRANCH  80  84
ENDBRANCH  53  77
BRANCH  65  88
ATOM     88  C   UNL A   1      42.479  31.176  33.716  1.00  0.00     0.023 A 
ATOM     89  C   UNL A   1      42.313  29.772  33.618  1.00  0.00     0.031 A 
ATOM     90  C   UNL A   1      42.531  31.729  35.008  1.00  0.00     0.131 A 
ATOM     91  C   UNL A   1      42.190  28.989  34.786  1.00  0.00     0.055 A 
ATOM     92  C   UNL A   1      42.434  30.950  36.159  1.00  0.00     0.041 A 
ATOM     93  F   UNL A   1      42.707  33.050  35.174  1.00  0.00    -0.206 F 
ATOM     94  C   UNL A   1      42.255  29.576  36.052  1.00  0.00     0.022 A 
BRANCH  91  95
ATOM     95  S   UNL A   1      41.911  27.188  34.683  1.00  0.00     0.124 S 
ATOM     96  O   UNL A   1      42.028  26.744  36.067  1.00  0.00    -0.237 OA
ATOM     97  O   UNL A   1      40.575  27.107  34.097  1.00  0.00    -0.237 OA
ATOM     98  O   UNL A   1      42.987  26.727  33.804  1.00  0.00    -0.744 OA
ENDBRANCH  91  95
ENDBRANCH  65  88
ENDBRANCH  39  40
ENDBRANCH  31  34
ENDBRANCH  29  30
ENDBRANCH  28  29
ENDBRANCH  27  28
ENDBRANCH   1  27
TORSDOF 20
ENDMDL
