MODEL 1
REMARK VINA RESULT:     -12.1      0.000      0.000
REMARK SMILES Cc1cc(F)cc(N[C@H](C(=O)NCCCCCCNC(=O)c2ccc(-c3c4nc(c(-c5cc(S(=O)(=O)[O-])ccc5F)c5ccc([nH]5)c(-c5cc(S(=O)(=O)[O-])ccc5F)c5nc(c(-c6cc(S(=O)(=O)[O-])ccc6F)c6ccc3[nH]6)C=C5)C=C4)cc2)c2cc(C)cc(C)c2)c1
REMARK SMILES IDX 16 1 15 2 14 3 13 4 12 5 10 6 11 7 9 9 8 10 7 12 1 13 2 14
REMARK SMILES IDX 3 15 93 16 4 17 5 18 6 19 85 20 86 21 92 22 87 23 90 24
REMARK SMILES IDX 88 25 89 26 91 27 17 28 18 29 19 30 20 31 21 33 22 34 23 35
REMARK SMILES IDX 84 36 24 37 83 38 25 39 26 40 27 41 77 42 28 43 82 44 76 45
REMARK SMILES IDX 78 46 29 47 81 48 75 49 74 50 30 52 62 53 42 54 61 55 43 56
REMARK SMILES IDX 46 57 60 58 79 59 44 60 45 61 59 63 80 64 47 65 31 66 32 67
REMARK SMILES IDX 40 68 33 69 39 70 41 71 38 72 34 73 35 74 36 75 37 76 63 77
REMARK SMILES IDX 64 78 72 79 65 80 71 81 73 82 70 83 66 84 67 85 68 86 69 87
REMARK SMILES IDX 48 88 49 89 57 90 50 91 56 92 58 93 55 94 51 95 52 96 53 97
REMARK SMILES IDX 54 98
REMARK H PARENT 12 8 8 11 19 32 78 51 46 62
REMARK Flexibility Score: inf
ROOT
ATOM      1  C   UNL A   1      31.652  30.878  25.803  1.00  0.00     0.002 C 
ENDROOT
BRANCH   1   2
ATOM      2  C   UNL A   1      32.827  29.900  25.888  1.00  0.00     0.002 C 
BRANCH   2   3
ATOM      3  C   UNL A   1      32.664  28.746  26.883  1.00  0.00     0.021 C 
BRANCH   3   4
ATOM      4  C   UNL A   1      33.370  27.451  26.495  1.00  0.00     0.116 C 
BRANCH   4   5
ATOM      5  N   UNL A   1      33.855  27.467  25.134  1.00  0.00    -0.354 N 
ATOM      6  C   UNL A   1      33.172  27.308  23.962  1.00  0.00     0.247 C 
ATOM      7  O   UNL A   1      33.865  27.383  22.938  1.00  0.00    -0.272 OA
ATOM      8  H   UNL A   1      34.823  27.616  25.037  1.00  0.00     0.163 HD
BRANCH   6   9
ATOM      9  C   UNL A   1      31.662  26.919  23.908  1.00  0.00     0.200 C 
BRANCH   9  10
ATOM     10  N   UNL A   1      30.861  27.564  22.832  1.00  0.00    -0.370 N 
ATOM     11  H   UNL A   1      31.212  27.407  21.926  1.00  0.00     0.161 HD
BRANCH  10  12
ATOM     12  C   UNL A   1      29.721  28.344  22.864  1.00  0.00     0.038 A 
ATOM     13  C   UNL A   1      28.747  31.923  21.834  1.00  0.00     0.044 C 
ATOM     14  C   UNL A   1      28.659  30.517  22.349  1.00  0.00    -0.046 A 
ATOM     15  C   UNL A   1      27.427  30.038  22.790  1.00  0.00     0.042 A 
ATOM     16  C   UNL A   1      29.794  29.680  22.419  1.00  0.00     0.029 A 
ATOM     17  C   UNL A   1      27.338  28.733  23.223  1.00  0.00     0.125 A 
ATOM     18  F   UNL A   1      26.162  28.247  23.644  1.00  0.00    -0.207 F 
ATOM     19  C   UNL A   1      28.453  27.900  23.220  1.00  0.00     0.065 A 
ENDBRANCH  10  12
ENDBRANCH   9  10
BRANCH   9  20
ATOM     20  C   UNL A   1      31.387  25.415  23.978  1.00  0.00    -0.016 A 
ATOM     21  C   UNL A   1      30.665  24.874  25.049  1.00  0.00     0.009 A 
ATOM     22  C   UNL A   1      31.989  24.526  23.073  1.00  0.00     0.009 A 
ATOM     23  C   UNL A   1      30.807  23.533  25.403  1.00  0.00    -0.051 A 
ATOM     24  C   UNL A   1      31.959  23.143  23.305  1.00  0.00    -0.051 A 
ATOM     25  C   UNL A   1      30.511  23.118  26.816  1.00  0.00     0.044 C 
ATOM     26  C   UNL A   1      31.435  22.664  24.512  1.00  0.00     0.006 A 
ATOM     27  C   UNL A   1      32.583  22.183  22.337  1.00  0.00     0.044 C 
ENDBRANCH   9  20
ENDBRANCH   6   9
ENDBRANCH   4   5
ENDBRANCH   3   4
ENDBRANCH   2   3
ENDBRANCH   1   2
BRANCH   1  28
ATOM     28  C   UNL A   1      31.521  31.859  26.970  1.00  0.00     0.021 C 
BRANCH  28  29
ATOM     29  C   UNL A   1      32.801  32.597  27.342  1.00  0.00     0.116 C 
BRANCH  29  30
ATOM     30  N   UNL A   1      32.570  34.003  27.631  1.00  0.00    -0.352 N 
ATOM     31  C   UNL A   1      33.151  34.796  28.586  1.00  0.00     0.251 C 
ATOM     32  H   UNL A   1      31.902  34.447  27.060  1.00  0.00     0.163 HD
ATOM     33  O   UNL A   1      32.706  35.923  28.799  1.00  0.00    -0.269 OA
BRANCH  31  34
ATOM     34  C   UNL A   1      34.291  34.282  29.376  1.00  0.00     0.039 A 
ATOM     35  C   UNL A   1      34.037  33.430  30.452  1.00  0.00     0.014 A 
ATOM     36  C   UNL A   1      35.605  34.629  29.048  1.00  0.00     0.014 A 
ATOM     37  C   UNL A   1      35.106  32.879  31.164  1.00  0.00     0.010 A 
ATOM     38  C   UNL A   1      36.669  34.017  29.707  1.00  0.00     0.010 A 
ATOM     39  C   UNL A   1      36.430  33.139  30.776  1.00  0.00    -0.014 A 
BRANCH  39  40
ATOM     40  C   UNL A   1      37.574  32.505  31.484  1.00  0.00     0.031 A 
ATOM     41  C   UNL A   1      38.308  31.354  30.853  1.00  0.00     0.074 A 
ATOM     42  C   UNL A   1      37.921  32.938  32.712  1.00  0.00     0.049 A 
ATOM     43  N   UNL A   1      39.294  30.638  31.331  1.00  0.00    -0.248 NA
ATOM     44  C   UNL A   1      37.854  30.932  29.519  1.00  0.00     0.031 C 
ATOM     45  C   UNL A   1      37.260  34.023  33.442  1.00  0.00     0.029 A 
ATOM     46  N   UNL A   1      38.911  32.520  33.568  1.00  0.00    -0.354 N 
ATOM     47  C   UNL A   1      39.573  29.680  30.363  1.00  0.00     0.074 A 
ATOM     48  C   UNL A   1      38.605  29.863  29.302  1.00  0.00     0.031 C 
ATOM     49  C   UNL A   1      37.884  34.207  34.617  1.00  0.00     0.029 A 
ATOM     50  C   UNL A   1      38.953  33.221  34.752  1.00  0.00     0.049 A 
ATOM     51  H   UNL A   1      39.532  31.788  33.354  1.00  0.00     0.167 HD
ATOM     52  C   UNL A   1      40.561  28.751  30.348  1.00  0.00     0.034 A 
ATOM     53  C   UNL A   1      39.752  33.079  35.828  1.00  0.00     0.034 A 
ATOM     54  C   UNL A   1      41.522  28.587  31.411  1.00  0.00     0.049 A 
ATOM     55  C   UNL A   1      40.818  32.012  35.806  1.00  0.00     0.074 A 
ATOM     56  C   UNL A   1      42.592  27.712  31.478  1.00  0.00     0.029 A 
ATOM     57  N   UNL A   1      41.524  29.305  32.601  1.00  0.00    -0.354 N 
ATOM     58  N   UNL A   1      41.100  31.146  34.860  1.00  0.00    -0.248 NA
ATOM     59  C   UNL A   1      41.679  31.910  36.991  1.00  0.00     0.031 C 
ATOM     60  C   UNL A   1      43.189  27.843  32.736  1.00  0.00     0.029 A 
ATOM     61  C   UNL A   1      42.554  28.866  33.421  1.00  0.00     0.049 A 
ATOM     62  H   UNL A   1      40.888  30.022  32.829  1.00  0.00     0.167 HD
ATOM     63  C   UNL A   1      42.196  30.422  35.322  1.00  0.00     0.074 A 
ATOM     64  C   UNL A   1      42.529  30.962  36.624  1.00  0.00     0.031 C 
ATOM     65  C   UNL A   1      42.871  29.408  34.722  1.00  0.00     0.034 A 
BRANCH  52  66
ATOM     66  C   UNL A   1      40.630  27.824  29.155  1.00  0.00     0.023 A 
ATOM     67  C   UNL A   1      41.559  28.022  28.117  1.00  0.00     0.031 A 
ATOM     68  C   UNL A   1      39.742  26.740  29.042  1.00  0.00     0.131 A 
ATOM     69  C   UNL A   1      41.526  27.200  26.980  1.00  0.00     0.055 A 
ATOM     70  C   UNL A   1      39.774  25.871  27.948  1.00  0.00     0.041 A 
ATOM     71  F   UNL A   1      38.817  26.512  29.986  1.00  0.00    -0.206 F 
ATOM     72  C   UNL A   1      40.660  26.109  26.901  1.00  0.00     0.022 A 
BRANCH  69  73
ATOM     73  S   UNL A   1      42.524  27.675  25.542  1.00  0.00     0.124 S 
ATOM     74  O   UNL A   1      42.323  26.532  24.654  1.00  0.00    -0.237 OA
ATOM     75  O   UNL A   1      41.903  28.926  25.125  1.00  0.00    -0.237 OA
ATOM     76  O   UNL A   1      43.874  27.799  26.089  1.00  0.00    -0.744 OA
ENDBRANCH  69  73
ENDBRANCH  52  66
BRANCH  53  77
ATOM     77  C   UNL A   1      39.576  33.955  37.024  1.00  0.00     0.023 A 
ATOM     78  C   UNL A   1      38.998  33.463  38.205  1.00  0.00     0.031 A 
ATOM     79  C   UNL A   1      39.939  35.314  36.987  1.00  0.00     0.131 A 
ATOM     80  C   UNL A   1      38.752  34.332  39.279  1.00  0.00     0.055 A 
ATOM     81  C   UNL A   1      39.749  36.160  38.080  1.00  0.00     0.041 A 
ATOM     82  F   UNL A   1      40.498  35.839  35.883  1.00  0.00    -0.206 F 
ATOM     83  C   UNL A   1      39.138  35.673  39.231  1.00  0.00     0.022 A 
BRANCH  80  84
ATOM     84  S   UNL A   1      37.824  33.707  40.707  1.00  0.00     0.124 S 
ATOM     85  O   UNL A   1      37.421  34.947  41.362  1.00  0.00    -0.237 OA
ATOM     86  O   UNL A   1      36.760  32.944  40.065  1.00  0.00    -0.237 OA
ATOM     87  O   UNL A   1      38.812  32.911  41.432  1.00  0.00    -0.744 OA
ENDBRANCH  80  84
ENDBRANCH  53  77
BRANCH  65  88
ATOM     88  C   UNL A   1      44.072  28.852  35.449  1.00  0.00     0.023 A 
ATOM     89  C   UNL A   1      43.970  27.769  36.340  1.00  0.00     0.031 A 
ATOM     90  C   UNL A   1      45.344  29.421  35.247  1.00  0.00     0.131 A 
ATOM     91  C   UNL A   1      45.104  27.326  37.036  1.00  0.00     0.055 A 
ATOM     92  C   UNL A   1      46.480  28.932  35.890  1.00  0.00     0.041 A 
ATOM     93  F   UNL A   1      45.501  30.461  34.412  1.00  0.00    -0.206 F 
ATOM     94  C   UNL A   1      46.363  27.887  36.801  1.00  0.00     0.022 A 
BRANCH  91  95
ATOM     95  S   UNL A   1      44.900  26.070  38.329  1.00  0.00     0.124 S 
ATOM     96  O   UNL A   1      44.076  26.773  39.306  1.00  0.00    -0.237 OA
ATOM     97  O   UNL A   1      44.243  24.984  37.607  1.00  0.00    -0.237 OA
ATOM     98  O   UNL A   1      46.268  25.790  38.757  1.00  0.00    -0.744 OA
ENDBRANCH  91  95
ENDBRANCH  65  88
ENDBRANCH  39  40
ENDBRANCH  31  34
ENDBRANCH  29  30
ENDBRANCH  28  29
ENDBRANCH   1  28
TORSDOF 19
ENDMDL
MODEL 2
REMARK VINA RESULT:     -12.1      5.305      8.648
REMARK SMILES Cc1cc(F)cc(N[C@H](C(=O)NCCCCCCNC(=O)c2ccc(-c3c4nc(c(-c5cc(S(=O)(=O)[O-])ccc5F)c5ccc([nH]5)c(-c5cc(S(=O)(=O)[O-])ccc5F)c5nc(c(-c6cc(S(=O)(=O)[O-])ccc6F)c6ccc3[nH]6)C=C5)C=C4)cc2)c2cc(C)cc(C)c2)c1
REMARK SMILES IDX 16 1 15 2 14 3 13 4 12 5 10 6 11 7 9 9 8 10 7 12 1 13 2 14
REMARK SMILES IDX 3 15 93 16 4 17 5 18 6 19 85 20 86 21 92 22 87 23 90 24
REMARK SMILES IDX 88 25 89 26 91 27 17 28 18 29 19 30 20 31 21 33 22 34 23 35
REMARK SMILES IDX 84 36 24 37 83 38 25 39 26 40 27 41 77 42 28 43 82 44 76 45
REMARK SMILES IDX 78 46 29 47 81 48 75 49 74 50 30 52 62 53 42 54 61 55 43 56
REMARK SMILES IDX 46 57 60 58 79 59 44 60 45 61 59 63 80 64 47 65 31 66 32 67
REMARK SMILES IDX 40 68 33 69 39 70 41 71 38 72 34 73 35 74 36 75 37 76 63 77
REMARK SMILES IDX 64 78 72 79 65 80 71 81 73 82 70 83 66 84 67 85 68 86 69 87
REMARK SMILES IDX 48 88 49 89 57 90 50 91 56 92 58 93 55 94 51 95 52 96 53 97
REMARK SMILES IDX 54 98
REMARK H PARENT 12 8 8 11 19 32 78 51 46 62
REMARK Flexibility Score: inf
ROOT
ATOM      1  C   UNL A   1      33.721  22.452  25.000  1.00  0.00     0.002 C 
ENDROOT
BRANCH   1   2
ATOM      2  C   UNL A   1      32.847  22.922  23.834  1.00  0.00     0.002 C 
BRANCH   2   3
ATOM      3  C   UNL A   1      31.353  23.077  24.141  1.00  0.00     0.021 C 
BRANCH   3   4
ATOM      4  C   UNL A   1      30.658  24.226  23.419  1.00  0.00     0.116 C 
BRANCH   4   5
ATOM      5  N   UNL A   1      31.512  24.869  22.446  1.00  0.00    -0.354 N 
ATOM      6  C   UNL A   1      31.936  26.166  22.379  1.00  0.00     0.247 C 
ATOM      7  O   UNL A   1      32.680  26.424  21.422  1.00  0.00    -0.272 OA
ATOM      8  H   UNL A   1      31.836  24.285  21.723  1.00  0.00     0.163 HD
BRANCH   6   9
ATOM      9  C   UNL A   1      31.419  27.277  23.344  1.00  0.00     0.200 C 
BRANCH   9  10
ATOM     10  N   UNL A   1      32.411  28.315  23.733  1.00  0.00    -0.370 N 
ATOM     11  H   UNL A   1      33.076  28.512  23.035  1.00  0.00     0.161 HD
BRANCH  10  12
ATOM     12  C   UNL A   1      32.578  29.055  24.889  1.00  0.00     0.038 A 
ATOM     13  C   UNL A   1      35.261  29.405  27.625  1.00  0.00     0.044 C 
ATOM     14  C   UNL A   1      34.010  29.613  26.826  1.00  0.00    -0.046 A 
ATOM     15  C   UNL A   1      33.092  30.572  27.248  1.00  0.00     0.042 A 
ATOM     16  C   UNL A   1      33.730  28.846  25.673  1.00  0.00     0.029 A 
ATOM     17  C   UNL A   1      31.963  30.792  26.489  1.00  0.00     0.125 A 
ATOM     18  F   UNL A   1      31.070  31.715  26.871  1.00  0.00    -0.207 F 
ATOM     19  C   UNL A   1      31.737  30.075  25.318  1.00  0.00     0.065 A 
ENDBRANCH  10  12
ENDBRANCH   9  10
BRANCH   9  20
ATOM     20  C   UNL A   1      30.086  27.909  22.934  1.00  0.00    -0.016 A 
ATOM     21  C   UNL A   1      30.062  29.062  22.141  1.00  0.00     0.009 A 
ATOM     22  C   UNL A   1      28.873  27.456  23.477  1.00  0.00     0.009 A 
ATOM     23  C   UNL A   1      28.959  29.916  22.153  1.00  0.00    -0.051 A 
ATOM     24  C   UNL A   1      27.697  28.203  23.318  1.00  0.00    -0.051 A 
ATOM     25  C   UNL A   1      29.152  31.360  21.787  1.00  0.00     0.044 C 
ATOM     26  C   UNL A   1      27.767  29.469  22.724  1.00  0.00     0.006 A 
ATOM     27  C   UNL A   1      26.393  27.721  23.877  1.00  0.00     0.044 C 
ENDBRANCH   9  20
ENDBRANCH   6   9
ENDBRANCH   4   5
ENDBRANCH   3   4
ENDBRANCH   2   3
ENDBRANCH   1   2
BRANCH   1  28
ATOM     28  C   UNL A   1      35.136  22.005  24.627  1.00  0.00     0.021 C 
BRANCH  28  29
ATOM     29  C   UNL A   1      36.193  22.235  25.701  1.00  0.00     0.116 C 
BRANCH  29  30
ATOM     30  N   UNL A   1      37.202  21.189  25.723  1.00  0.00    -0.352 N 
ATOM     31  C   UNL A   1      38.552  21.294  25.937  1.00  0.00     0.251 C 
ATOM     32  H   UNL A   1      36.868  20.277  25.562  1.00  0.00     0.163 HD
ATOM     33  O   UNL A   1      39.279  20.320  25.748  1.00  0.00    -0.269 OA
BRANCH  31  34
ATOM     34  C   UNL A   1      39.130  22.586  26.365  1.00  0.00     0.039 A 
ATOM     35  C   UNL A   1      40.202  22.582  27.260  1.00  0.00     0.014 A 
ATOM     36  C   UNL A   1      38.626  23.795  25.877  1.00  0.00     0.014 A 
ATOM     37  C   UNL A   1      40.805  23.790  27.620  1.00  0.00     0.010 A 
ATOM     38  C   UNL A   1      39.279  24.990  26.174  1.00  0.00     0.010 A 
ATOM     39  C   UNL A   1      40.373  25.000  27.052  1.00  0.00    -0.014 A 
BRANCH  39  40
ATOM     40  C   UNL A   1      41.051  26.283  27.376  1.00  0.00     0.031 A 
ATOM     41  C   UNL A   1      42.434  26.559  26.852  1.00  0.00     0.074 A 
ATOM     42  C   UNL A   1      40.439  27.178  28.178  1.00  0.00     0.049 A 
ATOM     43  N   UNL A   1      43.209  27.592  27.065  1.00  0.00    -0.248 NA
ATOM     44  C   UNL A   1      43.037  25.523  26.001  1.00  0.00     0.031 C 
ATOM     45  C   UNL A   1      39.113  27.006  28.776  1.00  0.00     0.029 A 
ATOM     46  N   UNL A   1      40.849  28.408  28.631  1.00  0.00    -0.354 N 
ATOM     47  C   UNL A   1      44.390  27.328  26.380  1.00  0.00     0.074 A 
ATOM     48  C   UNL A   1      44.255  26.007  25.806  1.00  0.00     0.031 C 
ATOM     49  C   UNL A   1      38.805  28.102  29.487  1.00  0.00     0.029 A 
ATOM     50  C   UNL A   1      39.930  29.032  29.444  1.00  0.00     0.049 A 
ATOM     51  H   UNL A   1      41.718  28.805  28.398  1.00  0.00     0.167 HD
ATOM     52  C   UNL A   1      45.477  28.125  26.223  1.00  0.00     0.034 A 
ATOM     53  C   UNL A   1      39.990  30.214  30.090  1.00  0.00     0.034 A 
ATOM     54  C   UNL A   1      45.592  29.444  26.798  1.00  0.00     0.049 A 
ATOM     55  C   UNL A   1      41.225  31.066  29.934  1.00  0.00     0.074 A 
ATOM     56  C   UNL A   1      46.626  30.354  26.664  1.00  0.00     0.029 A 
ATOM     57  N   UNL A   1      44.648  30.037  27.626  1.00  0.00    -0.354 N 
ATOM     58  N   UNL A   1      42.315  30.822  29.241  1.00  0.00    -0.248 NA
ATOM     59  C   UNL A   1      41.236  32.355  30.637  1.00  0.00     0.031 C 
ATOM     60  C   UNL A   1      46.345  31.460  27.473  1.00  0.00     0.029 A 
ATOM     61  C   UNL A   1      45.093  31.284  28.040  1.00  0.00     0.049 A 
ATOM     62  H   UNL A   1      43.788  29.632  27.884  1.00  0.00     0.167 HD
ATOM     63  C   UNL A   1      43.123  31.945  29.397  1.00  0.00     0.074 A 
ATOM     64  C   UNL A   1      42.389  32.869  30.237  1.00  0.00     0.031 C 
ATOM     65  C   UNL A   1      44.356  32.194  28.885  1.00  0.00     0.034 A 
BRANCH  52  66
ATOM     66  C   UNL A   1      46.635  27.576  25.422  1.00  0.00     0.023 A 
ATOM     67  C   UNL A   1      46.924  28.040  24.125  1.00  0.00     0.031 A 
ATOM     68  C   UNL A   1      47.451  26.560  25.951  1.00  0.00     0.131 A 
ATOM     69  C   UNL A   1      47.945  27.436  23.375  1.00  0.00     0.055 A 
ATOM     70  C   UNL A   1      48.523  26.026  25.232  1.00  0.00     0.041 A 
ATOM     71  F   UNL A   1      47.214  26.058  27.172  1.00  0.00    -0.206 F 
ATOM     72  C   UNL A   1      48.765  26.453  23.929  1.00  0.00     0.022 A 
BRANCH  69  73
ATOM     73  S   UNL A   1      48.081  27.848  21.614  1.00  0.00     0.124 S 
ATOM     74  O   UNL A   1      46.784  28.468  21.355  1.00  0.00    -0.237 OA
ATOM     75  O   UNL A   1      49.234  28.740  21.587  1.00  0.00    -0.237 OA
ATOM     76  O   UNL A   1      48.281  26.549  20.974  1.00  0.00    -0.744 OA
ENDBRANCH  69  73
ENDBRANCH  52  66
BRANCH  53  77
ATOM     77  C   UNL A   1      38.858  30.665  30.952  1.00  0.00     0.023 A 
ATOM     78  C   UNL A   1      37.847  31.499  30.446  1.00  0.00     0.031 A 
ATOM     79  C   UNL A   1      38.794  30.307  32.311  1.00  0.00     0.131 A 
ATOM     80  C   UNL A   1      36.849  31.989  31.302  1.00  0.00     0.055 A 
ATOM     81  C   UNL A   1      37.765  30.747  33.144  1.00  0.00     0.041 A 
ATOM     82  F   UNL A   1      39.733  29.510  32.849  1.00  0.00    -0.206 F 
ATOM     83  C   UNL A   1      36.792  31.607  32.644  1.00  0.00     0.022 A 
BRANCH  80  84
ATOM     84  S   UNL A   1      35.682  33.220  30.660  1.00  0.00     0.124 S 
ATOM     85  O   UNL A   1      34.399  32.580  30.934  1.00  0.00    -0.237 OA
ATOM     86  O   UNL A   1      36.001  34.390  31.470  1.00  0.00    -0.237 OA
ATOM     87  O   UNL A   1      36.040  33.323  29.247  1.00  0.00    -0.744 OA
ENDBRANCH  80  84
ENDBRANCH  53  77
BRANCH  65  88
ATOM     88  C   UNL A   1      44.966  33.544  29.180  1.00  0.00     0.023 A 
ATOM     89  C   UNL A   1      44.704  34.671  28.382  1.00  0.00     0.031 A 
ATOM     90  C   UNL A   1      45.829  33.702  30.281  1.00  0.00     0.131 A 
ATOM     91  C   UNL A   1      45.341  35.889  28.662  1.00  0.00     0.055 A 
ATOM     92  C   UNL A   1      46.405  34.932  30.595  1.00  0.00     0.041 A 
ATOM     93  F   UNL A   1      46.119  32.659  31.075  1.00  0.00    -0.206 F 
ATOM     94  C   UNL A   1      46.173  36.032  29.776  1.00  0.00     0.022 A 
BRANCH  91  95
ATOM     95  S   UNL A   1      45.146  37.264  27.494  1.00  0.00     0.124 S 
ATOM     96  O   UNL A   1      46.310  37.095  26.632  1.00  0.00    -0.237 OA
ATOM     97  O   UNL A   1      43.853  36.972  26.882  1.00  0.00    -0.237 OA
ATOM     98  O   UNL A   1      45.173  38.449  28.350  1.00  0.00    -0.744 OA
ENDBRANCH  91  95
ENDBRANCH  65  88
ENDBRANCH  39  40
ENDBRANCH  31  34
ENDBRANCH  29  30
ENDBRANCH  28  29
ENDBRANCH   1  28
TORSDOF 19
ENDMDL
MODEL 3
REMARK VINA RESULT:     -12.0      5.049     11.427
REMARK SMILES Cc1cc(F)cc(N[C@H](C(=O)NCCCCCCNC(=O)c2ccc(-c3c4nc(c(-c5cc(S(=O)(=O)[O-])ccc5F)c5ccc([nH]5)c(-c5cc(S(=O)(=O)[O-])ccc5F)c5nc(c(-c6cc(S(=O)(=O)[O-])ccc6F)c6ccc3[nH]6)C=C5)C=C4)cc2)c2cc(C)cc(C)c2)c1
REMARK SMILES IDX 16 1 15 2 14 3 13 4 12 5 10 6 11 7 9 9 8 10 7 12 1 13 2 14
REMARK SMILES IDX 3 15 93 16 4 17 5 18 6 19 85 20 86 21 92 22 87 23 90 24
REMARK SMILES IDX 88 25 89 26 91 27 17 28 18 29 19 30 20 31 21 33 22 34 23 35
REMARK SMILES IDX 84 36 24 37 83 38 25 39 26 40 27 41 77 42 28 43 82 44 76 45
REMARK SMILES IDX 78 46 29 47 81 48 75 49 74 50 30 52 62 53 42 54 61 55 43 56
REMARK SMILES IDX 46 57 60 58 79 59 44 60 45 61 59 63 80 64 47 65 31 66 32 67
REMARK SMILES IDX 40 68 33 69 39 70 41 71 38 72 34 73 35 74 36 75 37 76 63 77
REMARK SMILES IDX 64 78 72 79 65 80 71 81 73 82 70 83 66 84 67 85 68 86 69 87
REMARK SMILES IDX 48 88 49 89 57 90 50 91 56 92 58 93 55 94 51 95 52 96 53 97
REMARK SMILES IDX 54 98
REMARK H PARENT 12 8 8 11 19 32 78 51 46 62
REMARK Flexibility Score: inf
ROOT
ATOM      1  C   UNL A   1      34.386  34.508  30.477  1.00  0.00     0.002 C 
ENDROOT
BRANCH   1   2
ATOM      2  C   UNL A   1      35.611  33.700  30.917  1.00  0.00     0.002 C 
BRANCH   2   3
ATOM      3  C   UNL A   1      35.321  32.311  31.496  1.00  0.00     0.021 C 
BRANCH   3   4
ATOM      4  C   UNL A   1      35.889  32.056  32.888  1.00  0.00     0.116 C 
BRANCH   4   5
ATOM      5  N   UNL A   1      35.417  33.010  33.865  1.00  0.00    -0.354 N 
ATOM      6  C   UNL A   1      36.124  33.800  34.726  1.00  0.00     0.247 C 
ATOM      7  O   UNL A   1      35.435  34.535  35.448  1.00  0.00    -0.272 OA
ATOM      8  H   UNL A   1      34.439  33.105  33.918  1.00  0.00     0.163 HD
BRANCH   6   9
ATOM      9  C   UNL A   1      37.671  33.692  34.898  1.00  0.00     0.200 C 
BRANCH   9  10
ATOM     10  N   UNL A   1      38.482  34.669  34.122  1.00  0.00    -0.370 N 
ATOM     11  H   UNL A   1      38.447  35.587  34.475  1.00  0.00     0.161 HD
BRANCH  10  12
ATOM     12  C   UNL A   1      39.274  34.533  32.997  1.00  0.00     0.038 A 
ATOM     13  C   UNL A   1      38.719  34.249  29.199  1.00  0.00     0.044 C 
ATOM     14  C   UNL A   1      39.395  34.340  30.535  1.00  0.00    -0.046 A 
ATOM     15  C   UNL A   1      40.787  34.335  30.588  1.00  0.00     0.042 A 
ATOM     16  C   UNL A   1      38.656  34.408  31.736  1.00  0.00     0.029 A 
ATOM     17  C   UNL A   1      41.407  34.462  31.812  1.00  0.00     0.125 A 
ATOM     18  F   UNL A   1      42.745  34.467  31.886  1.00  0.00    -0.207 F 
ATOM     19  C   UNL A   1      40.662  34.597  32.980  1.00  0.00     0.065 A 
ENDBRANCH  10  12
ENDBRANCH   9  10
BRANCH   9  20
ATOM     20  C   UNL A   1      38.148  33.605  36.350  1.00  0.00    -0.016 A 
ATOM     21  C   UNL A   1      37.783  32.517  37.152  1.00  0.00     0.009 A 
ATOM     22  C   UNL A   1      38.810  34.682  36.960  1.00  0.00     0.009 A 
ATOM     23  C   UNL A   1      37.771  32.626  38.543  1.00  0.00    -0.051 A 
ATOM     24  C   UNL A   1      38.997  34.710  38.350  1.00  0.00    -0.051 A 
ATOM     25  C   UNL A   1      36.877  31.717  39.336  1.00  0.00     0.044 C 
ATOM     26  C   UNL A   1      38.404  33.716  39.139  1.00  0.00     0.006 A 
ATOM     27  C   UNL A   1      39.718  35.846  39.011  1.00  0.00     0.044 C 
ENDBRANCH   9  20
ENDBRANCH   6   9
ENDBRANCH   4   5
ENDBRANCH   3   4
ENDBRANCH   2   3
ENDBRANCH   1   2
BRANCH   1  28
ATOM     28  C   UNL A   1      34.110  34.524  28.973  1.00  0.00     0.021 C 
BRANCH  28  29
ATOM     29  C   UNL A   1      34.934  33.538  28.153  1.00  0.00     0.116 C 
BRANCH  29  30
ATOM     30  N   UNL A   1      34.141  32.421  27.665  1.00  0.00    -0.352 N 
ATOM     31  C   UNL A   1      34.474  31.092  27.590  1.00  0.00     0.251 C 
ATOM     32  H   UNL A   1      33.240  32.650  27.345  1.00  0.00     0.163 HD
ATOM     33  O   UNL A   1      33.739  30.311  26.988  1.00  0.00    -0.269 OA
BRANCH  31  34
ATOM     34  C   UNL A   1      35.729  30.612  28.208  1.00  0.00     0.039 A 
ATOM     35  C   UNL A   1      35.656  29.702  29.265  1.00  0.00     0.014 A 
ATOM     36  C   UNL A   1      36.972  31.048  27.740  1.00  0.00     0.014 A 
ATOM     37  C   UNL A   1      36.832  29.185  29.813  1.00  0.00     0.010 A 
ATOM     38  C   UNL A   1      38.140  30.471  28.233  1.00  0.00     0.010 A 
ATOM     39  C   UNL A   1      38.082  29.537  29.279  1.00  0.00    -0.014 A 
BRANCH  39  40
ATOM     40  C   UNL A   1      39.338  28.941  29.810  1.00  0.00     0.031 A 
ATOM     41  C   UNL A   1      39.993  29.525  31.031  1.00  0.00     0.074 A 
ATOM     42  C   UNL A   1      39.909  27.904  29.165  1.00  0.00     0.049 A 
ATOM     43  N   UNL A   1      41.112  29.181  31.615  1.00  0.00    -0.248 NA
ATOM     44  C   UNL A   1      39.314  30.668  31.663  1.00  0.00     0.031 C 
ATOM     45  C   UNL A   1      39.386  27.275  27.949  1.00  0.00     0.029 A 
ATOM     46  N   UNL A   1      41.054  27.196  29.436  1.00  0.00    -0.354 N 
ATOM     47  C   UNL A   1      41.275  30.065  32.676  1.00  0.00     0.074 A 
ATOM     48  C   UNL A   1      40.176  31.004  32.610  1.00  0.00     0.031 C 
ATOM     49  C   UNL A   1      40.187  26.256  27.602  1.00  0.00     0.029 A 
ATOM     50  C   UNL A   1      41.310  26.190  28.533  1.00  0.00     0.049 A 
ATOM     51  H   UNL A   1      41.637  27.390  30.205  1.00  0.00     0.167 HD
ATOM     52  C   UNL A   1      42.238  30.076  33.632  1.00  0.00     0.034 A 
ATOM     53  C   UNL A   1      42.337  25.320  28.456  1.00  0.00     0.034 A 
ATOM     54  C   UNL A   1      43.323  29.127  33.686  1.00  0.00     0.049 A 
ATOM     55  C   UNL A   1      43.418  25.377  29.506  1.00  0.00     0.074 A 
ATOM     56  C   UNL A   1      44.325  29.017  34.634  1.00  0.00     0.029 A 
ATOM     57  N   UNL A   1      43.558  28.131  32.746  1.00  0.00    -0.354 N 
ATOM     58  N   UNL A   1      43.530  26.189  30.533  1.00  0.00    -0.248 NA
ATOM     59  C   UNL A   1      44.504  24.396  29.395  1.00  0.00     0.031 C 
ATOM     60  C   UNL A   1      45.208  28.012  34.227  1.00  0.00     0.029 A 
ATOM     61  C   UNL A   1      44.709  27.428  33.073  1.00  0.00     0.049 A 
ATOM     62  H   UNL A   1      42.991  27.950  31.961  1.00  0.00     0.167 HD
ATOM     63  C   UNL A   1      44.681  25.790  31.209  1.00  0.00     0.074 A 
ATOM     64  C   UNL A   1      45.216  24.658  30.481  1.00  0.00     0.031 C 
ATOM     65  C   UNL A   1      45.238  26.306  32.334  1.00  0.00     0.034 A 
BRANCH  52  66
ATOM     66  C   UNL A   1      42.172  31.167  34.677  1.00  0.00     0.023 A 
ATOM     67  C   UNL A   1      42.860  32.384  34.520  1.00  0.00     0.031 A 
ATOM     68  C   UNL A   1      41.429  30.981  35.856  1.00  0.00     0.131 A 
ATOM     69  C   UNL A   1      42.855  33.331  35.556  1.00  0.00     0.055 A 
ATOM     70  C   UNL A   1      41.356  31.965  36.845  1.00  0.00     0.041 A 
ATOM     71  F   UNL A   1      40.771  29.833  36.076  1.00  0.00    -0.206 F 
ATOM     72  C   UNL A   1      42.085  33.143  36.704  1.00  0.00     0.022 A 
BRANCH  69  73
ATOM     73  S   UNL A   1      43.993  34.738  35.445  1.00  0.00     0.124 S 
ATOM     74  O   UNL A   1      43.067  35.851  35.241  1.00  0.00    -0.237 OA
ATOM     75  O   UNL A   1      44.672  34.698  36.734  1.00  0.00    -0.237 OA
ATOM     76  O   UNL A   1      44.827  34.414  34.289  1.00  0.00    -0.744 OA
ENDBRANCH  69  73
ENDBRANCH  52  66
BRANCH  53  77
ATOM     77  C   UNL A   1      42.407  24.327  27.344  1.00  0.00     0.023 A 
ATOM     78  C   UNL A   1      41.598  23.179  27.344  1.00  0.00     0.031 A 
ATOM     79  C   UNL A   1      43.320  24.486  26.285  1.00  0.00     0.131 A 
ATOM     80  C   UNL A   1      41.755  22.211  26.339  1.00  0.00     0.055 A 
ATOM     81  C   UNL A   1      43.428  23.552  25.255  1.00  0.00     0.041 A 
ATOM     82  F   UNL A   1      44.118  25.567  26.232  1.00  0.00    -0.206 F 
ATOM     83  C   UNL A   1      42.653  22.397  25.287  1.00  0.00     0.022 A 
BRANCH  80  84
ATOM     84  S   UNL A   1      40.838  20.653  26.484  1.00  0.00     0.124 S 
ATOM     85  O   UNL A   1      41.601  19.779  25.600  1.00  0.00    -0.237 OA
ATOM     86  O   UNL A   1      40.942  20.372  27.911  1.00  0.00    -0.237 OA
ATOM     87  O   UNL A   1      39.499  21.001  26.013  1.00  0.00    -0.744 OA
ENDBRANCH  80  84
ENDBRANCH  53  77
BRANCH  65  88
ATOM     88  C   UNL A   1      46.468  25.615  32.875  1.00  0.00     0.023 A 
ATOM     89  C   UNL A   1      46.382  24.535  33.771  1.00  0.00     0.031 A 
ATOM     90  C   UNL A   1      47.749  26.049  32.485  1.00  0.00     0.131 A 
ATOM     91  C   UNL A   1      47.553  23.964  34.291  1.00  0.00     0.055 A 
ATOM     92  C   UNL A   1      48.909  25.432  32.952  1.00  0.00     0.041 A 
ATOM     93  F   UNL A   1      47.892  27.079  31.636  1.00  0.00    -0.206 F 
ATOM     94  C   UNL A   1      48.816  24.392  33.871  1.00  0.00     0.022 A 
BRANCH  91  95
ATOM     95  S   UNL A   1      47.409  22.717  35.600  1.00  0.00     0.124 S 
ATOM     96  O   UNL A   1      47.149  21.502  34.834  1.00  0.00    -0.237 OA
ATOM     97  O   UNL A   1      48.714  22.792  36.249  1.00  0.00    -0.237 OA
ATOM     98  O   UNL A   1      46.288  23.193  36.407  1.00  0.00    -0.744 OA
ENDBRANCH  91  95
ENDBRANCH  65  88
ENDBRANCH  39  40
ENDBRANCH  31  34
ENDBRANCH  29  30
ENDBRANCH  28  29
ENDBRANCH   1  28
TORSDOF 19
ENDMDL
