MODEL 1
REMARK VINA RESULT:     -12.5      0.000      0.000
REMARK SMILES O=C(NCCCCCCNC(=O)c1ccc(-c2c3nc(c(-c4cc(S(=O)(=O)[O-])ccc4F)c4ccc([nH]4)c(-c4cc(S(=O)(=O)[O-])ccc4F)c4nc(c(-c5cc(S(=O)(=O)[O-])ccc5F)c5ccc2[nH]5)C=C4)C=C3)cc1)C1=Cc2cc(Cl)cc(C#Cc3ccccc3)c2O[C@@H]1C(F)(F)F
REMARK SMILES IDX 7 1 6 2 5 3 4 4 3 5 1 6 2 7 76 9 77 10 94 11 78 12 93 13
REMARK SMILES IDX 79 14 92 15 80 16 83 17 81 18 82 19 95 20 96 21 97 22 98 23
REMARK SMILES IDX 84 24 85 25 86 26 87 27 91 28 88 29 90 30 89 31 8 32 9 33
REMARK SMILES IDX 10 34 11 35 12 37 13 38 14 39 75 40 15 41 74 42 16 43 17 44
REMARK SMILES IDX 18 45 68 46 19 47 73 48 67 49 69 50 20 51 72 52 66 53 65 54
REMARK SMILES IDX 21 56 53 57 33 58 52 59 34 60 37 61 51 62 70 63 35 64 36 65
REMARK SMILES IDX 50 67 71 68 38 69 22 70 23 71 31 72 24 73 30 74 32 75 29 76
REMARK SMILES IDX 25 77 26 78 27 79 28 80 54 81 55 82 63 83 56 84 62 85 64 86
REMARK SMILES IDX 61 87 57 88 58 89 59 90 60 91 39 92 40 93 48 94 41 95 47 96
REMARK SMILES IDX 49 97 46 98 42 99 43 100 44 101 45 102
REMARK H PARENT 3 8 10 36 69 55 37 66
REMARK Flexibility Score: inf
ROOT
ATOM      1  C   UNL A   1      33.837  22.414  26.143  1.00  0.00     0.002 C 
ENDROOT
BRANCH   1   2
ATOM      2  C   UNL A   1      34.014  21.741  24.777  1.00  0.00     0.002 C 
BRANCH   2   3
ATOM      3  C   UNL A   1      33.410  22.467  23.577  1.00  0.00     0.021 C 
BRANCH   3   4
ATOM      4  C   UNL A   1      34.322  23.458  22.866  1.00  0.00     0.116 C 
BRANCH   4   5
ATOM      5  N   UNL A   1      33.681  24.639  22.320  1.00  0.00    -0.352 N 
ATOM      6  O   UNL A   1      32.640  26.628  22.341  1.00  0.00    -0.270 OA
ATOM      7  C   UNL A   1      32.979  25.621  22.964  1.00  0.00     0.251 C 
ATOM      8  H   UNL A   1      33.763  24.749  21.345  1.00  0.00     0.163 HD
BRANCH   7   9
ATOM      9  C   UNL A   1      32.687  25.575  24.432  1.00  0.00     0.067 C 
ATOM     10  C   UNL A   1      33.554  26.013  25.363  1.00  0.00     0.025 C 
ATOM     11  C   UNL A   1      31.214  25.764  24.709  1.00  0.00     0.314 C 
ATOM     12  C   UNL A   1      33.138  27.317  25.951  1.00  0.00     0.020 A 
ATOM     13  O   UNL A   1      30.921  27.168  24.945  1.00  0.00    -0.474 OA
ATOM     14  C   UNL A   1      34.124  28.084  26.585  1.00  0.00     0.032 A 
ATOM     15  C   UNL A   1      31.917  27.902  25.550  1.00  0.00     0.143 A 
ATOM     16  C   UNL A   1      33.933  29.455  26.724  1.00  0.00     0.043 A 
ATOM     17  C   UNL A   1      31.781  29.295  25.617  1.00  0.00     0.069 A 
ATOM     18  Cl  UNL A   1      35.216  30.431  27.327  1.00  0.00    -0.084 Cl
ATOM     19  C   UNL A   1      32.781  30.063  26.230  1.00  0.00     0.041 A 
BRANCH  11  20
ATOM     20  C   UNL A   1      30.726  24.833  25.837  1.00  0.00     0.429 C 
ATOM     21  F   UNL A   1      29.535  25.232  26.339  1.00  0.00    -0.167 F 
ATOM     22  F   UNL A   1      30.550  23.564  25.383  1.00  0.00    -0.167 F 
ATOM     23  F   UNL A   1      31.595  24.757  26.873  1.00  0.00    -0.167 F 
ENDBRANCH  11  20
BRANCH  17  24
ATOM     24  C   UNL A   1      30.803  30.009  24.839  1.00  0.00    -0.058 C 
ATOM     25  C   UNL A   1      30.033  30.459  24.033  1.00  0.00    -0.062 C 
BRANCH  25  26
ATOM     26  C   UNL A   1      29.220  30.960  22.961  1.00  0.00     0.025 A 
ATOM     27  C   UNL A   1      28.832  30.143  21.893  1.00  0.00     0.017 A 
ATOM     28  C   UNL A   1      28.862  32.309  22.958  1.00  0.00     0.017 A 
ATOM     29  C   UNL A   1      28.090  30.676  20.832  1.00  0.00     0.001 A 
ATOM     30  C   UNL A   1      28.116  32.838  21.902  1.00  0.00     0.001 A 
ATOM     31  C   UNL A   1      27.731  32.023  20.840  1.00  0.00     0.000 A 
ENDBRANCH  25  26
ENDBRANCH  17  24
ENDBRANCH   7   9
ENDBRANCH   4   5
ENDBRANCH   3   4
ENDBRANCH   2   3
ENDBRANCH   1   2
BRANCH   1  32
ATOM     32  C   UNL A   1      35.109  22.872  26.860  1.00  0.00     0.021 C 
BRANCH  32  33
ATOM     33  C   UNL A   1      36.291  23.234  25.967  1.00  0.00     0.116 C 
BRANCH  33  34
ATOM     34  N   UNL A   1      37.406  22.320  26.122  1.00  0.00    -0.352 N 
ATOM     35  C   UNL A   1      38.720  22.577  26.426  1.00  0.00     0.251 C 
ATOM     36  H   UNL A   1      37.188  21.370  25.990  1.00  0.00     0.163 HD
ATOM     37  O   UNL A   1      39.544  21.671  26.330  1.00  0.00    -0.269 OA
BRANCH  35  38
ATOM     38  C   UNL A   1      39.148  23.932  26.842  1.00  0.00     0.039 A 
ATOM     39  C   UNL A   1      38.903  24.338  28.157  1.00  0.00     0.014 A 
ATOM     40  C   UNL A   1      39.757  24.816  25.945  1.00  0.00     0.014 A 
ATOM     41  C   UNL A   1      39.311  25.604  28.584  1.00  0.00     0.010 A 
ATOM     42  C   UNL A   1      40.237  26.045  26.394  1.00  0.00     0.010 A 
ATOM     43  C   UNL A   1      40.011  26.458  27.715  1.00  0.00    -0.014 A 
BRANCH  43  44
ATOM     44  C   UNL A   1      40.494  27.788  28.173  1.00  0.00     0.031 A 
ATOM     45  C   UNL A   1      41.965  28.107  28.155  1.00  0.00     0.074 A 
ATOM     46  C   UNL A   1      39.613  28.693  28.642  1.00  0.00     0.049 A 
ATOM     47  N   UNL A   1      42.585  29.185  28.564  1.00  0.00    -0.248 NA
ATOM     48  C   UNL A   1      42.859  27.062  27.633  1.00  0.00     0.031 C 
ATOM     49  C   UNL A   1      38.167  28.486  28.744  1.00  0.00     0.029 A 
ATOM     50  N   UNL A   1      39.800  29.963  29.127  1.00  0.00    -0.354 N 
ATOM     51  C   UNL A   1      43.939  28.948  28.351  1.00  0.00     0.074 A 
ATOM     52  C   UNL A   1      44.052  27.594  27.851  1.00  0.00     0.031 C 
ATOM     53  C   UNL A   1      37.597  29.598  29.234  1.00  0.00     0.029 A 
ATOM     54  C   UNL A   1      38.638  30.577  29.534  1.00  0.00     0.049 A 
ATOM     55  H   UNL A   1      40.684  30.396  29.180  1.00  0.00     0.167 HD
ATOM     56  C   UNL A   1      44.989  29.790  28.527  1.00  0.00     0.034 A 
ATOM     57  C   UNL A   1      38.432  31.783  30.101  1.00  0.00     0.034 A 
ATOM     58  C   UNL A   1      44.857  31.135  29.034  1.00  0.00     0.049 A 
ATOM     59  C   UNL A   1      39.616  32.685  30.338  1.00  0.00     0.074 A 
ATOM     60  C   UNL A   1      45.845  32.086  29.224  1.00  0.00     0.029 A 
ATOM     61  N   UNL A   1      43.664  31.718  29.448  1.00  0.00    -0.354 N 
ATOM     62  N   UNL A   1      40.887  32.464  30.088  1.00  0.00    -0.248 NA
ATOM     63  C   UNL A   1      39.338  34.004  30.919  1.00  0.00     0.031 C 
ATOM     64  C   UNL A   1      45.264  33.209  29.825  1.00  0.00     0.029 A 
ATOM     65  C   UNL A   1      43.898  33.000  29.924  1.00  0.00     0.049 A 
ATOM     66  H   UNL A   1      42.781  31.285  29.408  1.00  0.00     0.167 HD
ATOM     67  C   UNL A   1      41.556  33.628  30.457  1.00  0.00     0.074 A 
ATOM     68  C   UNL A   1      40.544  34.553  30.927  1.00  0.00     0.031 C 
ATOM     69  C   UNL A   1      42.883  33.909  30.406  1.00  0.00     0.034 A 
BRANCH  56  70
ATOM     70  C   UNL A   1      46.365  29.261  28.192  1.00  0.00     0.023 A 
ATOM     71  C   UNL A   1      46.744  28.981  26.866  1.00  0.00     0.031 A 
ATOM     72  C   UNL A   1      47.298  28.991  29.208  1.00  0.00     0.131 A 
ATOM     73  C   UNL A   1      47.977  28.365  26.602  1.00  0.00     0.055 A 
ATOM     74  C   UNL A   1      48.563  28.467  28.929  1.00  0.00     0.041 A 
ATOM     75  F   UNL A   1      46.992  29.214  30.496  1.00  0.00    -0.206 F 
ATOM     76  C   UNL A   1      48.901  28.132  27.621  1.00  0.00     0.022 A 
BRANCH  73  77
ATOM     77  S   UNL A   1      48.275  27.712  24.936  1.00  0.00     0.124 S 
ATOM     78  O   UNL A   1      49.634  28.183  24.674  1.00  0.00    -0.237 OA
ATOM     79  O   UNL A   1      48.123  26.275  25.127  1.00  0.00    -0.237 OA
ATOM     80  O   UNL A   1      47.238  28.348  24.128  1.00  0.00    -0.744 OA
ENDBRANCH  73  77
ENDBRANCH  56  70
BRANCH  57  81
ATOM     81  C   UNL A   1      37.058  32.195  30.506  1.00  0.00     0.023 A 
ATOM     82  C   UNL A   1      36.189  32.832  29.606  1.00  0.00     0.031 A 
ATOM     83  C   UNL A   1      36.600  31.981  31.820  1.00  0.00     0.131 A 
ATOM     84  C   UNL A   1      34.928  33.269  30.040  1.00  0.00     0.055 A 
ATOM     85  C   UNL A   1      35.323  32.364  32.230  1.00  0.00     0.041 A 
ATOM     86  F   UNL A   1      37.389  31.375  32.723  1.00  0.00    -0.206 F 
ATOM     87  C   UNL A   1      34.481  33.024  31.341  1.00  0.00     0.022 A 
BRANCH  84  88
ATOM     88  S   UNL A   1      33.904  34.242  28.902  1.00  0.00     0.124 S 
ATOM     89  O   UNL A   1      33.521  33.239  27.915  1.00  0.00    -0.237 OA
ATOM     90  O   UNL A   1      32.840  34.718  29.780  1.00  0.00    -0.237 OA
ATOM     91  O   UNL A   1      34.819  35.275  28.419  1.00  0.00    -0.744 OA
ENDBRANCH  84  88
ENDBRANCH  57  81
BRANCH  69  92
ATOM     92  C   UNL A   1      43.311  35.294  30.831  1.00  0.00     0.023 A 
ATOM     93  C   UNL A   1      43.520  35.628  32.182  1.00  0.00     0.031 A 
ATOM     94  C   UNL A   1      43.507  36.300  29.866  1.00  0.00     0.131 A 
ATOM     95  C   UNL A   1      43.852  36.945  32.533  1.00  0.00     0.055 A 
ATOM     96  C   UNL A   1      43.907  37.590  30.218  1.00  0.00     0.041 A 
ATOM     97  F   UNL A   1      43.317  36.043  28.562  1.00  0.00    -0.206 F 
ATOM     98  C   UNL A   1      44.067  37.923  31.559  1.00  0.00     0.022 A 
BRANCH  95  99
ATOM     99  S   UNL A   1      43.895  37.393  34.291  1.00  0.00     0.124 S 
ATOM    100  O   UNL A   1      42.477  37.383  34.640  1.00  0.00    -0.237 OA
ATOM    101  O   UNL A   1      44.701  36.321  34.867  1.00  0.00    -0.237 OA
ATOM    102  O   UNL A   1      44.526  38.712  34.293  1.00  0.00    -0.744 OA
ENDBRANCH  95  99
ENDBRANCH  69  92
ENDBRANCH  43  44
ENDBRANCH  35  38
ENDBRANCH  33  34
ENDBRANCH  32  33
ENDBRANCH   1  32
TORSDOF 19
ENDMDL
MODEL 2
REMARK VINA RESULT:     -12.3      2.819      8.142
REMARK SMILES O=C(NCCCCCCNC(=O)c1ccc(-c2c3nc(c(-c4cc(S(=O)(=O)[O-])ccc4F)c4ccc([nH]4)c(-c4cc(S(=O)(=O)[O-])ccc4F)c4nc(c(-c5cc(S(=O)(=O)[O-])ccc5F)c5ccc2[nH]5)C=C4)C=C3)cc1)C1=Cc2cc(Cl)cc(C#Cc3ccccc3)c2O[C@@H]1C(F)(F)F
REMARK SMILES IDX 7 1 6 2 5 3 4 4 3 5 1 6 2 7 76 9 77 10 94 11 78 12 93 13
REMARK SMILES IDX 79 14 92 15 80 16 83 17 81 18 82 19 95 20 96 21 97 22 98 23
REMARK SMILES IDX 84 24 85 25 86 26 87 27 91 28 88 29 90 30 89 31 8 32 9 33
REMARK SMILES IDX 10 34 11 35 12 37 13 38 14 39 75 40 15 41 74 42 16 43 17 44
REMARK SMILES IDX 18 45 68 46 19 47 73 48 67 49 69 50 20 51 72 52 66 53 65 54
REMARK SMILES IDX 21 56 53 57 33 58 52 59 34 60 37 61 51 62 70 63 35 64 36 65
REMARK SMILES IDX 50 67 71 68 38 69 22 70 23 71 31 72 24 73 30 74 32 75 29 76
REMARK SMILES IDX 25 77 26 78 27 79 28 80 54 81 55 82 63 83 56 84 62 85 64 86
REMARK SMILES IDX 61 87 57 88 58 89 59 90 60 91 39 92 40 93 48 94 41 95 47 96
REMARK SMILES IDX 49 97 46 98 42 99 43 100 44 101 45 102
REMARK H PARENT 3 8 10 36 69 55 37 66
REMARK Flexibility Score: inf
ROOT
ATOM      1  C   UNL A   1      34.354  22.259  24.383  1.00  0.00     0.002 C 
ENDROOT
BRANCH   1   2
ATOM      2  C   UNL A   1      33.712  21.140  25.210  1.00  0.00     0.002 C 
BRANCH   2   3
ATOM      3  C   UNL A   1      32.448  21.506  25.984  1.00  0.00     0.021 C 
BRANCH   3   4
ATOM      4  C   UNL A   1      31.464  22.419  25.265  1.00  0.00     0.116 C 
BRANCH   4   5
ATOM      5  N   UNL A   1      30.946  23.533  26.037  1.00  0.00    -0.352 N 
ATOM      6  O   UNL A   1      30.053  25.559  26.407  1.00  0.00    -0.270 OA
ATOM      7  C   UNL A   1      30.626  24.798  25.627  1.00  0.00     0.251 C 
ATOM      8  H   UNL A   1      30.804  23.352  26.995  1.00  0.00     0.163 HD
BRANCH   7   9
ATOM      9  C   UNL A   1      30.853  25.274  24.225  1.00  0.00     0.067 C 
ATOM     10  C   UNL A   1      29.893  25.867  23.491  1.00  0.00     0.025 C 
ATOM     11  C   UNL A   1      32.274  25.747  24.024  1.00  0.00     0.314 C 
ATOM     12  C   UNL A   1      30.106  27.335  23.364  1.00  0.00     0.020 A 
ATOM     13  O   UNL A   1      32.368  27.177  24.264  1.00  0.00    -0.474 OA
ATOM     14  C   UNL A   1      29.000  28.122  23.019  1.00  0.00     0.032 A 
ATOM     15  C   UNL A   1      31.257  27.922  23.935  1.00  0.00     0.143 A 
ATOM     16  C   UNL A   1      29.001  29.475  23.339  1.00  0.00     0.043 A 
ATOM     17  C   UNL A   1      31.206  29.266  24.330  1.00  0.00     0.069 A 
ATOM     18  Cl  UNL A   1      27.575  30.405  23.092  1.00  0.00    -0.084 Cl
ATOM     19  C   UNL A   1      30.085  30.044  24.005  1.00  0.00     0.041 A 
BRANCH  11  20
ATOM     20  C   UNL A   1      32.827  25.312  22.653  1.00  0.00     0.429 C 
ATOM     21  F   UNL A   1      34.177  25.224  22.660  1.00  0.00    -0.167 F 
ATOM     22  F   UNL A   1      32.359  24.085  22.303  1.00  0.00    -0.167 F 
ATOM     23  F   UNL A   1      32.484  26.158  21.652  1.00  0.00    -0.167 F 
ENDBRANCH  11  20
BRANCH  17  24
ATOM     24  C   UNL A   1      32.116  29.816  25.299  1.00  0.00    -0.058 C 
ATOM     25  C   UNL A   1      32.981  30.084  26.090  1.00  0.00    -0.062 C 
BRANCH  25  26
ATOM     26  C   UNL A   1      34.007  30.254  27.079  1.00  0.00     0.025 A 
ATOM     27  C   UNL A   1      34.096  31.420  27.849  1.00  0.00     0.017 A 
ATOM     28  C   UNL A   1      34.972  29.258  27.230  1.00  0.00     0.017 A 
ATOM     29  C   UNL A   1      35.143  31.582  28.764  1.00  0.00     0.001 A 
ATOM     30  C   UNL A   1      36.013  29.417  28.147  1.00  0.00     0.001 A 
ATOM     31  C   UNL A   1      36.099  30.578  28.913  1.00  0.00     0.000 A 
ENDBRANCH  25  26
ENDBRANCH  17  24
ENDBRANCH   7   9
ENDBRANCH   4   5
ENDBRANCH   3   4
ENDBRANCH   2   3
ENDBRANCH   1   2
BRANCH   1  32
ATOM     32  C   UNL A   1      35.138  23.327  25.148  1.00  0.00     0.021 C 
BRANCH  32  33
ATOM     33  C   UNL A   1      35.970  22.833  26.328  1.00  0.00     0.116 C 
BRANCH  33  34
ATOM     34  N   UNL A   1      36.872  21.758  25.961  1.00  0.00    -0.352 N 
ATOM     35  C   UNL A   1      38.244  21.740  25.905  1.00  0.00     0.251 C 
ATOM     36  H   UNL A   1      36.434  20.913  25.713  1.00  0.00     0.163 HD
ATOM     37  O   UNL A   1      38.809  20.777  25.392  1.00  0.00    -0.269 OA
BRANCH  35  38
ATOM     38  C   UNL A   1      39.037  22.873  26.436  1.00  0.00     0.039 A 
ATOM     39  C   UNL A   1      40.051  22.605  27.360  1.00  0.00     0.014 A 
ATOM     40  C   UNL A   1      38.772  24.192  26.059  1.00  0.00     0.014 A 
ATOM     41  C   UNL A   1      40.828  23.652  27.864  1.00  0.00     0.010 A 
ATOM     42  C   UNL A   1      39.599  25.224  26.499  1.00  0.00     0.010 A 
ATOM     43  C   UNL A   1      40.630  24.968  27.414  1.00  0.00    -0.014 A 
BRANCH  43  44
ATOM     44  C   UNL A   1      41.484  26.082  27.907  1.00  0.00     0.031 A 
ATOM     45  C   UNL A   1      40.909  27.127  28.825  1.00  0.00     0.074 A 
ATOM     46  C   UNL A   1      42.764  26.174  27.496  1.00  0.00     0.049 A 
ATOM     47  N   UNL A   1      41.475  28.201  29.316  1.00  0.00    -0.248 NA
ATOM     48  C   UNL A   1      39.503  26.955  29.220  1.00  0.00     0.031 C 
ATOM     49  C   UNL A   1      43.423  25.243  26.578  1.00  0.00     0.029 A 
ATOM     50  N   UNL A   1      43.739  27.095  27.789  1.00  0.00    -0.354 N 
ATOM     51  C   UNL A   1      40.495  28.832  30.075  1.00  0.00     0.074 A 
ATOM     52  C   UNL A   1      39.280  28.061  29.913  1.00  0.00     0.031 C 
ATOM     53  C   UNL A   1      44.698  25.625  26.404  1.00  0.00     0.029 A 
ATOM     54  C   UNL A   1      44.934  26.857  27.151  1.00  0.00     0.049 A 
ATOM     55  H   UNL A   1      43.596  27.856  28.399  1.00  0.00     0.167 HD
ATOM     56  C   UNL A   1      40.604  29.935  30.859  1.00  0.00     0.034 A 
ATOM     57  C   UNL A   1      46.086  27.558  27.152  1.00  0.00     0.034 A 
ATOM     58  C   UNL A   1      41.823  30.696  31.001  1.00  0.00     0.049 A 
ATOM     59  C   UNL A   1      46.173  28.810  27.986  1.00  0.00     0.074 A 
ATOM     60  C   UNL A   1      42.057  31.809  31.789  1.00  0.00     0.029 A 
ATOM     61  N   UNL A   1      43.011  30.431  30.329  1.00  0.00    -0.354 N 
ATOM     62  N   UNL A   1      45.250  29.370  28.736  1.00  0.00    -0.248 NA
ATOM     63  C   UNL A   1      47.459  29.517  27.988  1.00  0.00     0.031 C 
ATOM     64  C   UNL A   1      43.356  32.263  31.533  1.00  0.00     0.029 A 
ATOM     65  C   UNL A   1      43.968  31.380  30.658  1.00  0.00     0.049 A 
ATOM     66  H   UNL A   1      43.153  29.679  29.710  1.00  0.00     0.167 HD
ATOM     67  C   UNL A   1      45.855  30.481  29.319  1.00  0.00     0.074 A 
ATOM     68  C   UNL A   1      47.226  30.497  28.848  1.00  0.00     0.031 C 
ATOM     69  C   UNL A   1      45.328  31.398  30.170  1.00  0.00     0.034 A 
BRANCH  56  70
ATOM     70  C   UNL A   1      39.362  30.389  31.592  1.00  0.00     0.023 A 
ATOM     71  C   UNL A   1      38.648  31.533  31.192  1.00  0.00     0.031 A 
ATOM     72  C   UNL A   1      38.906  29.699  32.729  1.00  0.00     0.131 A 
ATOM     73  C   UNL A   1      37.582  32.006  31.972  1.00  0.00     0.055 A 
ATOM     74  C   UNL A   1      37.783  30.120  33.447  1.00  0.00     0.041 A 
ATOM     75  F   UNL A   1      39.555  28.613  33.177  1.00  0.00    -0.206 F 
ATOM     76  C   UNL A   1      37.126  31.291  33.081  1.00  0.00     0.022 A 
BRANCH  73  77
ATOM     77  S   UNL A   1      36.919  33.657  31.619  1.00  0.00     0.124 S 
ATOM     78  O   UNL A   1      37.403  33.883  30.259  1.00  0.00    -0.237 OA
ATOM     79  O   UNL A   1      35.481  33.457  31.761  1.00  0.00    -0.237 OA
ATOM     80  O   UNL A   1      37.536  34.500  32.640  1.00  0.00    -0.744 OA
ENDBRANCH  73  77
ENDBRANCH  56  70
BRANCH  57  81
ATOM     81  C   UNL A   1      47.237  27.109  26.317  1.00  0.00     0.023 A 
ATOM     82  C   UNL A   1      47.407  27.565  24.999  1.00  0.00     0.031 A 
ATOM     83  C   UNL A   1      48.175  26.188  26.820  1.00  0.00     0.131 A 
ATOM     84  C   UNL A   1      48.462  27.069  24.218  1.00  0.00     0.055 A 
ATOM     85  C   UNL A   1      49.257  25.744  26.058  1.00  0.00     0.041 A 
ATOM     86  F   UNL A   1      48.062  25.720  28.073  1.00  0.00    -0.206 F 
ATOM     87  C   UNL A   1      49.398  26.175  24.743  1.00  0.00     0.022 A 
BRANCH  84  88
ATOM     88  S   UNL A   1      48.549  27.544  22.469  1.00  0.00     0.124 S 
ATOM     89  O   UNL A   1      48.619  26.244  21.812  1.00  0.00    -0.237 OA
ATOM     90  O   UNL A   1      47.305  28.286  22.294  1.00  0.00    -0.237 OA
ATOM     91  O   UNL A   1      49.767  28.348  22.396  1.00  0.00    -0.744 OA
ENDBRANCH  84  88
ENDBRANCH  57  81
BRANCH  69  92
ATOM     92  C   UNL A   1      46.256  32.475  30.683  1.00  0.00     0.023 A 
ATOM     93  C   UNL A   1      46.407  33.705  30.018  1.00  0.00     0.031 A 
ATOM     94  C   UNL A   1      47.007  32.262  31.854  1.00  0.00     0.131 A 
ATOM     95  C   UNL A   1      47.330  34.648  30.495  1.00  0.00     0.055 A 
ATOM     96  C   UNL A   1      47.869  33.233  32.362  1.00  0.00     0.041 A 
ATOM     97  F   UNL A   1      46.909  31.105  32.528  1.00  0.00    -0.206 F 
ATOM     98  C   UNL A   1      48.047  34.430  31.674  1.00  0.00     0.022 A 
BRANCH  95  99
ATOM     99  S   UNL A   1      47.662  36.125  29.495  1.00  0.00     0.124 S 
ATOM    100  O   UNL A   1      48.790  36.723  30.203  1.00  0.00    -0.237 OA
ATOM    101  O   UNL A   1      47.961  35.554  28.185  1.00  0.00    -0.237 OA
ATOM    102  O   UNL A   1      46.412  36.879  29.570  1.00  0.00    -0.744 OA
ENDBRANCH  95  99
ENDBRANCH  69  92
ENDBRANCH  43  44
ENDBRANCH  35  38
ENDBRANCH  33  34
ENDBRANCH  32  33
ENDBRANCH   1  32
TORSDOF 19
ENDMDL
MODEL 3
REMARK VINA RESULT:     -12.1      4.494      9.808
REMARK SMILES O=C(NCCCCCCNC(=O)c1ccc(-c2c3nc(c(-c4cc(S(=O)(=O)[O-])ccc4F)c4ccc([nH]4)c(-c4cc(S(=O)(=O)[O-])ccc4F)c4nc(c(-c5cc(S(=O)(=O)[O-])ccc5F)c5ccc2[nH]5)C=C4)C=C3)cc1)C1=Cc2cc(Cl)cc(C#Cc3ccccc3)c2O[C@@H]1C(F)(F)F
REMARK SMILES IDX 7 1 6 2 5 3 4 4 3 5 1 6 2 7 76 9 77 10 94 11 78 12 93 13
REMARK SMILES IDX 79 14 92 15 80 16 83 17 81 18 82 19 95 20 96 21 97 22 98 23
REMARK SMILES IDX 84 24 85 25 86 26 87 27 91 28 88 29 90 30 89 31 8 32 9 33
REMARK SMILES IDX 10 34 11 35 12 37 13 38 14 39 75 40 15 41 74 42 16 43 17 44
REMARK SMILES IDX 18 45 68 46 19 47 73 48 67 49 69 50 20 51 72 52 66 53 65 54
REMARK SMILES IDX 21 56 53 57 33 58 52 59 34 60 37 61 51 62 70 63 35 64 36 65
REMARK SMILES IDX 50 67 71 68 38 69 22 70 23 71 31 72 24 73 30 74 32 75 29 76
REMARK SMILES IDX 25 77 26 78 27 79 28 80 54 81 55 82 63 83 56 84 62 85 64 86
REMARK SMILES IDX 61 87 57 88 58 89 59 90 60 91 39 92 40 93 48 94 41 95 47 96
REMARK SMILES IDX 49 97 46 98 42 99 43 100 44 101 45 102
REMARK H PARENT 3 8 10 36 69 55 37 66
REMARK Flexibility Score: inf
ROOT
ATOM      1  C   UNL A   1      33.744  27.493  23.725  1.00  0.00     0.002 C 
ENDROOT
BRANCH   1   2
ATOM      2  C   UNL A   1      32.908  27.775  22.472  1.00  0.00     0.002 C 
BRANCH   2   3
ATOM      3  C   UNL A   1      31.482  27.228  22.469  1.00  0.00     0.021 C 
BRANCH   3   4
ATOM      4  C   UNL A   1      31.272  25.911  21.732  1.00  0.00     0.116 C 
BRANCH   4   5
ATOM      5  N   UNL A   1      32.467  25.137  21.456  1.00  0.00    -0.352 N 
ATOM      6  O   UNL A   1      33.887  23.402  21.585  1.00  0.00    -0.270 OA
ATOM      7  C   UNL A   1      32.924  24.001  22.066  1.00  0.00     0.251 C 
ATOM      8  H   UNL A   1      33.030  25.478  20.724  1.00  0.00     0.163 HD
BRANCH   7   9
ATOM      9  C   UNL A   1      32.240  23.388  23.249  1.00  0.00     0.067 C 
ATOM     10  C   UNL A   1      31.775  22.124  23.250  1.00  0.00     0.025 C 
ATOM     11  C   UNL A   1      32.790  23.927  24.548  1.00  0.00     0.314 C 
ATOM     12  C   UNL A   1      32.632  21.210  24.054  1.00  0.00     0.020 A 
ATOM     13  O   UNL A   1      33.861  23.074  25.036  1.00  0.00    -0.474 OA
ATOM     14  C   UNL A   1      32.530  19.836  23.797  1.00  0.00     0.032 A 
ATOM     15  C   UNL A   1      33.745  21.732  24.749  1.00  0.00     0.143 A 
ATOM     16  C   UNL A   1      33.587  19.000  24.141  1.00  0.00     0.043 A 
ATOM     17  C   UNL A   1      34.836  20.891  25.007  1.00  0.00     0.069 A 
ATOM     18  Cl  UNL A   1      33.553  17.349  23.658  1.00  0.00    -0.084 Cl
ATOM     19  C   UNL A   1      34.740  19.521  24.725  1.00  0.00     0.041 A 
BRANCH  11  20
ATOM     20  C   UNL A   1      31.671  24.167  25.581  1.00  0.00     0.429 C 
ATOM     21  F   UNL A   1      30.453  23.851  25.086  1.00  0.00    -0.167 F 
ATOM     22  F   UNL A   1      31.853  23.399  26.687  1.00  0.00    -0.167 F 
ATOM     23  F   UNL A   1      31.612  25.451  26.007  1.00  0.00    -0.167 F 
ENDBRANCH  11  20
BRANCH  17  24
ATOM     24  C   UNL A   1      36.152  21.405  25.283  1.00  0.00    -0.058 C 
ATOM     25  C   UNL A   1      37.154  21.940  25.676  1.00  0.00    -0.062 C 
BRANCH  25  26
ATOM     26  C   UNL A   1      38.260  22.704  26.179  1.00  0.00     0.025 A 
ATOM     27  C   UNL A   1      38.154  24.081  26.409  1.00  0.00     0.017 A 
ATOM     28  C   UNL A   1      39.484  22.067  26.384  1.00  0.00     0.017 A 
ATOM     29  C   UNL A   1      39.267  24.810  26.842  1.00  0.00     0.001 A 
ATOM     30  C   UNL A   1      40.593  22.794  26.822  1.00  0.00     0.001 A 
ATOM     31  C   UNL A   1      40.485  24.164  27.050  1.00  0.00     0.000 A 
ENDBRANCH  25  26
ENDBRANCH  17  24
ENDBRANCH   7   9
ENDBRANCH   4   5
ENDBRANCH   3   4
ENDBRANCH   2   3
ENDBRANCH   1   2
BRANCH   1  32
ATOM     32  C   UNL A   1      33.183  27.987  25.060  1.00  0.00     0.021 C 
BRANCH  32  33
ATOM     33  C   UNL A   1      34.131  28.811  25.925  1.00  0.00     0.116 C 
BRANCH  33  34
ATOM     34  N   UNL A   1      33.575  30.101  26.287  1.00  0.00    -0.352 N 
ATOM     35  C   UNL A   1      33.975  30.993  27.251  1.00  0.00     0.251 C 
ATOM     36  H   UNL A   1      32.790  30.378  25.763  1.00  0.00     0.163 HD
ATOM     37  O   UNL A   1      33.252  31.950  27.517  1.00  0.00    -0.269 OA
BRANCH  35  38
ATOM     38  C   UNL A   1      35.250  30.798  27.979  1.00  0.00     0.039 A 
ATOM     39  C   UNL A   1      35.439  29.609  28.690  1.00  0.00     0.014 A 
ATOM     40  C   UNL A   1      36.242  31.782  27.996  1.00  0.00     0.014 A 
ATOM     41  C   UNL A   1      36.639  29.388  29.372  1.00  0.00     0.010 A 
ATOM     42  C   UNL A   1      37.469  31.527  28.608  1.00  0.00     0.010 A 
ATOM     43  C   UNL A   1      37.678  30.332  29.310  1.00  0.00    -0.014 A 
BRANCH  43  44
ATOM     44  C   UNL A   1      38.977  30.085  29.991  1.00  0.00     0.031 A 
ATOM     45  C   UNL A   1      39.248  30.684  31.346  1.00  0.00     0.074 A 
ATOM     46  C   UNL A   1      39.927  29.356  29.373  1.00  0.00     0.049 A 
ATOM     47  N   UNL A   1      40.335  30.630  32.074  1.00  0.00    -0.248 NA
ATOM     48  C   UNL A   1      38.161  31.470  31.947  1.00  0.00     0.031 C 
ATOM     49  C   UNL A   1      39.796  28.755  28.044  1.00  0.00     0.029 A 
ATOM     50  N   UNL A   1      41.191  29.000  29.774  1.00  0.00    -0.354 N 
ATOM     51  C   UNL A   1      40.063  31.375  33.216  1.00  0.00     0.074 A 
ATOM     52  C   UNL A   1      38.738  31.934  33.045  1.00  0.00     0.031 C 
ATOM     53  C   UNL A   1      40.921  28.085  27.752  1.00  0.00     0.029 A 
ATOM     54  C   UNL A   1      41.876  28.253  28.843  1.00  0.00     0.049 A 
ATOM     55  H   UNL A   1      41.572  29.256  30.645  1.00  0.00     0.167 HD
ATOM     56  C   UNL A   1      40.833  31.553  34.320  1.00  0.00     0.034 A 
ATOM     57  C   UNL A   1      43.135  27.771  28.858  1.00  0.00     0.034 A 
ATOM     58  C   UNL A   1      42.156  30.994  34.469  1.00  0.00     0.049 A 
ATOM     59  C   UNL A   1      43.995  28.023  30.069  1.00  0.00     0.074 A 
ATOM     60  C   UNL A   1      43.013  31.084  35.552  1.00  0.00     0.029 A 
ATOM     61  N   UNL A   1      42.822  30.253  33.500  1.00  0.00    -0.354 N 
ATOM     62  N   UNL A   1      43.707  28.693  31.163  1.00  0.00    -0.248 NA
ATOM     63  C   UNL A   1      45.344  27.444  30.056  1.00  0.00     0.031 C 
ATOM     64  C   UNL A   1      44.221  30.468  35.208  1.00  0.00     0.029 A 
ATOM     65  C   UNL A   1      44.090  29.910  33.947  1.00  0.00     0.049 A 
ATOM     66  H   UNL A   1      42.448  30.006  32.623  1.00  0.00     0.167 HD
ATOM     67  C   UNL A   1      44.831  28.591  31.979  1.00  0.00     0.074 A 
ATOM     68  C   UNL A   1      45.792  27.779  31.257  1.00  0.00     0.031 C 
ATOM     69  C   UNL A   1      45.047  29.114  33.213  1.00  0.00     0.034 A 
BRANCH  56  70
ATOM     70  C   UNL A   1      40.266  32.410  35.429  1.00  0.00     0.023 A 
ATOM     71  C   UNL A   1      39.460  31.862  36.444  1.00  0.00     0.031 A 
ATOM     72  C   UNL A   1      40.495  33.797  35.455  1.00  0.00     0.131 A 
ATOM     73  C   UNL A   1      38.839  32.703  37.380  1.00  0.00     0.055 A 
ATOM     74  C   UNL A   1      39.953  34.616  36.448  1.00  0.00     0.041 A 
ATOM     75  F   UNL A   1      41.237  34.386  34.504  1.00  0.00    -0.206 F 
ATOM     76  C   UNL A   1      39.102  34.073  37.407  1.00  0.00     0.022 A 
BRANCH  73  77
ATOM     77  S   UNL A   1      37.547  32.004  38.444  1.00  0.00     0.124 S 
ATOM     78  O   UNL A   1      38.181  32.069  39.759  1.00  0.00    -0.237 OA
ATOM     79  O   UNL A   1      36.430  32.915  38.227  1.00  0.00    -0.237 OA
ATOM     80  O   UNL A   1      37.363  30.654  37.918  1.00  0.00    -0.744 OA
ENDBRANCH  73  77
ENDBRANCH  56  70
BRANCH  57  81
ATOM     81  C   UNL A   1      43.666  27.026  27.679  1.00  0.00     0.023 A 
ATOM     82  C   UNL A   1      43.747  25.624  27.675  1.00  0.00     0.031 A 
ATOM     83  C   UNL A   1      44.128  27.715  26.542  1.00  0.00     0.131 A 
ATOM     84  C   UNL A   1      44.316  24.959  26.578  1.00  0.00     0.055 A 
ATOM     85  C   UNL A   1      44.637  27.045  25.429  1.00  0.00     0.041 A 
ATOM     86  F   UNL A   1      44.073  29.055  26.491  1.00  0.00    -0.206 F 
ATOM     87  C   UNL A   1      44.745  25.658  25.447  1.00  0.00     0.022 A 
BRANCH  84  88
ATOM     88  S   UNL A   1      44.566  23.166  26.680  1.00  0.00     0.124 S 
ATOM     89  O   UNL A   1      46.015  23.076  26.813  1.00  0.00    -0.237 OA
ATOM     90  O   UNL A   1      43.789  22.818  27.866  1.00  0.00    -0.237 OA
ATOM     91  O   UNL A   1      44.023  22.674  25.416  1.00  0.00    -0.744 OA
ENDBRANCH  84  88
ENDBRANCH  57  81
BRANCH  69  92
ATOM     92  C   UNL A   1      46.362  28.785  33.881  1.00  0.00     0.023 A 
ATOM     93  C   UNL A   1      46.535  27.621  34.651  1.00  0.00     0.031 A 
ATOM     94  C   UNL A   1      47.458  29.657  33.749  1.00  0.00     0.131 A 
ATOM     95  C   UNL A   1      47.754  27.392  35.307  1.00  0.00     0.055 A 
ATOM     96  C   UNL A   1      48.690  29.386  34.346  1.00  0.00     0.041 A 
ATOM     97  F   UNL A   1      47.352  30.787  33.031  1.00  0.00    -0.206 F 
ATOM     98  C   UNL A   1      48.840  28.256  35.143  1.00  0.00     0.022 A 
BRANCH  95  99
ATOM     99  S   UNL A   1      47.871  26.002  36.467  1.00  0.00     0.124 S 
ATOM    100  O   UNL A   1      49.299  25.977  36.767  1.00  0.00    -0.237 OA
ATOM    101  O   UNL A   1      46.998  26.429  37.556  1.00  0.00    -0.237 OA
ATOM    102  O   UNL A   1      47.380  24.865  35.691  1.00  0.00    -0.744 OA
ENDBRANCH  95  99
ENDBRANCH  69  92
ENDBRANCH  43  44
ENDBRANCH  35  38
ENDBRANCH  33  34
ENDBRANCH  32  33
ENDBRANCH   1  32
TORSDOF 19
ENDMDL
