MODEL 1
REMARK VINA RESULT:     -12.8      0.000      0.000
REMARK SMILES CCC[C@H]1CCc2c(sc(NC(=O)[C@H]3[C@@H](C(=O)NCCCCCCNC(=O)c4ccc(-c5c6nc(c(-c7cc(S(=O)(=O)[O-])ccc7F)c7ccc([nH]7)c(-c7cc(S(=O)(=O)[O-])ccc7F)c7nc(c(-c8cc(S(=O)(=O)[O-])ccc8F)c8ccc5[nH]8)C=C7)C=C6)cc4)[C@H]4CC[C@@H]3O4)c2C(N)=O)C1
REMARK SMILES IDX 21 1 20 2 19 3 18 4 16 5 17 6 15 8 14 9 94 10 91 11 93 12
REMARK SMILES IDX 95 13 92 14 12 15 11 16 13 18 10 19 4 20 5 21 100 22 6 23
REMARK SMILES IDX 8 24 7 25 9 26 96 27 3 28 2 29 1 30 97 31 98 32 99 33 22 36
REMARK SMILES IDX 23 37 24 38 25 39 26 40 27 42 28 43 29 44 90 45 30 46 89 47
REMARK SMILES IDX 31 48 32 49 33 50 83 51 34 52 88 53 82 54 84 55 35 56 87 57
REMARK SMILES IDX 81 58 80 59 36 61 68 62 48 63 67 64 49 65 52 66 66 67 85 68
REMARK SMILES IDX 50 69 51 70 65 72 86 73 53 74 37 75 38 76 46 77 39 78 45 79
REMARK SMILES IDX 47 80 44 81 40 82 41 83 42 84 43 85 69 86 70 87 78 88 71 89
REMARK SMILES IDX 77 90 79 91 76 92 72 93 73 94 74 95 75 96 54 97 55 98 63 99
REMARK SMILES IDX 56 100 62 101 64 102 61 103 57 104 58 105 59 106 60 107
REMARK H PARENT 18 7 11 17 98 34 98 35 25 41 84 60 52 71
REMARK Flexibility Score: inf
ROOT
ATOM      1  C   UNL A   1      32.193  29.215  27.133  1.00  0.00     0.002 C 
ENDROOT
BRANCH   1   2
ATOM      2  C   UNL A   1      31.489  27.870  26.984  1.00  0.00     0.021 C 
BRANCH   2   3
ATOM      3  C   UNL A   1      32.246  26.875  26.110  1.00  0.00     0.116 C 
BRANCH   3   4
ATOM      4  N   UNL A   1      32.037  25.528  26.572  1.00  0.00    -0.356 N 
ATOM      5  C   UNL A   1      32.636  24.371  26.237  1.00  0.00     0.226 C 
ATOM      6  O   UNL A   1      32.225  23.363  26.828  1.00  0.00    -0.275 OA
ATOM      7  H   UNL A   1      31.333  25.437  27.253  1.00  0.00     0.163 HD
BRANCH   5   8
ATOM      8  C   UNL A   1      33.753  24.211  25.225  1.00  0.00     0.122 C 
ATOM      9  C   UNL A   1      33.614  23.405  23.939  1.00  0.00     0.123 C 
ATOM     10  C   UNL A   1      34.955  22.692  23.821  1.00  0.00     0.132 C 
ATOM     11  C   UNL A   1      35.210  23.935  25.615  1.00  0.00     0.132 C 
ATOM     12  C   UNL A   1      35.267  21.663  24.902  1.00  0.00     0.035 C 
ATOM     13  O   UNL A   1      35.810  23.793  24.283  1.00  0.00    -0.373 OA
ATOM     14  C   UNL A   1      35.548  22.548  26.121  1.00  0.00     0.035 C 
BRANCH   9  15
ATOM     15  C   UNL A   1      32.352  22.755  23.459  1.00  0.00     0.231 C 
ATOM     16  N   UNL A   1      31.276  23.516  23.061  1.00  0.00    -0.317 N 
ATOM     17  H   UNL A   1      30.487  22.971  22.841  1.00  0.00     0.170 HD
ATOM     18  O   UNL A   1      32.241  21.528  23.425  1.00  0.00    -0.274 OA
BRANCH  16  19
ATOM     19  C   UNL A   1      31.050  24.881  22.896  1.00  0.00     0.108 A 
ATOM     20  C   UNL A   1      28.909  29.274  22.813  1.00  0.00    -0.006 C 
ATOM     21  C   UNL A   1      30.401  29.644  22.681  1.00  0.00     0.009 C 
ATOM     22  C   UNL A   1      28.739  28.010  23.708  1.00  0.00     0.050 C 
ATOM     23  C   UNL A   1      31.161  28.538  21.959  1.00  0.00     0.038 C 
ATOM     24  C   UNL A   1      29.732  26.953  23.309  1.00  0.00     0.011 A 
ATOM     25  C   UNL A   1      30.838  27.187  22.529  1.00  0.00    -0.019 A 
ATOM     26  S   UNL A   1      29.626  25.328  23.779  1.00  0.00    -0.122 S 
ATOM     27  C   UNL A   1      31.584  25.992  22.248  1.00  0.00     0.077 A 
BRANCH  20  28
ATOM     28  C   UNL A   1      28.115  30.479  23.345  1.00  0.00     0.004 C 
BRANCH  28  29
ATOM     29  C   UNL A   1      29.021  31.626  23.801  1.00  0.00    -0.003 C 
ATOM     30  C   UNL A   1      28.804  32.904  23.005  1.00  0.00     0.004 C 
ENDBRANCH  28  29
ENDBRANCH  20  28
BRANCH  27  31
ATOM     31  C   UNL A   1      32.699  26.102  21.325  1.00  0.00     0.251 C 
ATOM     32  N   UNL A   1      32.397  25.723  20.047  1.00  0.00    -0.365 N 
ATOM     33  O   UNL A   1      33.819  26.450  21.666  1.00  0.00    -0.269 OA
ATOM     34  H   UNL A   1      31.479  25.451  19.819  1.00  0.00     0.159 HD
ATOM     35  H   UNL A   1      33.096  25.721  19.355  1.00  0.00     0.159 HD
ENDBRANCH  27  31
ENDBRANCH  16  19
ENDBRANCH   9  15
ENDBRANCH   5   8
ENDBRANCH   3   4
ENDBRANCH   2   3
ENDBRANCH   1   2
BRANCH   1  36
ATOM     36  C   UNL A   1      31.810  30.249  26.069  1.00  0.00     0.002 C 
BRANCH  36  37
ATOM     37  C   UNL A   1      31.611  31.679  26.586  1.00  0.00     0.021 C 
BRANCH  37  38
ATOM     38  C   UNL A   1      32.828  32.280  27.284  1.00  0.00     0.116 C 
BRANCH  38  39
ATOM     39  N   UNL A   1      32.633  33.691  27.572  1.00  0.00    -0.352 N 
ATOM     40  C   UNL A   1      33.173  34.456  28.573  1.00  0.00     0.251 C 
ATOM     41  H   UNL A   1      32.026  34.167  26.960  1.00  0.00     0.163 HD
ATOM     42  O   UNL A   1      32.685  35.549  28.841  1.00  0.00    -0.269 OA
BRANCH  40  43
ATOM     43  C   UNL A   1      34.337  33.947  29.325  1.00  0.00     0.039 A 
ATOM     44  C   UNL A   1      34.124  33.117  30.426  1.00  0.00     0.014 A 
ATOM     45  C   UNL A   1      35.634  34.301  28.943  1.00  0.00     0.014 A 
ATOM     46  C   UNL A   1      35.219  32.594  31.114  1.00  0.00     0.010 A 
ATOM     47  C   UNL A   1      36.724  33.729  29.589  1.00  0.00     0.010 A 
ATOM     48  C   UNL A   1      36.526  32.871  30.681  1.00  0.00    -0.014 A 
BRANCH  48  49
ATOM     49  C   UNL A   1      37.702  32.266  31.355  1.00  0.00     0.031 A 
ATOM     50  C   UNL A   1      38.438  31.128  30.706  1.00  0.00     0.074 A 
ATOM     51  C   UNL A   1      38.056  32.701  32.580  1.00  0.00     0.049 A 
ATOM     52  N   UNL A   1      39.434  30.417  31.167  1.00  0.00    -0.248 NA
ATOM     53  C   UNL A   1      37.972  30.718  29.373  1.00  0.00     0.031 C 
ATOM     54  C   UNL A   1      37.386  33.774  33.319  1.00  0.00     0.029 A 
ATOM     55  N   UNL A   1      39.056  32.292  33.424  1.00  0.00    -0.354 N 
ATOM     56  C   UNL A   1      39.711  29.471  30.186  1.00  0.00     0.074 A 
ATOM     57  C   UNL A   1      38.736  29.663  29.133  1.00  0.00     0.031 C 
ATOM     58  C   UNL A   1      38.006  33.950  34.497  1.00  0.00     0.029 A 
ATOM     59  C   UNL A   1      39.085  32.975  34.617  1.00  0.00     0.049 A 
ATOM     60  H   UNL A   1      39.693  31.576  33.196  1.00  0.00     0.167 HD
ATOM     61  C   UNL A   1      40.700  28.544  30.160  1.00  0.00     0.034 A 
ATOM     62  C   UNL A   1      39.882  32.820  35.693  1.00  0.00     0.034 A 
ATOM     63  C   UNL A   1      41.663  28.374  31.220  1.00  0.00     0.049 A 
ATOM     64  C   UNL A   1      40.950  31.758  35.656  1.00  0.00     0.074 A 
ATOM     65  C   UNL A   1      42.743  27.509  31.276  1.00  0.00     0.029 A 
ATOM     66  N   UNL A   1      41.657  29.075  32.421  1.00  0.00    -0.354 N 
ATOM     67  N   UNL A   1      41.234  30.906  34.697  1.00  0.00    -0.248 NA
ATOM     68  C   UNL A   1      41.808  31.640  36.841  1.00  0.00     0.031 C 
ATOM     69  C   UNL A   1      43.345  27.638  32.532  1.00  0.00     0.029 A 
ATOM     70  C   UNL A   1      42.690  28.637  33.235  1.00  0.00     0.049 A 
ATOM     71  H   UNL A   1      41.014  29.781  32.657  1.00  0.00     0.167 HD
ATOM     72  C   UNL A   1      42.320  30.168  35.157  1.00  0.00     0.074 A 
ATOM     73  C   UNL A   1      42.650  30.688  36.469  1.00  0.00     0.031 C 
ATOM     74  C   UNL A   1      42.989  29.153  34.551  1.00  0.00     0.034 A 
BRANCH  61  75
ATOM     75  C   UNL A   1      40.765  27.631  28.958  1.00  0.00     0.023 A 
ATOM     76  C   UNL A   1      41.735  27.801  27.953  1.00  0.00     0.031 A 
ATOM     77  C   UNL A   1      39.831  26.593  28.799  1.00  0.00     0.131 A 
ATOM     78  C   UNL A   1      41.702  26.998  26.803  1.00  0.00     0.055 A 
ATOM     79  C   UNL A   1      39.854  25.744  27.690  1.00  0.00     0.041 A 
ATOM     80  F   UNL A   1      38.869  26.392  29.714  1.00  0.00    -0.206 F 
ATOM     81  C   UNL A   1      40.784  25.954  26.676  1.00  0.00     0.022 A 
BRANCH  78  82
ATOM     82  S   UNL A   1      42.786  27.430  25.414  1.00  0.00     0.124 S 
ATOM     83  O   UNL A   1      42.834  26.171  24.675  1.00  0.00    -0.237 OA
ATOM     84  O   UNL A   1      42.060  28.520  24.774  1.00  0.00    -0.237 OA
ATOM     85  O   UNL A   1      44.039  27.810  26.063  1.00  0.00    -0.744 OA
ENDBRANCH  78  82
ENDBRANCH  61  75
BRANCH  62  86
ATOM     86  C   UNL A   1      39.694  33.674  36.900  1.00  0.00     0.023 A 
ATOM     87  C   UNL A   1      39.222  33.130  38.104  1.00  0.00     0.031 A 
ATOM     88  C   UNL A   1      39.951  35.057  36.857  1.00  0.00     0.131 A 
ATOM     89  C   UNL A   1      38.979  33.967  39.204  1.00  0.00     0.055 A 
ATOM     90  C   UNL A   1      39.757  35.878  37.969  1.00  0.00     0.041 A 
ATOM     91  F   UNL A   1      40.409  35.627  35.731  1.00  0.00    -0.206 F 
ATOM     92  C   UNL A   1      39.256  35.336  39.149  1.00  0.00     0.022 A 
BRANCH  89  93
ATOM     93  S   UNL A   1      38.219  33.254  40.688  1.00  0.00     0.124 S 
ATOM     94  O   UNL A   1      37.968  31.881  40.262  1.00  0.00    -0.237 OA
ATOM     95  O   UNL A   1      39.269  33.437  41.683  1.00  0.00    -0.237 OA
ATOM     96  O   UNL A   1      37.025  34.073  40.886  1.00  0.00    -0.744 OA
ENDBRANCH  89  93
ENDBRANCH  62  86
BRANCH  74  97
ATOM     97  C   UNL A   1      44.159  28.566  35.300  1.00  0.00     0.023 A 
ATOM     98  C   UNL A   1      43.989  27.538  36.244  1.00  0.00     0.031 A 
ATOM     99  C   UNL A   1      45.460  29.052  35.076  1.00  0.00     0.131 A 
ATOM    100  C   UNL A   1      45.093  27.068  36.969  1.00  0.00     0.055 A 
ATOM    101  C   UNL A   1      46.563  28.538  35.757  1.00  0.00     0.041 A 
ATOM    102  F   UNL A   1      45.678  30.036  34.188  1.00  0.00    -0.206 F 
ATOM    103  C   UNL A   1      46.381  27.548  36.720  1.00  0.00     0.022 A 
BRANCH 100 104
ATOM    104  S   UNL A   1      44.812  25.876  38.308  1.00  0.00     0.124 S 
ATOM    105  O   UNL A   1      44.554  24.644  37.569  1.00  0.00    -0.237 OA
ATOM    106  O   UNL A   1      46.073  25.926  39.042  1.00  0.00    -0.237 OA
ATOM    107  O   UNL A   1      43.661  26.425  39.020  1.00  0.00    -0.744 OA
ENDBRANCH 100 104
ENDBRANCH  74  97
ENDBRANCH  48  49
ENDBRANCH  40  43
ENDBRANCH  38  39
ENDBRANCH  37  38
ENDBRANCH  36  37
ENDBRANCH   1  36
TORSDOF 21
ENDMDL
MODEL 2
REMARK VINA RESULT:     -12.3      1.792      2.102
REMARK SMILES CCC[C@H]1CCc2c(sc(NC(=O)[C@H]3[C@@H](C(=O)NCCCCCCNC(=O)c4ccc(-c5c6nc(c(-c7cc(S(=O)(=O)[O-])ccc7F)c7ccc([nH]7)c(-c7cc(S(=O)(=O)[O-])ccc7F)c7nc(c(-c8cc(S(=O)(=O)[O-])ccc8F)c8ccc5[nH]8)C=C7)C=C6)cc4)[C@H]4CC[C@@H]3O4)c2C(N)=O)C1
REMARK SMILES IDX 21 1 20 2 19 3 18 4 16 5 17 6 15 8 14 9 94 10 91 11 93 12
REMARK SMILES IDX 95 13 92 14 12 15 11 16 13 18 10 19 4 20 5 21 100 22 6 23
REMARK SMILES IDX 8 24 7 25 9 26 96 27 3 28 2 29 1 30 97 31 98 32 99 33 22 36
REMARK SMILES IDX 23 37 24 38 25 39 26 40 27 42 28 43 29 44 90 45 30 46 89 47
REMARK SMILES IDX 31 48 32 49 33 50 83 51 34 52 88 53 82 54 84 55 35 56 87 57
REMARK SMILES IDX 81 58 80 59 36 61 68 62 48 63 67 64 49 65 52 66 66 67 85 68
REMARK SMILES IDX 50 69 51 70 65 72 86 73 53 74 37 75 38 76 46 77 39 78 45 79
REMARK SMILES IDX 47 80 44 81 40 82 41 83 42 84 43 85 69 86 70 87 78 88 71 89
REMARK SMILES IDX 77 90 79 91 76 92 72 93 73 94 74 95 75 96 54 97 55 98 63 99
REMARK SMILES IDX 56 100 62 101 64 102 61 103 57 104 58 105 59 106 60 107
REMARK H PARENT 18 7 11 17 98 34 98 35 25 41 84 60 52 71
REMARK Flexibility Score: inf
ROOT
ATOM      1  C   UNL A   1      32.202  29.444  26.999  1.00  0.00     0.002 C 
ENDROOT
BRANCH   1   2
ATOM      2  C   UNL A   1      31.552  28.108  27.349  1.00  0.00     0.021 C 
BRANCH   2   3
ATOM      3  C   UNL A   1      31.673  27.060  26.247  1.00  0.00     0.116 C 
BRANCH   3   4
ATOM      4  N   UNL A   1      31.490  25.736  26.780  1.00  0.00    -0.356 N 
ATOM      5  C   UNL A   1      32.142  24.584  26.541  1.00  0.00     0.226 C 
ATOM      6  O   UNL A   1      31.739  23.598  27.173  1.00  0.00    -0.275 OA
ATOM      7  H   UNL A   1      30.760  25.660  27.435  1.00  0.00     0.163 HD
BRANCH   5   8
ATOM      8  C   UNL A   1      33.307  24.406  25.587  1.00  0.00     0.122 C 
ATOM      9  C   UNL A   1      33.223  23.599  24.298  1.00  0.00     0.123 C 
ATOM     10  C   UNL A   1      34.558  22.866  24.250  1.00  0.00     0.132 C 
ATOM     11  C   UNL A   1      34.738  24.109  26.053  1.00  0.00     0.132 C 
ATOM     12  C   UNL A   1      34.799  21.836  25.347  1.00  0.00     0.035 C 
ATOM     13  O   UNL A   1      35.404  23.956  24.754  1.00  0.00    -0.373 OA
ATOM     14  C   UNL A   1      35.030  22.719  26.578  1.00  0.00     0.035 C 
BRANCH   9  15
ATOM     15  C   UNL A   1      31.979  22.966  23.754  1.00  0.00     0.231 C 
ATOM     16  N   UNL A   1      30.953  23.740  23.262  1.00  0.00    -0.317 N 
ATOM     17  H   UNL A   1      30.165  23.209  23.006  1.00  0.00     0.170 HD
ATOM     18  O   UNL A   1      31.836  21.741  23.750  1.00  0.00    -0.274 OA
BRANCH  16  19
ATOM     19  C   UNL A   1      30.775  25.104  23.042  1.00  0.00     0.108 A 
ATOM     20  C   UNL A   1      28.760  29.541  22.663  1.00  0.00    -0.006 C 
ATOM     21  C   UNL A   1      30.267  29.873  22.641  1.00  0.00     0.009 C 
ATOM     22  C   UNL A   1      28.486  28.308  23.576  1.00  0.00     0.050 C 
ATOM     23  C   UNL A   1      31.053  28.728  22.014  1.00  0.00     0.038 C 
ATOM     24  C   UNL A   1      29.481  27.218  23.288  1.00  0.00     0.011 A 
ATOM     25  C   UNL A   1      30.652  27.403  22.594  1.00  0.00    -0.019 A 
ATOM     26  S   UNL A   1      29.297  25.610  23.793  1.00  0.00    -0.122 S 
ATOM     27  C   UNL A   1      31.387  26.182  22.408  1.00  0.00     0.077 A 
BRANCH  20  28
ATOM     28  C   UNL A   1      27.957  30.780  23.094  1.00  0.00     0.004 C 
BRANCH  28  29
ATOM     29  C   UNL A   1      28.844  31.883  23.676  1.00  0.00    -0.003 C 
ATOM     30  C   UNL A   1      28.753  33.188  22.899  1.00  0.00     0.004 C 
ENDBRANCH  28  29
ENDBRANCH  20  28
BRANCH  27  31
ATOM     31  C   UNL A   1      32.575  26.240  21.575  1.00  0.00     0.251 C 
ATOM     32  N   UNL A   1      32.354  25.884  20.273  1.00  0.00    -0.365 N 
ATOM     33  O   UNL A   1      33.681  26.525  22.005  1.00  0.00    -0.269 OA
ATOM     34  H   UNL A   1      31.443  25.662  19.973  1.00  0.00     0.159 HD
ATOM     35  H   UNL A   1      33.104  25.849  19.637  1.00  0.00     0.159 HD
ENDBRANCH  27  31
ENDBRANCH  16  19
ENDBRANCH   9  15
ENDBRANCH   5   8
ENDBRANCH   3   4
ENDBRANCH   2   3
ENDBRANCH   1   2
BRANCH   1  36
ATOM     36  C   UNL A   1      31.348  30.345  26.102  1.00  0.00     0.002 C 
BRANCH  36  37
ATOM     37  C   UNL A   1      31.353  31.833  26.470  1.00  0.00     0.021 C 
BRANCH  37  38
ATOM     38  C   UNL A   1      32.710  32.376  26.912  1.00  0.00     0.116 C 
BRANCH  38  39
ATOM     39  N   UNL A   1      32.593  33.720  27.454  1.00  0.00    -0.352 N 
ATOM     40  C   UNL A   1      33.244  34.284  28.521  1.00  0.00     0.251 C 
ATOM     41  H   UNL A   1      31.957  34.309  26.989  1.00  0.00     0.163 HD
ATOM     42  O   UNL A   1      32.822  35.326  29.014  1.00  0.00    -0.269 OA
BRANCH  40  43
ATOM     43  C   UNL A   1      34.444  33.625  29.068  1.00  0.00     0.039 A 
ATOM     44  C   UNL A   1      35.699  34.187  28.825  1.00  0.00     0.014 A 
ATOM     45  C   UNL A   1      34.327  32.448  29.813  1.00  0.00     0.014 A 
ATOM     46  C   UNL A   1      36.835  33.596  29.377  1.00  0.00     0.010 A 
ATOM     47  C   UNL A   1      35.452  31.896  30.416  1.00  0.00     0.010 A 
ATOM     48  C   UNL A   1      36.717  32.465  30.202  1.00  0.00    -0.014 A 
BRANCH  48  49
ATOM     49  C   UNL A   1      37.905  31.867  30.858  1.00  0.00     0.031 A 
ATOM     50  C   UNL A   1      38.715  30.823  30.143  1.00  0.00     0.074 A 
ATOM     51  C   UNL A   1      38.207  32.220  32.123  1.00  0.00     0.049 A 
ATOM     52  N   UNL A   1      39.735  30.127  30.574  1.00  0.00    -0.248 NA
ATOM     53  C   UNL A   1      38.303  30.498  28.769  1.00  0.00     0.031 C 
ATOM     54  C   UNL A   1      37.465  33.195  32.926  1.00  0.00     0.029 A 
ATOM     55  N   UNL A   1      39.206  31.794  32.960  1.00  0.00    -0.354 N 
ATOM     56  C   UNL A   1      40.083  29.278  29.530  1.00  0.00     0.074 A 
ATOM     57  C   UNL A   1      39.126  29.505  28.468  1.00  0.00     0.031 C 
ATOM     58  C   UNL A   1      38.047  33.306  34.131  1.00  0.00     0.029 A 
ATOM     59  C   UNL A   1      39.171  32.380  34.204  1.00  0.00     0.049 A 
ATOM     60  H   UNL A   1      39.885  31.132  32.695  1.00  0.00     0.167 HD
ATOM     61  C   UNL A   1      41.119  28.406  29.458  1.00  0.00     0.034 A 
ATOM     62  C   UNL A   1      39.948  32.179  35.287  1.00  0.00     0.034 A 
ATOM     63  C   UNL A   1      42.064  28.199  30.529  1.00  0.00     0.049 A 
ATOM     64  C   UNL A   1      41.071  31.177  35.196  1.00  0.00     0.074 A 
ATOM     65  C   UNL A   1      43.186  27.387  30.546  1.00  0.00     0.029 A 
ATOM     66  N   UNL A   1      41.993  28.801  31.780  1.00  0.00    -0.354 N 
ATOM     67  N   UNL A   1      41.422  30.421  34.181  1.00  0.00    -0.248 NA
ATOM     68  C   UNL A   1      41.905  31.008  36.392  1.00  0.00     0.031 C 
ATOM     69  C   UNL A   1      43.749  27.444  31.826  1.00  0.00     0.029 A 
ATOM     70  C   UNL A   1      43.028  28.350  32.587  1.00  0.00     0.049 A 
ATOM     71  H   UNL A   1      41.309  29.453  32.053  1.00  0.00     0.167 HD
ATOM     72  C   UNL A   1      42.533  29.702  34.612  1.00  0.00     0.074 A 
ATOM     73  C   UNL A   1      42.804  30.132  35.970  1.00  0.00     0.031 C 
ATOM     74  C   UNL A   1      43.267  28.773  33.947  1.00  0.00     0.034 A 
BRANCH  61  75
ATOM     75  C   UNL A   1      41.261  27.597  28.191  1.00  0.00     0.023 A 
ATOM     76  C   UNL A   1      40.924  26.232  28.145  1.00  0.00     0.031 A 
ATOM     77  C   UNL A   1      41.765  28.188  27.019  1.00  0.00     0.131 A 
ATOM     78  C   UNL A   1      41.164  25.489  26.978  1.00  0.00     0.055 A 
ATOM     79  C   UNL A   1      41.925  27.462  25.837  1.00  0.00     0.041 A 
ATOM     80  F   UNL A   1      42.124  29.482  27.007  1.00  0.00    -0.206 F 
ATOM     81  C   UNL A   1      41.639  26.099  25.817  1.00  0.00     0.022 A 
BRANCH  78  82
ATOM     82  S   UNL A   1      40.980  23.685  27.047  1.00  0.00     0.124 S 
ATOM     83  O   UNL A   1      39.530  23.533  26.948  1.00  0.00    -0.237 OA
ATOM     84  O   UNL A   1      41.749  23.244  25.890  1.00  0.00    -0.237 OA
ATOM     85  O   UNL A   1      41.547  23.333  28.347  1.00  0.00    -0.744 OA
ENDBRANCH  78  82
ENDBRANCH  61  75
BRANCH  62  86
ATOM     86  C   UNL A   1      39.688  32.923  36.551  1.00  0.00     0.023 A 
ATOM     87  C   UNL A   1      38.769  32.442  37.496  1.00  0.00     0.031 A 
ATOM     88  C   UNL A   1      40.330  34.147  36.818  1.00  0.00     0.131 A 
ATOM     89  C   UNL A   1      38.482  33.200  38.643  1.00  0.00     0.055 A 
ATOM     90  C   UNL A   1      40.080  34.871  37.984  1.00  0.00     0.041 A 
ATOM     91  F   UNL A   1      41.222  34.649  35.950  1.00  0.00    -0.206 F 
ATOM     92  C   UNL A   1      39.141  34.404  38.900  1.00  0.00     0.022 A 
BRANCH  89  93
ATOM     93  S   UNL A   1      37.173  32.625  39.758  1.00  0.00     0.124 S 
ATOM     94  O   UNL A   1      37.677  31.315  40.158  1.00  0.00    -0.237 OA
ATOM     95  O   UNL A   1      37.178  33.658  40.788  1.00  0.00    -0.237 OA
ATOM     96  O   UNL A   1      35.985  32.603  38.906  1.00  0.00    -0.744 OA
ENDBRANCH  89  93
ENDBRANCH  62  86
BRANCH  74  97
ATOM     97  C   UNL A   1      44.448  28.187  34.680  1.00  0.00     0.023 A 
ATOM     98  C   UNL A   1      45.718  28.789  34.630  1.00  0.00     0.031 A 
ATOM     99  C   UNL A   1      44.305  27.004  35.425  1.00  0.00     0.131 A 
ATOM    100  C   UNL A   1      46.806  28.176  35.267  1.00  0.00     0.055 A 
ATOM    101  C   UNL A   1      45.378  26.431  36.107  1.00  0.00     0.041 A 
ATOM    102  F   UNL A   1      43.115  26.385  35.503  1.00  0.00    -0.206 F 
ATOM    103  C   UNL A   1      46.641  27.010  36.020  1.00  0.00     0.022 A 
BRANCH 100 104
ATOM    104  S   UNL A   1      48.463  28.875  35.029  1.00  0.00     0.124 S 
ATOM    105  O   UNL A   1      49.121  28.533  36.287  1.00  0.00    -0.237 OA
ATOM    106  O   UNL A   1      48.937  28.162  33.847  1.00  0.00    -0.237 OA
ATOM    107  O   UNL A   1      48.208  30.300  34.830  1.00  0.00    -0.744 OA
ENDBRANCH 100 104
ENDBRANCH  74  97
ENDBRANCH  48  49
ENDBRANCH  40  43
ENDBRANCH  38  39
ENDBRANCH  37  38
ENDBRANCH  36  37
ENDBRANCH   1  36
TORSDOF 21
ENDMDL
MODEL 3
REMARK VINA RESULT:     -12.2      1.415      7.265
REMARK SMILES CCC[C@H]1CCc2c(sc(NC(=O)[C@H]3[C@@H](C(=O)NCCCCCCNC(=O)c4ccc(-c5c6nc(c(-c7cc(S(=O)(=O)[O-])ccc7F)c7ccc([nH]7)c(-c7cc(S(=O)(=O)[O-])ccc7F)c7nc(c(-c8cc(S(=O)(=O)[O-])ccc8F)c8ccc5[nH]8)C=C7)C=C6)cc4)[C@H]4CC[C@@H]3O4)c2C(N)=O)C1
REMARK SMILES IDX 21 1 20 2 19 3 18 4 16 5 17 6 15 8 14 9 94 10 91 11 93 12
REMARK SMILES IDX 95 13 92 14 12 15 11 16 13 18 10 19 4 20 5 21 100 22 6 23
REMARK SMILES IDX 8 24 7 25 9 26 96 27 3 28 2 29 1 30 97 31 98 32 99 33 22 36
REMARK SMILES IDX 23 37 24 38 25 39 26 40 27 42 28 43 29 44 90 45 30 46 89 47
REMARK SMILES IDX 31 48 32 49 33 50 83 51 34 52 88 53 82 54 84 55 35 56 87 57
REMARK SMILES IDX 81 58 80 59 36 61 68 62 48 63 67 64 49 65 52 66 66 67 85 68
REMARK SMILES IDX 50 69 51 70 65 72 86 73 53 74 37 75 38 76 46 77 39 78 45 79
REMARK SMILES IDX 47 80 44 81 40 82 41 83 42 84 43 85 69 86 70 87 78 88 71 89
REMARK SMILES IDX 77 90 79 91 76 92 72 93 73 94 74 95 75 96 54 97 55 98 63 99
REMARK SMILES IDX 56 100 62 101 64 102 61 103 57 104 58 105 59 106 60 107
REMARK H PARENT 18 7 11 17 98 34 98 35 25 41 84 60 52 71
REMARK Flexibility Score: inf
ROOT
ATOM      1  C   UNL A   1      32.308  29.581  26.128  1.00  0.00     0.002 C 
ENDROOT
BRANCH   1   2
ATOM      2  C   UNL A   1      32.097  28.182  26.698  1.00  0.00     0.021 C 
BRANCH   2   3
ATOM      3  C   UNL A   1      32.773  27.081  25.886  1.00  0.00     0.116 C 
BRANCH   3   4
ATOM      4  N   UNL A   1      32.471  25.784  26.434  1.00  0.00    -0.356 N 
ATOM      5  C   UNL A   1      32.931  24.560  26.124  1.00  0.00     0.226 C 
ATOM      6  O   UNL A   1      32.470  23.626  26.795  1.00  0.00    -0.275 OA
ATOM      7  H   UNL A   1      31.813  25.797  27.166  1.00  0.00     0.163 HD
BRANCH   5   8
ATOM      8  C   UNL A   1      33.951  24.242  25.048  1.00  0.00     0.122 C 
ATOM      9  C   UNL A   1      33.653  23.362  23.840  1.00  0.00     0.123 C 
ATOM     10  C   UNL A   1      34.925  22.538  23.680  1.00  0.00     0.132 C 
ATOM     11  C   UNL A   1      35.410  23.879  25.352  1.00  0.00     0.132 C 
ATOM     12  C   UNL A   1      35.243  21.566  24.809  1.00  0.00     0.035 C 
ATOM     13  O   UNL A   1      35.892  23.598  23.994  1.00  0.00    -0.373 OA
ATOM     14  C   UNL A   1      35.684  22.509  25.934  1.00  0.00     0.035 C 
BRANCH   9  15
ATOM     15  C   UNL A   1      32.314  22.782  23.502  1.00  0.00     0.231 C 
ATOM     16  N   UNL A   1      31.254  23.599  23.181  1.00  0.00    -0.317 N 
ATOM     17  H   UNL A   1      30.415  23.101  23.055  1.00  0.00     0.170 HD
ATOM     18  O   UNL A   1      32.124  21.564  23.522  1.00  0.00    -0.274 OA
BRANCH  16  19
ATOM     19  C   UNL A   1      31.098  24.971  22.992  1.00  0.00     0.108 A 
ATOM     20  C   UNL A   1      29.206  29.476  22.889  1.00  0.00    -0.006 C 
ATOM     21  C   UNL A   1      30.709  29.757  22.684  1.00  0.00     0.009 C 
ATOM     22  C   UNL A   1      29.004  28.244  23.822  1.00  0.00     0.050 C 
ATOM     23  C   UNL A   1      31.373  28.593  21.959  1.00  0.00     0.038 C 
ATOM     24  C   UNL A   1      29.918  27.124  23.408  1.00  0.00     0.011 A 
ATOM     25  C   UNL A   1      31.000  27.277  22.576  1.00  0.00    -0.019 A 
ATOM     26  S   UNL A   1      29.741  25.518  23.923  1.00  0.00    -0.122 S 
ATOM     27  C   UNL A   1      31.664  26.034  22.294  1.00  0.00     0.077 A 
BRANCH  20  28
ATOM     28  C   UNL A   1      28.505  30.737  23.423  1.00  0.00     0.004 C 
BRANCH  28  29
ATOM     29  C   UNL A   1      28.540  31.897  22.425  1.00  0.00    -0.003 C 
ATOM     30  C   UNL A   1      28.944  33.216  23.066  1.00  0.00     0.004 C 
ENDBRANCH  28  29
ENDBRANCH  20  28
BRANCH  27  31
ATOM     31  C   UNL A   1      32.743  26.059  21.322  1.00  0.00     0.251 C 
ATOM     32  N   UNL A   1      32.366  25.659  20.070  1.00  0.00    -0.365 N 
ATOM     33  O   UNL A   1      33.892  26.358  21.605  1.00  0.00    -0.269 OA
ATOM     34  H   UNL A   1      31.426  25.428  19.890  1.00  0.00     0.159 HD
ATOM     35  H   UNL A   1      33.034  25.600  19.350  1.00  0.00     0.159 HD
ENDBRANCH  27  31
ENDBRANCH  16  19
ENDBRANCH   9  15
ENDBRANCH   5   8
ENDBRANCH   3   4
ENDBRANCH   2   3
ENDBRANCH   1   2
BRANCH   1  36
ATOM     36  C   UNL A   1      31.118  30.527  26.321  1.00  0.00     0.002 C 
BRANCH  36  37
ATOM     37  C   UNL A   1      31.463  32.021  26.336  1.00  0.00     0.021 C 
BRANCH  37  38
ATOM     38  C   UNL A   1      32.633  32.397  27.242  1.00  0.00     0.116 C 
BRANCH  38  39
ATOM     39  N   UNL A   1      32.606  33.809  27.586  1.00  0.00    -0.352 N 
ATOM     40  C   UNL A   1      33.286  34.474  28.573  1.00  0.00     0.251 C 
ATOM     41  H   UNL A   1      32.016  34.367  27.030  1.00  0.00     0.163 HD
ATOM     42  O   UNL A   1      32.934  35.602  28.906  1.00  0.00    -0.269 OA
BRANCH  40  43
ATOM     43  C   UNL A   1      34.434  33.820  29.229  1.00  0.00     0.039 A 
ATOM     44  C   UNL A   1      34.198  32.794  30.145  1.00  0.00     0.014 A 
ATOM     45  C   UNL A   1      35.740  34.229  28.942  1.00  0.00     0.014 A 
ATOM     46  C   UNL A   1      35.280  32.139  30.736  1.00  0.00     0.010 A 
ATOM     47  C   UNL A   1      36.816  33.534  29.482  1.00  0.00     0.010 A 
ATOM     48  C   UNL A   1      36.595  32.483  30.385  1.00  0.00    -0.014 A 
BRANCH  48  49
ATOM     49  C   UNL A   1      37.755  31.748  30.946  1.00  0.00     0.031 A 
ATOM     50  C   UNL A   1      38.296  32.114  32.299  1.00  0.00     0.074 A 
ATOM     51  C   UNL A   1      38.358  30.800  30.201  1.00  0.00     0.049 A 
ATOM     52  N   UNL A   1      39.345  31.647  32.925  1.00  0.00    -0.248 NA
ATOM     53  C   UNL A   1      37.577  33.167  33.032  1.00  0.00     0.031 C 
ATOM     54  C   UNL A   1      37.939  30.392  28.858  1.00  0.00     0.029 A 
ATOM     55  N   UNL A   1      39.453  30.017  30.459  1.00  0.00    -0.354 N 
ATOM     56  C   UNL A   1      39.417  32.352  34.121  1.00  0.00     0.074 A 
ATOM     57  C   UNL A   1      38.340  33.319  34.103  1.00  0.00     0.031 C 
ATOM     58  C   UNL A   1      38.756  29.420  28.419  1.00  0.00     0.029 A 
ATOM     59  C   UNL A   1      39.781  29.170  29.427  1.00  0.00     0.049 A 
ATOM     60  H   UNL A   1      39.956  30.057  31.305  1.00  0.00     0.167 HD
ATOM     61  C   UNL A   1      40.289  32.190  35.147  1.00  0.00     0.034 A 
ATOM     62  C   UNL A   1      40.804  28.301  29.301  1.00  0.00     0.034 A 
ATOM     63  C   UNL A   1      41.353  31.216  35.145  1.00  0.00     0.049 A 
ATOM     64  C   UNL A   1      41.783  28.165  30.439  1.00  0.00     0.074 A 
ATOM     65  C   UNL A   1      42.258  30.922  36.151  1.00  0.00     0.029 A 
ATOM     66  N   UNL A   1      41.665  30.381  34.078  1.00  0.00    -0.354 N 
ATOM     67  N   UNL A   1      41.805  28.801  31.588  1.00  0.00    -0.248 NA
ATOM     68  C   UNL A   1      42.868  27.192  30.266  1.00  0.00     0.031 C 
ATOM     69  C   UNL A   1      43.156  29.964  35.668  1.00  0.00     0.029 A 
ATOM     70  C   UNL A   1      42.769  29.601  34.388  1.00  0.00     0.049 A 
ATOM     71  H   UNL A   1      41.173  30.348  33.226  1.00  0.00     0.167 HD
ATOM     72  C   UNL A   1      42.894  28.285  32.283  1.00  0.00     0.074 A 
ATOM     73  C   UNL A   1      43.489  27.274  31.432  1.00  0.00     0.031 C 
ATOM     74  C   UNL A   1      43.361  28.614  33.516  1.00  0.00     0.034 A 
BRANCH  61  75
ATOM     75  C   UNL A   1      40.139  33.107  36.338  1.00  0.00     0.023 A 
ATOM     76  C   UNL A   1      39.453  32.704  37.498  1.00  0.00     0.031 A 
ATOM     77  C   UNL A   1      40.666  34.410  36.307  1.00  0.00     0.131 A 
ATOM     78  C   UNL A   1      39.246  33.617  38.544  1.00  0.00     0.055 A 
ATOM     79  C   UNL A   1      40.527  35.287  37.385  1.00  0.00     0.041 A 
ATOM     80  F   UNL A   1      41.314  34.859  35.220  1.00  0.00    -0.206 F 
ATOM     81  C   UNL A   1      39.800  34.898  38.506  1.00  0.00     0.022 A 
BRANCH  78  82
ATOM     82  S   UNL A   1      38.124  33.151  39.891  1.00  0.00     0.124 S 
ATOM     83  O   UNL A   1      36.892  32.860  39.160  1.00  0.00    -0.237 OA
ATOM     84  O   UNL A   1      38.801  32.005  40.485  1.00  0.00    -0.237 OA
ATOM     85  O   UNL A   1      38.074  34.350  40.725  1.00  0.00    -0.744 OA
ENDBRANCH  78  82
ENDBRANCH  61  75
BRANCH  62  86
ATOM     86  C   UNL A   1      40.969  27.506  28.051  1.00  0.00     0.023 A 
ATOM     87  C   UNL A   1      40.638  26.143  28.014  1.00  0.00     0.031 A 
ATOM     88  C   UNL A   1      41.493  28.091  26.883  1.00  0.00     0.131 A 
ATOM     89  C   UNL A   1      40.875  25.397  26.848  1.00  0.00     0.055 A 
ATOM     90  C   UNL A   1      41.679  27.356  25.711  1.00  0.00     0.041 A 
ATOM     91  F   UNL A   1      41.821  29.392  26.863  1.00  0.00    -0.206 F 
ATOM     92  C   UNL A   1      41.380  25.997  25.693  1.00  0.00     0.022 A 
BRANCH  89  93
ATOM     93  S   UNL A   1      40.586  23.607  26.890  1.00  0.00     0.124 S 
ATOM     94  O   UNL A   1      39.175  23.525  26.527  1.00  0.00    -0.237 OA
ATOM     95  O   UNL A   1      41.534  23.125  25.893  1.00  0.00    -0.237 OA
ATOM     96  O   UNL A   1      40.897  23.244  28.271  1.00  0.00    -0.744 OA
ENDBRANCH  89  93
ENDBRANCH  62  86
BRANCH  74  97
ATOM     97  C   UNL A   1      44.558  27.844  34.017  1.00  0.00     0.023 A 
ATOM     98  C   UNL A   1      44.414  26.647  34.740  1.00  0.00     0.031 A 
ATOM     99  C   UNL A   1      45.859  28.324  33.782  1.00  0.00     0.131 A 
ATOM    100  C   UNL A   1      45.549  25.998  35.248  1.00  0.00     0.055 A 
ATOM    101  C   UNL A   1      46.986  27.642  34.239  1.00  0.00     0.041 A 
ATOM    102  F   UNL A   1      46.054  29.465  33.101  1.00  0.00    -0.206 F 
ATOM    103  C   UNL A   1      46.834  26.478  34.988  1.00  0.00     0.022 A 
BRANCH 100 104
ATOM    104  S   UNL A   1      45.317  24.561  36.331  1.00  0.00     0.124 S 
ATOM    105  O   UNL A   1      43.885  24.616  36.607  1.00  0.00    -0.237 OA
ATOM    106  O   UNL A   1      45.762  23.457  35.485  1.00  0.00    -0.237 OA
ATOM    107  O   UNL A   1      46.180  24.850  37.474  1.00  0.00    -0.744 OA
ENDBRANCH 100 104
ENDBRANCH  74  97
ENDBRANCH  48  49
ENDBRANCH  40  43
ENDBRANCH  38  39
ENDBRANCH  37  38
ENDBRANCH  36  37
ENDBRANCH   1  36
TORSDOF 21
ENDMDL
