MODEL 1
REMARK VINA RESULT:     -12.6      0.000      0.000
REMARK SMILES CC1(C)CCCC[C@H]1NC(=O)Nc1ccccc1C(=O)NCCCCCCNC(=O)c1ccc(-c2c3nc(c(-c4cc(S(=O)(=O)[O-])ccc4F)c4ccc([nH]4)c(-c4cc(S(=O)(=O)[O-])ccc4F)c4nc(c(-c5cc(S(=O)(=O)[O-])ccc5F)c5ccc2[nH]5)C=C4)C=C3)cc1
REMARK SMILES IDX 25 1 24 2 23 3 22 4 21 5 19 6 20 7 18 9 13 10 14 11 15 12
REMARK SMILES IDX 17 13 16 14 12 15 9 16 10 17 11 19 8 21 1 22 2 23 3 24 4 25
REMARK SMILES IDX 5 26 7 27 6 28 26 29 27 30 28 31 29 32 30 34 31 35 32 36
REMARK SMILES IDX 93 37 33 38 92 39 34 40 35 41 36 42 86 43 37 44 91 45 85 46
REMARK SMILES IDX 87 47 38 48 90 49 84 50 83 51 39 53 71 54 51 55 70 56 52 57
REMARK SMILES IDX 55 58 69 59 88 60 53 61 54 62 68 64 89 65 56 66 40 67 41 68
REMARK SMILES IDX 49 69 42 70 48 71 50 72 47 73 43 74 44 75 45 76 46 77 72 78
REMARK SMILES IDX 73 79 81 80 74 81 80 82 82 83 79 84 75 85 76 86 77 87 78 88
REMARK SMILES IDX 57 89 58 90 66 91 59 92 65 93 67 94 64 95 60 96 61 97 62 98
REMARK SMILES IDX 63 99
REMARK H PARENT 21 8 9 18 12 20 28 33 87 52 55 63
REMARK Flexibility Score: inf
ROOT
ATOM      1  C   UNL A   1      31.442  30.891  26.129  1.00  0.00     0.002 C 
ENDROOT
BRANCH   1   2
ATOM      2  C   UNL A   1      31.911  29.762  27.062  1.00  0.00     0.002 C 
BRANCH   2   3
ATOM      3  C   UNL A   1      33.420  29.477  27.120  1.00  0.00     0.021 C 
BRANCH   3   4
ATOM      4  C   UNL A   1      33.958  28.666  25.951  1.00  0.00     0.116 C 
BRANCH   4   5
ATOM      5  N   UNL A   1      33.991  27.245  26.169  1.00  0.00    -0.352 N 
ATOM      6  C   UNL A   1      33.089  26.264  25.852  1.00  0.00     0.253 C 
ATOM      7  O   UNL A   1      33.449  25.111  26.121  1.00  0.00    -0.269 OA
ATOM      8  H   UNL A   1      34.802  26.921  26.625  1.00  0.00     0.163 HD
BRANCH   6   9
ATOM      9  C   UNL A   1      31.704  26.465  25.293  1.00  0.00     0.063 A 
ATOM     10  C   UNL A   1      30.499  25.765  25.517  1.00  0.00     0.055 A 
ATOM     11  C   UNL A   1      29.384  26.038  24.688  1.00  0.00     0.027 A 
ATOM     12  C   UNL A   1      29.374  27.104  23.792  1.00  0.00     0.002 A 
ATOM     13  C   UNL A   1      31.650  27.560  24.386  1.00  0.00     0.016 A 
ATOM     14  C   UNL A   1      30.499  27.897  23.672  1.00  0.00     0.001 A 
BRANCH  10  15
ATOM     15  N   UNL A   1      30.164  24.863  26.547  1.00  0.00    -0.307 N 
ATOM     16  N   UNL A   1      30.648  22.674  25.767  1.00  0.00    -0.335 N 
ATOM     17  C   UNL A   1      30.105  23.521  26.658  1.00  0.00     0.319 C 
ATOM     18  H   UNL A   1      30.224  21.786  25.711  1.00  0.00     0.165 HD
ATOM     19  O   UNL A   1      29.543  23.043  27.646  1.00  0.00    -0.248 OA
ATOM     20  H   UNL A   1      29.916  25.321  27.383  1.00  0.00     0.171 HD
BRANCH  16  21
ATOM     21  C   UNL A   1      31.772  22.884  24.878  1.00  0.00     0.089 C 
ATOM     22  C   UNL A   1      32.284  20.417  24.337  1.00  0.00     0.013 C 
ATOM     23  C   UNL A   1      32.822  21.739  24.920  1.00  0.00    -0.015 C 
ATOM     24  C   UNL A   1      33.274  21.460  26.369  1.00  0.00     0.013 C 
ATOM     25  C   UNL A   1      34.040  22.241  24.101  1.00  0.00     0.008 C 
ATOM     26  C   UNL A   1      33.685  22.713  22.685  1.00  0.00     0.001 C 
ATOM     27  C   UNL A   1      31.314  23.178  23.448  1.00  0.00     0.025 C 
ATOM     28  C   UNL A   1      32.503  23.682  22.638  1.00  0.00     0.002 C 
ENDBRANCH  16  21
ENDBRANCH  10  15
ENDBRANCH   6   9
ENDBRANCH   4   5
ENDBRANCH   3   4
ENDBRANCH   2   3
ENDBRANCH   1   2
BRANCH   1  29
ATOM     29  C   UNL A   1      31.380  32.299  26.725  1.00  0.00     0.021 C 
BRANCH  29  30
ATOM     30  C   UNL A   1      32.717  32.926  27.096  1.00  0.00     0.116 C 
BRANCH  30  31
ATOM     31  N   UNL A   1      32.582  34.240  27.696  1.00  0.00    -0.352 N 
ATOM     32  C   UNL A   1      33.277  34.797  28.743  1.00  0.00     0.251 C 
ATOM     33  H   UNL A   1      31.894  34.817  27.295  1.00  0.00     0.163 HD
ATOM     34  O   UNL A   1      32.932  35.882  29.192  1.00  0.00    -0.269 OA
BRANCH  32  35
ATOM     35  C   UNL A   1      34.415  34.065  29.345  1.00  0.00     0.039 A 
ATOM     36  C   UNL A   1      35.712  34.492  29.052  1.00  0.00     0.014 A 
ATOM     37  C   UNL A   1      34.210  32.971  30.191  1.00  0.00     0.014 A 
ATOM     38  C   UNL A   1      36.801  33.858  29.654  1.00  0.00     0.010 A 
ATOM     39  C   UNL A   1      35.292  32.393  30.852  1.00  0.00     0.010 A 
ATOM     40  C   UNL A   1      36.599  32.827  30.587  1.00  0.00    -0.014 A 
BRANCH  40  41
ATOM     41  C   UNL A   1      37.745  32.195  31.291  1.00  0.00     0.031 A 
ATOM     42  C   UNL A   1      38.502  31.067  30.643  1.00  0.00     0.074 A 
ATOM     43  C   UNL A   1      38.072  32.606  32.533  1.00  0.00     0.049 A 
ATOM     44  N   UNL A   1      39.489  30.353  31.118  1.00  0.00    -0.248 NA
ATOM     45  C   UNL A   1      38.071  30.673  29.293  1.00  0.00     0.031 C 
ATOM     46  C   UNL A   1      37.387  33.666  33.278  1.00  0.00     0.029 A 
ATOM     47  N   UNL A   1      39.055  32.184  33.392  1.00  0.00    -0.354 N 
ATOM     48  C   UNL A   1      39.787  29.415  30.134  1.00  0.00     0.074 A 
ATOM     49  C   UNL A   1      38.838  29.618  29.061  1.00  0.00     0.031 C 
ATOM     50  C   UNL A   1      37.992  33.832  34.465  1.00  0.00     0.029 A 
ATOM     51  C   UNL A   1      39.070  32.857  34.592  1.00  0.00     0.049 A 
ATOM     52  H   UNL A   1      39.692  31.465  33.170  1.00  0.00     0.167 HD
ATOM     53  C   UNL A   1      40.774  28.486  30.122  1.00  0.00     0.034 A 
ATOM     54  C   UNL A   1      39.853  32.699  35.678  1.00  0.00     0.034 A 
ATOM     55  C   UNL A   1      41.720  28.310  31.198  1.00  0.00     0.049 A 
ATOM     56  C   UNL A   1      40.928  31.643  35.650  1.00  0.00     0.074 A 
ATOM     57  C   UNL A   1      42.796  27.443  31.263  1.00  0.00     0.029 A 
ATOM     58  N   UNL A   1      41.696  29.002  32.403  1.00  0.00    -0.354 N 
ATOM     59  N   UNL A   1      41.229  30.796  34.692  1.00  0.00    -0.248 NA
ATOM     60  C   UNL A   1      41.775  31.529  36.843  1.00  0.00     0.031 C 
ATOM     61  C   UNL A   1      43.370  27.550  32.534  1.00  0.00     0.029 A 
ATOM     62  C   UNL A   1      42.714  28.553  33.231  1.00  0.00     0.049 A 
ATOM     63  H   UNL A   1      41.051  29.709  32.636  1.00  0.00     0.167 HD
ATOM     64  C   UNL A   1      42.321  30.069  35.157  1.00  0.00     0.074 A 
ATOM     65  C   UNL A   1      42.632  30.588  36.473  1.00  0.00     0.031 C 
ATOM     66  C   UNL A   1      43.007  29.067  34.550  1.00  0.00     0.034 A 
BRANCH  53  67
ATOM     67  C   UNL A   1      40.858  27.567  28.926  1.00  0.00     0.023 A 
ATOM     68  C   UNL A   1      41.837  27.729  27.929  1.00  0.00     0.031 A 
ATOM     69  C   UNL A   1      39.939  26.513  28.778  1.00  0.00     0.131 A 
ATOM     70  C   UNL A   1      41.833  26.895  26.800  1.00  0.00     0.055 A 
ATOM     71  C   UNL A   1      39.991  25.634  27.693  1.00  0.00     0.041 A 
ATOM     72  F   UNL A   1      38.967  26.320  29.683  1.00  0.00    -0.206 F 
ATOM     73  C   UNL A   1      40.934  25.831  26.689  1.00  0.00     0.022 A 
BRANCH  70  74
ATOM     74  S   UNL A   1      42.929  27.304  25.415  1.00  0.00     0.124 S 
ATOM     75  O   UNL A   1      44.127  27.765  26.113  1.00  0.00    -0.237 OA
ATOM     76  O   UNL A   1      43.046  26.028  24.717  1.00  0.00    -0.237 OA
ATOM     77  O   UNL A   1      42.198  28.345  24.694  1.00  0.00    -0.744 OA
ENDBRANCH  70  74
ENDBRANCH  53  67
BRANCH  54  78
ATOM     78  C   UNL A   1      39.644  33.549  36.886  1.00  0.00     0.023 A 
ATOM     79  C   UNL A   1      38.949  33.065  38.005  1.00  0.00     0.031 A 
ATOM     80  C   UNL A   1      40.116  34.874  36.928  1.00  0.00     0.131 A 
ATOM     81  C   UNL A   1      38.710  33.910  39.101  1.00  0.00     0.055 A 
ATOM     82  C   UNL A   1      39.927  35.692  38.043  1.00  0.00     0.041 A 
ATOM     83  F   UNL A   1      40.789  35.388  35.885  1.00  0.00    -0.206 F 
ATOM     84  C   UNL A   1      39.209  35.214  39.134  1.00  0.00     0.022 A 
BRANCH  81  85
ATOM     85  S   UNL A   1      37.667  33.304  40.456  1.00  0.00     0.124 S 
ATOM     86  O   UNL A   1      37.576  34.483  41.310  1.00  0.00    -0.237 OA
ATOM     87  O   UNL A   1      36.447  32.923  39.754  1.00  0.00    -0.237 OA
ATOM     88  O   UNL A   1      38.439  32.193  41.008  1.00  0.00    -0.744 OA
ENDBRANCH  81  85
ENDBRANCH  54  78
BRANCH  66  89
ATOM     89  C   UNL A   1      44.194  28.497  35.288  1.00  0.00     0.023 A 
ATOM     90  C   UNL A   1      44.051  27.503  36.272  1.00  0.00     0.031 A 
ATOM     91  C   UNL A   1      45.491  28.960  35.003  1.00  0.00     0.131 A 
ATOM     92  C   UNL A   1      45.176  27.047  36.975  1.00  0.00     0.055 A 
ATOM     93  C   UNL A   1      46.615  28.453  35.656  1.00  0.00     0.041 A 
ATOM     94  F   UNL A   1      45.689  29.912  34.077  1.00  0.00    -0.206 F 
ATOM     95  C   UNL A   1      46.459  27.501  36.659  1.00  0.00     0.022 A 
BRANCH  92  96
ATOM     96  S   UNL A   1      44.930  25.930  38.382  1.00  0.00     0.124 S 
ATOM     97  O   UNL A   1      46.231  25.982  39.041  1.00  0.00    -0.237 OA
ATOM     98  O   UNL A   1      43.826  26.564  39.096  1.00  0.00    -0.237 OA
ATOM     99  O   UNL A   1      44.606  24.651  37.751  1.00  0.00    -0.744 OA
ENDBRANCH  92  96
ENDBRANCH  66  89
ENDBRANCH  40  41
ENDBRANCH  32  35
ENDBRANCH  30  31
ENDBRANCH  29  30
ENDBRANCH   1  29
TORSDOF 18
ENDMDL
MODEL 2
REMARK VINA RESULT:     -12.2      5.549     10.679
REMARK SMILES CC1(C)CCCC[C@H]1NC(=O)Nc1ccccc1C(=O)NCCCCCCNC(=O)c1ccc(-c2c3nc(c(-c4cc(S(=O)(=O)[O-])ccc4F)c4ccc([nH]4)c(-c4cc(S(=O)(=O)[O-])ccc4F)c4nc(c(-c5cc(S(=O)(=O)[O-])ccc5F)c5ccc2[nH]5)C=C4)C=C3)cc1
REMARK SMILES IDX 25 1 24 2 23 3 22 4 21 5 19 6 20 7 18 9 13 10 14 11 15 12
REMARK SMILES IDX 17 13 16 14 12 15 9 16 10 17 11 19 8 21 1 22 2 23 3 24 4 25
REMARK SMILES IDX 5 26 7 27 6 28 26 29 27 30 28 31 29 32 30 34 31 35 32 36
REMARK SMILES IDX 93 37 33 38 92 39 34 40 35 41 36 42 86 43 37 44 91 45 85 46
REMARK SMILES IDX 87 47 38 48 90 49 84 50 83 51 39 53 71 54 51 55 70 56 52 57
REMARK SMILES IDX 55 58 69 59 88 60 53 61 54 62 68 64 89 65 56 66 40 67 41 68
REMARK SMILES IDX 49 69 42 70 48 71 50 72 47 73 43 74 44 75 45 76 46 77 72 78
REMARK SMILES IDX 73 79 81 80 74 81 80 82 82 83 79 84 75 85 76 86 77 87 78 88
REMARK SMILES IDX 57 89 58 90 66 91 59 92 65 93 67 94 64 95 60 96 61 97 62 98
REMARK SMILES IDX 63 99
REMARK H PARENT 21 8 9 18 12 20 28 33 87 52 55 63
REMARK Flexibility Score: inf
ROOT
ATOM      1  C   UNL A   1      34.764  23.513  23.652  1.00  0.00     0.002 C 
ENDROOT
BRANCH   1   2
ATOM      2  C   UNL A   1      33.797  23.433  22.459  1.00  0.00     0.002 C 
BRANCH   2   3
ATOM      3  C   UNL A   1      32.292  23.482  22.768  1.00  0.00     0.021 C 
BRANCH   3   4
ATOM      4  C   UNL A   1      31.682  24.876  22.729  1.00  0.00     0.116 C 
BRANCH   4   5
ATOM      5  N   UNL A   1      31.093  25.309  23.968  1.00  0.00    -0.352 N 
ATOM      6  C   UNL A   1      30.322  26.402  24.265  1.00  0.00     0.253 C 
ATOM      7  O   UNL A   1      29.912  26.455  25.431  1.00  0.00    -0.269 OA
ATOM      8  H   UNL A   1      31.275  24.718  24.734  1.00  0.00     0.163 HD
BRANCH   6   9
ATOM      9  C   UNL A   1      30.003  27.552  23.345  1.00  0.00     0.063 A 
ATOM     10  C   UNL A   1      30.833  28.345  22.525  1.00  0.00     0.055 A 
ATOM     11  C   UNL A   1      30.293  29.508  21.924  1.00  0.00     0.027 A 
ATOM     12  C   UNL A   1      28.929  29.788  21.954  1.00  0.00     0.002 A 
ATOM     13  C   UNL A   1      28.613  27.856  23.335  1.00  0.00     0.016 A 
ATOM     14  C   UNL A   1      28.078  28.933  22.627  1.00  0.00     0.001 A 
BRANCH  10  15
ATOM     15  N   UNL A   1      32.155  28.112  22.094  1.00  0.00    -0.307 N 
ATOM     16  N   UNL A   1      33.613  29.025  23.731  1.00  0.00    -0.335 N 
ATOM     17  C   UNL A   1      33.378  28.485  22.522  1.00  0.00     0.319 C 
ATOM     18  H   UNL A   1      34.404  29.609  23.789  1.00  0.00     0.165 HD
ATOM     19  O   UNL A   1      34.339  28.296  21.774  1.00  0.00    -0.248 OA
ATOM     20  H   UNL A   1      32.195  27.542  21.292  1.00  0.00     0.171 HD
BRANCH  16  21
ATOM     21  C   UNL A   1      32.864  28.866  24.960  1.00  0.00     0.089 C 
ATOM     22  C   UNL A   1      34.857  28.690  26.586  1.00  0.00     0.013 C 
ATOM     23  C   UNL A   1      33.594  28.003  26.027  1.00  0.00    -0.015 C 
ATOM     24  C   UNL A   1      34.027  26.646  25.432  1.00  0.00     0.013 C 
ATOM     25  C   UNL A   1      32.563  27.751  27.157  1.00  0.00     0.008 C 
ATOM     26  C   UNL A   1      31.928  29.032  27.717  1.00  0.00     0.001 C 
ATOM     27  C   UNL A   1      32.424  30.216  25.532  1.00  0.00     0.025 C 
ATOM     28  C   UNL A   1      31.402  29.978  26.637  1.00  0.00     0.002 C 
ENDBRANCH  16  21
ENDBRANCH  10  15
ENDBRANCH   6   9
ENDBRANCH   4   5
ENDBRANCH   3   4
ENDBRANCH   2   3
ENDBRANCH   1   2
BRANCH   1  29
ATOM     29  C   UNL A   1      35.720  22.334  23.847  1.00  0.00     0.021 C 
BRANCH  29  30
ATOM     30  C   UNL A   1      36.240  22.124  25.263  1.00  0.00     0.116 C 
BRANCH  30  31
ATOM     31  N   UNL A   1      37.178  21.022  25.367  1.00  0.00    -0.352 N 
ATOM     32  C   UNL A   1      38.503  21.035  25.729  1.00  0.00     0.251 C 
ATOM     33  H   UNL A   1      36.811  20.136  25.147  1.00  0.00     0.163 HD
ATOM     34  O   UNL A   1      39.168  20.011  25.636  1.00  0.00    -0.269 OA
BRANCH  32  35
ATOM     35  C   UNL A   1      39.128  22.294  26.195  1.00  0.00     0.039 A 
ATOM     36  C   UNL A   1      40.271  22.216  26.993  1.00  0.00     0.014 A 
ATOM     37  C   UNL A   1      38.599  23.540  25.848  1.00  0.00     0.014 A 
ATOM     38  C   UNL A   1      40.916  23.388  27.396  1.00  0.00     0.010 A 
ATOM     39  C   UNL A   1      39.287  24.704  26.182  1.00  0.00     0.010 A 
ATOM     40  C   UNL A   1      40.451  24.641  26.963  1.00  0.00    -0.014 A 
BRANCH  40  41
ATOM     41  C   UNL A   1      41.170  25.890  27.322  1.00  0.00     0.031 A 
ATOM     42  C   UNL A   1      40.478  26.957  28.128  1.00  0.00     0.074 A 
ATOM     43  C   UNL A   1      42.429  26.083  26.880  1.00  0.00     0.049 A 
ATOM     44  N   UNL A   1      40.917  28.135  28.490  1.00  0.00    -0.248 NA
ATOM     45  C   UNL A   1      39.101  26.671  28.557  1.00  0.00     0.031 C 
ATOM     46  C   UNL A   1      43.189  25.136  26.060  1.00  0.00     0.029 A 
ATOM     47  N   UNL A   1      43.292  27.137  27.051  1.00  0.00    -0.354 N 
ATOM     48  C   UNL A   1      39.866  28.736  29.175  1.00  0.00     0.074 A 
ATOM     49  C   UNL A   1      38.752  27.814  29.128  1.00  0.00     0.031 C 
ATOM     50  C   UNL A   1      44.413  25.637  25.829  1.00  0.00     0.029 A 
ATOM     51  C   UNL A   1      44.510  26.961  26.434  1.00  0.00     0.049 A 
ATOM     52  H   UNL A   1      43.062  27.943  27.567  1.00  0.00     0.167 HD
ATOM     53  C   UNL A   1      39.843  29.939  29.802  1.00  0.00     0.034 A 
ATOM     54  C   UNL A   1      45.579  27.779  26.352  1.00  0.00     0.034 A 
ATOM     55  C   UNL A   1      40.971  30.837  29.849  1.00  0.00     0.049 A 
ATOM     56  C   UNL A   1      45.520  29.120  27.037  1.00  0.00     0.074 A 
ATOM     57  C   UNL A   1      41.076  32.050  30.508  1.00  0.00     0.029 A 
ATOM     58  N   UNL A   1      42.184  30.631  29.202  1.00  0.00    -0.354 N 
ATOM     59  N   UNL A   1      44.535  29.654  27.723  1.00  0.00    -0.248 NA
ATOM     60  C   UNL A   1      46.718  29.963  26.946  1.00  0.00     0.031 C 
ATOM     61  C   UNL A   1      42.317  32.614  30.192  1.00  0.00     0.029 A 
ATOM     62  C   UNL A   1      43.027  31.712  29.415  1.00  0.00     0.049 A 
ATOM     63  H   UNL A   1      42.413  29.834  28.672  1.00  0.00     0.167 HD
ATOM     64  C   UNL A   1      45.009  30.885  28.170  1.00  0.00     0.074 A 
ATOM     65  C   UNL A   1      46.370  31.004  27.688  1.00  0.00     0.031 C 
ATOM     66  C   UNL A   1      44.379  31.828  28.916  1.00  0.00     0.034 A 
BRANCH  53  67
ATOM     67  C   UNL A   1      38.548  30.365  30.454  1.00  0.00     0.023 A 
ATOM     68  C   UNL A   1      37.533  31.020  29.735  1.00  0.00     0.031 A 
ATOM     69  C   UNL A   1      38.329  30.116  31.821  1.00  0.00     0.131 A 
ATOM     70  C   UNL A   1      36.377  31.461  30.398  1.00  0.00     0.055 A 
ATOM     71  C   UNL A   1      37.141  30.483  32.457  1.00  0.00     0.041 A 
ATOM     72  F   UNL A   1      39.270  29.515  32.567  1.00  0.00    -0.206 F 
ATOM     73  C   UNL A   1      36.162  31.172  31.748  1.00  0.00     0.022 A 
BRANCH  70  74
ATOM     74  S   UNL A   1      35.221  32.536  29.506  1.00  0.00     0.124 S 
ATOM     75  O   UNL A   1      34.506  31.572  28.671  1.00  0.00    -0.237 OA
ATOM     76  O   UNL A   1      34.451  33.139  30.588  1.00  0.00    -0.237 OA
ATOM     77  O   UNL A   1      36.096  33.451  28.776  1.00  0.00    -0.744 OA
ENDBRANCH  70  74
ENDBRANCH  53  67
BRANCH  54  78
ATOM     78  C   UNL A   1      46.788  27.361  25.585  1.00  0.00     0.023 A 
ATOM     79  C   UNL A   1      47.011  27.814  24.275  1.00  0.00     0.031 A 
ATOM     80  C   UNL A   1      47.729  26.477  26.145  1.00  0.00     0.131 A 
ATOM     81  C   UNL A   1      48.124  27.352  23.553  1.00  0.00     0.055 A 
ATOM     82  C   UNL A   1      48.865  26.066  25.444  1.00  0.00     0.041 A 
ATOM     83  F   UNL A   1      47.566  26.014  27.394  1.00  0.00    -0.206 F 
ATOM     84  C   UNL A   1      49.060  26.495  24.135  1.00  0.00     0.022 A 
BRANCH  81  85
ATOM     85  S   UNL A   1      48.290  27.827  21.811  1.00  0.00     0.124 S 
ATOM     86  O   UNL A   1      46.963  28.359  21.521  1.00  0.00    -0.237 OA
ATOM     87  O   UNL A   1      49.375  28.799  21.863  1.00  0.00    -0.237 OA
ATOM     88  O   UNL A   1      48.616  26.567  21.145  1.00  0.00    -0.744 OA
ENDBRANCH  81  85
ENDBRANCH  54  78
BRANCH  66  89
ATOM     89  C   UNL A   1      45.174  33.054  29.295  1.00  0.00     0.023 A 
ATOM     90  C   UNL A   1      45.178  34.213  28.500  1.00  0.00     0.031 A 
ATOM     91  C   UNL A   1      45.943  33.060  30.473  1.00  0.00     0.131 A 
ATOM     92  C   UNL A   1      45.981  35.306  28.861  1.00  0.00     0.055 A 
ATOM     93  C   UNL A   1      46.685  34.175  30.863  1.00  0.00     0.041 A 
ATOM     94  F   UNL A   1      45.983  31.979  31.269  1.00  0.00    -0.206 F 
ATOM     95  C   UNL A   1      46.718  35.302  30.048  1.00  0.00     0.022 A 
BRANCH  92  96
ATOM     96  S   UNL A   1      46.132  36.694  27.703  1.00  0.00     0.124 S 
ATOM     97  O   UNL A   1      46.993  37.612  28.442  1.00  0.00    -0.237 OA
ATOM     98  O   UNL A   1      46.730  36.062  26.532  1.00  0.00    -0.237 OA
ATOM     99  O   UNL A   1      44.752  37.145  27.527  1.00  0.00    -0.744 OA
ENDBRANCH  92  96
ENDBRANCH  66  89
ENDBRANCH  40  41
ENDBRANCH  32  35
ENDBRANCH  30  31
ENDBRANCH  29  30
ENDBRANCH   1  29
TORSDOF 18
ENDMDL
MODEL 3
REMARK VINA RESULT:     -12.2      1.428      1.882
REMARK SMILES CC1(C)CCCC[C@H]1NC(=O)Nc1ccccc1C(=O)NCCCCCCNC(=O)c1ccc(-c2c3nc(c(-c4cc(S(=O)(=O)[O-])ccc4F)c4ccc([nH]4)c(-c4cc(S(=O)(=O)[O-])ccc4F)c4nc(c(-c5cc(S(=O)(=O)[O-])ccc5F)c5ccc2[nH]5)C=C4)C=C3)cc1
REMARK SMILES IDX 25 1 24 2 23 3 22 4 21 5 19 6 20 7 18 9 13 10 14 11 15 12
REMARK SMILES IDX 17 13 16 14 12 15 9 16 10 17 11 19 8 21 1 22 2 23 3 24 4 25
REMARK SMILES IDX 5 26 7 27 6 28 26 29 27 30 28 31 29 32 30 34 31 35 32 36
REMARK SMILES IDX 93 37 33 38 92 39 34 40 35 41 36 42 86 43 37 44 91 45 85 46
REMARK SMILES IDX 87 47 38 48 90 49 84 50 83 51 39 53 71 54 51 55 70 56 52 57
REMARK SMILES IDX 55 58 69 59 88 60 53 61 54 62 68 64 89 65 56 66 40 67 41 68
REMARK SMILES IDX 49 69 42 70 48 71 50 72 47 73 43 74 44 75 45 76 46 77 72 78
REMARK SMILES IDX 73 79 81 80 74 81 80 82 82 83 79 84 75 85 76 86 77 87 78 88
REMARK SMILES IDX 57 89 58 90 66 91 59 92 65 93 67 94 64 95 60 96 61 97 62 98
REMARK SMILES IDX 63 99
REMARK H PARENT 21 8 9 18 12 20 28 33 87 52 55 63
REMARK Flexibility Score: inf
ROOT
ATOM      1  C   UNL A   1      31.853  30.731  26.272  1.00  0.00     0.002 C 
ENDROOT
BRANCH   1   2
ATOM      2  C   UNL A   1      32.516  29.707  27.209  1.00  0.00     0.002 C 
BRANCH   2   3
ATOM      3  C   UNL A   1      33.992  29.366  26.948  1.00  0.00     0.021 C 
BRANCH   3   4
ATOM      4  C   UNL A   1      34.216  28.200  25.998  1.00  0.00     0.116 C 
BRANCH   4   5
ATOM      5  N   UNL A   1      33.956  28.492  24.614  1.00  0.00    -0.352 N 
ATOM      6  C   UNL A   1      32.948  28.084  23.781  1.00  0.00     0.253 C 
ATOM      7  O   UNL A   1      32.973  28.574  22.645  1.00  0.00    -0.269 OA
ATOM      8  H   UNL A   1      34.616  29.090  24.193  1.00  0.00     0.163 HD
BRANCH   6   9
ATOM      9  C   UNL A   1      31.887  27.060  24.091  1.00  0.00     0.063 A 
ATOM     10  C   UNL A   1      31.377  25.988  23.328  1.00  0.00     0.055 A 
ATOM     11  C   UNL A   1      30.221  25.310  23.785  1.00  0.00     0.027 A 
ATOM     12  C   UNL A   1      29.688  25.534  25.052  1.00  0.00     0.002 A 
ATOM     13  C   UNL A   1      31.331  27.246  25.387  1.00  0.00     0.016 A 
ATOM     14  C   UNL A   1      30.273  26.477  25.876  1.00  0.00     0.001 A 
BRANCH  10  15
ATOM     15  N   UNL A   1      31.909  25.375  22.175  1.00  0.00    -0.307 N 
ATOM     16  N   UNL A   1      33.610  23.876  22.882  1.00  0.00    -0.335 N 
ATOM     17  C   UNL A   1      32.944  24.548  21.926  1.00  0.00     0.319 C 
ATOM     18  H   UNL A   1      34.543  23.646  22.668  1.00  0.00     0.165 HD
ATOM     19  O   UNL A   1      33.283  24.377  20.753  1.00  0.00    -0.248 OA
ATOM     20  H   UNL A   1      31.407  25.605  21.360  1.00  0.00     0.171 HD
BRANCH  16  21
ATOM     21  C   UNL A   1      33.143  23.443  24.183  1.00  0.00     0.089 C 
ATOM     22  C   UNL A   1      34.686  21.397  24.466  1.00  0.00     0.013 C 
ATOM     23  C   UNL A   1      33.232  21.906  24.396  1.00  0.00    -0.015 C 
ATOM     24  C   UNL A   1      32.529  21.151  23.247  1.00  0.00     0.013 C 
ATOM     25  C   UNL A   1      32.484  21.611  25.723  1.00  0.00     0.008 C 
ATOM     26  C   UNL A   1      32.986  22.438  26.915  1.00  0.00     0.001 C 
ATOM     27  C   UNL A   1      33.833  24.210  25.314  1.00  0.00     0.025 C 
ATOM     28  C   UNL A   1      33.099  23.934  26.621  1.00  0.00     0.002 C 
ENDBRANCH  16  21
ENDBRANCH  10  15
ENDBRANCH   6   9
ENDBRANCH   4   5
ENDBRANCH   3   4
ENDBRANCH   2   3
ENDBRANCH   1   2
BRANCH   1  29
ATOM     29  C   UNL A   1      31.601  32.128  26.844  1.00  0.00     0.021 C 
BRANCH  29  30
ATOM     30  C   UNL A   1      32.820  32.849  27.404  1.00  0.00     0.116 C 
BRANCH  30  31
ATOM     31  N   UNL A   1      32.543  34.221  27.787  1.00  0.00    -0.352 N 
ATOM     32  C   UNL A   1      33.137  34.994  28.754  1.00  0.00     0.251 C 
ATOM     33  H   UNL A   1      31.825  34.663  27.279  1.00  0.00     0.163 HD
ATOM     34  O   UNL A   1      32.678  36.098  29.017  1.00  0.00    -0.269 OA
BRANCH  32  35
ATOM     35  C   UNL A   1      34.307  34.473  29.499  1.00  0.00     0.039 A 
ATOM     36  C   UNL A   1      34.086  33.815  30.711  1.00  0.00     0.014 A 
ATOM     37  C   UNL A   1      35.607  34.627  29.011  1.00  0.00     0.014 A 
ATOM     38  C   UNL A   1      35.165  33.260  31.404  1.00  0.00     0.010 A 
ATOM     39  C   UNL A   1      36.671  34.005  29.661  1.00  0.00     0.010 A 
ATOM     40  C   UNL A   1      36.462  33.319  30.867  1.00  0.00    -0.014 A 
BRANCH  40  41
ATOM     41  C   UNL A   1      37.606  32.669  31.556  1.00  0.00     0.031 A 
ATOM     42  C   UNL A   1      38.330  31.522  30.904  1.00  0.00     0.074 A 
ATOM     43  C   UNL A   1      37.960  33.081  32.790  1.00  0.00     0.049 A 
ATOM     44  N   UNL A   1      39.310  30.792  31.368  1.00  0.00    -0.248 NA
ATOM     45  C   UNL A   1      37.870  31.128  29.563  1.00  0.00     0.031 C 
ATOM     46  C   UNL A   1      37.308  34.159  33.539  1.00  0.00     0.029 A 
ATOM     47  N   UNL A   1      38.949  32.645  33.637  1.00  0.00    -0.354 N 
ATOM     48  C   UNL A   1      39.574  29.842  30.385  1.00  0.00     0.074 A 
ATOM     49  C   UNL A   1      38.612  30.057  29.326  1.00  0.00     0.031 C 
ATOM     50  C   UNL A   1      37.935  34.320  34.715  1.00  0.00     0.029 A 
ATOM     51  C   UNL A   1      38.996  33.325  34.831  1.00  0.00     0.049 A 
ATOM     52  H   UNL A   1      39.568  31.912  33.409  1.00  0.00     0.167 HD
ATOM     53  C   UNL A   1      40.543  28.894  30.364  1.00  0.00     0.034 A 
ATOM     54  C   UNL A   1      39.793  33.159  35.906  1.00  0.00     0.034 A 
ATOM     55  C   UNL A   1      41.502  28.706  31.426  1.00  0.00     0.049 A 
ATOM     56  C   UNL A   1      40.847  32.082  35.868  1.00  0.00     0.074 A 
ATOM     57  C   UNL A   1      42.562  27.818  31.479  1.00  0.00     0.029 A 
ATOM     58  N   UNL A   1      41.511  29.406  32.627  1.00  0.00    -0.354 N 
ATOM     59  N   UNL A   1      41.115  31.223  34.910  1.00  0.00    -0.248 NA
ATOM     60  C   UNL A   1      41.710  31.958  37.048  1.00  0.00     0.031 C 
ATOM     61  C   UNL A   1      43.158  27.923  32.740  1.00  0.00     0.029 A 
ATOM     62  C   UNL A   1      42.533  28.942  33.441  1.00  0.00     0.049 A 
ATOM     63  H   UNL A   1      40.884  30.127  32.865  1.00  0.00     0.167 HD
ATOM     64  C   UNL A   1      42.200  30.477  35.364  1.00  0.00     0.074 A 
ATOM     65  C   UNL A   1      42.543  30.999  36.671  1.00  0.00     0.031 C 
ATOM     66  C   UNL A   1      42.857  29.459  34.752  1.00  0.00     0.034 A 
BRANCH  53  67
ATOM     67  C   UNL A   1      40.590  27.966  29.173  1.00  0.00     0.023 A 
ATOM     68  C   UNL A   1      41.513  28.143  28.127  1.00  0.00     0.031 A 
ATOM     69  C   UNL A   1      39.691  26.888  29.079  1.00  0.00     0.131 A 
ATOM     70  C   UNL A   1      41.473  27.298  27.006  1.00  0.00     0.055 A 
ATOM     71  C   UNL A   1      39.711  26.001  28.001  1.00  0.00     0.041 A 
ATOM     72  F   UNL A   1      38.770  26.680  30.034  1.00  0.00    -0.206 F 
ATOM     73  C   UNL A   1      40.597  26.211  26.949  1.00  0.00     0.022 A 
BRANCH  70  74
ATOM     74  S   UNL A   1      42.487  27.721  25.564  1.00  0.00     0.124 S 
ATOM     75  O   UNL A   1      43.792  27.956  26.179  1.00  0.00    -0.237 OA
ATOM     76  O   UNL A   1      42.377  26.525  24.737  1.00  0.00    -0.237 OA
ATOM     77  O   UNL A   1      41.838  28.915  25.025  1.00  0.00    -0.744 OA
ENDBRANCH  70  74
ENDBRANCH  53  67
BRANCH  54  78
ATOM     78  C   UNL A   1      39.620  34.020  37.112  1.00  0.00     0.023 A 
ATOM     79  C   UNL A   1      39.023  33.524  38.281  1.00  0.00     0.031 A 
ATOM     80  C   UNL A   1      40.027  35.367  37.102  1.00  0.00     0.131 A 
ATOM     81  C   UNL A   1      38.813  34.376  39.377  1.00  0.00     0.055 A 
ATOM     82  C   UNL A   1      39.869  36.195  38.214  1.00  0.00     0.041 A 
ATOM     83  F   UNL A   1      40.605  35.894  36.010  1.00  0.00    -0.206 F 
ATOM     84  C   UNL A   1      39.247  35.703  39.358  1.00  0.00     0.022 A 
BRANCH  81  85
ATOM     85  S   UNL A   1      37.891  33.746  40.807  1.00  0.00     0.124 S 
ATOM     86  O   UNL A   1      36.993  32.783  40.179  1.00  0.00    -0.237 OA
ATOM     87  O   UNL A   1      38.956  33.188  41.633  1.00  0.00    -0.237 OA
ATOM     88  O   UNL A   1      37.246  34.940  41.348  1.00  0.00    -0.744 OA
ENDBRANCH  81  85
ENDBRANCH  54  78
BRANCH  66  89
ATOM     89  C   UNL A   1      44.044  28.869  35.475  1.00  0.00     0.023 A 
ATOM     90  C   UNL A   1      43.914  27.783  36.357  1.00  0.00     0.031 A 
ATOM     91  C   UNL A   1      45.329  29.409  35.279  1.00  0.00     0.131 A 
ATOM     92  C   UNL A   1      45.036  27.309  37.053  1.00  0.00     0.055 A 
ATOM     93  C   UNL A   1      46.453  28.889  35.921  1.00  0.00     0.041 A 
ATOM     94  F   UNL A   1      45.514  30.451  34.452  1.00  0.00    -0.206 F 
ATOM     95  C   UNL A   1      46.308  27.841  36.825  1.00  0.00     0.022 A 
BRANCH  92  96
ATOM     96  S   UNL A   1      44.796  26.055  38.342  1.00  0.00     0.124 S 
ATOM     97  O   UNL A   1      46.164  25.808  38.783  1.00  0.00    -0.237 OA
ATOM     98  O   UNL A   1      43.933  26.747  39.294  1.00  0.00    -0.237 OA
ATOM     99  O   UNL A   1      44.165  24.947  37.627  1.00  0.00    -0.744 OA
ENDBRANCH  92  96
ENDBRANCH  66  89
ENDBRANCH  40  41
ENDBRANCH  32  35
ENDBRANCH  30  31
ENDBRANCH  29  30
ENDBRANCH   1  29
TORSDOF 18
ENDMDL
