MODEL 1
REMARK VINA RESULT:     -10.8      0.000      0.000
REMARK SMILES CC(C)N1C[C@@H](C(=O)NCCCCCCNC(=O)c2ccc(-c3c4nc(c(-c5cc(S(=O)(=O)[O-])ccc5F)c5ccc([nH]5)c(-c5cc(S(=O)(=O)[O-])ccc5F)c5nc(c(-c6cc(S(=O)(=O)[O-])ccc6F)c6ccc3[nH]6)C=C5)C=C4)cc2)CC1=O
REMARK SMILES IDX 13 1 12 2 11 3 10 4 9 5 7 6 8 7 6 9 4 10 5 11 83 12 82 13
REMARK SMILES IDX 84 14 2 15 1 16 3 17 14 18 15 19 16 20 17 21 18 23 19 24
REMARK SMILES IDX 20 25 81 26 21 27 80 28 22 29 23 30 24 31 74 32 25 33 79 34
REMARK SMILES IDX 73 35 75 36 26 37 78 38 72 39 71 40 27 42 59 43 39 44 58 45
REMARK SMILES IDX 40 46 43 47 57 48 76 49 41 50 42 51 56 53 77 54 44 55 28 56
REMARK SMILES IDX 29 57 37 58 30 59 36 60 38 61 35 62 31 63 32 64 33 65 34 66
REMARK SMILES IDX 60 67 61 68 69 69 62 70 68 71 70 72 67 73 63 74 64 75 65 76
REMARK SMILES IDX 66 77 45 78 46 79 54 80 47 81 53 82 55 83 52 84 48 85 49 86
REMARK SMILES IDX 50 87 51 88
REMARK H PARENT 9 8 16 22 75 41 43 52
REMARK Flexibility Score: inf
ROOT
ATOM      1  C   UNL A   1      31.532  30.504  26.568  1.00  0.00     0.002 C 
ENDROOT
BRANCH   1   2
ATOM      2  C   UNL A   1      31.858  29.835  25.229  1.00  0.00     0.002 C 
BRANCH   2   3
ATOM      3  C   UNL A   1      30.640  29.435  24.388  1.00  0.00     0.021 C 
BRANCH   3   4
ATOM      4  C   UNL A   1      30.913  29.349  22.888  1.00  0.00     0.116 C 
BRANCH   4   5
ATOM      5  N   UNL A   1      32.341  29.328  22.616  1.00  0.00    -0.356 N 
ATOM      6  C   UNL A   1      33.237  28.310  22.599  1.00  0.00     0.225 C 
ATOM      7  O   UNL A   1      34.415  28.592  22.365  1.00  0.00    -0.275 OA
ATOM      8  H   UNL A   1      32.725  30.209  22.407  1.00  0.00     0.163 HD
BRANCH   6   9
ATOM      9  C   UNL A   1      32.838  26.868  22.820  1.00  0.00     0.107 C 
ATOM     10  N   UNL A   1      34.011  24.874  23.318  1.00  0.00    -0.339 N 
ATOM     11  C   UNL A   1      33.711  26.183  23.854  1.00  0.00     0.133 C 
ATOM     12  C   UNL A   1      33.418  24.679  22.076  1.00  0.00     0.223 C 
ATOM     13  C   UNL A   1      32.865  25.988  21.582  1.00  0.00     0.115 C 
ATOM     14  O   UNL A   1      33.352  23.639  21.440  1.00  0.00    -0.275 OA
BRANCH  10  15
ATOM     15  C   UNL A   1      34.614  23.810  24.145  1.00  0.00     0.078 C 
ATOM     16  C   UNL A   1      35.319  24.340  25.398  1.00  0.00     0.031 C 
ATOM     17  C   UNL A   1      33.586  22.760  24.588  1.00  0.00     0.031 C 
ENDBRANCH  10  15
ENDBRANCH   6   9
ENDBRANCH   4   5
ENDBRANCH   3   4
ENDBRANCH   2   3
ENDBRANCH   1   2
BRANCH   1  18
ATOM     18  C   UNL A   1      31.572  32.034  26.554  1.00  0.00     0.021 C 
BRANCH  18  19
ATOM     19  C   UNL A   1      32.790  32.643  27.241  1.00  0.00     0.116 C 
BRANCH  19  20
ATOM     20  N   UNL A   1      32.562  34.024  27.629  1.00  0.00    -0.352 N 
ATOM     21  C   UNL A   1      33.122  34.737  28.660  1.00  0.00     0.251 C 
ATOM     22  H   UNL A   1      31.915  34.518  27.075  1.00  0.00     0.163 HD
ATOM     23  O   UNL A   1      32.651  35.827  28.970  1.00  0.00    -0.269 OA
BRANCH  21  24
ATOM     24  C   UNL A   1      34.272  34.177  29.403  1.00  0.00     0.039 A 
ATOM     25  C   UNL A   1      34.036  33.457  30.575  1.00  0.00     0.014 A 
ATOM     26  C   UNL A   1      35.582  34.370  28.951  1.00  0.00     0.014 A 
ATOM     27  C   UNL A   1      35.108  32.890  31.268  1.00  0.00     0.010 A 
ATOM     28  C   UNL A   1      36.640  33.735  29.596  1.00  0.00     0.010 A 
ATOM     29  C   UNL A   1      36.417  33.001  30.771  1.00  0.00    -0.014 A 
BRANCH  29  30
ATOM     30  C   UNL A   1      37.568  32.387  31.486  1.00  0.00     0.031 A 
ATOM     31  C   UNL A   1      38.324  31.249  30.854  1.00  0.00     0.074 A 
ATOM     32  C   UNL A   1      37.904  32.824  32.716  1.00  0.00     0.049 A 
ATOM     33  N   UNL A   1      39.314  30.542  31.336  1.00  0.00    -0.248 NA
ATOM     34  C   UNL A   1      37.887  30.833  29.513  1.00  0.00     0.031 C 
ATOM     35  C   UNL A   1      37.227  33.899  33.446  1.00  0.00     0.029 A 
ATOM     36  N   UNL A   1      38.897  32.418  33.572  1.00  0.00    -0.354 N 
ATOM     37  C   UNL A   1      39.610  29.592  30.364  1.00  0.00     0.074 A 
ATOM     38  C   UNL A   1      38.646  29.769  29.299  1.00  0.00     0.031 C 
ATOM     39  C   UNL A   1      37.845  34.087  34.623  1.00  0.00     0.029 A 
ATOM     40  C   UNL A   1      38.928  33.117  34.756  1.00  0.00     0.049 A 
ATOM     41  H   UNL A   1      39.530  31.694  33.358  1.00  0.00     0.167 HD
ATOM     42  C   UNL A   1      40.611  28.676  30.346  1.00  0.00     0.034 A 
ATOM     43  C   UNL A   1      39.731  32.987  35.832  1.00  0.00     0.034 A 
ATOM     44  C   UNL A   1      41.567  28.517  31.415  1.00  0.00     0.049 A 
ATOM     45  C   UNL A   1      40.814  31.936  35.806  1.00  0.00     0.074 A 
ATOM     46  C   UNL A   1      42.642  27.647  31.488  1.00  0.00     0.029 A 
ATOM     47  N   UNL A   1      41.563  29.240  32.602  1.00  0.00    -0.354 N 
ATOM     48  N   UNL A   1      41.107  31.071  34.862  1.00  0.00    -0.248 NA
ATOM     49  C   UNL A   1      41.685  31.856  36.985  1.00  0.00     0.031 C 
ATOM     50  C   UNL A   1      43.239  27.791  32.745  1.00  0.00     0.029 A 
ATOM     51  C   UNL A   1      42.597  28.815  33.423  1.00  0.00     0.049 A 
ATOM     52  H   UNL A   1      40.919  29.950  32.827  1.00  0.00     0.167 HD
ATOM     53  C   UNL A   1      42.224  30.375  35.317  1.00  0.00     0.074 A 
ATOM     54  C   UNL A   1      42.556  30.930  36.614  1.00  0.00     0.031 C 
ATOM     55  C   UNL A   1      42.918  29.375  34.716  1.00  0.00     0.034 A 
BRANCH  42  56
ATOM     56  C   UNL A   1      40.696  27.763  29.144  1.00  0.00     0.023 A 
ATOM     57  C   UNL A   1      41.635  27.976  28.119  1.00  0.00     0.031 A 
ATOM     58  C   UNL A   1      39.805  26.683  29.002  1.00  0.00     0.131 A 
ATOM     59  C   UNL A   1      41.607  27.180  26.964  1.00  0.00     0.055 A 
ATOM     60  C   UNL A   1      39.843  25.838  27.891  1.00  0.00     0.041 A 
ATOM     61  F   UNL A   1      38.870  26.440  29.934  1.00  0.00    -0.206 F 
ATOM     62  C   UNL A   1      40.735  26.094  26.855  1.00  0.00     0.022 A 
BRANCH  59  63
ATOM     63  S   UNL A   1      42.610  27.685  25.540  1.00  0.00     0.124 S 
ATOM     64  O   UNL A   1      41.881  28.860  25.069  1.00  0.00    -0.237 OA
ATOM     65  O   UNL A   1      43.912  27.942  26.147  1.00  0.00    -0.237 OA
ATOM     66  O   UNL A   1      42.552  26.527  24.651  1.00  0.00    -0.744 OA
ENDBRANCH  59  63
ENDBRANCH  42  56
BRANCH  43  67
ATOM     67  C   UNL A   1      39.548  33.863  37.026  1.00  0.00     0.023 A 
ATOM     68  C   UNL A   1      38.909  33.385  38.183  1.00  0.00     0.031 A 
ATOM     69  C   UNL A   1      39.963  35.206  37.011  1.00  0.00     0.131 A 
ATOM     70  C   UNL A   1      38.655  34.257  39.252  1.00  0.00     0.055 A 
ATOM     71  C   UNL A   1      39.761  36.053  38.103  1.00  0.00     0.041 A 
ATOM     72  F   UNL A   1      40.582  35.714  35.934  1.00  0.00    -0.206 F 
ATOM     73  C   UNL A   1      39.089  35.583  39.226  1.00  0.00     0.022 A 
BRANCH  70  74
ATOM     74  S   UNL A   1      37.655  33.657  40.642  1.00  0.00     0.124 S 
ATOM     75  O   UNL A   1      37.216  34.907  41.253  1.00  0.00    -0.237 OA
ATOM     76  O   UNL A   1      36.626  32.878  39.960  1.00  0.00    -0.237 OA
ATOM     77  O   UNL A   1      38.605  32.875  41.431  1.00  0.00    -0.744 OA
ENDBRANCH  70  74
ENDBRANCH  43  67
BRANCH  55  78
ATOM     78  C   UNL A   1      44.149  28.864  35.429  1.00  0.00     0.023 A 
ATOM     79  C   UNL A   1      44.094  27.802  36.348  1.00  0.00     0.031 A 
ATOM     80  C   UNL A   1      45.398  29.467  35.194  1.00  0.00     0.131 A 
ATOM     81  C   UNL A   1      45.250  27.422  37.048  1.00  0.00     0.055 A 
ATOM     82  C   UNL A   1      46.558  29.038  35.838  1.00  0.00     0.041 A 
ATOM     83  F   UNL A   1      45.512  30.490  34.329  1.00  0.00    -0.206 F 
ATOM     84  C   UNL A   1      46.485  28.019  36.784  1.00  0.00     0.022 A 
BRANCH  81  85
ATOM     85  S   UNL A   1      45.096  26.213  38.392  1.00  0.00     0.124 S 
ATOM     86  O   UNL A   1      46.459  25.699  38.494  1.00  0.00    -0.237 OA
ATOM     87  O   UNL A   1      44.641  27.040  39.505  1.00  0.00    -0.237 OA
ATOM     88  O   UNL A   1      44.111  25.259  37.885  1.00  0.00    -0.744 OA
ENDBRANCH  81  85
ENDBRANCH  55  78
ENDBRANCH  29  30
ENDBRANCH  21  24
ENDBRANCH  19  20
ENDBRANCH  18  19
ENDBRANCH   1  18
TORSDOF 17
ENDMDL
MODEL 2
REMARK VINA RESULT:     -10.8      5.888      8.885
REMARK SMILES CC(C)N1C[C@@H](C(=O)NCCCCCCNC(=O)c2ccc(-c3c4nc(c(-c5cc(S(=O)(=O)[O-])ccc5F)c5ccc([nH]5)c(-c5cc(S(=O)(=O)[O-])ccc5F)c5nc(c(-c6cc(S(=O)(=O)[O-])ccc6F)c6ccc3[nH]6)C=C5)C=C4)cc2)CC1=O
REMARK SMILES IDX 13 1 12 2 11 3 10 4 9 5 7 6 8 7 6 9 4 10 5 11 83 12 82 13
REMARK SMILES IDX 84 14 2 15 1 16 3 17 14 18 15 19 16 20 17 21 18 23 19 24
REMARK SMILES IDX 20 25 81 26 21 27 80 28 22 29 23 30 24 31 74 32 25 33 79 34
REMARK SMILES IDX 73 35 75 36 26 37 78 38 72 39 71 40 27 42 59 43 39 44 58 45
REMARK SMILES IDX 40 46 43 47 57 48 76 49 41 50 42 51 56 53 77 54 44 55 28 56
REMARK SMILES IDX 29 57 37 58 30 59 36 60 38 61 35 62 31 63 32 64 33 65 34 66
REMARK SMILES IDX 60 67 61 68 69 69 62 70 68 71 70 72 67 73 63 74 64 75 65 76
REMARK SMILES IDX 66 77 45 78 46 79 54 80 47 81 53 82 55 83 52 84 48 85 49 86
REMARK SMILES IDX 50 87 51 88
REMARK H PARENT 9 8 16 22 75 41 43 52
REMARK Flexibility Score: inf
ROOT
ATOM      1  C   UNL A   1      35.117  22.178  24.326  1.00  0.00     0.002 C 
ENDROOT
BRANCH   1   2
ATOM      2  C   UNL A   1      34.613  21.476  25.591  1.00  0.00     0.002 C 
BRANCH   2   3
ATOM      3  C   UNL A   1      33.392  20.571  25.389  1.00  0.00     0.021 C 
BRANCH   3   4
ATOM      4  C   UNL A   1      32.147  21.297  24.886  1.00  0.00     0.116 C 
BRANCH   4   5
ATOM      5  N   UNL A   1      31.380  21.848  25.990  1.00  0.00    -0.356 N 
ATOM      6  C   UNL A   1      31.086  23.128  26.328  1.00  0.00     0.225 C 
ATOM      7  O   UNL A   1      30.430  23.309  27.358  1.00  0.00    -0.275 OA
ATOM      8  H   UNL A   1      31.006  21.172  26.600  1.00  0.00     0.163 HD
BRANCH   6   9
ATOM      9  C   UNL A   1      31.502  24.312  25.483  1.00  0.00     0.107 C 
ATOM     10  N   UNL A   1      31.663  26.644  25.849  1.00  0.00    -0.339 N 
ATOM     11  C   UNL A   1      32.204  25.380  26.298  1.00  0.00     0.133 C 
ATOM     12  C   UNL A   1      30.712  26.470  24.851  1.00  0.00     0.223 C 
ATOM     13  C   UNL A   1      30.375  25.008  24.740  1.00  0.00     0.115 C 
ATOM     14  O   UNL A   1      30.188  27.334  24.165  1.00  0.00    -0.275 OA
BRANCH  10  15
ATOM     15  C   UNL A   1      32.284  27.933  26.212  1.00  0.00     0.078 C 
ATOM     16  C   UNL A   1      31.669  28.575  27.460  1.00  0.00     0.031 C 
ATOM     17  C   UNL A   1      33.797  27.810  26.439  1.00  0.00     0.031 C 
ENDBRANCH  10  15
ENDBRANCH   6   9
ENDBRANCH   4   5
ENDBRANCH   3   4
ENDBRANCH   2   3
ENDBRANCH   1   2
BRANCH   1  18
ATOM     18  C   UNL A   1      36.612  22.507  24.320  1.00  0.00     0.021 C 
BRANCH  18  19
ATOM     19  C   UNL A   1      37.223  22.707  25.703  1.00  0.00     0.116 C 
BRANCH  19  20
ATOM     20  N   UNL A   1      38.199  21.680  26.020  1.00  0.00    -0.352 N 
ATOM     21  C   UNL A   1      39.503  21.821  26.428  1.00  0.00     0.251 C 
ATOM     22  H   UNL A   1      37.882  20.752  25.931  1.00  0.00     0.163 HD
ATOM     23  O   UNL A   1      40.243  20.842  26.443  1.00  0.00    -0.269 OA
BRANCH  21  24
ATOM     24  C   UNL A   1      40.011  23.153  26.824  1.00  0.00     0.039 A 
ATOM     25  C   UNL A   1      39.685  24.262  26.042  1.00  0.00     0.014 A 
ATOM     26  C   UNL A   1      40.815  23.306  27.958  1.00  0.00     0.014 A 
ATOM     27  C   UNL A   1      40.126  25.531  26.422  1.00  0.00     0.010 A 
ATOM     28  C   UNL A   1      41.182  24.581  28.382  1.00  0.00     0.010 A 
ATOM     29  C   UNL A   1      40.855  25.707  27.610  1.00  0.00    -0.014 A 
BRANCH  29  30
ATOM     30  C   UNL A   1      41.316  27.054  28.041  1.00  0.00     0.031 A 
ATOM     31  C   UNL A   1      42.763  27.438  27.884  1.00  0.00     0.074 A 
ATOM     32  C   UNL A   1      40.444  27.911  28.609  1.00  0.00     0.049 A 
ATOM     33  N   UNL A   1      43.374  28.536  28.250  1.00  0.00    -0.248 NA
ATOM     34  C   UNL A   1      43.645  26.441  27.259  1.00  0.00     0.031 C 
ATOM     35  C   UNL A   1      39.024  27.642  28.843  1.00  0.00     0.029 A 
ATOM     36  N   UNL A   1      40.624  29.182  29.095  1.00  0.00    -0.354 N 
ATOM     37  C   UNL A   1      44.711  28.357  27.911  1.00  0.00     0.074 A 
ATOM     38  C   UNL A   1      44.831  27.017  27.378  1.00  0.00     0.031 C 
ATOM     39  C   UNL A   1      38.457  28.725  29.397  1.00  0.00     0.029 A 
ATOM     40  C   UNL A   1      39.477  29.747  29.604  1.00  0.00     0.049 A 
ATOM     41  H   UNL A   1      41.492  29.647  29.081  1.00  0.00     0.167 HD
ATOM     42  C   UNL A   1      45.739  29.238  28.007  1.00  0.00     0.034 A 
ATOM     43  C   UNL A   1      39.274  30.949  30.182  1.00  0.00     0.034 A 
ATOM     44  C   UNL A   1      45.599  30.573  28.536  1.00  0.00     0.049 A 
ATOM     45  C   UNL A   1      40.439  31.899  30.313  1.00  0.00     0.074 A 
ATOM     46  C   UNL A   1      46.562  31.561  28.648  1.00  0.00     0.029 A 
ATOM     47  N   UNL A   1      44.423  31.108  29.049  1.00  0.00    -0.354 N 
ATOM     48  N   UNL A   1      41.690  31.730  29.950  1.00  0.00    -0.248 NA
ATOM     49  C   UNL A   1      40.159  33.208  30.915  1.00  0.00     0.031 C 
ATOM     50  C   UNL A   1      45.989  32.662  29.294  1.00  0.00     0.029 A 
ATOM     51  C   UNL A   1      44.645  32.400  29.502  1.00  0.00     0.049 A 
ATOM     52  H   UNL A   1      43.558  30.639  29.084  1.00  0.00     0.167 HD
ATOM     53  C   UNL A   1      42.335  32.930  30.242  1.00  0.00     0.074 A 
ATOM     54  C   UNL A   1      41.331  33.813  30.799  1.00  0.00     0.031 C 
ATOM     55  C   UNL A   1      43.636  33.273  30.059  1.00  0.00     0.034 A 
BRANCH  42  56
ATOM     56  C   UNL A   1      47.102  28.767  27.555  1.00  0.00     0.023 A 
ATOM     57  C   UNL A   1      47.374  28.478  26.205  1.00  0.00     0.031 A 
ATOM     58  C   UNL A   1      48.136  28.572  28.488  1.00  0.00     0.131 A 
ATOM     59  C   UNL A   1      48.613  27.931  25.840  1.00  0.00     0.055 A 
ATOM     60  C   UNL A   1      49.399  28.114  28.103  1.00  0.00     0.041 A 
ATOM     61  F   UNL A   1      47.934  28.807  29.794  1.00  0.00    -0.206 F 
ATOM     62  C   UNL A   1      49.638  27.774  26.776  1.00  0.00     0.022 A 
BRANCH  59  63
ATOM     63  S   UNL A   1      48.810  27.277  24.160  1.00  0.00     0.124 S 
ATOM     64  O   UNL A   1      49.421  25.975  24.421  1.00  0.00    -0.237 OA
ATOM     65  O   UNL A   1      47.437  27.251  23.669  1.00  0.00    -0.237 OA
ATOM     66  O   UNL A   1      49.687  28.250  23.513  1.00  0.00    -0.744 OA
ENDBRANCH  59  63
ENDBRANCH  42  56
BRANCH  43  67
ATOM     67  C   UNL A   1      37.921  31.329  30.686  1.00  0.00     0.023 A 
ATOM     68  C   UNL A   1      36.982  31.945  29.842  1.00  0.00     0.031 A 
ATOM     69  C   UNL A   1      37.565  31.129  32.032  1.00  0.00     0.131 A 
ATOM     70  C   UNL A   1      35.757  32.388  30.364  1.00  0.00     0.055 A 
ATOM     71  C   UNL A   1      36.321  31.517  32.531  1.00  0.00     0.041 A 
ATOM     72  F   UNL A   1      38.423  30.542  32.881  1.00  0.00    -0.206 F 
ATOM     73  C   UNL A   1      35.414  32.165  31.699  1.00  0.00     0.022 A 
BRANCH  70  74
ATOM     74  S   UNL A   1      34.656  33.353  29.293  1.00  0.00     0.124 S 
ATOM     75  O   UNL A   1      33.756  33.963  30.266  1.00  0.00    -0.237 OA
ATOM     76  O   UNL A   1      35.592  34.254  28.630  1.00  0.00    -0.237 OA
ATOM     77  O   UNL A   1      34.049  32.341  28.430  1.00  0.00    -0.744 OA
ENDBRANCH  70  74
ENDBRANCH  43  67
BRANCH  55  78
ATOM     78  C   UNL A   1      44.030  34.691  30.403  1.00  0.00     0.023 A 
ATOM     79  C   UNL A   1      43.894  35.747  29.486  1.00  0.00     0.031 A 
ATOM     80  C   UNL A   1      44.569  34.983  31.669  1.00  0.00     0.131 A 
ATOM     81  C   UNL A   1      44.355  37.030  29.823  1.00  0.00     0.055 A 
ATOM     82  C   UNL A   1      44.958  36.274  32.026  1.00  0.00     0.041 A 
ATOM     83  F   UNL A   1      44.727  34.013  32.585  1.00  0.00    -0.206 F 
ATOM     84  C   UNL A   1      44.867  37.304  31.095  1.00  0.00     0.022 A 
BRANCH  81  85
ATOM     85  S   UNL A   1      44.382  38.311  28.539  1.00  0.00     0.124 S 
ATOM     86  O   UNL A   1      45.714  38.884  28.711  1.00  0.00    -0.237 OA
ATOM     87  O   UNL A   1      44.173  37.537  27.321  1.00  0.00    -0.237 OA
ATOM     88  O   UNL A   1      43.276  39.193  28.911  1.00  0.00    -0.744 OA
ENDBRANCH  81  85
ENDBRANCH  55  78
ENDBRANCH  29  30
ENDBRANCH  21  24
ENDBRANCH  19  20
ENDBRANCH  18  19
ENDBRANCH   1  18
TORSDOF 17
ENDMDL
MODEL 3
REMARK VINA RESULT:     -10.7      2.115      8.449
REMARK SMILES CC(C)N1C[C@@H](C(=O)NCCCCCCNC(=O)c2ccc(-c3c4nc(c(-c5cc(S(=O)(=O)[O-])ccc5F)c5ccc([nH]5)c(-c5cc(S(=O)(=O)[O-])ccc5F)c5nc(c(-c6cc(S(=O)(=O)[O-])ccc6F)c6ccc3[nH]6)C=C5)C=C4)cc2)CC1=O
REMARK SMILES IDX 13 1 12 2 11 3 10 4 9 5 7 6 8 7 6 9 4 10 5 11 83 12 82 13
REMARK SMILES IDX 84 14 2 15 1 16 3 17 14 18 15 19 16 20 17 21 18 23 19 24
REMARK SMILES IDX 20 25 81 26 21 27 80 28 22 29 23 30 24 31 74 32 25 33 79 34
REMARK SMILES IDX 73 35 75 36 26 37 78 38 72 39 71 40 27 42 59 43 39 44 58 45
REMARK SMILES IDX 40 46 43 47 57 48 76 49 41 50 42 51 56 53 77 54 44 55 28 56
REMARK SMILES IDX 29 57 37 58 30 59 36 60 38 61 35 62 31 63 32 64 33 65 34 66
REMARK SMILES IDX 60 67 61 68 69 69 62 70 68 71 70 72 67 73 63 74 64 75 65 76
REMARK SMILES IDX 66 77 45 78 46 79 54 80 47 81 53 82 55 83 52 84 48 85 49 86
REMARK SMILES IDX 50 87 51 88
REMARK H PARENT 9 8 16 22 75 41 43 52
REMARK Flexibility Score: inf
ROOT
ATOM      1  C   UNL A   1      34.508  32.728  28.265  1.00  0.00     0.002 C 
ENDROOT
BRANCH   1   2
ATOM      2  C   UNL A   1      34.019  31.327  27.885  1.00  0.00     0.002 C 
BRANCH   2   3
ATOM      3  C   UNL A   1      35.127  30.305  27.604  1.00  0.00     0.021 C 
BRANCH   3   4
ATOM      4  C   UNL A   1      34.625  28.965  27.072  1.00  0.00     0.116 C 
BRANCH   4   5
ATOM      5  N   UNL A   1      33.348  28.609  27.667  1.00  0.00    -0.356 N 
ATOM      6  C   UNL A   1      32.142  28.339  27.110  1.00  0.00     0.225 C 
ATOM      7  O   UNL A   1      31.203  28.095  27.874  1.00  0.00    -0.275 OA
ATOM      8  H   UNL A   1      33.362  28.555  28.650  1.00  0.00     0.163 HD
BRANCH   6   9
ATOM      9  C   UNL A   1      31.925  28.295  25.614  1.00  0.00     0.107 C 
ATOM     10  N   UNL A   1      30.327  29.222  24.135  1.00  0.00    -0.339 N 
ATOM     11  C   UNL A   1      31.359  29.596  25.078  1.00  0.00     0.133 C 
ATOM     12  C   UNL A   1      30.201  27.843  24.032  1.00  0.00     0.223 C 
ATOM     13  C   UNL A   1      31.007  27.190  25.122  1.00  0.00     0.115 C 
ATOM     14  O   UNL A   1      29.537  27.216  23.220  1.00  0.00    -0.275 OA
BRANCH  10  15
ATOM     15  C   UNL A   1      29.727  30.201  23.207  1.00  0.00     0.078 C 
ATOM     16  C   UNL A   1      30.009  29.894  21.732  1.00  0.00     0.031 C 
ATOM     17  C   UNL A   1      28.207  30.319  23.384  1.00  0.00     0.031 C 
ENDBRANCH  10  15
ENDBRANCH   6   9
ENDBRANCH   4   5
ENDBRANCH   3   4
ENDBRANCH   2   3
ENDBRANCH   1   2
BRANCH   1  18
ATOM     18  C   UNL A   1      33.479  33.846  28.080  1.00  0.00     0.021 C 
BRANCH  18  19
ATOM     19  C   UNL A   1      33.886  35.189  28.678  1.00  0.00     0.116 C 
BRANCH  19  20
ATOM     20  N   UNL A   1      33.077  35.539  29.831  1.00  0.00    -0.352 N 
ATOM     21  C   UNL A   1      33.199  35.123  31.133  1.00  0.00     0.251 C 
ATOM     22  H   UNL A   1      32.336  36.163  29.654  1.00  0.00     0.163 HD
ATOM     23  O   UNL A   1      32.296  35.353  31.932  1.00  0.00    -0.269 OA
BRANCH  21  24
ATOM     24  C   UNL A   1      34.406  34.382  31.559  1.00  0.00     0.039 A 
ATOM     25  C   UNL A   1      34.270  33.068  32.012  1.00  0.00     0.014 A 
ATOM     26  C   UNL A   1      35.669  34.983  31.522  1.00  0.00     0.014 A 
ATOM     27  C   UNL A   1      35.404  32.342  32.382  1.00  0.00     0.010 A 
ATOM     28  C   UNL A   1      36.805  34.231  31.811  1.00  0.00     0.010 A 
ATOM     29  C   UNL A   1      36.684  32.907  32.260  1.00  0.00    -0.014 A 
BRANCH  29  30
ATOM     30  C   UNL A   1      37.904  32.141  32.631  1.00  0.00     0.031 A 
ATOM     31  C   UNL A   1      38.622  32.450  33.919  1.00  0.00     0.074 A 
ATOM     32  C   UNL A   1      38.389  31.202  31.793  1.00  0.00     0.049 A 
ATOM     33  N   UNL A   1      39.729  31.941  34.393  1.00  0.00    -0.248 NA
ATOM     34  C   UNL A   1      38.027  33.492  34.770  1.00  0.00     0.031 C 
ATOM     35  C   UNL A   1      37.800  30.836  30.504  1.00  0.00     0.029 A 
ATOM     36  N   UNL A   1      39.486  30.386  31.899  1.00  0.00    -0.354 N 
ATOM     37  C   UNL A   1      39.971  32.607  35.590  1.00  0.00     0.074 A 
ATOM     38  C   UNL A   1      38.933  33.605  35.730  1.00  0.00     0.031 C 
ATOM     39  C   UNL A   1      38.524  29.847  29.955  1.00  0.00     0.029 A 
ATOM     40  C   UNL A   1      39.655  29.543  30.826  1.00  0.00     0.049 A 
ATOM     41  H   UNL A   1      40.097  30.402  32.672  1.00  0.00     0.167 HD
ATOM     42  C   UNL A   1      40.949  32.387  36.505  1.00  0.00     0.034 A 
ATOM     43  C   UNL A   1      40.617  28.633  30.567  1.00  0.00     0.034 A 
ATOM     44  C   UNL A   1      41.973  31.382  36.352  1.00  0.00     0.049 A 
ATOM     45  C   UNL A   1      41.717  28.431  31.580  1.00  0.00     0.074 A 
ATOM     46  C   UNL A   1      42.991  31.048  37.229  1.00  0.00     0.029 A 
ATOM     47  N   UNL A   1      42.115  30.550  35.248  1.00  0.00    -0.354 N 
ATOM     48  N   UNL A   1      41.909  29.042  32.728  1.00  0.00    -0.248 NA
ATOM     49  C   UNL A   1      42.720  27.405  31.270  1.00  0.00     0.031 C 
ATOM     50  C   UNL A   1      43.790  30.071  36.624  1.00  0.00     0.029 A 
ATOM     51  C   UNL A   1      43.219  29.726  35.410  1.00  0.00     0.049 A 
ATOM     52  H   UNL A   1      41.519  30.546  34.464  1.00  0.00     0.167 HD
ATOM     53  C   UNL A   1      43.030  28.441  33.295  1.00  0.00     0.074 A 
ATOM     54  C   UNL A   1      43.463  27.415  32.367  1.00  0.00     0.031 C 
ATOM     55  C   UNL A   1      43.643  28.707  34.477  1.00  0.00     0.034 A 
BRANCH  42  56
ATOM     56  C   UNL A   1      40.966  33.271  37.730  1.00  0.00     0.023 A 
ATOM     57  C   UNL A   1      40.129  33.023  38.833  1.00  0.00     0.031 A 
ATOM     58  C   UNL A   1      41.806  34.399  37.786  1.00  0.00     0.131 A 
ATOM     59  C   UNL A   1      40.087  33.931  39.901  1.00  0.00     0.055 A 
ATOM     60  C   UNL A   1      41.826  35.248  38.895  1.00  0.00     0.041 A 
ATOM     61  F   UNL A   1      42.612  34.704  36.757  1.00  0.00    -0.206 F 
ATOM     62  C   UNL A   1      40.951  35.028  39.953  1.00  0.00     0.022 A 
BRANCH  59  63
ATOM     63  S   UNL A   1      38.775  33.749  41.141  1.00  0.00     0.124 S 
ATOM     64  O   UNL A   1      37.723  33.099  40.361  1.00  0.00    -0.237 OA
ATOM     65  O   UNL A   1      39.416  32.926  42.160  1.00  0.00    -0.237 OA
ATOM     66  O   UNL A   1      38.485  35.125  41.538  1.00  0.00    -0.744 OA
ENDBRANCH  59  63
ENDBRANCH  42  56
BRANCH  43  67
ATOM     67  C   UNL A   1      40.595  27.845  29.300  1.00  0.00     0.023 A 
ATOM     68  C   UNL A   1      41.484  28.134  28.252  1.00  0.00     0.031 A 
ATOM     69  C   UNL A   1      39.649  26.823  29.098  1.00  0.00     0.131 A 
ATOM     70  C   UNL A   1      41.374  27.450  27.032  1.00  0.00     0.055 A 
ATOM     71  C   UNL A   1      39.585  26.104  27.902  1.00  0.00     0.041 A 
ATOM     72  F   UNL A   1      38.778  26.502  30.066  1.00  0.00    -0.206 F 
ATOM     73  C   UNL A   1      40.441  26.428  26.855  1.00  0.00     0.022 A 
BRANCH  70  74
ATOM     74  S   UNL A   1      42.406  27.987  25.640  1.00  0.00     0.124 S 
ATOM     75  O   UNL A   1      41.718  29.200  25.211  1.00  0.00    -0.237 OA
ATOM     76  O   UNL A   1      43.704  28.177  26.281  1.00  0.00    -0.237 OA
ATOM     77  O   UNL A   1      42.332  26.864  24.708  1.00  0.00    -0.744 OA
ENDBRANCH  70  74
ENDBRANCH  43  67
BRANCH  55  78
ATOM     78  C   UNL A   1      44.807  27.824  34.865  1.00  0.00     0.023 A 
ATOM     79  C   UNL A   1      44.638  26.659  35.632  1.00  0.00     0.031 A 
ATOM     80  C   UNL A   1      46.113  28.170  34.470  1.00  0.00     0.131 A 
ATOM     81  C   UNL A   1      45.761  25.920  36.038  1.00  0.00     0.055 A 
ATOM     82  C   UNL A   1      47.218  27.393  34.815  1.00  0.00     0.041 A 
ATOM     83  F   UNL A   1      46.336  29.275  33.739  1.00  0.00    -0.206 F 
ATOM     84  C   UNL A   1      47.048  26.269  35.617  1.00  0.00     0.022 A 
BRANCH  81  85
ATOM     85  S   UNL A   1      45.530  24.563  37.219  1.00  0.00     0.124 S 
ATOM     86  O   UNL A   1      45.790  23.391  36.388  1.00  0.00    -0.237 OA
ATOM     87  O   UNL A   1      46.533  24.859  38.236  1.00  0.00    -0.237 OA
ATOM     88  O   UNL A   1      44.142  24.719  37.653  1.00  0.00    -0.744 OA
ENDBRANCH  81  85
ENDBRANCH  55  78
ENDBRANCH  29  30
ENDBRANCH  21  24
ENDBRANCH  19  20
ENDBRANCH  18  19
ENDBRANCH   1  18
TORSDOF 17
ENDMDL
