MODEL 1
REMARK VINA RESULT:     -10.4      0.000      0.000
REMARK SMILES COc1ccc(C(=O)CCCC(=O)NCCCCCCNC(=O)c2ccc(-c3c4nc(c(-c5cc(S(=O)(=O)[O-])ccc5F)c5ccc([nH]5)c(-c5cc(S(=O)(=O)[O-])ccc5F)c5nc(c(-c6cc(S(=O)(=O)[O-])ccc6F)c6ccc3[nH]6)C=C5)C=C4)cc2)cc1
REMARK SMILES IDX 16 1 15 2 14 3 12 4 13 5 11 7 10 8 9 9 7 10 8 11 6 12 3 13
REMARK SMILES IDX 4 14 88 15 5 16 87 17 2 18 1 19 17 20 18 21 19 22 20 23
REMARK SMILES IDX 21 24 22 25 23 27 24 28 25 29 86 30 26 31 85 32 27 33 28 34
REMARK SMILES IDX 29 35 79 36 30 37 84 38 78 39 80 40 31 41 83 42 77 43 76 44
REMARK SMILES IDX 32 46 64 47 44 48 63 49 45 50 48 51 62 52 81 53 46 54 47 55
REMARK SMILES IDX 61 57 82 58 49 59 33 60 34 61 42 62 35 63 41 64 43 65 40 66
REMARK SMILES IDX 36 67 37 68 38 69 39 70 65 71 66 72 74 73 67 74 73 75 75 76
REMARK SMILES IDX 72 77 68 78 69 79 70 80 71 81 50 82 51 83 59 84 52 85 58 86
REMARK SMILES IDX 60 87 57 88 53 89 54 90 55 91 56 92
REMARK H PARENT 14 6 21 26 80 45 48 56
REMARK Flexibility Score: inf
ROOT
ATOM      1  C   UNL A   1      30.668  26.952  24.245  1.00  0.00     0.021 C 
ENDROOT
BRANCH   1   2
ATOM      2  C   UNL A   1      30.411  25.979  23.098  1.00  0.00     0.116 C 
BRANCH   2   3
ATOM      3  N   UNL A   1      31.605  25.736  22.314  1.00  0.00    -0.356 N 
ATOM      4  C   UNL A   1      32.926  25.972  22.473  1.00  0.00     0.220 C 
ATOM      5  O   UNL A   1      33.651  25.509  21.580  1.00  0.00    -0.275 OA
ATOM      6  H   UNL A   1      31.406  25.294  21.457  1.00  0.00     0.163 HD
BRANCH   4   7
ATOM      7  C   UNL A   1      33.594  26.621  23.684  1.00  0.00     0.100 C 
BRANCH   7   8
ATOM      8  C   UNL A   1      34.172  25.844  24.860  1.00  0.00     0.018 C 
BRANCH   8   9
ATOM      9  C   UNL A   1      33.397  25.473  26.119  1.00  0.00     0.081 C 
BRANCH   9  10
ATOM     10  C   UNL A   1      32.629  24.161  26.356  1.00  0.00     0.162 C 
ATOM     11  O   UNL A   1      31.550  24.238  26.956  1.00  0.00    -0.294 OA
BRANCH  10  12
ATOM     12  C   UNL A   1      33.005  22.796  25.847  1.00  0.00     0.018 A 
ATOM     13  C   UNL A   1      33.539  20.157  24.954  1.00  0.00     0.118 A 
ATOM     14  C   UNL A   1      32.234  20.636  24.989  1.00  0.00     0.047 A 
ATOM     15  C   UNL A   1      34.579  21.018  25.265  1.00  0.00     0.047 A 
ATOM     16  C   UNL A   1      31.970  21.937  25.444  1.00  0.00     0.015 A 
ATOM     17  C   UNL A   1      34.303  22.323  25.688  1.00  0.00     0.015 A 
BRANCH  13  18
ATOM     18  O   UNL A   1      33.723  18.862  24.562  1.00  0.00    -0.497 OA
ATOM     19  C   UNL A   1      32.654  17.997  24.946  1.00  0.00     0.278 C 
ENDBRANCH  13  18
ENDBRANCH  10  12
ENDBRANCH   9  10
ENDBRANCH   8   9
ENDBRANCH   7   8
ENDBRANCH   4   7
ENDBRANCH   2   3
ENDBRANCH   1   2
BRANCH   1  20
ATOM     20  C   UNL A   1      30.361  28.400  23.866  1.00  0.00     0.002 C 
BRANCH  20  21
ATOM     21  C   UNL A   1      31.071  29.450  24.732  1.00  0.00     0.002 C 
BRANCH  21  22
ATOM     22  C   UNL A   1      31.806  28.906  25.961  1.00  0.00     0.021 C 
BRANCH  22  23
ATOM     23  C   UNL A   1      33.174  29.531  26.222  1.00  0.00     0.116 C 
BRANCH  23  24
ATOM     24  N   UNL A   1      33.069  30.933  26.595  1.00  0.00    -0.352 N 
ATOM     25  C   UNL A   1      33.824  31.664  27.476  1.00  0.00     0.251 C 
ATOM     26  H   UNL A   1      32.348  31.432  26.146  1.00  0.00     0.163 HD
ATOM     27  O   UNL A   1      33.445  32.778  27.820  1.00  0.00    -0.269 OA
BRANCH  25  28
ATOM     28  C   UNL A   1      35.078  31.097  28.016  1.00  0.00     0.039 A 
ATOM     29  C   UNL A   1      36.231  31.885  28.018  1.00  0.00     0.014 A 
ATOM     30  C   UNL A   1      35.118  29.787  28.501  1.00  0.00     0.014 A 
ATOM     31  C   UNL A   1      37.412  31.377  28.560  1.00  0.00     0.010 A 
ATOM     32  C   UNL A   1      36.276  29.309  29.106  1.00  0.00     0.010 A 
ATOM     33  C   UNL A   1      37.438  30.096  29.137  1.00  0.00    -0.014 A 
BRANCH  33  34
ATOM     34  C   UNL A   1      38.674  29.552  29.756  1.00  0.00     0.031 A 
ATOM     35  C   UNL A   1      39.132  30.074  31.091  1.00  0.00     0.074 A 
ATOM     36  C   UNL A   1      39.405  28.634  29.096  1.00  0.00     0.049 A 
ATOM     37  N   UNL A   1      40.224  29.798  31.759  1.00  0.00    -0.248 NA
ATOM     38  C   UNL A   1      38.258  31.056  31.751  1.00  0.00     0.031 C 
ATOM     39  C   UNL A   1      39.070  28.071  27.786  1.00  0.00     0.029 A 
ATOM     40  N   UNL A   1      40.583  28.014  29.430  1.00  0.00    -0.354 N 
ATOM     41  C   UNL A   1      40.170  30.574  32.911  1.00  0.00     0.074 A 
ATOM     42  C   UNL A   1      38.973  31.382  32.815  1.00  0.00     0.031 C 
ATOM     43  C   UNL A   1      40.006  27.171  27.443  1.00  0.00     0.029 A 
ATOM     44  C   UNL A   1      41.034  27.129  28.478  1.00  0.00     0.049 A 
ATOM     45  H   UNL A   1      41.061  28.187  30.273  1.00  0.00     0.167 HD
ATOM     46  C   UNL A   1      41.024  30.589  33.965  1.00  0.00     0.034 A 
ATOM     47  C   UNL A   1      42.153  26.380  28.440  1.00  0.00     0.034 A 
ATOM     48  C   UNL A   1      42.211  29.774  34.043  1.00  0.00     0.049 A 
ATOM     49  C   UNL A   1      43.119  26.461  29.598  1.00  0.00     0.074 A 
ATOM     50  C   UNL A   1      43.136  29.694  35.070  1.00  0.00     0.029 A 
ATOM     51  N   UNL A   1      42.643  28.900  33.055  1.00  0.00    -0.354 N 
ATOM     52  N   UNL A   1      43.038  27.178  30.695  1.00  0.00    -0.248 NA
ATOM     53  C   UNL A   1      44.322  25.622  29.517  1.00  0.00     0.031 C 
ATOM     54  C   UNL A   1      44.156  28.822  34.676  1.00  0.00     0.029 A 
ATOM     55  C   UNL A   1      43.830  28.295  33.438  1.00  0.00     0.049 A 
ATOM     56  H   UNL A   1      42.173  28.733  32.205  1.00  0.00     0.167 HD
ATOM     57  C   UNL A   1      44.159  26.842  31.452  1.00  0.00     0.074 A 
ATOM     58  C   UNL A   1      44.890  25.850  30.691  1.00  0.00     0.031 C 
ATOM     59  C   UNL A   1      44.546  27.305  32.667  1.00  0.00     0.034 A 
BRANCH  46  60
ATOM     60  C   UNL A   1      40.705  31.532  35.101  1.00  0.00     0.023 A 
ATOM     61  C   UNL A   1      39.634  31.288  35.979  1.00  0.00     0.031 A 
ATOM     62  C   UNL A   1      41.463  32.699  35.299  1.00  0.00     0.131 A 
ATOM     63  C   UNL A   1      39.303  32.232  36.962  1.00  0.00     0.055 A 
ATOM     64  C   UNL A   1      41.181  33.594  36.334  1.00  0.00     0.041 A 
ATOM     65  F   UNL A   1      42.485  32.998  34.481  1.00  0.00    -0.206 F 
ATOM     66  C   UNL A   1      40.085  33.371  37.164  1.00  0.00     0.022 A 
BRANCH  63  67
ATOM     67  S   UNL A   1      37.749  32.023  37.874  1.00  0.00     0.124 S 
ATOM     68  O   UNL A   1      38.131  32.470  39.212  1.00  0.00    -0.237 OA
ATOM     69  O   UNL A   1      36.835  32.895  37.146  1.00  0.00    -0.237 OA
ATOM     70  O   UNL A   1      37.473  30.593  37.758  1.00  0.00    -0.744 OA
ENDBRANCH  63  67
ENDBRANCH  46  60
BRANCH  47  71
ATOM     71  C   UNL A   1      42.442  25.494  27.274  1.00  0.00     0.023 A 
ATOM     72  C   UNL A   1      41.999  24.163  27.257  1.00  0.00     0.031 A 
ATOM     73  C   UNL A   1      43.222  25.942  26.193  1.00  0.00     0.131 A 
ATOM     74  C   UNL A   1      42.391  23.306  26.217  1.00  0.00     0.055 A 
ATOM     75  C   UNL A   1      43.557  25.104  25.128  1.00  0.00     0.041 A 
ATOM     76  F   UNL A   1      43.673  27.207  26.156  1.00  0.00    -0.206 F 
ATOM     77  C   UNL A   1      43.155  23.771  25.144  1.00  0.00     0.022 A 
BRANCH  74  78
ATOM     78  S   UNL A   1      41.985  21.543  26.346  1.00  0.00     0.124 S 
ATOM     79  O   UNL A   1      42.826  20.969  25.302  1.00  0.00    -0.237 OA
ATOM     80  O   UNL A   1      42.374  21.244  27.720  1.00  0.00    -0.237 OA
ATOM     81  O   UNL A   1      40.548  21.505  26.084  1.00  0.00    -0.744 OA
ENDBRANCH  74  78
ENDBRANCH  47  71
BRANCH  59  82
ATOM     82  C   UNL A   1      45.785  26.692  33.273  1.00  0.00     0.023 A 
ATOM     83  C   UNL A   1      45.740  25.495  34.008  1.00  0.00     0.031 A 
ATOM     84  C   UNL A   1      47.031  27.326  33.116  1.00  0.00     0.131 A 
ATOM     85  C   UNL A   1      46.908  25.000  34.608  1.00  0.00     0.055 A 
ATOM     86  C   UNL A   1      48.201  26.794  33.660  1.00  0.00     0.041 A 
ATOM     87  F   UNL A   1      47.133  28.472  32.425  1.00  0.00    -0.206 F 
ATOM     88  C   UNL A   1      48.141  25.631  34.423  1.00  0.00     0.022 A 
BRANCH  85  89
ATOM     89  S   UNL A   1      46.779  23.565  35.711  1.00  0.00     0.124 S 
ATOM     90  O   UNL A   1      47.090  22.460  34.811  1.00  0.00    -0.237 OA
ATOM     91  O   UNL A   1      47.783  23.861  36.727  1.00  0.00    -0.237 OA
ATOM     92  O   UNL A   1      45.395  23.615  36.178  1.00  0.00    -0.744 OA
ENDBRANCH  85  89
ENDBRANCH  59  82
ENDBRANCH  33  34
ENDBRANCH  25  28
ENDBRANCH  23  24
ENDBRANCH  22  23
ENDBRANCH  21  22
ENDBRANCH  20  21
ENDBRANCH   1  20
TORSDOF 21
ENDMDL
MODEL 2
REMARK VINA RESULT:     -10.1      5.788      8.799
REMARK SMILES COc1ccc(C(=O)CCCC(=O)NCCCCCCNC(=O)c2ccc(-c3c4nc(c(-c5cc(S(=O)(=O)[O-])ccc5F)c5ccc([nH]5)c(-c5cc(S(=O)(=O)[O-])ccc5F)c5nc(c(-c6cc(S(=O)(=O)[O-])ccc6F)c6ccc3[nH]6)C=C5)C=C4)cc2)cc1
REMARK SMILES IDX 16 1 15 2 14 3 12 4 13 5 11 7 10 8 9 9 7 10 8 11 6 12 3 13
REMARK SMILES IDX 4 14 88 15 5 16 87 17 2 18 1 19 17 20 18 21 19 22 20 23
REMARK SMILES IDX 21 24 22 25 23 27 24 28 25 29 86 30 26 31 85 32 27 33 28 34
REMARK SMILES IDX 29 35 79 36 30 37 84 38 78 39 80 40 31 41 83 42 77 43 76 44
REMARK SMILES IDX 32 46 64 47 44 48 63 49 45 50 48 51 62 52 81 53 46 54 47 55
REMARK SMILES IDX 61 57 82 58 49 59 33 60 34 61 42 62 35 63 41 64 43 65 40 66
REMARK SMILES IDX 36 67 37 68 38 69 39 70 65 71 66 72 74 73 67 74 73 75 75 76
REMARK SMILES IDX 72 77 68 78 69 79 70 80 71 81 50 82 51 83 59 84 52 85 58 86
REMARK SMILES IDX 60 87 57 88 53 89 54 90 55 91 56 92
REMARK H PARENT 14 6 21 26 80 45 48 56
REMARK Flexibility Score: inf
ROOT
ATOM      1  C   UNL A   1      39.145  23.329  26.603  1.00  0.00     0.021 C 
ENDROOT
BRANCH   1   2
ATOM      2  C   UNL A   1      38.138  22.365  25.984  1.00  0.00     0.116 C 
BRANCH   2   3
ATOM      3  N   UNL A   1      37.821  22.715  24.614  1.00  0.00    -0.356 N 
ATOM      4  C   UNL A   1      36.691  22.797  23.879  1.00  0.00     0.220 C 
ATOM      5  O   UNL A   1      36.846  23.240  22.731  1.00  0.00    -0.275 OA
ATOM      6  H   UNL A   1      38.623  22.948  24.093  1.00  0.00     0.163 HD
BRANCH   4   7
ATOM      7  C   UNL A   1      35.268  22.527  24.364  1.00  0.00     0.100 C 
BRANCH   7   8
ATOM      8  C   UNL A   1      34.252  23.617  24.681  1.00  0.00     0.018 C 
BRANCH   8   9
ATOM      9  C   UNL A   1      32.740  23.448  24.582  1.00  0.00     0.081 C 
BRANCH   9  10
ATOM     10  C   UNL A   1      31.950  22.166  24.895  1.00  0.00     0.162 C 
ATOM     11  O   UNL A   1      30.980  22.271  25.655  1.00  0.00    -0.294 OA
BRANCH  10  12
ATOM     12  C   UNL A   1      32.174  20.803  24.295  1.00  0.00     0.018 A 
ATOM     13  C   UNL A   1      32.713  18.195  23.320  1.00  0.00     0.118 A 
ATOM     14  C   UNL A   1      32.701  18.445  24.688  1.00  0.00     0.047 A 
ATOM     15  C   UNL A   1      32.360  19.213  22.449  1.00  0.00     0.047 A 
ATOM     16  C   UNL A   1      32.448  19.738  25.169  1.00  0.00     0.015 A 
ATOM     17  C   UNL A   1      32.080  20.491  22.944  1.00  0.00     0.015 A 
BRANCH  13  18
ATOM     18  O   UNL A   1      33.029  16.930  22.915  1.00  0.00    -0.497 OA
ATOM     19  C   UNL A   1      34.166  16.387  23.587  1.00  0.00     0.278 C 
ENDBRANCH  13  18
ENDBRANCH  10  12
ENDBRANCH   9  10
ENDBRANCH   8   9
ENDBRANCH   7   8
ENDBRANCH   4   7
ENDBRANCH   2   3
ENDBRANCH   1   2
BRANCH   1  20
ATOM     20  C   UNL A   1      40.551  22.735  26.688  1.00  0.00     0.002 C 
BRANCH  20  21
ATOM     21  C   UNL A   1      40.757  21.748  27.846  1.00  0.00     0.002 C 
BRANCH  21  22
ATOM     22  C   UNL A   1      41.227  20.347  27.446  1.00  0.00     0.021 C 
BRANCH  22  23
ATOM     23  C   UNL A   1      41.255  20.081  25.943  1.00  0.00     0.116 C 
BRANCH  23  24
ATOM     24  N   UNL A   1      42.524  19.515  25.514  1.00  0.00    -0.352 N 
ATOM     25  C   UNL A   1      43.730  20.131  25.298  1.00  0.00     0.251 C 
ATOM     26  H   UNL A   1      42.515  18.543  25.354  1.00  0.00     0.163 HD
ATOM     27  O   UNL A   1      44.629  19.522  24.728  1.00  0.00    -0.269 OA
BRANCH  25  28
ATOM     28  C   UNL A   1      43.932  21.526  25.741  1.00  0.00     0.039 A 
ATOM     29  C   UNL A   1      44.358  21.767  27.049  1.00  0.00     0.014 A 
ATOM     30  C   UNL A   1      43.685  22.593  24.872  1.00  0.00     0.014 A 
ATOM     31  C   UNL A   1      44.590  23.078  27.468  1.00  0.00     0.010 A 
ATOM     32  C   UNL A   1      43.987  23.892  25.269  1.00  0.00     0.010 A 
ATOM     33  C   UNL A   1      44.436  24.149  26.573  1.00  0.00    -0.014 A 
BRANCH  33  34
ATOM     34  C   UNL A   1      44.718  25.548  26.987  1.00  0.00     0.031 A 
ATOM     35  C   UNL A   1      43.611  26.399  27.548  1.00  0.00     0.074 A 
ATOM     36  C   UNL A   1      45.950  26.063  26.810  1.00  0.00     0.049 A 
ATOM     37  N   UNL A   1      43.626  27.664  27.884  1.00  0.00    -0.248 NA
ATOM     38  C   UNL A   1      42.306  25.745  27.730  1.00  0.00     0.031 C 
ATOM     39  C   UNL A   1      47.097  25.339  26.256  1.00  0.00     0.029 A 
ATOM     40  N   UNL A   1      46.446  27.316  27.072  1.00  0.00    -0.354 N 
ATOM     41  C   UNL A   1      42.337  27.958  28.312  1.00  0.00     0.074 A 
ATOM     42  C   UNL A   1      41.550  26.758  28.124  1.00  0.00     0.031 C 
ATOM     43  C   UNL A   1      48.165  26.152  26.245  1.00  0.00     0.029 A 
ATOM     44  C   UNL A   1      47.773  27.467  26.739  1.00  0.00     0.049 A 
ATOM     45  H   UNL A   1      45.903  28.039  27.461  1.00  0.00     0.167 HD
ATOM     46  C   UNL A   1      41.860  29.113  28.839  1.00  0.00     0.034 A 
ATOM     47  C   UNL A   1      48.575  28.548  26.814  1.00  0.00     0.034 A 
ATOM     48  C   UNL A   1      42.660  30.299  29.020  1.00  0.00     0.049 A 
ATOM     49  C   UNL A   1      48.004  29.840  27.349  1.00  0.00     0.074 A 
ATOM     50  C   UNL A   1      42.287  31.518  29.562  1.00  0.00     0.029 A 
ATOM     51  N   UNL A   1      43.996  30.420  28.660  1.00  0.00    -0.354 N 
ATOM     52  N   UNL A   1      46.789  30.092  27.777  1.00  0.00    -0.248 NA
ATOM     53  C   UNL A   1      48.917  30.988  27.418  1.00  0.00     0.031 C 
ATOM     54  C   UNL A   1      43.375  32.391  29.471  1.00  0.00     0.029 A 
ATOM     55  C   UNL A   1      44.453  31.697  28.946  1.00  0.00     0.049 A 
ATOM     56  H   UNL A   1      44.540  29.703  28.260  1.00  0.00     0.167 HD
ATOM     57  C   UNL A   1      46.807  31.418  28.207  1.00  0.00     0.074 A 
ATOM     58  C   UNL A   1      48.155  31.903  27.997  1.00  0.00     0.031 C 
ATOM     59  C   UNL A   1      45.803  32.165  28.733  1.00  0.00     0.034 A 
BRANCH  46  60
ATOM     60  C   UNL A   1      40.403  29.144  29.236  1.00  0.00     0.023 A 
ATOM     61  C   UNL A   1      40.007  29.071  30.584  1.00  0.00     0.031 A 
ATOM     62  C   UNL A   1      39.394  29.224  28.260  1.00  0.00     0.131 A 
ATOM     63  C   UNL A   1      38.646  29.002  30.913  1.00  0.00     0.055 A 
ATOM     64  C   UNL A   1      38.039  29.240  28.600  1.00  0.00     0.041 A 
ATOM     65  F   UNL A   1      39.708  29.274  26.955  1.00  0.00    -0.206 F 
ATOM     66  C   UNL A   1      37.658  29.113  29.933  1.00  0.00     0.022 A 
BRANCH  63  67
ATOM     67  S   UNL A   1      38.188  28.616  32.625  1.00  0.00     0.124 S 
ATOM     68  O   UNL A   1      36.916  29.322  32.757  1.00  0.00    -0.237 OA
ATOM     69  O   UNL A   1      38.112  27.159  32.611  1.00  0.00    -0.237 OA
ATOM     70  O   UNL A   1      39.287  29.176  33.408  1.00  0.00    -0.744 OA
ENDBRANCH  63  67
ENDBRANCH  46  60
BRANCH  47  71
ATOM     71  C   UNL A   1      49.998  28.476  26.370  1.00  0.00     0.023 A 
ATOM     72  C   UNL A   1      50.339  28.646  25.020  1.00  0.00     0.031 A 
ATOM     73  C   UNL A   1      51.030  28.169  27.275  1.00  0.00     0.131 A 
ATOM     74  C   UNL A   1      51.663  28.444  24.599  1.00  0.00     0.055 A 
ATOM     75  C   UNL A   1      52.356  28.032  26.863  1.00  0.00     0.041 A 
ATOM     76  F   UNL A   1      50.762  27.997  28.580  1.00  0.00    -0.206 F 
ATOM     77  C   UNL A   1      52.677  28.153  25.514  1.00  0.00     0.022 A 
BRANCH  74  78
ATOM     78  S   UNL A   1      52.018  28.453  22.820  1.00  0.00     0.124 S 
ATOM     79  O   UNL A   1      51.298  29.643  22.382  1.00  0.00    -0.237 OA
ATOM     80  O   UNL A   1      53.474  28.540  22.804  1.00  0.00    -0.237 OA
ATOM     81  O   UNL A   1      51.466  27.181  22.358  1.00  0.00    -0.744 OA
ENDBRANCH  74  78
ENDBRANCH  47  71
BRANCH  59  82
ATOM     82  C   UNL A   1      46.149  33.566  29.177  1.00  0.00     0.023 A 
ATOM     83  C   UNL A   1      46.608  33.843  30.476  1.00  0.00     0.031 A 
ATOM     84  C   UNL A   1      46.007  34.641  28.281  1.00  0.00     0.131 A 
ATOM     85  C   UNL A   1      46.853  35.170  30.861  1.00  0.00     0.055 A 
ATOM     86  C   UNL A   1      46.315  35.951  28.650  1.00  0.00     0.041 A 
ATOM     87  F   UNL A   1      45.572  34.435  27.027  1.00  0.00    -0.206 F 
ATOM     88  C   UNL A   1      46.727  36.223  29.951  1.00  0.00     0.022 A 
BRANCH  85  89
ATOM     89  S   UNL A   1      47.252  35.513  32.597  1.00  0.00     0.124 S 
ATOM     90  O   UNL A   1      46.802  34.294  33.259  1.00  0.00    -0.237 OA
ATOM     91  O   UNL A   1      48.695  35.718  32.551  1.00  0.00    -0.237 OA
ATOM     92  O   UNL A   1      46.467  36.709  32.899  1.00  0.00    -0.744 OA
ENDBRANCH  85  89
ENDBRANCH  59  82
ENDBRANCH  33  34
ENDBRANCH  25  28
ENDBRANCH  23  24
ENDBRANCH  22  23
ENDBRANCH  21  22
ENDBRANCH  20  21
ENDBRANCH   1  20
TORSDOF 21
ENDMDL
MODEL 3
REMARK VINA RESULT:     -10.1      4.701      9.418
REMARK SMILES COc1ccc(C(=O)CCCC(=O)NCCCCCCNC(=O)c2ccc(-c3c4nc(c(-c5cc(S(=O)(=O)[O-])ccc5F)c5ccc([nH]5)c(-c5cc(S(=O)(=O)[O-])ccc5F)c5nc(c(-c6cc(S(=O)(=O)[O-])ccc6F)c6ccc3[nH]6)C=C5)C=C4)cc2)cc1
REMARK SMILES IDX 16 1 15 2 14 3 12 4 13 5 11 7 10 8 9 9 7 10 8 11 6 12 3 13
REMARK SMILES IDX 4 14 88 15 5 16 87 17 2 18 1 19 17 20 18 21 19 22 20 23
REMARK SMILES IDX 21 24 22 25 23 27 24 28 25 29 86 30 26 31 85 32 27 33 28 34
REMARK SMILES IDX 29 35 79 36 30 37 84 38 78 39 80 40 31 41 83 42 77 43 76 44
REMARK SMILES IDX 32 46 64 47 44 48 63 49 45 50 48 51 62 52 81 53 46 54 47 55
REMARK SMILES IDX 61 57 82 58 49 59 33 60 34 61 42 62 35 63 41 64 43 65 40 66
REMARK SMILES IDX 36 67 37 68 38 69 39 70 65 71 66 72 74 73 67 74 73 75 75 76
REMARK SMILES IDX 72 77 68 78 69 79 70 80 71 81 50 82 51 83 59 84 52 85 58 86
REMARK SMILES IDX 60 87 57 88 53 89 54 90 55 91 56 92
REMARK H PARENT 14 6 21 26 80 45 48 56
REMARK Flexibility Score: inf
ROOT
ATOM      1  C   UNL A   1      34.627  24.704  25.431  1.00  0.00     0.021 C 
ENDROOT
BRANCH   1   2
ATOM      2  C   UNL A   1      33.159  24.390  25.698  1.00  0.00     0.116 C 
BRANCH   2   3
ATOM      3  N   UNL A   1      32.281  25.048  24.752  1.00  0.00    -0.356 N 
ATOM      4  C   UNL A   1      32.196  25.117  23.405  1.00  0.00     0.220 C 
ATOM      5  O   UNL A   1      31.209  25.731  22.975  1.00  0.00    -0.275 OA
ATOM      6  H   UNL A   1      31.577  25.572  25.197  1.00  0.00     0.163 HD
BRANCH   4   7
ATOM      7  C   UNL A   1      33.107  24.415  22.399  1.00  0.00     0.100 C 
BRANCH   7   8
ATOM      8  C   UNL A   1      33.285  22.904  22.316  1.00  0.00     0.018 C 
BRANCH   8   9
ATOM      9  C   UNL A   1      32.228  21.882  22.721  1.00  0.00     0.081 C 
BRANCH   9  10
ATOM     10  C   UNL A   1      32.193  21.090  24.039  1.00  0.00     0.162 C 
ATOM     11  O   UNL A   1      31.749  21.672  25.037  1.00  0.00    -0.294 OA
BRANCH  10  12
ATOM     12  C   UNL A   1      32.554  19.641  24.226  1.00  0.00     0.018 A 
ATOM     13  C   UNL A   1      33.139  16.872  24.409  1.00  0.00     0.118 A 
ATOM     14  C   UNL A   1      33.004  17.480  23.166  1.00  0.00     0.047 A 
ATOM     15  C   UNL A   1      33.084  17.656  25.550  1.00  0.00     0.047 A 
ATOM     16  C   UNL A   1      32.702  18.847  23.077  1.00  0.00     0.015 A 
ATOM     17  C   UNL A   1      32.811  19.024  25.446  1.00  0.00     0.015 A 
BRANCH  13  18
ATOM     18  O   UNL A   1      33.372  15.526  24.428  1.00  0.00    -0.497 OA
ATOM     19  C   UNL A   1      32.693  14.850  25.487  1.00  0.00     0.278 C 
ENDBRANCH  13  18
ENDBRANCH  10  12
ENDBRANCH   9  10
ENDBRANCH   8   9
ENDBRANCH   7   8
ENDBRANCH   4   7
ENDBRANCH   2   3
ENDBRANCH   1   2
BRANCH   1  20
ATOM     20  C   UNL A   1      35.572  23.726  26.128  1.00  0.00     0.002 C 
BRANCH  20  21
ATOM     21  C   UNL A   1      35.910  22.472  25.309  1.00  0.00     0.002 C 
BRANCH  21  22
ATOM     22  C   UNL A   1      37.389  22.289  24.958  1.00  0.00     0.021 C 
BRANCH  22  23
ATOM     23  C   UNL A   1      38.367  22.697  26.056  1.00  0.00     0.116 C 
BRANCH  23  24
ATOM     24  N   UNL A   1      39.564  21.870  26.054  1.00  0.00    -0.352 N 
ATOM     25  C   UNL A   1      40.875  22.225  26.239  1.00  0.00     0.251 C 
ATOM     26  H   UNL A   1      39.408  20.910  25.897  1.00  0.00     0.163 HD
ATOM     27  O   UNL A   1      41.764  21.420  25.985  1.00  0.00    -0.269 OA
BRANCH  25  28
ATOM     28  C   UNL A   1      41.207  23.580  26.728  1.00  0.00     0.039 A 
ATOM     29  C   UNL A   1      41.165  24.652  25.834  1.00  0.00     0.014 A 
ATOM     30  C   UNL A   1      41.574  23.788  28.061  1.00  0.00     0.014 A 
ATOM     31  C   UNL A   1      41.437  25.943  26.291  1.00  0.00     0.010 A 
ATOM     32  C   UNL A   1      41.774  25.083  28.530  1.00  0.00     0.010 A 
ATOM     33  C   UNL A   1      41.714  26.173  27.648  1.00  0.00    -0.014 A 
BRANCH  33  34
ATOM     34  C   UNL A   1      41.966  27.544  28.163  1.00  0.00     0.031 A 
ATOM     35  C   UNL A   1      43.377  28.059  28.258  1.00  0.00     0.074 A 
ATOM     36  C   UNL A   1      40.935  28.298  28.591  1.00  0.00     0.049 A 
ATOM     37  N   UNL A   1      43.816  29.186  28.759  1.00  0.00    -0.248 NA
ATOM     38  C   UNL A   1      44.436  27.177  27.743  1.00  0.00     0.031 C 
ATOM     39  C   UNL A   1      39.527  27.896  28.568  1.00  0.00     0.029 A 
ATOM     40  N   UNL A   1      40.909  29.559  29.134  1.00  0.00    -0.354 N 
ATOM     41  C   UNL A   1      45.199  29.145  28.625  1.00  0.00     0.074 A 
ATOM     42  C   UNL A   1      45.528  27.853  28.061  1.00  0.00     0.031 C 
ATOM     43  C   UNL A   1      38.775  28.900  29.048  1.00  0.00     0.029 A 
ATOM     44  C   UNL A   1      39.646  29.995  29.462  1.00  0.00     0.049 A 
ATOM     45  H   UNL A   1      41.719  30.100  29.275  1.00  0.00     0.167 HD
ATOM     46  C   UNL A   1      46.109  30.108  28.918  1.00  0.00     0.034 A 
ATOM     47  C   UNL A   1      39.240  31.142  30.042  1.00  0.00     0.034 A 
ATOM     48  C   UNL A   1      45.762  31.391  29.477  1.00  0.00     0.049 A 
ATOM     49  C   UNL A   1      40.278  32.173  30.414  1.00  0.00     0.074 A 
ATOM     50  C   UNL A   1      46.598  32.449  29.795  1.00  0.00     0.029 A 
ATOM     51  N   UNL A   1      44.475  31.793  29.809  1.00  0.00    -0.354 N 
ATOM     52  N   UNL A   1      41.581  32.132  30.253  1.00  0.00    -0.248 NA
ATOM     53  C   UNL A   1      39.789  33.410  31.038  1.00  0.00     0.031 C 
ATOM     54  C   UNL A   1      45.826  33.460  30.375  1.00  0.00     0.029 A 
ATOM     55  C   UNL A   1      44.498  33.070  30.347  1.00  0.00     0.049 A 
ATOM     56  H   UNL A   1      43.663  31.249  29.680  1.00  0.00     0.167 HD
ATOM     57  C   UNL A   1      42.059  33.356  30.716  1.00  0.00     0.074 A 
ATOM     58  C   UNL A   1      40.904  34.115  31.149  1.00  0.00     0.031 C 
ATOM     59  C   UNL A   1      43.335  33.815  30.773  1.00  0.00     0.034 A 
BRANCH  46  60
ATOM     60  C   UNL A   1      47.562  29.793  28.651  1.00  0.00     0.023 A 
ATOM     61  C   UNL A   1      48.369  29.171  29.620  1.00  0.00     0.031 A 
ATOM     62  C   UNL A   1      48.157  30.137  27.424  1.00  0.00     0.131 A 
ATOM     63  C   UNL A   1      49.737  28.982  29.379  1.00  0.00     0.055 A 
ATOM     64  C   UNL A   1      49.502  29.869  27.158  1.00  0.00     0.041 A 
ATOM     65  F   UNL A   1      47.445  30.753  26.467  1.00  0.00    -0.206 F 
ATOM     66  C   UNL A   1      50.305  29.302  28.144  1.00  0.00     0.022 A 
BRANCH  63  67
ATOM     67  S   UNL A   1      50.794  28.450  30.754  1.00  0.00     0.124 S 
ATOM     68  O   UNL A   1      51.217  29.732  31.313  1.00  0.00    -0.237 OA
ATOM     69  O   UNL A   1      49.875  27.668  31.573  1.00  0.00    -0.237 OA
ATOM     70  O   UNL A   1      51.851  27.685  30.097  1.00  0.00    -0.744 OA
ENDBRANCH  63  67
ENDBRANCH  46  60
BRANCH  47  71
ATOM     71  C   UNL A   1      37.795  31.388  30.321  1.00  0.00     0.023 A 
ATOM     72  C   UNL A   1      36.957  31.936  29.338  1.00  0.00     0.031 A 
ATOM     73  C   UNL A   1      37.245  31.144  31.592  1.00  0.00     0.131 A 
ATOM     74  C   UNL A   1      35.635  32.284  29.657  1.00  0.00     0.055 A 
ATOM     75  C   UNL A   1      35.912  31.433  31.887  1.00  0.00     0.041 A 
ATOM     76  F   UNL A   1      38.000  30.620  32.571  1.00  0.00    -0.206 F 
ATOM     77  C   UNL A   1      35.102  32.023  30.921  1.00  0.00     0.022 A 
BRANCH  74  78
ATOM     78  S   UNL A   1      34.658  33.193  28.428  1.00  0.00     0.124 S 
ATOM     79  O   UNL A   1      33.742  32.160  27.957  1.00  0.00    -0.237 OA
ATOM     80  O   UNL A   1      34.067  34.254  29.236  1.00  0.00    -0.237 OA
ATOM     81  O   UNL A   1      35.657  33.634  27.457  1.00  0.00    -0.744 OA
ENDBRANCH  74  78
ENDBRANCH  47  71
BRANCH  59  82
ATOM     82  C   UNL A   1      43.536  35.228  31.264  1.00  0.00     0.023 A 
ATOM     83  C   UNL A   1      43.597  36.321  30.382  1.00  0.00     0.031 A 
ATOM     84  C   UNL A   1      43.676  35.480  32.641  1.00  0.00     0.131 A 
ATOM     85  C   UNL A   1      43.852  37.607  30.882  1.00  0.00     0.055 A 
ATOM     86  C   UNL A   1      43.864  36.770  33.137  1.00  0.00     0.041 A 
ATOM     87  F   UNL A   1      43.627  34.474  33.529  1.00  0.00    -0.206 F 
ATOM     88  C   UNL A   1      43.967  37.841  32.255  1.00  0.00     0.022 A 
BRANCH  85  89
ATOM     89  S   UNL A   1      44.121  38.961  29.705  1.00  0.00     0.124 S 
ATOM     90  O   UNL A   1      42.990  38.805  28.798  1.00  0.00    -0.237 OA
ATOM     91  O   UNL A   1      44.091  40.136  30.567  1.00  0.00    -0.237 OA
ATOM     92  O   UNL A   1      45.428  38.654  29.124  1.00  0.00    -0.744 OA
ENDBRANCH  85  89
ENDBRANCH  59  82
ENDBRANCH  33  34
ENDBRANCH  25  28
ENDBRANCH  23  24
ENDBRANCH  22  23
ENDBRANCH  21  22
ENDBRANCH  20  21
ENDBRANCH   1  20
TORSDOF 21
ENDMDL
