MODEL 1
REMARK VINA RESULT:     -10.7      0.000      0.000
REMARK SMILES C[N@H+](CC(=O)NCCCCCCNC(=O)c1ccc(-c2c3nc(c(-c4cc(S(=O)(=O)[O-])ccc4F)c4ccc([nH]4)c(-c4cc(S(=O)(=O)[O-])ccc4F)c4nc(c(-c5cc(S(=O)(=O)[O-])ccc5F)c5ccc2[nH]5)C=C4)C=C3)cc1)Cc1nc(-c2ccsc2)no1
REMARK SMILES IDX 9 1 8 2 7 3 6 4 4 5 5 6 3 8 2 9 1 10 79 12 80 13 81 14 89 15
REMARK SMILES IDX 82 16 88 17 83 18 84 19 87 20 85 21 86 22 10 23 11 24 12 25
REMARK SMILES IDX 13 26 14 27 15 29 16 30 17 31 78 32 18 33 77 34 19 35 20 36
REMARK SMILES IDX 21 37 71 38 22 39 76 40 70 41 72 42 23 43 75 44 69 45 68 46
REMARK SMILES IDX 24 48 56 49 36 50 55 51 37 52 40 53 54 54 73 55 38 56 39 57
REMARK SMILES IDX 53 59 74 60 41 61 25 62 26 63 34 64 27 65 33 66 35 67 32 68
REMARK SMILES IDX 28 69 29 70 30 71 31 72 57 73 58 74 66 75 59 76 65 77 67 78
REMARK SMILES IDX 64 79 60 80 61 81 62 82 63 83 42 84 43 85 51 86 44 87 50 88
REMARK SMILES IDX 52 89 49 90 45 91 46 92 47 93 48 94
REMARK H PARENT 6 7 2 11 13 28 72 47 40 58
REMARK Flexibility Score: inf
ROOT
ATOM      1  C   UNL A   1      31.736  27.030  26.519  1.00  0.00     0.002 C 
ENDROOT
BRANCH   1   2
ATOM      2  C   UNL A   1      33.097  26.511  26.055  1.00  0.00     0.021 C 
BRANCH   2   3
ATOM      3  C   UNL A   1      33.581  27.115  24.737  1.00  0.00     0.116 C 
BRANCH   3   4
ATOM      4  N   UNL A   1      32.610  26.993  23.662  1.00  0.00    -0.351 N 
ATOM      5  C   UNL A   1      32.598  26.091  22.631  1.00  0.00     0.275 C 
ATOM      6  O   UNL A   1      31.697  26.137  21.790  1.00  0.00    -0.269 OA
ATOM      7  H   UNL A   1      31.869  27.640  23.676  1.00  0.00     0.163 HD
BRANCH   5   8
ATOM      8  C   UNL A   1      33.687  25.015  22.569  1.00  0.00     0.363 C 
BRANCH   8   9
ATOM      9  N   UNL A   1      33.158  23.720  23.030  1.00  0.00    -0.322 N 
ATOM     10  C   UNL A   1      32.868  22.803  21.939  1.00  0.00     0.333 C 
ATOM     11  H   UNL A   1      32.262  23.937  23.468  1.00  0.00     0.348 HD
BRANCH   9  12
ATOM     12  C   UNL A   1      33.988  23.092  24.077  1.00  0.00     0.364 C 
BRANCH  12  13
ATOM     13  C   UNL A   1      33.525  21.735  24.506  1.00  0.00     0.282 A 
ATOM     14  N   UNL A   1      34.135  20.569  24.498  1.00  0.00    -0.186 NA
ATOM     15  O   UNL A   1      32.256  21.675  25.012  1.00  0.00    -0.333 OA
ATOM     16  C   UNL A   1      33.142  19.728  24.923  1.00  0.00     0.203 A 
ATOM     17  N   UNL A   1      31.999  20.329  25.279  1.00  0.00    -0.057 NA
BRANCH  16  18
ATOM     18  C   UNL A   1      33.329  18.280  24.868  1.00  0.00     0.033 A 
ATOM     19  C   UNL A   1      34.453  17.683  24.223  1.00  0.00     0.024 A 
ATOM     20  C   UNL A   1      32.505  17.338  25.443  1.00  0.00     0.077 A 
ATOM     21  C   UNL A   1      34.466  16.312  24.368  1.00  0.00     0.065 A 
ATOM     22  S   UNL A   1      33.109  15.747  25.246  1.00  0.00    -0.152 S 
ENDBRANCH  16  18
ENDBRANCH  12  13
ENDBRANCH   9  12
ENDBRANCH   8   9
ENDBRANCH   5   8
ENDBRANCH   3   4
ENDBRANCH   2   3
ENDBRANCH   1   2
BRANCH   1  23
ATOM     23  C   UNL A   1      31.778  28.140  27.568  1.00  0.00     0.002 C 
BRANCH  23  24
ATOM     24  C   UNL A   1      31.368  29.525  27.067  1.00  0.00     0.021 C 
BRANCH  24  25
ATOM     25  C   UNL A   1      32.468  30.309  26.355  1.00  0.00     0.116 C 
BRANCH  25  26
ATOM     26  N   UNL A   1      32.381  31.736  26.611  1.00  0.00    -0.352 N 
ATOM     27  C   UNL A   1      33.182  32.536  27.390  1.00  0.00     0.251 C 
ATOM     28  H   UNL A   1      31.639  32.200  26.159  1.00  0.00     0.163 HD
ATOM     29  O   UNL A   1      32.835  33.685  27.644  1.00  0.00    -0.269 OA
BRANCH  27  30
ATOM     30  C   UNL A   1      34.446  32.001  27.946  1.00  0.00     0.039 A 
ATOM     31  C   UNL A   1      35.540  32.857  28.078  1.00  0.00     0.014 A 
ATOM     32  C   UNL A   1      34.552  30.662  28.333  1.00  0.00     0.014 A 
ATOM     33  C   UNL A   1      36.720  32.389  28.663  1.00  0.00     0.010 A 
ATOM     34  C   UNL A   1      35.705  30.214  28.977  1.00  0.00     0.010 A 
ATOM     35  C   UNL A   1      36.799  31.074  29.152  1.00  0.00    -0.014 A 
BRANCH  35  36
ATOM     36  C   UNL A   1      38.015  30.599  29.863  1.00  0.00     0.031 A 
ATOM     37  C   UNL A   1      38.298  31.041  31.273  1.00  0.00     0.074 A 
ATOM     38  C   UNL A   1      38.892  29.805  29.216  1.00  0.00     0.049 A 
ATOM     39  N   UNL A   1      39.318  30.755  32.043  1.00  0.00    -0.248 NA
ATOM     40  C   UNL A   1      37.319  31.949  31.888  1.00  0.00     0.031 C 
ATOM     41  C   UNL A   1      38.755  29.354  27.828  1.00  0.00     0.029 A 
ATOM     42  N   UNL A   1      40.071  29.239  29.631  1.00  0.00    -0.354 N 
ATOM     43  C   UNL A   1      39.108  31.451  33.229  1.00  0.00     0.074 A 
ATOM     44  C   UNL A   1      37.896  32.222  33.049  1.00  0.00     0.031 C 
ATOM     45  C   UNL A   1      39.794  28.561  27.520  1.00  0.00     0.029 A 
ATOM     46  C   UNL A   1      40.687  28.475  28.668  1.00  0.00     0.049 A 
ATOM     47  H   UNL A   1      40.441  29.370  30.535  1.00  0.00     0.167 HD
ATOM     48  C   UNL A   1      39.845  31.430  34.368  1.00  0.00     0.034 A 
ATOM     49  C   UNL A   1      41.845  27.784  28.706  1.00  0.00     0.034 A 
ATOM     50  C   UNL A   1      41.047  30.649  34.533  1.00  0.00     0.049 A 
ATOM     51  C   UNL A   1      42.646  27.778  29.982  1.00  0.00     0.074 A 
ATOM     52  C   UNL A   1      41.837  30.507  35.661  1.00  0.00     0.029 A 
ATOM     53  N   UNL A   1      41.642  29.881  33.538  1.00  0.00    -0.354 N 
ATOM     54  N   UNL A   1      42.401  28.393  31.116  1.00  0.00    -0.248 NA
ATOM     55  C   UNL A   1      43.872  26.971  29.985  1.00  0.00     0.031 C 
ATOM     56  C   UNL A   1      42.940  29.710  35.331  1.00  0.00     0.029 A 
ATOM     57  C   UNL A   1      42.803  29.291  34.017  1.00  0.00     0.049 A 
ATOM     58  H   UNL A   1      41.290  29.772  32.625  1.00  0.00     0.167 HD
ATOM     59  C   UNL A   1      43.434  28.028  31.975  1.00  0.00     0.074 A 
ATOM     60  C   UNL A   1      44.287  27.120  31.234  1.00  0.00     0.031 C 
ATOM     61  C   UNL A   1      43.660  28.409  33.258  1.00  0.00     0.034 A 
BRANCH  48  62
ATOM     62  C   UNL A   1      39.376  32.300  35.512  1.00  0.00     0.023 A 
ATOM     63  C   UNL A   1      39.752  33.652  35.612  1.00  0.00     0.031 A 
ATOM     64  C   UNL A   1      38.566  31.767  36.529  1.00  0.00     0.131 A 
ATOM     65  C   UNL A   1      39.386  34.400  36.742  1.00  0.00     0.055 A 
ATOM     66  C   UNL A   1      38.137  32.540  37.611  1.00  0.00     0.041 A 
ATOM     67  F   UNL A   1      38.190  30.479  36.500  1.00  0.00    -0.206 F 
ATOM     68  C   UNL A   1      38.561  33.861  37.731  1.00  0.00     0.022 A 
BRANCH  65  69
ATOM     69  S   UNL A   1      40.125  36.041  36.970  1.00  0.00     0.124 S 
ATOM     70  O   UNL A   1      39.262  36.611  38.002  1.00  0.00    -0.237 OA
ATOM     71  O   UNL A   1      41.486  35.719  37.381  1.00  0.00    -0.237 OA
ATOM     72  O   UNL A   1      40.000  36.660  35.652  1.00  0.00    -0.744 OA
ENDBRANCH  65  69
ENDBRANCH  48  62
BRANCH  49  73
ATOM     73  C   UNL A   1      42.321  27.042  27.505  1.00  0.00     0.023 A 
ATOM     74  C   UNL A   1      42.064  25.670  27.353  1.00  0.00     0.031 A 
ATOM     75  C   UNL A   1      43.074  27.687  26.508  1.00  0.00     0.131 A 
ATOM     76  C   UNL A   1      42.596  24.977  26.255  1.00  0.00     0.055 A 
ATOM     77  C   UNL A   1      43.558  27.003  25.392  1.00  0.00     0.041 A 
ATOM     78  F   UNL A   1      43.341  29.000  26.601  1.00  0.00    -0.206 F 
ATOM     79  C   UNL A   1      43.331  25.637  25.267  1.00  0.00     0.022 A 
BRANCH  76  80
ATOM     80  S   UNL A   1      42.378  23.178  26.175  1.00  0.00     0.124 S 
ATOM     81  O   UNL A   1      43.284  22.721  27.223  1.00  0.00    -0.237 OA
ATOM     82  O   UNL A   1      40.952  23.034  26.452  1.00  0.00    -0.237 OA
ATOM     83  O   UNL A   1      42.781  22.846  24.811  1.00  0.00    -0.744 OA
ENDBRANCH  76  80
ENDBRANCH  49  73
BRANCH  61  84
ATOM     84  C   UNL A   1      44.870  27.817  33.937  1.00  0.00     0.023 A 
ATOM     85  C   UNL A   1      44.794  26.609  34.654  1.00  0.00     0.031 A 
ATOM     86  C   UNL A   1      46.106  28.487  33.902  1.00  0.00     0.131 A 
ATOM     87  C   UNL A   1      45.911  26.147  35.367  1.00  0.00     0.055 A 
ATOM     88  C   UNL A   1      47.231  27.989  34.560  1.00  0.00     0.041 A 
ATOM     89  F   UNL A   1      46.237  29.645  33.235  1.00  0.00    -0.206 F 
ATOM     90  C   UNL A   1      47.133  26.822  35.312  1.00  0.00     0.022 A 
BRANCH  87  91
ATOM     91  S   UNL A   1      45.710  24.715  36.462  1.00  0.00     0.124 S 
ATOM     92  O   UNL A   1      45.223  23.693  35.540  1.00  0.00    -0.237 OA
ATOM     93  O   UNL A   1      47.063  24.520  36.972  1.00  0.00    -0.237 OA
ATOM     94  O   UNL A   1      44.736  25.173  37.451  1.00  0.00    -0.744 OA
ENDBRANCH  87  91
ENDBRANCH  61  84
ENDBRANCH  35  36
ENDBRANCH  27  30
ENDBRANCH  25  26
ENDBRANCH  24  25
ENDBRANCH  23  24
ENDBRANCH   1  23
TORSDOF 20
ENDMDL
MODEL 2
REMARK VINA RESULT:     -10.4      2.008      7.812
REMARK SMILES C[N@H+](CC(=O)NCCCCCCNC(=O)c1ccc(-c2c3nc(c(-c4cc(S(=O)(=O)[O-])ccc4F)c4ccc([nH]4)c(-c4cc(S(=O)(=O)[O-])ccc4F)c4nc(c(-c5cc(S(=O)(=O)[O-])ccc5F)c5ccc2[nH]5)C=C4)C=C3)cc1)Cc1nc(-c2ccsc2)no1
REMARK SMILES IDX 9 1 8 2 7 3 6 4 4 5 5 6 3 8 2 9 1 10 79 12 80 13 81 14 89 15
REMARK SMILES IDX 82 16 88 17 83 18 84 19 87 20 85 21 86 22 10 23 11 24 12 25
REMARK SMILES IDX 13 26 14 27 15 29 16 30 17 31 78 32 18 33 77 34 19 35 20 36
REMARK SMILES IDX 21 37 71 38 22 39 76 40 70 41 72 42 23 43 75 44 69 45 68 46
REMARK SMILES IDX 24 48 56 49 36 50 55 51 37 52 40 53 54 54 73 55 38 56 39 57
REMARK SMILES IDX 53 59 74 60 41 61 25 62 26 63 34 64 27 65 33 66 35 67 32 68
REMARK SMILES IDX 28 69 29 70 30 71 31 72 57 73 58 74 66 75 59 76 65 77 67 78
REMARK SMILES IDX 64 79 60 80 61 81 62 82 63 83 42 84 43 85 51 86 44 87 50 88
REMARK SMILES IDX 52 89 49 90 45 91 46 92 47 93 48 94
REMARK H PARENT 6 7 2 11 13 28 72 47 40 58
REMARK Flexibility Score: inf
ROOT
ATOM      1  C   UNL A   1      32.229  29.878  25.686  1.00  0.00     0.002 C 
ENDROOT
BRANCH   1   2
ATOM      2  C   UNL A   1      31.369  29.215  24.609  1.00  0.00     0.021 C 
BRANCH   2   3
ATOM      3  C   UNL A   1      31.573  27.705  24.489  1.00  0.00     0.116 C 
BRANCH   3   4
ATOM      4  N   UNL A   1      30.638  26.935  25.292  1.00  0.00    -0.351 N 
ATOM      5  C   UNL A   1      30.835  25.717  25.887  1.00  0.00     0.275 C 
ATOM      6  O   UNL A   1      29.920  25.197  26.529  1.00  0.00    -0.269 OA
ATOM      7  H   UNL A   1      29.751  27.340  25.425  1.00  0.00     0.163 HD
BRANCH   5   8
ATOM      8  C   UNL A   1      32.208  25.046  25.774  1.00  0.00     0.363 C 
BRANCH   8   9
ATOM      9  N   UNL A   1      32.131  23.860  24.905  1.00  0.00    -0.322 N 
ATOM     10  C   UNL A   1      31.026  23.918  23.962  1.00  0.00     0.333 C 
ATOM     11  H   UNL A   1      31.932  23.080  25.533  1.00  0.00     0.348 HD
BRANCH   9  12
ATOM     12  C   UNL A   1      33.411  23.540  24.242  1.00  0.00     0.364 C 
BRANCH  12  13
ATOM     13  C   UNL A   1      33.865  22.126  24.420  1.00  0.00     0.282 A 
ATOM     14  N   UNL A   1      33.247  20.984  24.209  1.00  0.00    -0.186 NA
ATOM     15  O   UNL A   1      35.150  21.968  24.862  1.00  0.00    -0.333 OA
ATOM     16  C   UNL A   1      34.170  20.076  24.651  1.00  0.00     0.203 A 
ATOM     17  N   UNL A   1      35.346  20.595  25.027  1.00  0.00    -0.057 NA
BRANCH  16  18
ATOM     18  C   UNL A   1      33.810  18.666  24.790  1.00  0.00     0.033 A 
ATOM     19  C   UNL A   1      34.637  17.618  24.287  1.00  0.00     0.024 A 
ATOM     20  C   UNL A   1      32.695  18.178  25.436  1.00  0.00     0.077 A 
ATOM     21  C   UNL A   1      34.144  16.371  24.605  1.00  0.00     0.065 A 
ATOM     22  S   UNL A   1      32.672  16.466  25.474  1.00  0.00    -0.152 S 
ENDBRANCH  16  18
ENDBRANCH  12  13
ENDBRANCH   9  12
ENDBRANCH   8   9
ENDBRANCH   5   8
ENDBRANCH   3   4
ENDBRANCH   2   3
ENDBRANCH   1   2
BRANCH   1  23
ATOM     23  C   UNL A   1      31.457  30.552  26.820  1.00  0.00     0.002 C 
BRANCH  23  24
ATOM     24  C   UNL A   1      31.293  32.067  26.684  1.00  0.00     0.021 C 
BRANCH  24  25
ATOM     25  C   UNL A   1      32.592  32.867  26.741  1.00  0.00     0.116 C 
BRANCH  25  26
ATOM     26  N   UNL A   1      32.436  34.119  27.462  1.00  0.00    -0.352 N 
ATOM     27  C   UNL A   1      33.096  34.574  28.578  1.00  0.00     0.251 C 
ATOM     28  H   UNL A   1      31.758  34.733  27.097  1.00  0.00     0.163 HD
ATOM     29  O   UNL A   1      32.691  35.574  29.163  1.00  0.00    -0.269 OA
BRANCH  27  30
ATOM     30  C   UNL A   1      34.277  33.841  29.090  1.00  0.00     0.039 A 
ATOM     31  C   UNL A   1      35.542  34.413  28.942  1.00  0.00     0.014 A 
ATOM     32  C   UNL A   1      34.139  32.596  29.710  1.00  0.00     0.014 A 
ATOM     33  C   UNL A   1      36.660  33.769  29.478  1.00  0.00     0.010 A 
ATOM     34  C   UNL A   1      35.244  31.988  30.303  1.00  0.00     0.010 A 
ATOM     35  C   UNL A   1      36.516  32.571  30.197  1.00  0.00    -0.014 A 
BRANCH  35  36
ATOM     36  C   UNL A   1      37.686  31.931  30.854  1.00  0.00     0.031 A 
ATOM     37  C   UNL A   1      38.499  30.895  30.127  1.00  0.00     0.074 A 
ATOM     38  C   UNL A   1      37.985  32.251  32.130  1.00  0.00     0.049 A 
ATOM     39  N   UNL A   1      39.533  30.209  30.545  1.00  0.00    -0.248 NA
ATOM     40  C   UNL A   1      38.073  30.565  28.759  1.00  0.00     0.031 C 
ATOM     41  C   UNL A   1      37.237  33.200  32.958  1.00  0.00     0.029 A 
ATOM     42  N   UNL A   1      38.990  31.813  32.955  1.00  0.00    -0.354 N 
ATOM     43  C   UNL A   1      39.879  29.363  29.496  1.00  0.00     0.074 A 
ATOM     44  C   UNL A   1      38.903  29.579  28.449  1.00  0.00     0.031 C 
ATOM     45  C   UNL A   1      37.826  33.293  34.161  1.00  0.00     0.029 A 
ATOM     46  C   UNL A   1      38.968  32.386  34.205  1.00  0.00     0.049 A 
ATOM     47  H   UNL A   1      39.663  31.150  32.677  1.00  0.00     0.167 HD
ATOM     48  C   UNL A   1      40.926  28.505  29.407  1.00  0.00     0.034 A 
ATOM     49  C   UNL A   1      39.774  32.200  35.269  1.00  0.00     0.034 A 
ATOM     50  C   UNL A   1      41.895  28.307  30.458  1.00  0.00     0.049 A 
ATOM     51  C   UNL A   1      40.929  31.240  35.146  1.00  0.00     0.074 A 
ATOM     52  C   UNL A   1      43.026  27.508  30.452  1.00  0.00     0.029 A 
ATOM     53  N   UNL A   1      41.844  28.908  31.711  1.00  0.00    -0.354 N 
ATOM     54  N   UNL A   1      41.279  30.493  34.125  1.00  0.00    -0.248 NA
ATOM     55  C   UNL A   1      41.806  31.111  36.316  1.00  0.00     0.031 C 
ATOM     56  C   UNL A   1      43.621  27.576  31.718  1.00  0.00     0.029 A 
ATOM     57  C   UNL A   1      42.905  28.473  32.494  1.00  0.00     0.049 A 
ATOM     58  H   UNL A   1      41.156  29.549  32.002  1.00  0.00     0.167 HD
ATOM     59  C   UNL A   1      42.430  29.820  34.524  1.00  0.00     0.074 A 
ATOM     60  C   UNL A   1      42.728  30.273  35.869  1.00  0.00     0.031 C 
ATOM     61  C   UNL A   1      43.174  28.911  33.844  1.00  0.00     0.034 A 
BRANCH  48  62
ATOM     62  C   UNL A   1      41.055  27.700  28.134  1.00  0.00     0.023 A 
ATOM     63  C   UNL A   1      40.571  26.382  28.043  1.00  0.00     0.031 A 
ATOM     64  C   UNL A   1      41.693  28.244  27.006  1.00  0.00     0.131 A 
ATOM     65  C   UNL A   1      40.802  25.628  26.881  1.00  0.00     0.055 A 
ATOM     66  C   UNL A   1      41.848  27.516  25.824  1.00  0.00     0.041 A 
ATOM     67  F   UNL A   1      42.193  29.489  27.038  1.00  0.00    -0.206 F 
ATOM     68  C   UNL A   1      41.416  26.194  25.762  1.00  0.00     0.022 A 
BRANCH  65  69
ATOM     69  S   UNL A   1      40.418  23.855  26.909  1.00  0.00     0.124 S 
ATOM     70  O   UNL A   1      40.448  23.570  28.342  1.00  0.00    -0.237 OA
ATOM     71  O   UNL A   1      39.107  23.806  26.274  1.00  0.00    -0.237 OA
ATOM     72  O   UNL A   1      41.508  23.257  26.140  1.00  0.00    -0.744 OA
ENDBRANCH  65  69
ENDBRANCH  48  62
BRANCH  49  73
ATOM     73  C   UNL A   1      39.526  32.932  36.543  1.00  0.00     0.023 A 
ATOM     74  C   UNL A   1      38.677  32.403  37.528  1.00  0.00     0.031 A 
ATOM     75  C   UNL A   1      40.105  34.192  36.777  1.00  0.00     0.131 A 
ATOM     76  C   UNL A   1      38.393  33.151  38.681  1.00  0.00     0.055 A 
ATOM     77  C   UNL A   1      39.858  34.910  37.948  1.00  0.00     0.041 A 
ATOM     78  F   UNL A   1      40.931  34.740  35.871  1.00  0.00    -0.206 F 
ATOM     79  C   UNL A   1      38.987  34.395  38.904  1.00  0.00     0.022 A 
BRANCH  76  80
ATOM     80  S   UNL A   1      37.170  32.506  39.855  1.00  0.00     0.124 S 
ATOM     81  O   UNL A   1      37.146  33.556  40.867  1.00  0.00    -0.237 OA
ATOM     82  O   UNL A   1      35.979  32.393  39.020  1.00  0.00    -0.237 OA
ATOM     83  O   UNL A   1      37.749  31.236  40.286  1.00  0.00    -0.744 OA
ENDBRANCH  76  80
ENDBRANCH  49  73
BRANCH  61  84
ATOM     84  C   UNL A   1      44.394  28.371  34.550  1.00  0.00     0.023 A 
ATOM     85  C   UNL A   1      44.325  27.228  35.367  1.00  0.00     0.031 A 
ATOM     86  C   UNL A   1      45.631  29.031  34.441  1.00  0.00     0.131 A 
ATOM     87  C   UNL A   1      45.451  26.822  36.099  1.00  0.00     0.055 A 
ATOM     88  C   UNL A   1      46.765  28.583  35.120  1.00  0.00     0.041 A 
ATOM     89  F   UNL A   1      45.755  30.128  33.677  1.00  0.00    -0.206 F 
ATOM     90  C   UNL A   1      46.675  27.483  35.968  1.00  0.00     0.022 A 
BRANCH  87  91
ATOM     91  S   UNL A   1      45.263  25.486  37.313  1.00  0.00     0.124 S 
ATOM     92  O   UNL A   1      44.478  26.134  38.359  1.00  0.00    -0.237 OA
ATOM     93  O   UNL A   1      44.572  24.459  36.541  1.00  0.00    -0.237 OA
ATOM     94  O   UNL A   1      46.640  25.162  37.681  1.00  0.00    -0.744 OA
ENDBRANCH  87  91
ENDBRANCH  61  84
ENDBRANCH  35  36
ENDBRANCH  27  30
ENDBRANCH  25  26
ENDBRANCH  24  25
ENDBRANCH  23  24
ENDBRANCH   1  23
TORSDOF 20
ENDMDL
MODEL 3
REMARK VINA RESULT:     -10.3      1.953      2.237
REMARK SMILES C[N@H+](CC(=O)NCCCCCCNC(=O)c1ccc(-c2c3nc(c(-c4cc(S(=O)(=O)[O-])ccc4F)c4ccc([nH]4)c(-c4cc(S(=O)(=O)[O-])ccc4F)c4nc(c(-c5cc(S(=O)(=O)[O-])ccc5F)c5ccc2[nH]5)C=C4)C=C3)cc1)Cc1nc(-c2ccsc2)no1
REMARK SMILES IDX 9 1 8 2 7 3 6 4 4 5 5 6 3 8 2 9 1 10 79 12 80 13 81 14 89 15
REMARK SMILES IDX 82 16 88 17 83 18 84 19 87 20 85 21 86 22 10 23 11 24 12 25
REMARK SMILES IDX 13 26 14 27 15 29 16 30 17 31 78 32 18 33 77 34 19 35 20 36
REMARK SMILES IDX 21 37 71 38 22 39 76 40 70 41 72 42 23 43 75 44 69 45 68 46
REMARK SMILES IDX 24 48 56 49 36 50 55 51 37 52 40 53 54 54 73 55 38 56 39 57
REMARK SMILES IDX 53 59 74 60 41 61 25 62 26 63 34 64 27 65 33 66 35 67 32 68
REMARK SMILES IDX 28 69 29 70 30 71 31 72 57 73 58 74 66 75 59 76 65 77 67 78
REMARK SMILES IDX 64 79 60 80 61 81 62 82 63 83 42 84 43 85 51 86 44 87 50 88
REMARK SMILES IDX 52 89 49 90 45 91 46 92 47 93 48 94
REMARK H PARENT 6 7 2 11 13 28 72 47 40 58
REMARK Flexibility Score: inf
ROOT
ATOM      1  C   UNL A   1      31.628  26.986  26.433  1.00  0.00     0.002 C 
ENDROOT
BRANCH   1   2
ATOM      2  C   UNL A   1      32.965  26.352  26.049  1.00  0.00     0.021 C 
BRANCH   2   3
ATOM      3  C   UNL A   1      33.602  26.946  24.793  1.00  0.00     0.116 C 
BRANCH   3   4
ATOM      4  N   UNL A   1      32.718  26.926  23.640  1.00  0.00    -0.351 N 
ATOM      5  C   UNL A   1      32.746  26.076  22.566  1.00  0.00     0.275 C 
ATOM      6  O   UNL A   1      31.920  26.209  21.660  1.00  0.00    -0.269 OA
ATOM      7  H   UNL A   1      32.011  27.610  23.628  1.00  0.00     0.163 HD
BRANCH   5   8
ATOM      8  C   UNL A   1      33.783  24.948  22.536  1.00  0.00     0.363 C 
BRANCH   8   9
ATOM      9  N   UNL A   1      33.209  23.706  23.083  1.00  0.00    -0.322 N 
ATOM     10  C   UNL A   1      32.820  22.758  22.051  1.00  0.00     0.333 C 
ATOM     11  H   UNL A   1      32.348  23.992  23.549  1.00  0.00     0.348 HD
BRANCH   9  12
ATOM     12  C   UNL A   1      34.054  23.082  24.120  1.00  0.00     0.364 C 
BRANCH  12  13
ATOM     13  C   UNL A   1      33.600  21.725  24.557  1.00  0.00     0.282 A 
ATOM     14  N   UNL A   1      34.204  20.556  24.520  1.00  0.00    -0.186 NA
ATOM     15  O   UNL A   1      32.349  21.667  25.107  1.00  0.00    -0.333 OA
ATOM     16  C   UNL A   1      33.223  19.717  24.974  1.00  0.00     0.203 A 
ATOM     17  N   UNL A   1      32.096  20.320  25.374  1.00  0.00    -0.057 NA
BRANCH  16  18
ATOM     18  C   UNL A   1      33.401  18.268  24.903  1.00  0.00     0.033 A 
ATOM     19  C   UNL A   1      34.656  17.672  24.579  1.00  0.00     0.024 A 
ATOM     20  C   UNL A   1      32.436  17.322  25.171  1.00  0.00     0.077 A 
ATOM     21  C   UNL A   1      34.611  16.296  24.653  1.00  0.00     0.065 A 
ATOM     22  S   UNL A   1      33.053  15.727  25.077  1.00  0.00    -0.152 S 
ENDBRANCH  16  18
ENDBRANCH  12  13
ENDBRANCH   9  12
ENDBRANCH   8   9
ENDBRANCH   5   8
ENDBRANCH   3   4
ENDBRANCH   2   3
ENDBRANCH   1   2
BRANCH   1  23
ATOM     23  C   UNL A   1      31.675  27.956  27.612  1.00  0.00     0.002 C 
BRANCH  23  24
ATOM     24  C   UNL A   1      31.624  29.438  27.236  1.00  0.00     0.021 C 
BRANCH  24  25
ATOM     25  C   UNL A   1      32.959  30.046  26.815  1.00  0.00     0.116 C 
BRANCH  25  26
ATOM     26  N   UNL A   1      32.993  31.487  27.005  1.00  0.00    -0.352 N 
ATOM     27  C   UNL A   1      33.899  32.258  27.694  1.00  0.00     0.251 C 
ATOM     28  H   UNL A   1      32.259  31.985  26.577  1.00  0.00     0.163 HD
ATOM     29  O   UNL A   1      33.654  33.440  27.911  1.00  0.00    -0.269 OA
BRANCH  27  30
ATOM     30  C   UNL A   1      35.154  31.653  28.197  1.00  0.00     0.039 A 
ATOM     31  C   UNL A   1      36.316  32.426  28.211  1.00  0.00     0.014 A 
ATOM     32  C   UNL A   1      35.185  30.330  28.649  1.00  0.00     0.014 A 
ATOM     33  C   UNL A   1      37.494  31.896  28.745  1.00  0.00     0.010 A 
ATOM     34  C   UNL A   1      36.342  29.826  29.242  1.00  0.00     0.010 A 
ATOM     35  C   UNL A   1      37.507  30.605  29.300  1.00  0.00    -0.014 A 
BRANCH  35  36
ATOM     36  C   UNL A   1      38.729  30.072  29.957  1.00  0.00     0.031 A 
ATOM     37  C   UNL A   1      39.124  30.539  31.332  1.00  0.00     0.074 A 
ATOM     38  C   UNL A   1      39.512  29.199  29.290  1.00  0.00     0.049 A 
ATOM     39  N   UNL A   1      40.166  30.210  32.052  1.00  0.00    -0.248 NA
ATOM     40  C   UNL A   1      38.245  31.532  31.967  1.00  0.00     0.031 C 
ATOM     41  C   UNL A   1      39.264  28.715  27.930  1.00  0.00     0.029 A 
ATOM     42  N   UNL A   1      40.674  28.569  29.658  1.00  0.00    -0.354 N 
ATOM     43  C   UNL A   1      40.073  30.957  33.221  1.00  0.00     0.074 A 
ATOM     44  C   UNL A   1      38.906  31.802  33.083  1.00  0.00     0.031 C 
ATOM     45  C   UNL A   1      40.228  27.843  27.592  1.00  0.00     0.029 A 
ATOM     46  C   UNL A   1      41.180  27.734  28.690  1.00  0.00     0.049 A 
ATOM     47  H   UNL A   1      41.104  28.704  30.534  1.00  0.00     0.167 HD
ATOM     48  C   UNL A   1      40.874  30.923  34.317  1.00  0.00     0.034 A 
ATOM     49  C   UNL A   1      42.290  26.968  28.686  1.00  0.00     0.034 A 
ATOM     50  C   UNL A   1      42.030  30.068  34.442  1.00  0.00     0.049 A 
ATOM     51  C   UNL A   1      43.163  26.949  29.915  1.00  0.00     0.074 A 
ATOM     52  C   UNL A   1      42.874  29.910  35.527  1.00  0.00     0.029 A 
ATOM     53  N   UNL A   1      42.512  29.230  33.442  1.00  0.00    -0.354 N 
ATOM     54  N   UNL A   1      43.027  27.615  31.037  1.00  0.00    -0.248 NA
ATOM     55  C   UNL A   1      44.332  26.062  29.877  1.00  0.00     0.031 C 
ATOM     56  C   UNL A   1      43.900  29.029  35.164  1.00  0.00     0.029 A 
ATOM     57  C   UNL A   1      43.659  28.578  33.876  1.00  0.00     0.049 A 
ATOM     58  H   UNL A   1      42.100  29.115  32.556  1.00  0.00     0.167 HD
ATOM     59  C   UNL A   1      44.083  27.210  31.848  1.00  0.00     0.074 A 
ATOM     60  C   UNL A   1      44.828  26.222  31.094  1.00  0.00     0.031 C 
ATOM     61  C   UNL A   1      44.409  27.616  33.102  1.00  0.00     0.034 A 
BRANCH  48  62
ATOM     62  C   UNL A   1      40.532  31.860  35.453  1.00  0.00     0.023 A 
ATOM     63  C   UNL A   1      39.466  31.594  36.333  1.00  0.00     0.031 A 
ATOM     64  C   UNL A   1      41.260  33.046  35.645  1.00  0.00     0.131 A 
ATOM     65  C   UNL A   1      39.111  32.537  37.310  1.00  0.00     0.055 A 
ATOM     66  C   UNL A   1      40.953  33.943  36.671  1.00  0.00     0.041 A 
ATOM     67  F   UNL A   1      42.276  33.364  34.826  1.00  0.00    -0.206 F 
ATOM     68  C   UNL A   1      39.862  33.699  37.501  1.00  0.00     0.022 A 
BRANCH  65  69
ATOM     69  S   UNL A   1      37.567  32.292  38.229  1.00  0.00     0.124 S 
ATOM     70  O   UNL A   1      37.942  32.755  39.563  1.00  0.00    -0.237 OA
ATOM     71  O   UNL A   1      36.628  33.136  37.499  1.00  0.00    -0.237 OA
ATOM     72  O   UNL A   1      37.329  30.854  38.121  1.00  0.00    -0.744 OA
ENDBRANCH  65  69
ENDBRANCH  48  62
BRANCH  49  73
ATOM     73  C   UNL A   1      42.644  26.157  27.488  1.00  0.00     0.023 A 
ATOM     74  C   UNL A   1      42.455  24.765  27.474  1.00  0.00     0.031 A 
ATOM     75  C   UNL A   1      43.213  26.757  26.351  1.00  0.00     0.131 A 
ATOM     76  C   UNL A   1      42.875  24.014  26.366  1.00  0.00     0.055 A 
ATOM     77  C   UNL A   1      43.584  26.011  25.232  1.00  0.00     0.041 A 
ATOM     78  F   UNL A   1      43.408  28.085  26.310  1.00  0.00    -0.206 F 
ATOM     79  C   UNL A   1      43.427  24.629  25.240  1.00  0.00     0.022 A 
BRANCH  76  80
ATOM     80  S   UNL A   1      42.760  22.206  26.449  1.00  0.00     0.124 S 
ATOM     81  O   UNL A   1      42.373  21.996  27.840  1.00  0.00    -0.237 OA
ATOM     82  O   UNL A   1      41.736  21.922  25.448  1.00  0.00    -0.237 OA
ATOM     83  O   UNL A   1      44.108  21.763  26.101  1.00  0.00    -0.744 OA
ENDBRANCH  76  80
ENDBRANCH  49  73
BRANCH  61  84
ATOM     84  C   UNL A   1      45.616  26.965  33.731  1.00  0.00     0.023 A 
ATOM     85  C   UNL A   1      46.905  27.509  33.586  1.00  0.00     0.031 A 
ATOM     86  C   UNL A   1      45.484  25.764  34.450  1.00  0.00     0.131 A 
ATOM     87  C   UNL A   1      48.018  26.816  34.086  1.00  0.00     0.055 A 
ATOM     88  C   UNL A   1      46.588  25.112  35.002  1.00  0.00     0.041 A 
ATOM     89  F   UNL A   1      44.278  25.198  34.619  1.00  0.00    -0.206 F 
ATOM     90  C   UNL A   1      47.866  25.629  34.807  1.00  0.00     0.022 A 
BRANCH  87  91
ATOM     91  S   UNL A   1      49.677  27.429  33.682  1.00  0.00     0.124 S 
ATOM     92  O   UNL A   1      49.605  28.818  34.126  1.00  0.00    -0.237 OA
ATOM     93  O   UNL A   1      50.534  26.551  34.471  1.00  0.00    -0.237 OA
ATOM     94  O   UNL A   1      49.766  27.245  32.235  1.00  0.00    -0.744 OA
ENDBRANCH  87  91
ENDBRANCH  61  84
ENDBRANCH  35  36
ENDBRANCH  27  30
ENDBRANCH  25  26
ENDBRANCH  24  25
ENDBRANCH  23  24
ENDBRANCH   1  23
TORSDOF 20
ENDMDL
