MODEL 1
REMARK VINA RESULT:      -9.5      0.000      0.000
REMARK SMILES O=C(NCCCCCCNC(=O)c1cc(NC(=O)c2cccc(Cl)c2)ccc1N1CC[NH+](CC(=O)N2CCOCC2)CC1)c1ccc(-c2c3nc(c(-c4cc(S(=O)(=O)[O-])ccc4F)c4ccc([nH]4)c(-c4cc(S(=O)(=O)[O-])ccc4F)c4nc(c(-c5cc(S(=O)(=O)[O-])ccc5F)c5ccc2[nH]5)C=C4)C=C3)cc1
REMARK SMILES IDX 6 1 5 2 4 3 3 4 1 5 2 6 44 8 45 9 106 10 46 11 105 12 47 13
REMARK SMILES IDX 48 14 49 15 99 16 50 17 104 18 98 19 100 20 51 21 103 22
REMARK SMILES IDX 97 23 96 24 52 26 84 27 64 28 83 29 65 30 68 31 82 32 101 33
REMARK SMILES IDX 66 34 67 35 81 37 102 38 69 39 53 40 54 41 62 42 55 43 61 44
REMARK SMILES IDX 63 45 60 46 56 47 57 48 58 49 59 50 85 51 86 52 94 53 87 54
REMARK SMILES IDX 93 55 95 56 92 57 88 58 89 59 90 60 91 61 70 62 71 63 79 64
REMARK SMILES IDX 72 65 78 66 80 67 77 68 73 69 74 70 75 71 76 72 7 73 8 74
REMARK SMILES IDX 9 75 10 76 11 77 12 79 13 80 14 81 28 82 15 83 27 84 26 85
REMARK SMILES IDX 29 86 30 87 43 88 31 89 42 90 32 91 33 93 34 94 35 95 36 96
REMARK SMILES IDX 37 97 41 98 38 99 40 100 39 101 16 102 17 103 18 105 19 106
REMARK SMILES IDX 20 107 25 108 21 109 23 110 22 111 24 112
REMARK H PARENT 3 7 100 25 68 36 10 78 32 92 16 104
REMARK Flexibility Score: inf
ROOT
ATOM      1  C   UNL A   1      45.306  27.824  37.895  1.00  0.00     0.002 C 
ENDROOT
BRANCH   1   2
ATOM      2  C   UNL A   1      44.945  26.530  38.615  1.00  0.00     0.021 C 
BRANCH   2   3
ATOM      3  C   UNL A   1      44.970  25.281  37.750  1.00  0.00     0.116 C 
BRANCH   3   4
ATOM      4  N   UNL A   1      43.647  24.731  37.504  1.00  0.00    -0.352 N 
ATOM      5  O   UNL A   1      41.795  24.224  36.320  1.00  0.00    -0.269 OA
ATOM      6  C   UNL A   1      42.972  24.587  36.315  1.00  0.00     0.251 C 
ATOM      7  H   UNL A   1      43.165  24.417  38.303  1.00  0.00     0.163 HD
BRANCH   6   8
ATOM      8  C   UNL A   1      43.652  24.886  35.035  1.00  0.00     0.039 A 
ATOM      9  C   UNL A   1      44.732  24.112  34.607  1.00  0.00     0.014 A 
ATOM     10  C   UNL A   1      43.200  25.949  34.248  1.00  0.00     0.014 A 
ATOM     11  C   UNL A   1      45.453  24.490  33.483  1.00  0.00     0.010 A 
ATOM     12  C   UNL A   1      43.856  26.257  33.052  1.00  0.00     0.010 A 
ATOM     13  C   UNL A   1      45.002  25.541  32.670  1.00  0.00    -0.014 A 
BRANCH  13  14
ATOM     14  C   UNL A   1      45.694  25.804  31.381  1.00  0.00     0.031 A 
ATOM     15  C   UNL A   1      46.700  26.911  31.243  1.00  0.00     0.074 A 
ATOM     16  C   UNL A   1      45.409  25.009  30.331  1.00  0.00     0.049 A 
ATOM     17  N   UNL A   1      47.378  27.280  30.186  1.00  0.00    -0.248 NA
ATOM     18  C   UNL A   1      46.972  27.714  32.443  1.00  0.00     0.031 C 
ATOM     19  C   UNL A   1      44.446  23.902  30.353  1.00  0.00     0.029 A 
ATOM     20  N   UNL A   1      45.905  24.984  29.054  1.00  0.00    -0.354 N 
ATOM     21  C   UNL A   1      48.142  28.372  30.583  1.00  0.00     0.074 A 
ATOM     22  C   UNL A   1      47.812  28.624  31.972  1.00  0.00     0.031 C 
ATOM     23  C   UNL A   1      44.467  23.274  29.171  1.00  0.00     0.029 A 
ATOM     24  C   UNL A   1      45.369  23.985  28.276  1.00  0.00     0.049 A 
ATOM     25  H   UNL A   1      46.581  25.620  28.726  1.00  0.00     0.167 HD
ATOM     26  C   UNL A   1      49.037  29.088  29.856  1.00  0.00     0.034 A 
ATOM     27  C   UNL A   1      45.551  23.690  26.975  1.00  0.00     0.034 A 
ATOM     28  C   UNL A   1      49.340  28.817  28.468  1.00  0.00     0.049 A 
ATOM     29  C   UNL A   1      46.497  24.540  26.174  1.00  0.00     0.074 A 
ATOM     30  C   UNL A   1      50.248  29.458  27.641  1.00  0.00     0.029 A 
ATOM     31  N   UNL A   1      48.731  27.836  27.693  1.00  0.00    -0.354 N 
ATOM     32  N   UNL A   1      47.223  25.562  26.568  1.00  0.00    -0.248 NA
ATOM     33  C   UNL A   1      46.647  24.198  24.756  1.00  0.00     0.031 C 
ATOM     34  C   UNL A   1      50.127  28.923  26.354  1.00  0.00     0.029 A 
ATOM     35  C   UNL A   1      49.213  27.883  26.392  1.00  0.00     0.049 A 
ATOM     36  H   UNL A   1      48.055  27.199  28.020  1.00  0.00     0.167 HD
ATOM     37  C   UNL A   1      47.936  25.971  25.446  1.00  0.00     0.074 A 
ATOM     38  C   UNL A   1      47.565  25.073  24.370  1.00  0.00     0.031 C 
ATOM     39  C   UNL A   1      48.818  26.994  25.320  1.00  0.00     0.034 A 
BRANCH  26  40
ATOM     40  C   UNL A   1      49.705  30.265  30.535  1.00  0.00     0.023 A 
ATOM     41  C   UNL A   1      49.246  31.582  30.361  1.00  0.00     0.031 A 
ATOM     42  C   UNL A   1      50.843  30.071  31.339  1.00  0.00     0.131 A 
ATOM     43  C   UNL A   1      49.969  32.656  30.904  1.00  0.00     0.055 A 
ATOM     44  C   UNL A   1      51.505  31.136  31.953  1.00  0.00     0.041 A 
ATOM     45  F   UNL A   1      51.345  28.840  31.530  1.00  0.00    -0.206 F 
ATOM     46  C   UNL A   1      51.081  32.441  31.721  1.00  0.00     0.022 A 
BRANCH  43  47
ATOM     47  S   UNL A   1      49.539  34.340  30.382  1.00  0.00     0.124 S 
ATOM     48  O   UNL A   1      48.775  34.085  29.162  1.00  0.00    -0.237 OA
ATOM     49  O   UNL A   1      48.778  34.837  31.521  1.00  0.00    -0.237 OA
ATOM     50  O   UNL A   1      50.838  34.976  30.171  1.00  0.00    -0.744 OA
ENDBRANCH  43  47
ENDBRANCH  26  40
BRANCH  27  51
ATOM     51  C   UNL A   1      44.798  22.566  26.352  1.00  0.00     0.023 A 
ATOM     52  C   UNL A   1      45.450  21.391  25.955  1.00  0.00     0.031 A 
ATOM     53  C   UNL A   1      43.410  22.656  26.141  1.00  0.00     0.131 A 
ATOM     54  C   UNL A   1      44.721  20.363  25.337  1.00  0.00     0.055 A 
ATOM     55  C   UNL A   1      42.679  21.609  25.580  1.00  0.00     0.041 A 
ATOM     56  F   UNL A   1      42.736  23.758  26.507  1.00  0.00    -0.206 F 
ATOM     57  C   UNL A   1      43.337  20.457  25.163  1.00  0.00     0.022 A 
BRANCH  54  58
ATOM     58  S   UNL A   1      45.622  18.928  24.693  1.00  0.00     0.124 S 
ATOM     59  O   UNL A   1      47.005  19.377  24.789  1.00  0.00    -0.237 OA
ATOM     60  O   UNL A   1      45.221  17.877  25.624  1.00  0.00    -0.237 OA
ATOM     61  O   UNL A   1      45.104  18.783  23.334  1.00  0.00    -0.744 OA
ENDBRANCH  54  58
ENDBRANCH  27  51
BRANCH  39  62
ATOM     62  C   UNL A   1      49.476  27.161  23.970  1.00  0.00     0.023 A 
ATOM     63  C   UNL A   1      50.825  26.830  23.756  1.00  0.00     0.031 A 
ATOM     64  C   UNL A   1      48.744  27.684  22.889  1.00  0.00     0.131 A 
ATOM     65  C   UNL A   1      51.418  27.085  22.510  1.00  0.00     0.055 A 
ATOM     66  C   UNL A   1      49.321  27.870  21.632  1.00  0.00     0.041 A 
ATOM     67  F   UNL A   1      47.454  28.026  23.037  1.00  0.00    -0.206 F 
ATOM     68  C   UNL A   1      50.669  27.584  21.441  1.00  0.00     0.022 A 
BRANCH  65  69
ATOM     69  S   UNL A   1      53.210  26.860  22.335  1.00  0.00     0.124 S 
ATOM     70  O   UNL A   1      53.722  28.139  22.816  1.00  0.00    -0.237 OA
ATOM     71  O   UNL A   1      53.465  25.709  23.194  1.00  0.00    -0.237 OA
ATOM     72  O   UNL A   1      53.387  26.618  20.905  1.00  0.00    -0.744 OA
ENDBRANCH  65  69
ENDBRANCH  39  62
ENDBRANCH  13  14
ENDBRANCH   6   8
ENDBRANCH   3   4
ENDBRANCH   2   3
ENDBRANCH   1   2
BRANCH   1  73
ATOM     73  C   UNL A   1      44.168  28.554  37.173  1.00  0.00     0.002 C 
BRANCH  73  74
ATOM     74  C   UNL A   1      44.412  29.110  35.760  1.00  0.00     0.021 C 
BRANCH  74  75
ATOM     75  C   UNL A   1      43.266  29.852  35.078  1.00  0.00     0.116 C 
BRANCH  75  76
ATOM     76  N   UNL A   1      42.149  29.002  34.719  1.00  0.00    -0.352 N 
ATOM     77  C   UNL A   1      41.491  28.898  33.519  1.00  0.00     0.253 C 
ATOM     78  H   UNL A   1      41.814  28.417  35.437  1.00  0.00     0.163 HD
ATOM     79  O   UNL A   1      40.559  28.094  33.432  1.00  0.00    -0.269 OA
BRANCH  77  80
ATOM     80  C   UNL A   1      41.839  29.744  32.333  1.00  0.00     0.065 A 
ATOM     81  C   UNL A   1      42.894  29.230  31.577  1.00  0.00     0.042 A 
ATOM     82  C   UNL A   1      41.270  30.995  31.997  1.00  0.00     0.050 A 
ATOM     83  C   UNL A   1      43.217  29.737  30.330  1.00  0.00     0.042 A 
ATOM     84  C   UNL A   1      41.670  31.561  30.774  1.00  0.00     0.029 A 
ATOM     85  C   UNL A   1      42.620  30.935  29.943  1.00  0.00     0.028 A 
BRANCH  82  86
ATOM     86  N   UNL A   1      40.476  31.696  32.902  1.00  0.00    -0.360 N 
ATOM     87  C   UNL A   1      39.018  31.510  33.092  1.00  0.00     0.178 C 
ATOM     88  C   UNL A   1      40.839  33.109  32.953  1.00  0.00     0.178 C 
ATOM     89  C   UNL A   1      38.489  32.337  34.323  1.00  0.00     0.284 C 
ATOM     90  C   UNL A   1      40.495  33.698  34.316  1.00  0.00     0.284 C 
ATOM     91  N   UNL A   1      39.071  33.675  34.610  1.00  0.00    -0.324 N 
ATOM     92  H   UNL A   1      38.935  33.793  35.614  1.00  0.00     0.348 HD
BRANCH  91  93
ATOM     93  C   UNL A   1      38.355  34.848  34.070  1.00  0.00     0.363 C 
BRANCH  93  94
ATOM     94  C   UNL A   1      37.692  34.648  32.704  1.00  0.00     0.277 C 
ATOM     95  O   UNL A   1      38.340  34.919  31.685  1.00  0.00    -0.268 OA
ATOM     96  N   UNL A   1      36.365  34.198  32.602  1.00  0.00    -0.333 N 
ATOM     97  C   UNL A   1      35.361  34.178  33.686  1.00  0.00     0.148 C 
ATOM     98  C   UNL A   1      35.833  34.200  31.236  1.00  0.00     0.148 C 
ATOM     99  C   UNL A   1      34.020  33.511  33.350  1.00  0.00     0.181 C 
ATOM    100  C   UNL A   1      34.548  33.401  31.079  1.00  0.00     0.181 C 
ATOM    101  O   UNL A   1      33.571  33.831  32.031  1.00  0.00    -0.378 OA
ENDBRANCH  93  94
ENDBRANCH  91  93
ENDBRANCH  82  86
BRANCH  83 102
ATOM    102  N   UNL A   1      44.094  29.082  29.442  1.00  0.00    -0.322 N 
ATOM    103  C   UNL A   1      43.871  28.054  28.538  1.00  0.00     0.255 C 
ATOM    104  H   UNL A   1      45.023  29.410  29.465  1.00  0.00     0.170 HD
ATOM    105  O   UNL A   1      44.811  27.529  27.945  1.00  0.00    -0.269 OA
BRANCH 103 106
ATOM    106  C   UNL A   1      42.500  27.570  28.243  1.00  0.00     0.041 A 
ATOM    107  C   UNL A   1      42.210  26.221  28.479  1.00  0.00     0.014 A 
ATOM    108  C   UNL A   1      41.483  28.462  27.874  1.00  0.00     0.034 A 
ATOM    109  C   UNL A   1      40.886  25.781  28.443  1.00  0.00     0.002 A 
ATOM    110  C   UNL A   1      40.162  28.016  27.866  1.00  0.00     0.041 A 
ATOM    111  C   UNL A   1      39.859  26.686  28.160  1.00  0.00     0.020 A 
ATOM    112  Cl  UNL A   1      38.886  29.136  27.578  1.00  0.00    -0.084 Cl
ENDBRANCH 103 106
ENDBRANCH  83 102
ENDBRANCH  77  80
ENDBRANCH  75  76
ENDBRANCH  74  75
ENDBRANCH  73  74
ENDBRANCH   1  73
TORSDOF 21
ENDMDL
MODEL 2
REMARK VINA RESULT:      -9.4      5.603     15.337
REMARK SMILES O=C(NCCCCCCNC(=O)c1cc(NC(=O)c2cccc(Cl)c2)ccc1N1CC[NH+](CC(=O)N2CCOCC2)CC1)c1ccc(-c2c3nc(c(-c4cc(S(=O)(=O)[O-])ccc4F)c4ccc([nH]4)c(-c4cc(S(=O)(=O)[O-])ccc4F)c4nc(c(-c5cc(S(=O)(=O)[O-])ccc5F)c5ccc2[nH]5)C=C4)C=C3)cc1
REMARK SMILES IDX 6 1 5 2 4 3 3 4 1 5 2 6 44 8 45 9 106 10 46 11 105 12 47 13
REMARK SMILES IDX 48 14 49 15 99 16 50 17 104 18 98 19 100 20 51 21 103 22
REMARK SMILES IDX 97 23 96 24 52 26 84 27 64 28 83 29 65 30 68 31 82 32 101 33
REMARK SMILES IDX 66 34 67 35 81 37 102 38 69 39 53 40 54 41 62 42 55 43 61 44
REMARK SMILES IDX 63 45 60 46 56 47 57 48 58 49 59 50 85 51 86 52 94 53 87 54
REMARK SMILES IDX 93 55 95 56 92 57 88 58 89 59 90 60 91 61 70 62 71 63 79 64
REMARK SMILES IDX 72 65 78 66 80 67 77 68 73 69 74 70 75 71 76 72 7 73 8 74
REMARK SMILES IDX 9 75 10 76 11 77 12 79 13 80 14 81 28 82 15 83 27 84 26 85
REMARK SMILES IDX 29 86 30 87 43 88 31 89 42 90 32 91 33 93 34 94 35 95 36 96
REMARK SMILES IDX 37 97 41 98 38 99 40 100 39 101 16 102 17 103 18 105 19 106
REMARK SMILES IDX 20 107 25 108 21 109 23 110 22 111 24 112
REMARK H PARENT 3 7 100 25 68 36 10 78 32 92 16 104
REMARK Flexibility Score: inf
ROOT
ATOM      1  C   UNL A   1      44.587  32.611  25.855  1.00  0.00     0.002 C 
ENDROOT
BRANCH   1   2
ATOM      2  C   UNL A   1      43.720  33.695  25.225  1.00  0.00     0.021 C 
BRANCH   2   3
ATOM      3  C   UNL A   1      43.598  34.976  26.033  1.00  0.00     0.116 C 
BRANCH   3   4
ATOM      4  N   UNL A   1      44.876  35.632  26.260  1.00  0.00    -0.352 N 
ATOM      5  O   UNL A   1      46.454  36.767  27.402  1.00  0.00    -0.269 OA
ATOM      6  C   UNL A   1      45.410  36.114  27.430  1.00  0.00     0.251 C 
ATOM      7  H   UNL A   1      45.438  35.748  25.460  1.00  0.00     0.163 HD
BRANCH   6   8
ATOM      8  C   UNL A   1      44.724  35.865  28.717  1.00  0.00     0.039 A 
ATOM      9  C   UNL A   1      44.047  36.894  29.374  1.00  0.00     0.014 A 
ATOM     10  C   UNL A   1      44.750  34.582  29.272  1.00  0.00     0.014 A 
ATOM     11  C   UNL A   1      43.535  36.685  30.647  1.00  0.00     0.010 A 
ATOM     12  C   UNL A   1      44.131  34.344  30.504  1.00  0.00     0.010 A 
ATOM     13  C   UNL A   1      43.534  35.401  31.211  1.00  0.00    -0.014 A 
BRANCH  13  14
ATOM     14  C   UNL A   1      42.821  35.177  32.495  1.00  0.00     0.031 A 
ATOM     15  C   UNL A   1      41.382  34.748  32.528  1.00  0.00     0.074 A 
ATOM     16  C   UNL A   1      43.506  35.351  33.643  1.00  0.00     0.049 A 
ATOM     17  N   UNL A   1      40.612  34.527  33.563  1.00  0.00    -0.248 NA
ATOM     18  C   UNL A   1      40.717  34.555  31.232  1.00  0.00     0.031 C 
ATOM     19  C   UNL A   1      44.909  35.767  33.728  1.00  0.00     0.029 A 
ATOM     20  N   UNL A   1      43.134  35.185  34.952  1.00  0.00    -0.354 N 
ATOM     21  C   UNL A   1      39.365  34.188  33.048  1.00  0.00     0.074 A 
ATOM     22  C   UNL A   1      39.477  34.271  31.606  1.00  0.00     0.031 C 
ATOM     23  C   UNL A   1      45.294  35.764  35.010  1.00  0.00     0.029 A 
ATOM     24  C   UNL A   1      44.147  35.442  35.846  1.00  0.00     0.049 A 
ATOM     25  H   UNL A   1      42.230  34.907  35.225  1.00  0.00     0.167 HD
ATOM     26  C   UNL A   1      38.239  33.836  33.721  1.00  0.00     0.034 A 
ATOM     27  C   UNL A   1      44.148  35.454  37.192  1.00  0.00     0.034 A 
ATOM     28  C   UNL A   1      38.155  33.770  35.163  1.00  0.00     0.049 A 
ATOM     29  C   UNL A   1      42.871  35.126  37.913  1.00  0.00     0.074 A 
ATOM     30  C   UNL A   1      37.077  33.399  35.949  1.00  0.00     0.029 A 
ATOM     31  N   UNL A   1      39.184  34.098  36.040  1.00  0.00    -0.354 N 
ATOM     32  N   UNL A   1      41.703  34.795  37.411  1.00  0.00    -0.248 NA
ATOM     33  C   UNL A   1      42.912  35.175  39.377  1.00  0.00     0.031 C 
ATOM     34  C   UNL A   1      37.425  33.583  37.291  1.00  0.00     0.029 A 
ATOM     35  C   UNL A   1      38.752  33.978  37.354  1.00  0.00     0.049 A 
ATOM     36  H   UNL A   1      40.088  34.376  35.768  1.00  0.00     0.167 HD
ATOM     37  C   UNL A   1      40.873  34.573  38.505  1.00  0.00     0.074 A 
ATOM     38  C   UNL A   1      41.683  34.789  39.688  1.00  0.00     0.031 C 
ATOM     39  C   UNL A   1      39.563  34.219  38.528  1.00  0.00     0.034 A 
BRANCH  26  40
ATOM     40  C   UNL A   1      36.998  33.554  32.901  1.00  0.00     0.023 A 
ATOM     41  C   UNL A   1      36.088  34.569  32.557  1.00  0.00     0.031 A 
ATOM     42  C   UNL A   1      36.699  32.242  32.490  1.00  0.00     0.131 A 
ATOM     43  C   UNL A   1      34.886  34.245  31.908  1.00  0.00     0.055 A 
ATOM     44  C   UNL A   1      35.546  31.940  31.763  1.00  0.00     0.041 A 
ATOM     45  F   UNL A   1      37.516  31.224  32.803  1.00  0.00    -0.206 F 
ATOM     46  C   UNL A   1      34.621  32.941  31.485  1.00  0.00     0.022 A 
BRANCH  43  47
ATOM     47  S   UNL A   1      33.601  35.519  31.782  1.00  0.00     0.124 S 
ATOM     48  O   UNL A   1      33.330  35.525  30.346  1.00  0.00    -0.237 OA
ATOM     49  O   UNL A   1      32.543  34.982  32.630  1.00  0.00    -0.237 OA
ATOM     50  O   UNL A   1      34.258  36.722  32.288  1.00  0.00    -0.744 OA
ENDBRANCH  43  47
ENDBRANCH  26  40
BRANCH  27  51
ATOM     51  C   UNL A   1      45.387  35.820  37.933  1.00  0.00     0.023 A 
ATOM     52  C   UNL A   1      46.361  34.859  38.235  1.00  0.00     0.031 A 
ATOM     53  C   UNL A   1      45.613  37.144  38.355  1.00  0.00     0.131 A 
ATOM     54  C   UNL A   1      47.501  35.225  38.967  1.00  0.00     0.055 A 
ATOM     55  C   UNL A   1      46.774  37.516  39.031  1.00  0.00     0.041 A 
ATOM     56  F   UNL A   1      44.714  38.105  38.088  1.00  0.00    -0.206 F 
ATOM     57  C   UNL A   1      47.723  36.550  39.352  1.00  0.00     0.022 A 
BRANCH  54  58
ATOM     58  S   UNL A   1      48.659  33.927  39.476  1.00  0.00     0.124 S 
ATOM     59  O   UNL A   1      48.520  32.963  38.391  1.00  0.00    -0.237 OA
ATOM     60  O   UNL A   1      49.923  34.653  39.533  1.00  0.00    -0.237 OA
ATOM     61  O   UNL A   1      48.135  33.492  40.769  1.00  0.00    -0.744 OA
ENDBRANCH  54  58
ENDBRANCH  27  51
BRANCH  39  62
ATOM     62  C   UNL A   1      38.942  34.001  39.887  1.00  0.00     0.023 A 
ATOM     63  C   UNL A   1      38.823  32.719  40.452  1.00  0.00     0.031 A 
ATOM     64  C   UNL A   1      38.439  35.094  40.616  1.00  0.00     0.131 A 
ATOM     65  C   UNL A   1      38.159  32.554  41.676  1.00  0.00     0.055 A 
ATOM     66  C   UNL A   1      37.843  34.931  41.867  1.00  0.00     0.041 A 
ATOM     67  F   UNL A   1      38.518  36.340  40.123  1.00  0.00    -0.206 F 
ATOM     68  C   UNL A   1      37.686  33.654  42.397  1.00  0.00     0.022 A 
BRANCH  65  69
ATOM     69  S   UNL A   1      37.821  30.871  42.265  1.00  0.00     0.124 S 
ATOM     70  O   UNL A   1      36.547  31.043  42.954  1.00  0.00    -0.237 OA
ATOM     71  O   UNL A   1      37.776  30.109  41.021  1.00  0.00    -0.237 OA
ATOM     72  O   UNL A   1      38.961  30.576  43.132  1.00  0.00    -0.744 OA
ENDBRANCH  65  69
ENDBRANCH  39  62
ENDBRANCH  13  14
ENDBRANCH   6   8
ENDBRANCH   3   4
ENDBRANCH   2   3
ENDBRANCH   1   2
BRANCH   1  73
ATOM     73  C   UNL A   1      44.001  31.871  27.061  1.00  0.00     0.002 C 
BRANCH  73  74
ATOM     74  C   UNL A   1      44.282  30.368  27.227  1.00  0.00     0.021 C 
BRANCH  74  75
ATOM     75  C   UNL A   1      43.192  29.504  27.855  1.00  0.00     0.116 C 
BRANCH  75  76
ATOM     76  N   UNL A   1      43.646  28.712  28.980  1.00  0.00    -0.352 N 
ATOM     77  C   UNL A   1      43.018  27.669  29.613  1.00  0.00     0.253 C 
ATOM     78  H   UNL A   1      44.529  28.956  29.340  1.00  0.00     0.163 HD
ATOM     79  O   UNL A   1      43.597  27.126  30.558  1.00  0.00    -0.269 OA
BRANCH  77  80
ATOM     80  C   UNL A   1      41.651  27.195  29.224  1.00  0.00     0.065 A 
ATOM     81  C   UNL A   1      40.705  27.341  30.239  1.00  0.00     0.042 A 
ATOM     82  C   UNL A   1      41.294  26.567  28.007  1.00  0.00     0.050 A 
ATOM     83  C   UNL A   1      39.350  27.174  30.008  1.00  0.00     0.042 A 
ATOM     84  C   UNL A   1      39.927  26.306  27.810  1.00  0.00     0.029 A 
ATOM     85  C   UNL A   1      38.964  26.619  28.789  1.00  0.00     0.028 A 
BRANCH  82  86
ATOM     86  N   UNL A   1      42.263  26.094  27.125  1.00  0.00    -0.360 N 
ATOM     87  C   UNL A   1      42.253  26.280  25.655  1.00  0.00     0.178 C 
ATOM     88  C   UNL A   1      42.707  24.750  27.484  1.00  0.00     0.178 C 
ATOM     89  C   UNL A   1      43.594  25.774  25.003  1.00  0.00     0.284 C 
ATOM     90  C   UNL A   1      44.133  24.513  27.002  1.00  0.00     0.284 C 
ATOM     91  N   UNL A   1      44.267  24.569  25.555  1.00  0.00    -0.324 N 
ATOM     92  H   UNL A   1      45.250  24.704  25.315  1.00  0.00     0.348 HD
BRANCH  91  93
ATOM     93  C   UNL A   1      43.974  23.278  24.901  1.00  0.00     0.363 C 
BRANCH  93  94
ATOM     94  C   UNL A   1      45.165  22.325  24.754  1.00  0.00     0.277 C 
ATOM     95  O   UNL A   1      46.231  22.773  24.314  1.00  0.00    -0.268 OA
ATOM     96  N   UNL A   1      45.046  20.962  25.077  1.00  0.00    -0.333 N 
ATOM     97  C   UNL A   1      43.786  20.212  25.261  1.00  0.00     0.148 C 
ATOM     98  C   UNL A   1      46.226  20.161  24.742  1.00  0.00     0.148 C 
ATOM     99  C   UNL A   1      43.930  18.763  25.744  1.00  0.00     0.181 C 
ATOM    100  C   UNL A   1      46.239  18.787  25.396  1.00  0.00     0.181 C 
ATOM    101  O   UNL A   1      45.023  18.087  25.115  1.00  0.00    -0.378 OA
ENDBRANCH  93  94
ENDBRANCH  91  93
ENDBRANCH  82  86
BRANCH  83 102
ATOM    102  N   UNL A   1      38.362  27.563  30.935  1.00  0.00    -0.322 N 
ATOM    103  C   UNL A   1      38.474  28.109  32.205  1.00  0.00     0.255 C 
ATOM    104  H   UNL A   1      37.435  27.425  30.630  1.00  0.00     0.170 HD
ATOM    105  O   UNL A   1      37.478  28.255  32.911  1.00  0.00    -0.269 OA
BRANCH 103 106
ATOM    106  C   UNL A   1      39.783  28.551  32.742  1.00  0.00     0.041 A 
ATOM    107  C   UNL A   1      40.505  27.658  33.543  1.00  0.00     0.014 A 
ATOM    108  C   UNL A   1      40.352  29.771  32.348  1.00  0.00     0.034 A 
ATOM    109  C   UNL A   1      41.833  27.938  33.868  1.00  0.00     0.002 A 
ATOM    110  C   UNL A   1      41.687  30.028  32.658  1.00  0.00     0.041 A 
ATOM    111  C   UNL A   1      42.431  29.113  33.405  1.00  0.00     0.020 A 
ATOM    112  Cl  UNL A   1      42.448  31.443  32.042  1.00  0.00    -0.084 Cl
ENDBRANCH 103 106
ENDBRANCH  83 102
ENDBRANCH  77  80
ENDBRANCH  75  76
ENDBRANCH  74  75
ENDBRANCH  73  74
ENDBRANCH   1  73
TORSDOF 21
ENDMDL
MODEL 3
REMARK VINA RESULT:      -9.3      5.009      9.461
REMARK SMILES O=C(NCCCCCCNC(=O)c1cc(NC(=O)c2cccc(Cl)c2)ccc1N1CC[NH+](CC(=O)N2CCOCC2)CC1)c1ccc(-c2c3nc(c(-c4cc(S(=O)(=O)[O-])ccc4F)c4ccc([nH]4)c(-c4cc(S(=O)(=O)[O-])ccc4F)c4nc(c(-c5cc(S(=O)(=O)[O-])ccc5F)c5ccc2[nH]5)C=C4)C=C3)cc1
REMARK SMILES IDX 6 1 5 2 4 3 3 4 1 5 2 6 44 8 45 9 106 10 46 11 105 12 47 13
REMARK SMILES IDX 48 14 49 15 99 16 50 17 104 18 98 19 100 20 51 21 103 22
REMARK SMILES IDX 97 23 96 24 52 26 84 27 64 28 83 29 65 30 68 31 82 32 101 33
REMARK SMILES IDX 66 34 67 35 81 37 102 38 69 39 53 40 54 41 62 42 55 43 61 44
REMARK SMILES IDX 63 45 60 46 56 47 57 48 58 49 59 50 85 51 86 52 94 53 87 54
REMARK SMILES IDX 93 55 95 56 92 57 88 58 89 59 90 60 91 61 70 62 71 63 79 64
REMARK SMILES IDX 72 65 78 66 80 67 77 68 73 69 74 70 75 71 76 72 7 73 8 74
REMARK SMILES IDX 9 75 10 76 11 77 12 79 13 80 14 81 28 82 15 83 27 84 26 85
REMARK SMILES IDX 29 86 30 87 43 88 31 89 42 90 32 91 33 93 34 94 35 95 36 96
REMARK SMILES IDX 37 97 41 98 38 99 40 100 39 101 16 102 17 103 18 105 19 106
REMARK SMILES IDX 20 107 25 108 21 109 23 110 22 111 24 112
REMARK H PARENT 3 7 100 25 68 36 10 78 32 92 16 104
REMARK Flexibility Score: inf
ROOT
ATOM      1  C   UNL A   1      41.061  26.984  27.750  1.00  0.00     0.002 C 
ENDROOT
BRANCH   1   2
ATOM      2  C   UNL A   1      40.410  25.627  27.990  1.00  0.00     0.021 C 
BRANCH   2   3
ATOM      3  C   UNL A   1      41.194  24.434  27.472  1.00  0.00     0.116 C 
BRANCH   3   4
ATOM      4  N   UNL A   1      41.772  23.626  28.534  1.00  0.00    -0.352 N 
ATOM      5  O   UNL A   1      43.381  22.837  29.902  1.00  0.00    -0.269 OA
ATOM      6  C   UNL A   1      43.020  23.702  29.105  1.00  0.00     0.251 C 
ATOM      7  H   UNL A   1      41.186  22.922  28.895  1.00  0.00     0.163 HD
BRANCH   6   8
ATOM      8  C   UNL A   1      43.931  24.812  28.748  1.00  0.00     0.039 A 
ATOM      9  C   UNL A   1      44.325  25.746  29.708  1.00  0.00     0.014 A 
ATOM     10  C   UNL A   1      44.405  24.918  27.437  1.00  0.00     0.014 A 
ATOM     11  C   UNL A   1      45.058  26.862  29.331  1.00  0.00     0.010 A 
ATOM     12  C   UNL A   1      45.242  25.981  27.084  1.00  0.00     0.010 A 
ATOM     13  C   UNL A   1      45.560  26.974  28.025  1.00  0.00    -0.014 A 
BRANCH  13  14
ATOM     14  C   UNL A   1      46.488  28.088  27.702  1.00  0.00     0.031 A 
ATOM     15  C   UNL A   1      47.975  27.881  27.650  1.00  0.00     0.074 A 
ATOM     16  C   UNL A   1      45.960  29.300  27.437  1.00  0.00     0.049 A 
ATOM     17  N   UNL A   1      48.919  28.751  27.399  1.00  0.00    -0.248 NA
ATOM     18  C   UNL A   1      48.465  26.524  27.926  1.00  0.00     0.031 C 
ATOM     19  C   UNL A   1      44.528  29.615  27.459  1.00  0.00     0.029 A 
ATOM     20  N   UNL A   1      46.550  30.484  27.077  1.00  0.00    -0.354 N 
ATOM     21  C   UNL A   1      50.119  28.057  27.507  1.00  0.00     0.074 A 
ATOM     22  C   UNL A   1      49.778  26.699  27.883  1.00  0.00     0.031 C 
ATOM     23  C   UNL A   1      44.348  30.883  27.071  1.00  0.00     0.029 A 
ATOM     24  C   UNL A   1      45.650  31.502  26.865  1.00  0.00     0.049 A 
ATOM     25  H   UNL A   1      47.523  30.594  26.979  1.00  0.00     0.167 HD
ATOM     26  C   UNL A   1      51.382  28.512  27.304  1.00  0.00     0.034 A 
ATOM     27  C   UNL A   1      45.846  32.801  26.572  1.00  0.00     0.034 A 
ATOM     28  C   UNL A   1      51.692  29.876  26.937  1.00  0.00     0.049 A 
ATOM     29  C   UNL A   1      47.256  33.296  26.418  1.00  0.00     0.074 A 
ATOM     30  C   UNL A   1      52.931  30.441  26.679  1.00  0.00     0.029 A 
ATOM     31  N   UNL A   1      50.759  30.897  26.792  1.00  0.00    -0.354 N 
ATOM     32  N   UNL A   1      48.381  32.623  26.511  1.00  0.00    -0.248 NA
ATOM     33  C   UNL A   1      47.424  34.722  26.123  1.00  0.00     0.031 C 
ATOM     34  C   UNL A   1      52.754  31.811  26.463  1.00  0.00     0.029 A 
ATOM     35  C   UNL A   1      51.397  32.092  26.490  1.00  0.00     0.049 A 
ATOM     36  H   UNL A   1      49.785  30.788  26.890  1.00  0.00     0.167 HD
ATOM     37  C   UNL A   1      49.393  33.545  26.261  1.00  0.00     0.074 A 
ATOM     38  C   UNL A   1      48.740  34.812  25.996  1.00  0.00     0.031 C 
ATOM     39  C   UNL A   1      50.737  33.357  26.249  1.00  0.00     0.034 A 
BRANCH  26  40
ATOM     40  C   UNL A   1      52.519  27.539  27.533  1.00  0.00     0.023 A 
ATOM     41  C   UNL A   1      53.043  26.749  26.495  1.00  0.00     0.031 A 
ATOM     42  C   UNL A   1      53.063  27.370  28.820  1.00  0.00     0.131 A 
ATOM     43  C   UNL A   1      54.007  25.769  26.775  1.00  0.00     0.055 A 
ATOM     44  C   UNL A   1      54.088  26.457  29.075  1.00  0.00     0.041 A 
ATOM     45  F   UNL A   1      52.595  28.079  29.860  1.00  0.00    -0.206 F 
ATOM     46  C   UNL A   1      54.553  25.634  28.053  1.00  0.00     0.022 A 
BRANCH  43  47
ATOM     47  S   UNL A   1      54.408  24.557  25.486  1.00  0.00     0.124 S 
ATOM     48  O   UNL A   1      53.127  23.875  25.311  1.00  0.00    -0.237 OA
ATOM     49  O   UNL A   1      54.837  25.404  24.380  1.00  0.00    -0.237 OA
ATOM     50  O   UNL A   1      55.459  23.743  26.094  1.00  0.00    -0.744 OA
ENDBRANCH  43  47
ENDBRANCH  26  40
BRANCH  27  51
ATOM     51  C   UNL A   1      44.681  33.720  26.441  1.00  0.00     0.023 A 
ATOM     52  C   UNL A   1      44.204  34.445  27.541  1.00  0.00     0.031 A 
ATOM     53  C   UNL A   1      44.024  33.883  25.207  1.00  0.00     0.131 A 
ATOM     54  C   UNL A   1      43.082  35.275  27.397  1.00  0.00     0.055 A 
ATOM     55  C   UNL A   1      42.945  34.754  25.054  1.00  0.00     0.041 A 
ATOM     56  F   UNL A   1      44.443  33.215  24.120  1.00  0.00    -0.206 F 
ATOM     57  C   UNL A   1      42.460  35.448  26.157  1.00  0.00     0.022 A 
BRANCH  54  58
ATOM     58  S   UNL A   1      42.397  36.072  28.874  1.00  0.00     0.124 S 
ATOM     59  O   UNL A   1      41.279  35.193  29.194  1.00  0.00    -0.237 OA
ATOM     60  O   UNL A   1      43.530  36.033  29.792  1.00  0.00    -0.237 OA
ATOM     61  O   UNL A   1      42.028  37.405  28.401  1.00  0.00    -0.744 OA
ENDBRANCH  54  58
ENDBRANCH  27  51
BRANCH  39  62
ATOM     62  C   UNL A   1      51.586  34.554  25.892  1.00  0.00     0.023 A 
ATOM     63  C   UNL A   1      51.928  35.532  26.843  1.00  0.00     0.031 A 
ATOM     64  C   UNL A   1      52.038  34.730  24.573  1.00  0.00     0.131 A 
ATOM     65  C   UNL A   1      52.642  36.672  26.448  1.00  0.00     0.055 A 
ATOM     66  C   UNL A   1      52.809  35.831  24.200  1.00  0.00     0.041 A 
ATOM     67  F   UNL A   1      51.735  33.833  23.621  1.00  0.00    -0.206 F 
ATOM     68  C   UNL A   1      53.103  36.819  25.137  1.00  0.00     0.022 A 
BRANCH  65  69
ATOM     69  S   UNL A   1      52.869  38.018  27.643  1.00  0.00     0.124 S 
ATOM     70  O   UNL A   1      52.058  39.081  27.058  1.00  0.00    -0.237 OA
ATOM     71  O   UNL A   1      52.354  37.430  28.876  1.00  0.00    -0.237 OA
ATOM     72  O   UNL A   1      54.311  38.255  27.624  1.00  0.00    -0.744 OA
ENDBRANCH  65  69
ENDBRANCH  39  62
ENDBRANCH  13  14
ENDBRANCH   6   8
ENDBRANCH   3   4
ENDBRANCH   2   3
ENDBRANCH   1   2
BRANCH   1  73
ATOM     73  C   UNL A   1      40.404  28.195  28.420  1.00  0.00     0.002 C 
BRANCH  73  74
ATOM     74  C   UNL A   1      39.569  29.162  27.564  1.00  0.00     0.021 C 
BRANCH  74  75
ATOM     75  C   UNL A   1      38.555  30.053  28.278  1.00  0.00     0.116 C 
BRANCH  75  76
ATOM     76  N   UNL A   1      37.765  29.359  29.275  1.00  0.00    -0.352 N 
ATOM     77  C   UNL A   1      36.649  29.790  29.948  1.00  0.00     0.253 C 
ATOM     78  H   UNL A   1      38.072  28.452  29.502  1.00  0.00     0.163 HD
ATOM     79  O   UNL A   1      36.125  29.024  30.761  1.00  0.00    -0.269 OA
BRANCH  77  80
ATOM     80  C   UNL A   1      36.072  31.160  29.759  1.00  0.00     0.065 A 
ATOM     81  C   UNL A   1      36.445  32.060  30.758  1.00  0.00     0.042 A 
ATOM     82  C   UNL A   1      35.162  31.556  28.751  1.00  0.00     0.050 A 
ATOM     83  C   UNL A   1      36.206  33.419  30.646  1.00  0.00     0.042 A 
ATOM     84  C   UNL A   1      34.839  32.923  28.696  1.00  0.00     0.029 A 
ATOM     85  C   UNL A   1      35.364  33.847  29.621  1.00  0.00     0.028 A 
BRANCH  82  86
ATOM     86  N   UNL A   1      34.505  30.617  27.959  1.00  0.00    -0.360 N 
ATOM     87  C   UNL A   1      35.154  29.702  26.991  1.00  0.00     0.178 C 
ATOM     88  C   UNL A   1      33.252  31.145  27.428  1.00  0.00     0.178 C 
ATOM     89  C   UNL A   1      34.129  28.656  26.412  1.00  0.00     0.284 C 
ATOM     90  C   UNL A   1      32.266  30.013  27.165  1.00  0.00     0.284 C 
ATOM     91  N   UNL A   1      32.725  29.074  26.154  1.00  0.00    -0.324 N 
ATOM     92  H   UNL A   1      32.192  28.208  26.235  1.00  0.00     0.348 HD
BRANCH  91  93
ATOM     93  C   UNL A   1      32.395  29.502  24.780  1.00  0.00     0.363 C 
BRANCH  93  94
ATOM     94  C   UNL A   1      31.324  28.669  24.067  1.00  0.00     0.277 C 
ATOM     95  O   UNL A   1      31.595  27.505  23.746  1.00  0.00    -0.268 OA
ATOM     96  N   UNL A   1      30.071  29.220  23.749  1.00  0.00    -0.333 N 
ATOM     97  C   UNL A   1      29.724  30.656  23.731  1.00  0.00     0.148 C 
ATOM     98  C   UNL A   1      29.219  28.344  22.940  1.00  0.00     0.148 C 
ATOM     99  C   UNL A   1      28.248  30.989  23.481  1.00  0.00     0.181 C 
ATOM    100  C   UNL A   1      27.762  28.783  22.892  1.00  0.00     0.181 C 
ATOM    101  O   UNL A   1      27.664  30.150  22.481  1.00  0.00    -0.378 OA
ENDBRANCH  93  94
ENDBRANCH  91  93
ENDBRANCH  82  86
BRANCH  83 102
ATOM    102  N   UNL A   1      36.792  34.373  31.503  1.00  0.00    -0.322 N 
ATOM    103  C   UNL A   1      37.883  34.278  32.355  1.00  0.00     0.255 C 
ATOM    104  H   UNL A   1      36.355  35.255  31.496  1.00  0.00     0.170 HD
ATOM    105  O   UNL A   1      38.154  35.197  33.125  1.00  0.00    -0.269 OA
BRANCH 103 106
ATOM    106  C   UNL A   1      38.763  33.084  32.352  1.00  0.00     0.041 A 
ATOM    107  C   UNL A   1      38.469  32.043  33.241  1.00  0.00     0.014 A 
ATOM    108  C   UNL A   1      39.775  32.936  31.392  1.00  0.00     0.034 A 
ATOM    109  C   UNL A   1      39.119  30.816  33.108  1.00  0.00     0.002 A 
ATOM    110  C   UNL A   1      40.399  31.696  31.253  1.00  0.00     0.041 A 
ATOM    111  C   UNL A   1      40.067  30.635  32.097  1.00  0.00     0.020 A 
ATOM    112  Cl  UNL A   1      41.523  31.447  29.974  1.00  0.00    -0.084 Cl
ENDBRANCH 103 106
ENDBRANCH  83 102
ENDBRANCH  77  80
ENDBRANCH  75  76
ENDBRANCH  74  75
ENDBRANCH  73  74
ENDBRANCH   1  73
TORSDOF 21
ENDMDL
