MODEL 1
REMARK VINA RESULT:     -10.4      0.000      0.000
REMARK SMILES COc1cc(NC(=O)C2CCN(S(=O)(=O)c3cccs3)CC2)c(Cl)cc1C(=O)NCCCCCCNC(=O)c1ccc(-c2c3nc(c(-c4cc(S(=O)(=O)[O-])ccc4F)c4ccc([nH]4)c(-c4cc(S(=O)(=O)[O-])ccc4F)c4nc(c(-c5cc(S(=O)(=O)[O-])ccc5F)c5ccc2[nH]5)C=C4)C=C3)cc1
REMARK SMILES IDX 32 1 31 2 30 3 29 4 27 5 28 6 26 8 3 9 4 10 5 11 25 12 23 13
REMARK SMILES IDX 24 14 2 15 1 16 6 17 7 18 8 20 9 21 10 22 22 23 11 24 21 25
REMARK SMILES IDX 12 26 13 27 14 28 15 29 16 30 17 31 20 32 18 33 19 34 33 35
REMARK SMILES IDX 34 36 35 37 36 38 37 39 38 41 39 42 40 43 101 44 41 45
REMARK SMILES IDX 100 46 42 47 43 48 44 49 94 50 45 51 99 52 93 53 95 54 46 55
REMARK SMILES IDX 98 56 92 57 91 58 47 60 79 61 59 62 78 63 60 64 63 65 77 66
REMARK SMILES IDX 96 67 61 68 62 69 76 71 97 72 64 73 48 74 49 75 57 76 50 77
REMARK SMILES IDX 56 78 58 79 55 80 51 81 52 82 53 83 54 84 80 85 81 86 89 87
REMARK SMILES IDX 82 88 88 89 90 90 87 91 83 92 84 93 85 94 86 95 65 96 66 97
REMARK SMILES IDX 74 98 67 99 73 100 75 101 72 102 68 103 69 104 70 105 71 106
REMARK H PARENT 29 7 6 19 36 40 95 59 63 70
REMARK Flexibility Score: inf
ROOT
ATOM      1  C   UNL A   1      31.803  29.378  27.017  1.00  0.00     0.002 C 
ENDROOT
BRANCH   1   2
ATOM      2  C   UNL A   1      32.235  29.999  25.686  1.00  0.00     0.021 C 
BRANCH   2   3
ATOM      3  C   UNL A   1      31.222  29.870  24.544  1.00  0.00     0.116 C 
BRANCH   3   4
ATOM      4  N   UNL A   1      31.817  29.182  23.413  1.00  0.00    -0.352 N 
ATOM      5  C   UNL A   1      32.421  27.957  23.292  1.00  0.00     0.255 C 
ATOM      6  O   UNL A   1      32.851  27.645  22.179  1.00  0.00    -0.269 OA
ATOM      7  H   UNL A   1      31.779  29.693  22.573  1.00  0.00     0.163 HD
BRANCH   5   8
ATOM      8  C   UNL A   1      32.474  26.930  24.370  1.00  0.00     0.083 A 
ATOM      9  C   UNL A   1      31.385  26.380  25.067  1.00  0.00     0.133 A 
ATOM     10  C   UNL A   1      31.626  25.391  26.035  1.00  0.00     0.075 A 
ATOM     11  C   UNL A   1      32.899  24.855  26.223  1.00  0.00     0.063 A 
ATOM     12  C   UNL A   1      33.780  26.535  24.731  1.00  0.00     0.040 A 
ATOM     13  C   UNL A   1      33.993  25.511  25.654  1.00  0.00     0.065 A 
ATOM     14  Cl  UNL A   1      35.612  24.998  25.966  1.00  0.00    -0.082 Cl
BRANCH   9  15
ATOM     15  O   UNL A   1      30.118  26.822  24.810  1.00  0.00    -0.496 OA
ATOM     16  C   UNL A   1      29.351  26.067  23.866  1.00  0.00     0.278 C 
ENDBRANCH   9  15
BRANCH  11  17
ATOM     17  N   UNL A   1      33.087  23.617  26.870  1.00  0.00    -0.324 N 
ATOM     18  C   UNL A   1      33.609  22.439  26.387  1.00  0.00     0.227 C 
ATOM     19  H   UNL A   1      32.801  23.591  27.812  1.00  0.00     0.169 HD
ATOM     20  O   UNL A   1      33.688  21.491  27.172  1.00  0.00    -0.274 OA
BRANCH  18  21
ATOM     21  C   UNL A   1      34.139  22.320  24.943  1.00  0.00     0.081 C 
ATOM     22  C   UNL A   1      33.013  22.255  23.890  1.00  0.00     0.030 C 
ATOM     23  C   UNL A   1      35.059  21.115  24.725  1.00  0.00     0.030 C 
ATOM     24  C   UNL A   1      32.329  20.884  23.783  1.00  0.00     0.103 C 
ATOM     25  C   UNL A   1      34.287  19.814  24.791  1.00  0.00     0.103 C 
ATOM     26  N   UNL A   1      33.338  19.782  23.667  1.00  0.00    -0.197 NA
BRANCH  26  27
ATOM     27  S   UNL A   1      32.602  18.244  23.422  1.00  0.00     0.252 S 
ATOM     28  O   UNL A   1      31.358  18.251  24.163  1.00  0.00    -0.206 OA
ATOM     29  O   UNL A   1      32.637  17.944  22.007  1.00  0.00    -0.206 OA
BRANCH  27  30
ATOM     30  C   UNL A   1      33.589  17.011  24.271  1.00  0.00     0.135 A 
ATOM     31  C   UNL A   1      34.963  16.836  24.322  1.00  0.00     0.033 A 
ATOM     32  S   UNL A   1      32.779  15.816  25.182  1.00  0.00    -0.131 S 
ATOM     33  C   UNL A   1      35.346  15.702  25.090  1.00  0.00     0.013 A 
ATOM     34  C   UNL A   1      34.253  15.070  25.641  1.00  0.00     0.066 A 
ENDBRANCH  27  30
ENDBRANCH  26  27
ENDBRANCH  18  21
ENDBRANCH  11  17
ENDBRANCH   5   8
ENDBRANCH   3   4
ENDBRANCH   2   3
ENDBRANCH   1   2
BRANCH   1  35
ATOM     35  C   UNL A   1      32.951  28.966  27.944  1.00  0.00     0.002 C 
BRANCH  35  36
ATOM     36  C   UNL A   1      34.357  29.047  27.339  1.00  0.00     0.021 C 
BRANCH  36  37
ATOM     37  C   UNL A   1      34.919  30.458  27.179  1.00  0.00     0.116 C 
BRANCH  37  38
ATOM     38  N   UNL A   1      34.611  31.297  28.326  1.00  0.00    -0.352 N 
ATOM     39  C   UNL A   1      35.254  31.393  29.535  1.00  0.00     0.251 C 
ATOM     40  H   UNL A   1      33.826  31.882  28.219  1.00  0.00     0.163 HD
ATOM     41  O   UNL A   1      34.703  31.969  30.470  1.00  0.00    -0.269 OA
BRANCH  39  42
ATOM     42  C   UNL A   1      36.597  30.797  29.717  1.00  0.00     0.039 A 
ATOM     43  C   UNL A   1      37.717  31.487  29.244  1.00  0.00     0.014 A 
ATOM     44  C   UNL A   1      36.752  29.545  30.321  1.00  0.00     0.014 A 
ATOM     45  C   UNL A   1      38.994  30.948  29.424  1.00  0.00     0.010 A 
ATOM     46  C   UNL A   1      38.029  29.039  30.556  1.00  0.00     0.010 A 
ATOM     47  C   UNL A   1      39.165  29.733  30.108  1.00  0.00    -0.014 A 
BRANCH  47  48
ATOM     48  C   UNL A   1      40.518  29.165  30.355  1.00  0.00     0.031 A 
ATOM     49  C   UNL A   1      41.391  29.747  31.435  1.00  0.00     0.074 A 
ATOM     50  C   UNL A   1      40.985  28.176  29.565  1.00  0.00     0.049 A 
ATOM     51  N   UNL A   1      42.636  29.471  31.732  1.00  0.00    -0.248 NA
ATOM     52  C   UNL A   1      40.795  30.799  32.272  1.00  0.00     0.031 C 
ATOM     53  C   UNL A   1      40.242  27.549  28.468  1.00  0.00     0.029 A 
ATOM     54  N   UNL A   1      42.199  27.534  29.549  1.00  0.00    -0.354 N 
ATOM     55  C   UNL A   1      42.976  30.325  32.776  1.00  0.00     0.074 A 
ATOM     56  C   UNL A   1      41.823  31.162  33.026  1.00  0.00     0.031 C 
ATOM     57  C   UNL A   1      41.011  26.609  27.897  1.00  0.00     0.029 A 
ATOM     58  C   UNL A   1      42.317  26.595  28.549  1.00  0.00     0.049 A 
ATOM     59  H   UNL A   1      42.917  27.728  30.193  1.00  0.00     0.167 HD
ATOM     60  C   UNL A   1      44.140  30.394  33.469  1.00  0.00     0.034 A 
ATOM     61  C   UNL A   1      43.363  25.826  28.187  1.00  0.00     0.034 A 
ATOM     62  C   UNL A   1      45.273  29.535  33.225  1.00  0.00     0.049 A 
ATOM     63  C   UNL A   1      44.652  25.936  28.965  1.00  0.00     0.074 A 
ATOM     64  C   UNL A   1      46.473  29.479  33.911  1.00  0.00     0.029 A 
ATOM     65  N   UNL A   1      45.349  28.585  32.215  1.00  0.00    -0.354 N 
ATOM     66  N   UNL A   1      44.939  26.716  29.982  1.00  0.00    -0.248 NA
ATOM     67  C   UNL A   1      45.753  25.053  28.557  1.00  0.00     0.031 C 
ATOM     68  C   UNL A   1      47.300  28.547  33.275  1.00  0.00     0.029 A 
ATOM     69  C   UNL A   1      46.588  27.963  32.241  1.00  0.00     0.049 A 
ATOM     70  H   UNL A   1      44.630  28.384  31.574  1.00  0.00     0.167 HD
ATOM     71  C   UNL A   1      46.239  26.387  30.357  1.00  0.00     0.074 A 
ATOM     72  C   UNL A   1      46.674  25.332  29.467  1.00  0.00     0.031 C 
ATOM     73  C   UNL A   1      47.005  26.907  31.350  1.00  0.00     0.034 A 
BRANCH  60  74
ATOM     74  C   UNL A   1      44.257  31.448  34.544  1.00  0.00     0.023 A 
ATOM     75  C   UNL A   1      43.875  31.197  35.874  1.00  0.00     0.031 A 
ATOM     76  C   UNL A   1      44.766  32.723  34.235  1.00  0.00     0.131 A 
ATOM     77  C   UNL A   1      43.953  32.222  36.830  1.00  0.00     0.055 A 
ATOM     78  C   UNL A   1      44.913  33.713  35.207  1.00  0.00     0.041 A 
ATOM     79  F   UNL A   1      45.126  33.027  32.978  1.00  0.00    -0.206 F 
ATOM     80  C   UNL A   1      44.494  33.470  36.512  1.00  0.00     0.022 A 
BRANCH  77  81
ATOM     81  S   UNL A   1      43.229  31.937  38.467  1.00  0.00     0.124 S 
ATOM     82  O   UNL A   1      44.069  30.855  38.976  1.00  0.00    -0.237 OA
ATOM     83  O   UNL A   1      43.393  33.232  39.116  1.00  0.00    -0.237 OA
ATOM     84  O   UNL A   1      41.850  31.557  38.171  1.00  0.00    -0.744 OA
ENDBRANCH  77  81
ENDBRANCH  60  74
BRANCH  61  85
ATOM     85  C   UNL A   1      43.262  24.898  27.021  1.00  0.00     0.023 A 
ATOM     86  C   UNL A   1      42.605  23.663  27.136  1.00  0.00     0.031 A 
ATOM     87  C   UNL A   1      43.882  25.201  25.795  1.00  0.00     0.131 A 
ATOM     88  C   UNL A   1      42.640  22.749  26.072  1.00  0.00     0.055 A 
ATOM     89  C   UNL A   1      43.859  24.314  24.718  1.00  0.00     0.041 A 
ATOM     90  F   UNL A   1      44.522  26.369  25.628  1.00  0.00    -0.206 F 
ATOM     91  C   UNL A   1      43.251  23.070  24.858  1.00  0.00     0.022 A 
BRANCH  88  92
ATOM     92  S   UNL A   1      41.974  21.082  26.340  1.00  0.00     0.124 S 
ATOM     93  O   UNL A   1      42.815  20.282  25.457  1.00  0.00    -0.237 OA
ATOM     94  O   UNL A   1      42.189  20.899  27.771  1.00  0.00    -0.237 OA
ATOM     95  O   UNL A   1      40.576  21.204  25.931  1.00  0.00    -0.744 OA
ENDBRANCH  88  92
ENDBRANCH  61  85
BRANCH  73  96
ATOM     96  C   UNL A   1      48.367  26.294  31.562  1.00  0.00     0.023 A 
ATOM     97  C   UNL A   1      48.572  25.226  32.451  1.00  0.00     0.031 A 
ATOM     98  C   UNL A   1      49.478  26.793  30.859  1.00  0.00     0.131 A 
ATOM     99  C   UNL A   1      49.867  24.725  32.653  1.00  0.00     0.055 A 
ATOM    100  C   UNL A   1      50.755  26.251  31.019  1.00  0.00     0.041 A 
ATOM    101  F   UNL A   1      49.340  27.814  29.997  1.00  0.00    -0.206 F 
ATOM    102  C   UNL A   1      50.956  25.219  31.930  1.00  0.00     0.022 A 
BRANCH  99 103
ATOM    103  S   UNL A   1      50.125  23.471  33.938  1.00  0.00     0.124 S 
ATOM    104  O   UNL A   1      50.411  22.279  33.146  1.00  0.00    -0.237 OA
ATOM    105  O   UNL A   1      51.249  24.020  34.689  1.00  0.00    -0.237 OA
ATOM    106  O   UNL A   1      48.853  23.449  34.657  1.00  0.00    -0.744 OA
ENDBRANCH  99 103
ENDBRANCH  73  96
ENDBRANCH  47  48
ENDBRANCH  39  42
ENDBRANCH  37  38
ENDBRANCH  36  37
ENDBRANCH  35  36
ENDBRANCH   1  35
TORSDOF 21
ENDMDL
MODEL 2
REMARK VINA RESULT:     -10.4      5.811      9.102
REMARK SMILES COc1cc(NC(=O)C2CCN(S(=O)(=O)c3cccs3)CC2)c(Cl)cc1C(=O)NCCCCCCNC(=O)c1ccc(-c2c3nc(c(-c4cc(S(=O)(=O)[O-])ccc4F)c4ccc([nH]4)c(-c4cc(S(=O)(=O)[O-])ccc4F)c4nc(c(-c5cc(S(=O)(=O)[O-])ccc5F)c5ccc2[nH]5)C=C4)C=C3)cc1
REMARK SMILES IDX 32 1 31 2 30 3 29 4 27 5 28 6 26 8 3 9 4 10 5 11 25 12 23 13
REMARK SMILES IDX 24 14 2 15 1 16 6 17 7 18 8 20 9 21 10 22 22 23 11 24 21 25
REMARK SMILES IDX 12 26 13 27 14 28 15 29 16 30 17 31 20 32 18 33 19 34 33 35
REMARK SMILES IDX 34 36 35 37 36 38 37 39 38 41 39 42 40 43 101 44 41 45
REMARK SMILES IDX 100 46 42 47 43 48 44 49 94 50 45 51 99 52 93 53 95 54 46 55
REMARK SMILES IDX 98 56 92 57 91 58 47 60 79 61 59 62 78 63 60 64 63 65 77 66
REMARK SMILES IDX 96 67 61 68 62 69 76 71 97 72 64 73 48 74 49 75 57 76 50 77
REMARK SMILES IDX 56 78 58 79 55 80 51 81 52 82 53 83 54 84 80 85 81 86 89 87
REMARK SMILES IDX 82 88 88 89 90 90 87 91 83 92 84 93 85 94 86 95 65 96 66 97
REMARK SMILES IDX 74 98 67 99 73 100 75 101 72 102 68 103 69 104 70 105 71 106
REMARK H PARENT 29 7 6 19 36 40 95 59 63 70
REMARK Flexibility Score: inf
ROOT
ATOM      1  C   UNL A   1      40.207  33.732  32.777  1.00  0.00     0.002 C 
ENDROOT
BRANCH   1   2
ATOM      2  C   UNL A   1      39.540  34.409  31.577  1.00  0.00     0.021 C 
BRANCH   2   3
ATOM      3  C   UNL A   1      38.816  33.464  30.613  1.00  0.00     0.116 C 
BRANCH   3   4
ATOM      4  N   UNL A   1      37.466  33.202  31.078  1.00  0.00    -0.352 N 
ATOM      5  C   UNL A   1      36.574  32.198  30.802  1.00  0.00     0.255 C 
ATOM      6  O   UNL A   1      35.472  32.252  31.352  1.00  0.00    -0.269 OA
ATOM      7  H   UNL A   1      37.127  33.873  31.712  1.00  0.00     0.163 HD
BRANCH   5   8
ATOM      8  C   UNL A   1      36.890  30.985  29.996  1.00  0.00     0.083 A 
ATOM      9  C   UNL A   1      36.698  30.814  28.615  1.00  0.00     0.133 A 
ATOM     10  C   UNL A   1      37.090  29.605  28.017  1.00  0.00     0.075 A 
ATOM     11  C   UNL A   1      37.780  28.630  28.737  1.00  0.00     0.063 A 
ATOM     12  C   UNL A   1      37.387  29.901  30.750  1.00  0.00     0.040 A 
ATOM     13  C   UNL A   1      37.822  28.730  30.129  1.00  0.00     0.065 A 
ATOM     14  Cl  UNL A   1      38.525  27.487  31.099  1.00  0.00    -0.082 Cl
BRANCH   9  15
ATOM     15  O   UNL A   1      36.122  31.810  27.878  1.00  0.00    -0.496 OA
ATOM     16  C   UNL A   1      34.701  31.747  27.707  1.00  0.00     0.278 C 
ENDBRANCH   9  15
BRANCH  11  17
ATOM     17  N   UNL A   1      38.523  27.625  28.087  1.00  0.00    -0.324 N 
ATOM     18  C   UNL A   1      39.884  27.490  27.938  1.00  0.00     0.227 C 
ATOM     19  H   UNL A   1      37.986  26.910  27.674  1.00  0.00     0.169 HD
ATOM     20  O   UNL A   1      40.292  26.493  27.337  1.00  0.00    -0.274 OA
BRANCH  18  21
ATOM     21  C   UNL A   1      40.870  28.503  28.555  1.00  0.00     0.081 C 
ATOM     22  C   UNL A   1      41.775  29.182  27.505  1.00  0.00     0.030 C 
ATOM     23  C   UNL A   1      41.774  27.900  29.635  1.00  0.00     0.030 C 
ATOM     24  C   UNL A   1      42.936  28.306  27.012  1.00  0.00     0.103 C 
ATOM     25  C   UNL A   1      42.780  26.939  29.037  1.00  0.00     0.103 C 
ATOM     26  N   UNL A   1      43.684  27.701  28.161  1.00  0.00    -0.197 NA
BRANCH  26  27
ATOM     27  S   UNL A   1      45.067  26.812  27.647  1.00  0.00     0.252 S 
ATOM     28  O   UNL A   1      45.751  27.630  26.667  1.00  0.00    -0.206 OA
ATOM     29  O   UNL A   1      45.748  26.313  28.821  1.00  0.00    -0.206 OA
BRANCH  27  30
ATOM     30  C   UNL A   1      44.502  25.402  26.696  1.00  0.00     0.135 A 
ATOM     31  C   UNL A   1      43.865  25.341  25.466  1.00  0.00     0.033 A 
ATOM     32  S   UNL A   1      44.744  23.841  27.345  1.00  0.00    -0.131 S 
ATOM     33  C   UNL A   1      43.552  24.010  25.072  1.00  0.00     0.013 A 
ATOM     34  C   UNL A   1      44.003  23.090  25.994  1.00  0.00     0.066 A 
ENDBRANCH  27  30
ENDBRANCH  26  27
ENDBRANCH  18  21
ENDBRANCH  11  17
ENDBRANCH   5   8
ENDBRANCH   3   4
ENDBRANCH   2   3
ENDBRANCH   1   2
BRANCH   1  35
ATOM     35  C   UNL A   1      39.813  34.300  34.145  1.00  0.00     0.002 C 
BRANCH  35  36
ATOM     36  C   UNL A   1      38.325  34.202  34.502  1.00  0.00     0.021 C 
BRANCH  36  37
ATOM     37  C   UNL A   1      37.689  32.831  34.277  1.00  0.00     0.116 C 
BRANCH  37  38
ATOM     38  N   UNL A   1      37.761  31.999  35.465  1.00  0.00    -0.352 N 
ATOM     39  C   UNL A   1      38.565  30.916  35.726  1.00  0.00     0.251 C 
ATOM     40  H   UNL A   1      37.142  32.247  36.190  1.00  0.00     0.163 HD
ATOM     41  O   UNL A   1      38.309  30.188  36.682  1.00  0.00    -0.269 OA
BRANCH  39  42
ATOM     42  C   UNL A   1      39.726  30.622  34.857  1.00  0.00     0.039 A 
ATOM     43  C   UNL A   1      40.986  31.110  35.216  1.00  0.00     0.014 A 
ATOM     44  C   UNL A   1      39.570  29.896  33.672  1.00  0.00     0.014 A 
ATOM     45  C   UNL A   1      42.097  30.824  34.416  1.00  0.00     0.010 A 
ATOM     46  C   UNL A   1      40.688  29.560  32.910  1.00  0.00     0.010 A 
ATOM     47  C   UNL A   1      41.963  30.022  33.271  1.00  0.00    -0.014 A 
BRANCH  47  48
ATOM     48  C   UNL A   1      43.140  29.664  32.432  1.00  0.00     0.031 A 
ATOM     49  C   UNL A   1      44.055  28.547  32.859  1.00  0.00     0.074 A 
ATOM     50  C   UNL A   1      43.422  30.388  31.329  1.00  0.00     0.049 A 
ATOM     51  N   UNL A   1      45.187  28.156  32.332  1.00  0.00    -0.248 NA
ATOM     52  C   UNL A   1      43.657  27.787  34.054  1.00  0.00     0.031 C 
ATOM     53  C   UNL A   1      42.626  31.512  30.830  1.00  0.00     0.029 A 
ATOM     54  N   UNL A   1      44.462  30.300  30.437  1.00  0.00    -0.354 N 
ATOM     55  C   UNL A   1      45.645  27.121  33.138  1.00  0.00     0.074 A 
ATOM     56  C   UNL A   1      44.693  26.977  34.218  1.00  0.00     0.031 C 
ATOM     57  C   UNL A   1      43.200  31.999  29.718  1.00  0.00     0.029 A 
ATOM     58  C   UNL A   1      44.428  31.258  29.449  1.00  0.00     0.049 A 
ATOM     59  H   UNL A   1      45.166  29.615  30.499  1.00  0.00     0.167 HD
ATOM     60  C   UNL A   1      46.752  26.351  32.983  1.00  0.00     0.034 A 
ATOM     61  C   UNL A   1      45.298  31.523  28.453  1.00  0.00     0.034 A 
ATOM     62  C   UNL A   1      47.678  26.490  31.886  1.00  0.00     0.049 A 
ATOM     63  C   UNL A   1      46.530  30.662  28.314  1.00  0.00     0.074 A 
ATOM     64  C   UNL A   1      48.794  25.721  31.600  1.00  0.00     0.029 A 
ATOM     65  N   UNL A   1      47.602  27.461  30.896  1.00  0.00    -0.354 N 
ATOM     66  N   UNL A   1      46.922  29.654  29.060  1.00  0.00    -0.248 NA
ATOM     67  C   UNL A   1      47.431  30.964  27.194  1.00  0.00     0.031 C 
ATOM     68  C   UNL A   1      49.430  26.268  30.482  1.00  0.00     0.029 A 
ATOM     69  C   UNL A   1      48.668  27.329  30.019  1.00  0.00     0.049 A 
ATOM     70  H   UNL A   1      46.896  28.142  30.828  1.00  0.00     0.167 HD
ATOM     71  C   UNL A   1      48.092  29.180  28.472  1.00  0.00     0.074 A 
ATOM     72  C   UNL A   1      48.335  30.003  27.306  1.00  0.00     0.031 C 
ATOM     73  C   UNL A   1      48.893  28.155  28.857  1.00  0.00     0.034 A 
BRANCH  60  74
ATOM     74  C   UNL A   1      47.035  25.306  34.035  1.00  0.00     0.023 A 
ATOM     75  C   UNL A   1      46.407  24.049  34.019  1.00  0.00     0.031 A 
ATOM     76  C   UNL A   1      47.955  25.570  35.066  1.00  0.00     0.131 A 
ATOM     77  C   UNL A   1      46.662  23.126  35.046  1.00  0.00     0.055 A 
ATOM     78  C   UNL A   1      48.262  24.618  36.041  1.00  0.00     0.041 A 
ATOM     79  F   UNL A   1      48.570  26.760  35.145  1.00  0.00    -0.206 F 
ATOM     80  C   UNL A   1      47.605  23.391  36.042  1.00  0.00     0.022 A 
BRANCH  77  81
ATOM     81  S   UNL A   1      45.657  21.618  35.127  1.00  0.00     0.124 S 
ATOM     82  O   UNL A   1      46.472  20.682  34.356  1.00  0.00    -0.237 OA
ATOM     83  O   UNL A   1      45.578  21.367  36.560  1.00  0.00    -0.237 OA
ATOM     84  O   UNL A   1      44.401  22.010  34.490  1.00  0.00    -0.744 OA
ENDBRANCH  77  81
ENDBRANCH  60  74
BRANCH  61  85
ATOM     85  C   UNL A   1      45.063  32.662  27.516  1.00  0.00     0.023 A 
ATOM     86  C   UNL A   1      45.640  33.920  27.749  1.00  0.00     0.031 A 
ATOM     87  C   UNL A   1      44.200  32.529  26.413  1.00  0.00     0.131 A 
ATOM     88  C   UNL A   1      45.298  35.010  26.935  1.00  0.00     0.055 A 
ATOM     89  C   UNL A   1      43.911  33.602  25.569  1.00  0.00     0.041 A 
ATOM     90  F   UNL A   1      43.622  31.349  26.141  1.00  0.00    -0.206 F 
ATOM     91  C   UNL A   1      44.448  34.858  25.838  1.00  0.00     0.022 A 
BRANCH  88  92
ATOM     92  S   UNL A   1      45.889  36.660  27.405  1.00  0.00     0.124 S 
ATOM     93  O   UNL A   1      46.349  36.432  28.771  1.00  0.00    -0.237 OA
ATOM     94  O   UNL A   1      46.927  36.903  26.410  1.00  0.00    -0.237 OA
ATOM     95  O   UNL A   1      44.698  37.497  27.278  1.00  0.00    -0.744 OA
ENDBRANCH  88  92
ENDBRANCH  61  85
BRANCH  73  96
ATOM     96  C   UNL A   1      50.071  27.829  27.971  1.00  0.00     0.023 A 
ATOM     97  C   UNL A   1      51.336  28.406  28.174  1.00  0.00     0.031 A 
ATOM     98  C   UNL A   1      49.918  26.925  26.905  1.00  0.00     0.131 A 
ATOM     99  C   UNL A   1      52.386  28.112  27.292  1.00  0.00     0.055 A 
ATOM    100  C   UNL A   1      50.982  26.590  26.067  1.00  0.00     0.041 A 
ATOM    101  F   UNL A   1      48.731  26.345  26.665  1.00  0.00    -0.206 F 
ATOM    102  C   UNL A   1      52.222  27.194  26.250  1.00  0.00     0.022 A 
BRANCH  99 103
ATOM    103  S   UNL A   1      53.953  29.008  27.472  1.00  0.00     0.124 S 
ATOM    104  O   UNL A   1      53.511  30.399  27.455  1.00  0.00    -0.237 OA
ATOM    105  O   UNL A   1      54.450  28.514  28.752  1.00  0.00    -0.237 OA
ATOM    106  O   UNL A   1      54.725  28.586  26.305  1.00  0.00    -0.744 OA
ENDBRANCH  99 103
ENDBRANCH  73  96
ENDBRANCH  47  48
ENDBRANCH  39  42
ENDBRANCH  37  38
ENDBRANCH  36  37
ENDBRANCH  35  36
ENDBRANCH   1  35
TORSDOF 21
ENDMDL
MODEL 3
REMARK VINA RESULT:     -10.3      6.489     10.843
REMARK SMILES COc1cc(NC(=O)C2CCN(S(=O)(=O)c3cccs3)CC2)c(Cl)cc1C(=O)NCCCCCCNC(=O)c1ccc(-c2c3nc(c(-c4cc(S(=O)(=O)[O-])ccc4F)c4ccc([nH]4)c(-c4cc(S(=O)(=O)[O-])ccc4F)c4nc(c(-c5cc(S(=O)(=O)[O-])ccc5F)c5ccc2[nH]5)C=C4)C=C3)cc1
REMARK SMILES IDX 32 1 31 2 30 3 29 4 27 5 28 6 26 8 3 9 4 10 5 11 25 12 23 13
REMARK SMILES IDX 24 14 2 15 1 16 6 17 7 18 8 20 9 21 10 22 22 23 11 24 21 25
REMARK SMILES IDX 12 26 13 27 14 28 15 29 16 30 17 31 20 32 18 33 19 34 33 35
REMARK SMILES IDX 34 36 35 37 36 38 37 39 38 41 39 42 40 43 101 44 41 45
REMARK SMILES IDX 100 46 42 47 43 48 44 49 94 50 45 51 99 52 93 53 95 54 46 55
REMARK SMILES IDX 98 56 92 57 91 58 47 60 79 61 59 62 78 63 60 64 63 65 77 66
REMARK SMILES IDX 96 67 61 68 62 69 76 71 97 72 64 73 48 74 49 75 57 76 50 77
REMARK SMILES IDX 56 78 58 79 55 80 51 81 52 82 53 83 54 84 80 85 81 86 89 87
REMARK SMILES IDX 82 88 88 89 90 90 87 91 83 92 84 93 85 94 86 95 65 96 66 97
REMARK SMILES IDX 74 98 67 99 73 100 75 101 72 102 68 103 69 104 70 105 71 106
REMARK H PARENT 29 7 6 19 36 40 95 59 63 70
REMARK Flexibility Score: inf
ROOT
ATOM      1  C   UNL A   1      42.234  27.558  28.353  1.00  0.00     0.002 C 
ENDROOT
BRANCH   1   2
ATOM      2  C   UNL A   1      42.068  28.984  28.885  1.00  0.00     0.021 C 
BRANCH   2   3
ATOM      3  C   UNL A   1      40.683  29.603  28.676  1.00  0.00     0.116 C 
BRANCH   3   4
ATOM      4  N   UNL A   1      40.380  30.540  29.743  1.00  0.00    -0.352 N 
ATOM      5  C   UNL A   1      39.229  31.197  30.095  1.00  0.00     0.255 C 
ATOM      6  O   UNL A   1      39.284  31.957  31.065  1.00  0.00    -0.269 OA
ATOM      7  H   UNL A   1      41.148  30.742  30.324  1.00  0.00     0.163 HD
BRANCH   5   8
ATOM      8  C   UNL A   1      37.895  30.955  29.476  1.00  0.00     0.083 A 
ATOM      9  C   UNL A   1      37.196  29.738  29.425  1.00  0.00     0.133 A 
ATOM     10  C   UNL A   1      35.926  29.707  28.826  1.00  0.00     0.075 A 
ATOM     11  C   UNL A   1      35.294  30.876  28.403  1.00  0.00     0.063 A 
ATOM     12  C   UNL A   1      37.336  32.085  28.844  1.00  0.00     0.040 A 
ATOM     13  C   UNL A   1      36.050  32.046  28.304  1.00  0.00     0.065 A 
ATOM     14  Cl  UNL A   1      35.381  33.496  27.646  1.00  0.00    -0.082 Cl
BRANCH   9  15
ATOM     15  O   UNL A   1      37.761  28.604  29.939  1.00  0.00    -0.496 OA
ATOM     16  C   UNL A   1      37.756  28.470  31.364  1.00  0.00     0.278 C 
ENDBRANCH   9  15
BRANCH  11  17
ATOM     17  N   UNL A   1      33.903  30.923  28.188  1.00  0.00    -0.324 N 
ATOM     18  C   UNL A   1      33.143  30.340  27.200  1.00  0.00     0.227 C 
ATOM     19  H   UNL A   1      33.397  31.455  28.844  1.00  0.00     0.169 HD
ATOM     20  O   UNL A   1      31.923  30.516  27.246  1.00  0.00    -0.274 OA
BRANCH  18  21
ATOM     21  C   UNL A   1      33.775  29.443  26.116  1.00  0.00     0.081 C 
ATOM     22  C   UNL A   1      33.000  29.473  24.781  1.00  0.00     0.030 C 
ATOM     23  C   UNL A   1      33.924  27.979  26.540  1.00  0.00     0.030 C 
ATOM     24  C   UNL A   1      31.719  28.627  24.777  1.00  0.00     0.103 C 
ATOM     25  C   UNL A   1      32.576  27.296  26.643  1.00  0.00     0.103 C 
ATOM     26  N   UNL A   1      31.978  27.247  25.299  1.00  0.00    -0.197 NA
BRANCH  26  27
ATOM     27  S   UNL A   1      30.589  26.235  25.193  1.00  0.00     0.252 S 
ATOM     28  O   UNL A   1      30.216  25.889  26.549  1.00  0.00    -0.206 OA
ATOM     29  O   UNL A   1      29.647  26.850  24.285  1.00  0.00    -0.206 OA
BRANCH  27  30
ATOM     30  C   UNL A   1      31.093  24.667  24.484  1.00  0.00     0.135 A 
ATOM     31  C   UNL A   1      30.644  24.003  23.354  1.00  0.00     0.033 A 
ATOM     32  S   UNL A   1      32.318  23.779  25.277  1.00  0.00    -0.131 S 
ATOM     33  C   UNL A   1      31.290  22.751  23.156  1.00  0.00     0.013 A 
ATOM     34  C   UNL A   1      32.247  22.518  24.118  1.00  0.00     0.066 A 
ENDBRANCH  27  30
ENDBRANCH  26  27
ENDBRANCH  18  21
ENDBRANCH  11  17
ENDBRANCH   5   8
ENDBRANCH   3   4
ENDBRANCH   2   3
ENDBRANCH   1   2
BRANCH   1  35
ATOM     35  C   UNL A   1      41.382  27.219  27.127  1.00  0.00     0.002 C 
BRANCH  35  36
ATOM     36  C   UNL A   1      40.830  25.790  27.073  1.00  0.00     0.021 C 
BRANCH  36  37
ATOM     37  C   UNL A   1      41.289  24.871  28.204  1.00  0.00     0.116 C 
BRANCH  37  38
ATOM     38  N   UNL A   1      41.889  23.648  27.698  1.00  0.00    -0.352 N 
ATOM     39  C   UNL A   1      43.027  23.478  26.949  1.00  0.00     0.251 C 
ATOM     40  H   UNL A   1      41.408  22.819  27.926  1.00  0.00     0.163 HD
ATOM     41  O   UNL A   1      43.239  22.398  26.404  1.00  0.00    -0.269 OA
BRANCH  39  42
ATOM     42  C   UNL A   1      43.989  24.593  26.789  1.00  0.00     0.039 A 
ATOM     43  C   UNL A   1      44.136  25.190  25.533  1.00  0.00     0.014 A 
ATOM     44  C   UNL A   1      44.770  25.027  27.864  1.00  0.00     0.014 A 
ATOM     45  C   UNL A   1      45.025  26.256  25.369  1.00  0.00     0.010 A 
ATOM     46  C   UNL A   1      45.609  26.130  27.714  1.00  0.00     0.010 A 
ATOM     47  C   UNL A   1      45.748  26.756  26.465  1.00  0.00    -0.014 A 
BRANCH  47  48
ATOM     48  C   UNL A   1      46.663  27.921  26.324  1.00  0.00     0.031 A 
ATOM     49  C   UNL A   1      48.142  27.698  26.150  1.00  0.00     0.074 A 
ATOM     50  C   UNL A   1      46.174  29.174  26.424  1.00  0.00     0.049 A 
ATOM     51  N   UNL A   1      49.114  28.574  26.122  1.00  0.00    -0.248 NA
ATOM     52  C   UNL A   1      48.589  26.303  26.017  1.00  0.00     0.031 C 
ATOM     53  C   UNL A   1      44.763  29.516  26.622  1.00  0.00     0.029 A 
ATOM     54  N   UNL A   1      46.806  30.393  26.389  1.00  0.00    -0.354 N 
ATOM     55  C   UNL A   1      50.287  27.838  25.988  1.00  0.00     0.074 A 
ATOM     56  C   UNL A   1      49.907  26.442  25.989  1.00  0.00     0.031 C 
ATOM     57  C   UNL A   1      44.637  30.852  26.679  1.00  0.00     0.029 A 
ATOM     58  C   UNL A   1      45.959  31.462  26.572  1.00  0.00     0.049 A 
ATOM     59  H   UNL A   1      47.775  30.491  26.247  1.00  0.00     0.167 HD
ATOM     60  C   UNL A   1      51.560  28.287  25.861  1.00  0.00     0.034 A 
ATOM     61  C   UNL A   1      46.219  32.783  26.663  1.00  0.00     0.034 A 
ATOM     62  C   UNL A   1      51.920  29.684  25.836  1.00  0.00     0.049 A 
ATOM     63  C   UNL A   1      47.647  33.253  26.536  1.00  0.00     0.074 A 
ATOM     64  C   UNL A   1      53.170  30.246  25.647  1.00  0.00     0.029 A 
ATOM     65  N   UNL A   1      51.032  30.738  26.007  1.00  0.00    -0.354 N 
ATOM     66  N   UNL A   1      48.739  32.544  26.360  1.00  0.00    -0.248 NA
ATOM     67  C   UNL A   1      47.880  34.702  26.606  1.00  0.00     0.031 C 
ATOM     68  C   UNL A   1      53.052  31.634  25.774  1.00  0.00     0.029 A 
ATOM     69  C   UNL A   1      51.715  31.945  25.960  1.00  0.00     0.049 A 
ATOM     70  H   UNL A   1      50.063  30.643  26.142  1.00  0.00     0.167 HD
ATOM     71  C   UNL A   1      49.778  33.466  26.259  1.00  0.00     0.074 A 
ATOM     72  C   UNL A   1      49.182  34.779  26.381  1.00  0.00     0.031 C 
ATOM     73  C   UNL A   1      51.105  33.247  26.078  1.00  0.00     0.034 A 
BRANCH  60  74
ATOM     74  C   UNL A   1      52.662  27.259  25.763  1.00  0.00     0.023 A 
ATOM     75  C   UNL A   1      53.437  26.895  26.878  1.00  0.00     0.031 A 
ATOM     76  C   UNL A   1      52.937  26.629  24.536  1.00  0.00     0.131 A 
ATOM     77  C   UNL A   1      54.485  25.973  26.731  1.00  0.00     0.055 A 
ATOM     78  C   UNL A   1      53.930  25.657  24.414  1.00  0.00     0.041 A 
ATOM     79  F   UNL A   1      52.245  26.953  23.432  1.00  0.00    -0.206 F 
ATOM     80  C   UNL A   1      54.720  25.331  25.513  1.00  0.00     0.022 A 
BRANCH  77  81
ATOM     81  S   UNL A   1      55.611  25.710  28.127  1.00  0.00     0.124 S 
ATOM     82  O   UNL A   1      54.764  26.077  29.260  1.00  0.00    -0.237 OA
ATOM     83  O   UNL A   1      55.940  24.295  28.007  1.00  0.00    -0.237 OA
ATOM     84  O   UNL A   1      56.712  26.633  27.858  1.00  0.00    -0.744 OA
ENDBRANCH  77  81
ENDBRANCH  60  74
BRANCH  61  85
ATOM     85  C   UNL A   1      45.120  33.763  26.910  1.00  0.00     0.023 A 
ATOM     86  C   UNL A   1      44.821  34.200  28.210  1.00  0.00     0.031 A 
ATOM     87  C   UNL A   1      44.306  34.222  25.859  1.00  0.00     0.131 A 
ATOM     88  C   UNL A   1      43.699  35.013  28.435  1.00  0.00     0.055 A 
ATOM     89  C   UNL A   1      43.229  35.081  26.081  1.00  0.00     0.041 A 
ATOM     90  F   UNL A   1      44.547  33.838  24.596  1.00  0.00    -0.206 F 
ATOM     91  C   UNL A   1      42.908  35.468  27.379  1.00  0.00     0.022 A 
BRANCH  88  92
ATOM     92  S   UNL A   1      43.220  35.371  30.149  1.00  0.00     0.124 S 
ATOM     93  O   UNL A   1      43.217  36.830  30.157  1.00  0.00    -0.237 OA
ATOM     94  O   UNL A   1      41.916  34.726  30.238  1.00  0.00    -0.237 OA
ATOM     95  O   UNL A   1      44.280  34.743  30.936  1.00  0.00    -0.744 OA
ENDBRANCH  88  92
ENDBRANCH  61  85
BRANCH  73  96
ATOM     96  C   UNL A   1      51.990  34.462  25.938  1.00  0.00     0.023 A 
ATOM     97  C   UNL A   1      52.541  35.114  27.054  1.00  0.00     0.031 A 
ATOM     98  C   UNL A   1      52.285  34.972  24.660  1.00  0.00     0.131 A 
ATOM     99  C   UNL A   1      53.315  36.270  26.874  1.00  0.00     0.055 A 
ATOM    100  C   UNL A   1      53.105  36.087  24.485  1.00  0.00     0.041 A 
ATOM    101  F   UNL A   1      51.784  34.388  23.559  1.00  0.00    -0.206 F 
ATOM    102  C   UNL A   1      53.615  36.750  25.596  1.00  0.00     0.022 A 
BRANCH  99 103
ATOM    103  S   UNL A   1      53.860  37.190  28.339  1.00  0.00     0.124 S 
ATOM    104  O   UNL A   1      55.310  37.180  28.183  1.00  0.00    -0.237 OA
ATOM    105  O   UNL A   1      53.209  38.483  28.156  1.00  0.00    -0.237 OA
ATOM    106  O   UNL A   1      53.349  36.394  29.454  1.00  0.00    -0.744 OA
ENDBRANCH  99 103
ENDBRANCH  73  96
ENDBRANCH  47  48
ENDBRANCH  39  42
ENDBRANCH  37  38
ENDBRANCH  36  37
ENDBRANCH  35  36
ENDBRANCH   1  35
TORSDOF 21
ENDMDL
