MODEL 1
REMARK VINA RESULT:     -12.3      0.000      0.000
REMARK SMILES COc1ccc(-n2ccnc2C[N@@H+]2CCn3nc(C(=O)NCCCCCCNC(=O)c4ccc(-c5c6nc(c(-c7cc(S(=O)(=O)[O-])ccc7F)c7ccc([nH]7)c(-c7cc(S(=O)(=O)[O-])ccc7F)c7nc(c(-c8cc(S(=O)(=O)[O-])ccc8F)c8ccc5[nH]8)C=C7)C=C6)cc4)cc3C2)cc1
REMARK SMILES IDX 24 1 23 2 22 3 21 4 19 5 20 6 18 8 13 9 14 10 96 11 15 13
REMARK SMILES IDX 95 14 16 15 94 16 17 17 12 18 11 19 7 20 8 21 9 22 10 23
REMARK SMILES IDX 6 24 3 25 4 26 98 27 5 28 97 29 2 30 1 31 25 32 26 33 27 34
REMARK SMILES IDX 28 35 29 36 30 38 31 39 32 40 93 41 33 42 92 43 34 44 35 45
REMARK SMILES IDX 36 46 86 47 37 48 91 49 85 50 87 51 38 52 90 53 84 54 83 55
REMARK SMILES IDX 39 57 71 58 51 59 70 60 52 61 55 62 69 63 88 64 53 65 54 66
REMARK SMILES IDX 68 68 89 69 56 70 40 71 41 72 49 73 42 74 48 75 50 76 47 77
REMARK SMILES IDX 43 78 44 79 45 80 46 81 72 82 73 83 81 84 74 85 80 86 82 87
REMARK SMILES IDX 79 88 75 89 76 90 77 91 78 92 57 93 58 94 66 95 59 96 65 97
REMARK SMILES IDX 67 98 64 99 60 100 61 101 62 102 63 103
REMARK H PARENT 21 7 13 12 28 37 87 56 55 67
REMARK Flexibility Score: inf
ROOT
ATOM      1  C   UNL A   1      35.002  21.186  25.982  1.00  0.00     0.002 C 
ENDROOT
BRANCH   1   2
ATOM      2  C   UNL A   1      34.458  22.446  26.693  1.00  0.00     0.021 C 
BRANCH   2   3
ATOM      3  C   UNL A   1      33.386  22.168  27.762  1.00  0.00     0.116 C 
BRANCH   3   4
ATOM      4  N   UNL A   1      32.040  22.742  27.481  1.00  0.00    -0.351 N 
ATOM      5  C   UNL A   1      31.142  23.229  26.539  1.00  0.00     0.271 C 
ATOM      6  O   UNL A   1      30.129  23.667  27.111  1.00  0.00    -0.267 OA
ATOM      7  H   UNL A   1      31.583  22.804  28.351  1.00  0.00     0.163 HD
BRANCH   5   8
ATOM      8  C   UNL A   1      31.104  23.213  25.019  1.00  0.00     0.150 A 
ATOM      9  N   UNL A   1      33.831  25.288  23.579  1.00  0.00    -0.322 N 
ATOM     10  C   UNL A   1      33.084  25.940  22.510  1.00  0.00     0.286 C 
ATOM     11  C   UNL A   1      33.899  23.814  23.298  1.00  0.00     0.319 C 
ATOM     12  H   UNL A   1      34.773  25.678  23.589  1.00  0.00     0.348 HD
ATOM     13  C   UNL A   1      31.727  25.282  22.214  1.00  0.00     0.206 C 
ATOM     14  C   UNL A   1      32.519  23.205  23.309  1.00  0.00     0.094 A 
ATOM     15  N   UNL A   1      31.504  24.101  23.062  1.00  0.00    -0.257 N 
ATOM     16  C   UNL A   1      31.922  22.344  24.223  1.00  0.00     0.065 A 
ATOM     17  N   UNL A   1      30.768  24.218  24.190  1.00  0.00    -0.167 NA
BRANCH   9  18
ATOM     18  C   UNL A   1      33.290  25.576  24.949  1.00  0.00     0.339 C 
BRANCH  18  19
ATOM     19  C   UNL A   1      33.035  26.996  25.516  1.00  0.00     0.168 A 
ATOM     20  N   UNL A   1      32.075  28.077  25.345  1.00  0.00    -0.299 N 
ATOM     21  C   UNL A   1      32.342  28.919  26.426  1.00  0.00     0.113 A 
ATOM     22  C   UNL A   1      33.424  28.446  27.096  1.00  0.00     0.132 A 
ATOM     23  N   UNL A   1      33.867  27.319  26.512  1.00  0.00    -0.236 NA
BRANCH  20  24
ATOM     24  C   UNL A   1      31.003  28.531  24.444  1.00  0.00     0.047 A 
ATOM     25  C   UNL A   1      28.738  29.524  22.933  1.00  0.00     0.119 A 
ATOM     26  C   UNL A   1      28.930  28.176  23.103  1.00  0.00     0.048 A 
ATOM     27  C   UNL A   1      29.600  30.386  23.604  1.00  0.00     0.048 A 
ATOM     28  C   UNL A   1      30.008  27.733  23.897  1.00  0.00     0.030 A 
ATOM     29  C   UNL A   1      30.723  29.902  24.328  1.00  0.00     0.030 A 
BRANCH  25  30
ATOM     30  O   UNL A   1      27.684  30.052  22.249  1.00  0.00    -0.497 OA
ATOM     31  C   UNL A   1      28.028  30.703  21.020  1.00  0.00     0.278 C 
ENDBRANCH  25  30
ENDBRANCH  20  24
ENDBRANCH  18  19
ENDBRANCH   9  18
ENDBRANCH   5   8
ENDBRANCH   3   4
ENDBRANCH   2   3
ENDBRANCH   1   2
BRANCH   1  32
ATOM     32  C   UNL A   1      36.142  21.380  24.959  1.00  0.00     0.002 C 
BRANCH  32  33
ATOM     33  C   UNL A   1      37.241  20.304  24.902  1.00  0.00     0.021 C 
BRANCH  33  34
ATOM     34  C   UNL A   1      38.609  20.722  25.441  1.00  0.00     0.116 C 
BRANCH  34  35
ATOM     35  N   UNL A   1      39.543  19.611  25.618  1.00  0.00    -0.352 N 
ATOM     36  C   UNL A   1      40.901  19.673  25.916  1.00  0.00     0.251 C 
ATOM     37  H   UNL A   1      39.165  18.709  25.514  1.00  0.00     0.163 HD
ATOM     38  O   UNL A   1      41.631  18.737  25.665  1.00  0.00    -0.269 OA
BRANCH  36  39
ATOM     39  C   UNL A   1      41.435  20.910  26.533  1.00  0.00     0.039 A 
ATOM     40  C   UNL A   1      41.685  22.051  25.765  1.00  0.00     0.014 A 
ATOM     41  C   UNL A   1      41.662  20.923  27.907  1.00  0.00     0.014 A 
ATOM     42  C   UNL A   1      42.055  23.232  26.413  1.00  0.00     0.010 A 
ATOM     43  C   UNL A   1      41.909  22.113  28.556  1.00  0.00     0.010 A 
ATOM     44  C   UNL A   1      42.129  23.271  27.817  1.00  0.00    -0.014 A 
BRANCH  44  45
ATOM     45  C   UNL A   1      42.275  24.549  28.520  1.00  0.00     0.031 A 
ATOM     46  C   UNL A   1      41.151  25.503  28.307  1.00  0.00     0.074 A 
ATOM     47  C   UNL A   1      43.223  24.820  29.446  1.00  0.00     0.049 A 
ATOM     48  N   UNL A   1      41.184  26.606  27.637  1.00  0.00    -0.248 NA
ATOM     49  C   UNL A   1      39.801  25.128  28.756  1.00  0.00     0.031 C 
ATOM     50  C   UNL A   1      44.255  23.927  29.980  1.00  0.00     0.029 A 
ATOM     51  N   UNL A   1      43.402  25.953  30.187  1.00  0.00    -0.354 N 
ATOM     52  C   UNL A   1      39.929  27.189  27.775  1.00  0.00     0.074 A 
ATOM     53  C   UNL A   1      39.077  26.156  28.305  1.00  0.00     0.031 C 
ATOM     54  C   UNL A   1      44.795  24.465  31.096  1.00  0.00     0.029 A 
ATOM     55  C   UNL A   1      44.275  25.811  31.263  1.00  0.00     0.049 A 
ATOM     56  H   UNL A   1      42.950  26.802  29.977  1.00  0.00     0.167 HD
ATOM     57  C   UNL A   1      39.765  28.536  27.646  1.00  0.00     0.034 A 
ATOM     58  C   UNL A   1      44.566  26.729  32.225  1.00  0.00     0.034 A 
ATOM     59  C   UNL A   1      40.929  29.138  27.029  1.00  0.00     0.049 A 
ATOM     60  C   UNL A   1      44.268  28.061  31.647  1.00  0.00     0.074 A 
ATOM     61  C   UNL A   1      41.590  28.959  25.829  1.00  0.00     0.029 A 
ATOM     62  N   UNL A   1      41.823  29.798  27.843  1.00  0.00    -0.354 N 
ATOM     63  N   UNL A   1      44.940  28.565  30.651  1.00  0.00    -0.248 NA
ATOM     64  C   UNL A   1      42.937  28.615  31.837  1.00  0.00     0.031 C 
ATOM     65  C   UNL A   1      42.976  29.033  26.164  1.00  0.00     0.029 A 
ATOM     66  C   UNL A   1      43.080  29.346  27.520  1.00  0.00     0.049 A 
ATOM     67  H   UNL A   1      41.603  30.469  28.530  1.00  0.00     0.167 HD
ATOM     68  C   UNL A   1      43.981  29.133  29.828  1.00  0.00     0.074 A 
ATOM     69  C   UNL A   1      42.785  29.236  30.663  1.00  0.00     0.031 C 
ATOM     70  C   UNL A   1      44.164  29.203  28.474  1.00  0.00     0.034 A 
BRANCH  57  71
ATOM     71  C   UNL A   1      38.743  29.373  28.385  1.00  0.00     0.023 A 
ATOM     72  C   UNL A   1      38.888  29.476  29.783  1.00  0.00     0.031 A 
ATOM     73  C   UNL A   1      37.504  29.808  27.865  1.00  0.00     0.131 A 
ATOM     74  C   UNL A   1      37.811  29.862  30.598  1.00  0.00     0.055 A 
ATOM     75  C   UNL A   1      36.457  30.260  28.675  1.00  0.00     0.041 A 
ATOM     76  F   UNL A   1      37.196  29.733  26.566  1.00  0.00    -0.206 F 
ATOM     77  C   UNL A   1      36.593  30.254  30.054  1.00  0.00     0.022 A 
BRANCH  74  78
ATOM     78  S   UNL A   1      37.973  29.650  32.390  1.00  0.00     0.124 S 
ATOM     79  O   UNL A   1      37.464  28.295  32.569  1.00  0.00    -0.237 OA
ATOM     80  O   UNL A   1      39.408  29.833  32.585  1.00  0.00    -0.237 OA
ATOM     81  O   UNL A   1      37.129  30.711  32.933  1.00  0.00    -0.744 OA
ENDBRANCH  74  78
ENDBRANCH  57  71
BRANCH  58  82
ATOM     82  C   UNL A   1      44.842  26.503  33.671  1.00  0.00     0.023 A 
ATOM     83  C   UNL A   1      43.858  26.636  34.676  1.00  0.00     0.031 A 
ATOM     84  C   UNL A   1      46.054  25.886  34.052  1.00  0.00     0.131 A 
ATOM     85  C   UNL A   1      44.102  26.153  35.985  1.00  0.00     0.055 A 
ATOM     86  C   UNL A   1      46.290  25.410  35.344  1.00  0.00     0.041 A 
ATOM     87  F   UNL A   1      47.020  25.639  33.153  1.00  0.00    -0.206 F 
ATOM     88  C   UNL A   1      45.310  25.531  36.315  1.00  0.00     0.022 A 
BRANCH  85  89
ATOM     89  S   UNL A   1      42.806  26.230  37.268  1.00  0.00     0.124 S 
ATOM     90  O   UNL A   1      42.073  27.436  36.899  1.00  0.00    -0.237 OA
ATOM     91  O   UNL A   1      42.108  24.962  37.085  1.00  0.00    -0.237 OA
ATOM     92  O   UNL A   1      43.565  26.331  38.515  1.00  0.00    -0.744 OA
ENDBRANCH  85  89
ENDBRANCH  58  82
BRANCH  70  93
ATOM     93  C   UNL A   1      45.545  28.905  27.918  1.00  0.00     0.023 A 
ATOM     94  C   UNL A   1      46.048  27.611  27.642  1.00  0.00     0.031 A 
ATOM     95  C   UNL A   1      46.347  30.001  27.557  1.00  0.00     0.131 A 
ATOM     96  C   UNL A   1      47.317  27.456  27.050  1.00  0.00     0.055 A 
ATOM     97  C   UNL A   1      47.591  29.846  26.947  1.00  0.00     0.041 A 
ATOM     98  F   UNL A   1      45.918  31.258  27.767  1.00  0.00    -0.206 F 
ATOM     99  C   UNL A   1      48.085  28.570  26.698  1.00  0.00     0.022 A 
BRANCH  96 100
ATOM    100  S   UNL A   1      48.008  25.796  26.748  1.00  0.00     0.124 S 
ATOM    101  O   UNL A   1      47.028  24.902  27.352  1.00  0.00    -0.237 OA
ATOM    102  O   UNL A   1      48.100  25.751  25.291  1.00  0.00    -0.237 OA
ATOM    103  O   UNL A   1      49.300  25.835  27.437  1.00  0.00    -0.744 OA
ENDBRANCH  96 100
ENDBRANCH  70  93
ENDBRANCH  44  45
ENDBRANCH  36  39
ENDBRANCH  34  35
ENDBRANCH  33  34
ENDBRANCH  32  33
ENDBRANCH   1  32
TORSDOF 20
ENDMDL
MODEL 2
REMARK VINA RESULT:     -12.1      3.030      8.153
REMARK SMILES COc1ccc(-n2ccnc2C[N@@H+]2CCn3nc(C(=O)NCCCCCCNC(=O)c4ccc(-c5c6nc(c(-c7cc(S(=O)(=O)[O-])ccc7F)c7ccc([nH]7)c(-c7cc(S(=O)(=O)[O-])ccc7F)c7nc(c(-c8cc(S(=O)(=O)[O-])ccc8F)c8ccc5[nH]8)C=C7)C=C6)cc4)cc3C2)cc1
REMARK SMILES IDX 24 1 23 2 22 3 21 4 19 5 20 6 18 8 13 9 14 10 96 11 15 13
REMARK SMILES IDX 95 14 16 15 94 16 17 17 12 18 11 19 7 20 8 21 9 22 10 23
REMARK SMILES IDX 6 24 3 25 4 26 98 27 5 28 97 29 2 30 1 31 25 32 26 33 27 34
REMARK SMILES IDX 28 35 29 36 30 38 31 39 32 40 93 41 33 42 92 43 34 44 35 45
REMARK SMILES IDX 36 46 86 47 37 48 91 49 85 50 87 51 38 52 90 53 84 54 83 55
REMARK SMILES IDX 39 57 71 58 51 59 70 60 52 61 55 62 69 63 88 64 53 65 54 66
REMARK SMILES IDX 68 68 89 69 56 70 40 71 41 72 49 73 42 74 48 75 50 76 47 77
REMARK SMILES IDX 43 78 44 79 45 80 46 81 72 82 73 83 81 84 74 85 80 86 82 87
REMARK SMILES IDX 79 88 75 89 76 90 77 91 78 92 57 93 58 94 66 95 59 96 65 97
REMARK SMILES IDX 67 98 64 99 60 100 61 101 62 102 63 103
REMARK H PARENT 21 7 13 12 28 37 87 56 55 67
REMARK Flexibility Score: inf
ROOT
ATOM      1  C   UNL A   1      32.456  28.894  25.355  1.00  0.00     0.002 C 
ENDROOT
BRANCH   1   2
ATOM      2  C   UNL A   1      32.861  29.118  23.880  1.00  0.00     0.021 C 
BRANCH   2   3
ATOM      3  C   UNL A   1      34.006  28.217  23.383  1.00  0.00     0.116 C 
BRANCH   3   4
ATOM      4  N   UNL A   1      33.612  27.161  22.409  1.00  0.00    -0.351 N 
ATOM      5  C   UNL A   1      32.825  26.049  22.133  1.00  0.00     0.271 C 
ATOM      6  O   UNL A   1      33.132  25.582  21.023  1.00  0.00    -0.267 OA
ATOM      7  H   UNL A   1      34.147  27.325  21.599  1.00  0.00     0.163 HD
BRANCH   5   8
ATOM      8  C   UNL A   1      31.638  25.405  22.832  1.00  0.00     0.150 A 
ATOM      9  N   UNL A   1      32.431  24.593  26.371  1.00  0.00    -0.322 N 
ATOM     10  C   UNL A   1      31.808  23.276  26.450  1.00  0.00     0.286 C 
ATOM     11  C   UNL A   1      31.363  25.624  26.149  1.00  0.00     0.319 C 
ATOM     12  H   UNL A   1      32.903  24.772  27.257  1.00  0.00     0.348 HD
ATOM     13  C   UNL A   1      30.856  22.972  25.282  1.00  0.00     0.206 C 
ATOM     14  C   UNL A   1      30.669  25.401  24.828  1.00  0.00     0.094 A 
ATOM     15  N   UNL A   1      30.757  24.111  24.357  1.00  0.00    -0.257 N 
ATOM     16  C   UNL A   1      30.716  26.138  23.650  1.00  0.00     0.065 A 
ATOM     17  N   UNL A   1      31.510  24.127  23.235  1.00  0.00    -0.167 NA
BRANCH   9  18
ATOM     18  C   UNL A   1      33.519  24.679  25.341  1.00  0.00     0.339 C 
BRANCH  18  19
ATOM     19  C   UNL A   1      34.802  23.807  25.338  1.00  0.00     0.168 A 
ATOM     20  N   UNL A   1      35.198  22.459  24.954  1.00  0.00    -0.299 N 
ATOM     21  C   UNL A   1      36.593  22.514  24.979  1.00  0.00     0.113 A 
ATOM     22  C   UNL A   1      36.977  23.730  25.444  1.00  0.00     0.132 A 
ATOM     23  N   UNL A   1      35.894  24.483  25.708  1.00  0.00    -0.236 NA
BRANCH  20  24
ATOM     24  C   UNL A   1      34.626  21.153  24.591  1.00  0.00     0.047 A 
ATOM     25  C   UNL A   1      33.305  18.616  24.127  1.00  0.00     0.119 A 
ATOM     26  C   UNL A   1      34.576  18.660  24.640  1.00  0.00     0.048 A 
ATOM     27  C   UNL A   1      32.641  19.825  23.948  1.00  0.00     0.048 A 
ATOM     28  C   UNL A   1      35.162  19.913  24.911  1.00  0.00     0.030 A 
ATOM     29  C   UNL A   1      33.294  21.071  24.156  1.00  0.00     0.030 A 
BRANCH  25  30
ATOM     30  O   UNL A   1      32.624  17.455  23.903  1.00  0.00    -0.497 OA
ATOM     31  C   UNL A   1      33.411  16.263  24.013  1.00  0.00     0.278 C 
ENDBRANCH  25  30
ENDBRANCH  20  24
ENDBRANCH  18  19
ENDBRANCH   9  18
ENDBRANCH   5   8
ENDBRANCH   3   4
ENDBRANCH   2   3
ENDBRANCH   1   2
BRANCH   1  32
ATOM     32  C   UNL A   1      33.431  29.387  26.445  1.00  0.00     0.002 C 
BRANCH  32  33
ATOM     33  C   UNL A   1      33.045  30.654  27.229  1.00  0.00     0.021 C 
BRANCH  33  34
ATOM     34  C   UNL A   1      34.168  31.669  27.447  1.00  0.00     0.116 C 
BRANCH  34  35
ATOM     35  N   UNL A   1      34.138  32.314  28.759  1.00  0.00    -0.352 N 
ATOM     36  C   UNL A   1      34.936  32.040  29.865  1.00  0.00     0.251 C 
ATOM     37  H   UNL A   1      33.474  33.030  28.873  1.00  0.00     0.163 HD
ATOM     38  O   UNL A   1      34.576  32.359  30.979  1.00  0.00    -0.269 OA
BRANCH  36  39
ATOM     39  C   UNL A   1      36.225  31.341  29.654  1.00  0.00     0.039 A 
ATOM     40  C   UNL A   1      37.439  32.031  29.706  1.00  0.00     0.014 A 
ATOM     41  C   UNL A   1      36.206  29.967  29.426  1.00  0.00     0.014 A 
ATOM     42  C   UNL A   1      38.631  31.307  29.640  1.00  0.00     0.010 A 
ATOM     43  C   UNL A   1      37.376  29.241  29.481  1.00  0.00     0.010 A 
ATOM     44  C   UNL A   1      38.597  29.902  29.566  1.00  0.00    -0.014 A 
BRANCH  44  45
ATOM     45  C   UNL A   1      39.824  29.117  29.740  1.00  0.00     0.031 A 
ATOM     46  C   UNL A   1      40.186  28.845  31.159  1.00  0.00     0.074 A 
ATOM     47  C   UNL A   1      40.498  28.504  28.742  1.00  0.00     0.049 A 
ATOM     48  N   UNL A   1      41.179  29.341  31.817  1.00  0.00    -0.248 NA
ATOM     49  C   UNL A   1      39.266  28.053  31.991  1.00  0.00     0.031 C 
ATOM     50  C   UNL A   1      40.157  28.438  27.318  1.00  0.00     0.029 A 
ATOM     51  N   UNL A   1      41.609  27.712  28.815  1.00  0.00    -0.354 N 
ATOM     52  C   UNL A   1      41.156  28.746  33.074  1.00  0.00     0.074 A 
ATOM     53  C   UNL A   1      39.865  28.119  33.184  1.00  0.00     0.031 C 
ATOM     54  C   UNL A   1      40.897  27.483  26.713  1.00  0.00     0.029 A 
ATOM     55  C   UNL A   1      41.883  26.988  27.657  1.00  0.00     0.049 A 
ATOM     56  H   UNL A   1      42.171  27.658  29.622  1.00  0.00     0.167 HD
ATOM     57  C   UNL A   1      42.294  28.639  33.818  1.00  0.00     0.034 A 
ATOM     58  C   UNL A   1      42.853  26.051  27.471  1.00  0.00     0.034 A 
ATOM     59  C   UNL A   1      43.333  29.501  33.294  1.00  0.00     0.049 A 
ATOM     60  C   UNL A   1      43.910  26.328  28.474  1.00  0.00     0.074 A 
ATOM     61  C   UNL A   1      43.440  30.860  33.064  1.00  0.00     0.029 A 
ATOM     62  N   UNL A   1      44.333  28.925  32.541  1.00  0.00    -0.354 N 
ATOM     63  N   UNL A   1      44.638  27.408  28.451  1.00  0.00    -0.248 NA
ATOM     64  C   UNL A   1      43.829  25.664  29.765  1.00  0.00     0.031 C 
ATOM     65  C   UNL A   1      44.118  30.964  31.813  1.00  0.00     0.029 A 
ATOM     66  C   UNL A   1      44.470  29.678  31.400  1.00  0.00     0.049 A 
ATOM     67  H   UNL A   1      44.852  28.122  32.776  1.00  0.00     0.167 HD
ATOM     68  C   UNL A   1      44.715  27.812  29.775  1.00  0.00     0.074 A 
ATOM     69  C   UNL A   1      44.299  26.642  30.547  1.00  0.00     0.031 C 
ATOM     70  C   UNL A   1      44.832  29.133  30.105  1.00  0.00     0.034 A 
BRANCH  57  71
ATOM     71  C   UNL A   1      42.613  27.517  34.782  1.00  0.00     0.023 A 
ATOM     72  C   UNL A   1      43.434  26.475  34.305  1.00  0.00     0.031 A 
ATOM     73  C   UNL A   1      41.939  27.257  35.995  1.00  0.00     0.131 A 
ATOM     74  C   UNL A   1      43.459  25.222  34.939  1.00  0.00     0.055 A 
ATOM     75  C   UNL A   1      42.023  26.031  36.663  1.00  0.00     0.041 A 
ATOM     76  F   UNL A   1      41.090  28.126  36.554  1.00  0.00    -0.206 F 
ATOM     77  C   UNL A   1      42.757  24.991  36.117  1.00  0.00     0.022 A 
BRANCH  74  78
ATOM     78  S   UNL A   1      44.269  23.845  34.085  1.00  0.00     0.124 S 
ATOM     79  O   UNL A   1      45.130  23.317  35.138  1.00  0.00    -0.237 OA
ATOM     80  O   UNL A   1      43.130  23.016  33.705  1.00  0.00    -0.237 OA
ATOM     81  O   UNL A   1      44.965  24.497  32.979  1.00  0.00    -0.744 OA
ENDBRANCH  74  78
ENDBRANCH  57  71
BRANCH  58  82
ATOM     82  C   UNL A   1      42.798  24.805  26.658  1.00  0.00     0.023 A 
ATOM     83  C   UNL A   1      43.862  24.369  25.838  1.00  0.00     0.031 A 
ATOM     84  C   UNL A   1      41.761  23.875  26.894  1.00  0.00     0.131 A 
ATOM     85  C   UNL A   1      43.864  23.056  25.306  1.00  0.00     0.055 A 
ATOM     86  C   UNL A   1      41.767  22.581  26.368  1.00  0.00     0.041 A 
ATOM     87  F   UNL A   1      40.746  24.164  27.725  1.00  0.00    -0.206 F 
ATOM     88  C   UNL A   1      42.826  22.161  25.579  1.00  0.00     0.022 A 
BRANCH  85  89
ATOM     89  S   UNL A   1      45.277  22.446  24.326  1.00  0.00     0.124 S 
ATOM     90  O   UNL A   1      44.623  21.639  23.303  1.00  0.00    -0.237 OA
ATOM     91  O   UNL A   1      45.905  23.684  23.875  1.00  0.00    -0.237 OA
ATOM     92  O   UNL A   1      46.064  21.685  25.297  1.00  0.00    -0.744 OA
ENDBRANCH  85  89
ENDBRANCH  58  82
BRANCH  70  93
ATOM     93  C   UNL A   1      45.159  30.124  29.001  1.00  0.00     0.023 A 
ATOM     94  C   UNL A   1      46.465  30.497  28.604  1.00  0.00     0.031 A 
ATOM     95  C   UNL A   1      44.085  30.634  28.251  1.00  0.00     0.131 A 
ATOM     96  C   UNL A   1      46.653  31.367  27.512  1.00  0.00     0.055 A 
ATOM     97  C   UNL A   1      44.274  31.473  27.154  1.00  0.00     0.041 A 
ATOM     98  F   UNL A   1      42.820  30.299  28.557  1.00  0.00    -0.206 F 
ATOM     99  C   UNL A   1      45.560  31.849  26.784  1.00  0.00     0.022 A 
BRANCH  96 100
ATOM    100  S   UNL A   1      48.325  31.910  27.029  1.00  0.00     0.124 S 
ATOM    101  O   UNL A   1      48.074  32.971  26.061  1.00  0.00    -0.237 OA
ATOM    102  O   UNL A   1      48.902  32.331  28.303  1.00  0.00    -0.237 OA
ATOM    103  O   UNL A   1      48.925  30.700  26.462  1.00  0.00    -0.744 OA
ENDBRANCH  96 100
ENDBRANCH  70  93
ENDBRANCH  44  45
ENDBRANCH  36  39
ENDBRANCH  34  35
ENDBRANCH  33  34
ENDBRANCH  32  33
ENDBRANCH   1  32
TORSDOF 20
ENDMDL
MODEL 3
REMARK VINA RESULT:     -11.8      4.082      9.538
REMARK SMILES COc1ccc(-n2ccnc2C[N@@H+]2CCn3nc(C(=O)NCCCCCCNC(=O)c4ccc(-c5c6nc(c(-c7cc(S(=O)(=O)[O-])ccc7F)c7ccc([nH]7)c(-c7cc(S(=O)(=O)[O-])ccc7F)c7nc(c(-c8cc(S(=O)(=O)[O-])ccc8F)c8ccc5[nH]8)C=C7)C=C6)cc4)cc3C2)cc1
REMARK SMILES IDX 24 1 23 2 22 3 21 4 19 5 20 6 18 8 13 9 14 10 96 11 15 13
REMARK SMILES IDX 95 14 16 15 94 16 17 17 12 18 11 19 7 20 8 21 9 22 10 23
REMARK SMILES IDX 6 24 3 25 4 26 98 27 5 28 97 29 2 30 1 31 25 32 26 33 27 34
REMARK SMILES IDX 28 35 29 36 30 38 31 39 32 40 93 41 33 42 92 43 34 44 35 45
REMARK SMILES IDX 36 46 86 47 37 48 91 49 85 50 87 51 38 52 90 53 84 54 83 55
REMARK SMILES IDX 39 57 71 58 51 59 70 60 52 61 55 62 69 63 88 64 53 65 54 66
REMARK SMILES IDX 68 68 89 69 56 70 40 71 41 72 49 73 42 74 48 75 50 76 47 77
REMARK SMILES IDX 43 78 44 79 45 80 46 81 72 82 73 83 81 84 74 85 80 86 82 87
REMARK SMILES IDX 79 88 75 89 76 90 77 91 78 92 57 93 58 94 66 95 59 96 65 97
REMARK SMILES IDX 67 98 64 99 60 100 61 101 62 102 63 103
REMARK H PARENT 21 7 13 12 28 37 87 56 55 67
REMARK Flexibility Score: inf
ROOT
ATOM      1  C   UNL A   1      31.241  29.102  24.186  1.00  0.00     0.002 C 
ENDROOT
BRANCH   1   2
ATOM      2  C   UNL A   1      31.776  29.028  22.737  1.00  0.00     0.021 C 
BRANCH   2   3
ATOM      3  C   UNL A   1      33.105  28.269  22.581  1.00  0.00     0.116 C 
BRANCH   3   4
ATOM      4  N   UNL A   1      33.004  26.924  21.948  1.00  0.00    -0.351 N 
ATOM      5  C   UNL A   1      32.464  25.644  21.986  1.00  0.00     0.271 C 
ATOM      6  O   UNL A   1      32.951  24.955  21.072  1.00  0.00    -0.267 OA
ATOM      7  H   UNL A   1      33.571  26.958  21.144  1.00  0.00     0.163 HD
BRANCH   5   8
ATOM      8  C   UNL A   1      31.357  24.995  22.803  1.00  0.00     0.150 A 
ATOM      9  N   UNL A   1      32.342  24.643  26.369  1.00  0.00    -0.322 N 
ATOM     10  C   UNL A   1      31.828  23.301  26.618  1.00  0.00     0.286 C 
ATOM     11  C   UNL A   1      31.189  25.562  26.086  1.00  0.00     0.319 C 
ATOM     12  H   UNL A   1      32.831  24.954  27.208  1.00  0.00     0.348 HD
ATOM     13  C   UNL A   1      30.861  22.799  25.534  1.00  0.00     0.206 C 
ATOM     14  C   UNL A   1      30.467  25.142  24.830  1.00  0.00     0.094 A 
ATOM     15  N   UNL A   1      30.638  23.817  24.497  1.00  0.00    -0.257 N 
ATOM     16  C   UNL A   1      30.412  25.745  23.578  1.00  0.00     0.065 A 
ATOM     17  N   UNL A   1      31.346  23.764  23.347  1.00  0.00    -0.167 NA
BRANCH   9  18
ATOM     18  C   UNL A   1      33.382  24.694  25.288  1.00  0.00     0.339 C 
BRANCH  18  19
ATOM     19  C   UNL A   1      34.625  23.769  25.214  1.00  0.00     0.168 A 
ATOM     20  N   UNL A   1      34.929  22.386  24.877  1.00  0.00    -0.299 N 
ATOM     21  C   UNL A   1      36.321  22.382  24.763  1.00  0.00     0.113 A 
ATOM     22  C   UNL A   1      36.795  23.605  25.113  1.00  0.00     0.132 A 
ATOM     23  N   UNL A   1      35.773  24.418  25.433  1.00  0.00    -0.236 NA
BRANCH  20  24
ATOM     24  C   UNL A   1      34.276  21.086  24.653  1.00  0.00     0.047 A 
ATOM     25  C   UNL A   1      33.206  18.478  23.981  1.00  0.00     0.119 A 
ATOM     26  C   UNL A   1      32.537  19.622  23.628  1.00  0.00     0.048 A 
ATOM     27  C   UNL A   1      34.460  18.622  24.567  1.00  0.00     0.048 A 
ATOM     28  C   UNL A   1      33.120  20.873  23.916  1.00  0.00     0.030 A 
ATOM     29  C   UNL A   1      34.977  19.899  24.916  1.00  0.00     0.030 A 
BRANCH  25  30
ATOM     30  O   UNL A   1      32.764  17.224  23.679  1.00  0.00    -0.497 OA
ATOM     31  C   UNL A   1      33.411  16.166  24.396  1.00  0.00     0.278 C 
ENDBRANCH  25  30
ENDBRANCH  20  24
ENDBRANCH  18  19
ENDBRANCH   9  18
ENDBRANCH   5   8
ENDBRANCH   3   4
ENDBRANCH   2   3
ENDBRANCH   1   2
BRANCH   1  32
ATOM     32  C   UNL A   1      32.216  29.578  25.283  1.00  0.00     0.002 C 
BRANCH  32  33
ATOM     33  C   UNL A   1      31.672  30.539  26.356  1.00  0.00     0.021 C 
BRANCH  33  34
ATOM     34  C   UNL A   1      32.722  31.353  27.112  1.00  0.00     0.116 C 
BRANCH  34  35
ATOM     35  N   UNL A   1      32.382  32.767  27.264  1.00  0.00    -0.352 N 
ATOM     36  C   UNL A   1      32.968  33.702  28.111  1.00  0.00     0.251 C 
ATOM     37  H   UNL A   1      31.649  33.098  26.698  1.00  0.00     0.163 HD
ATOM     38  O   UNL A   1      32.372  34.711  28.423  1.00  0.00    -0.269 OA
BRANCH  36  39
ATOM     39  C   UNL A   1      34.329  33.432  28.632  1.00  0.00     0.039 A 
ATOM     40  C   UNL A   1      34.524  32.656  29.778  1.00  0.00     0.014 A 
ATOM     41  C   UNL A   1      35.420  33.949  27.939  1.00  0.00     0.014 A 
ATOM     42  C   UNL A   1      35.826  32.315  30.148  1.00  0.00     0.010 A 
ATOM     43  C   UNL A   1      36.695  33.515  28.233  1.00  0.00     0.010 A 
ATOM     44  C   UNL A   1      36.913  32.714  29.349  1.00  0.00    -0.014 A 
BRANCH  44  45
ATOM     45  C   UNL A   1      38.252  32.166  29.584  1.00  0.00     0.031 A 
ATOM     46  C   UNL A   1      38.396  30.722  29.245  1.00  0.00     0.074 A 
ATOM     47  C   UNL A   1      39.346  32.899  29.892  1.00  0.00     0.049 A 
ATOM     48  N   UNL A   1      38.554  29.742  30.070  1.00  0.00    -0.248 NA
ATOM     49  C   UNL A   1      38.194  30.292  27.852  1.00  0.00     0.031 C 
ATOM     50  C   UNL A   1      39.461  34.355  30.014  1.00  0.00     0.029 A 
ATOM     51  N   UNL A   1      40.634  32.485  30.073  1.00  0.00    -0.354 N 
ATOM     52  C   UNL A   1      38.713  28.597  29.296  1.00  0.00     0.074 A 
ATOM     53  C   UNL A   1      38.295  28.965  27.968  1.00  0.00     0.031 C 
ATOM     54  C   UNL A   1      40.765  34.712  30.023  1.00  0.00     0.029 A 
ATOM     55  C   UNL A   1      41.578  33.510  30.081  1.00  0.00     0.049 A 
ATOM     56  H   UNL A   1      40.877  31.537  30.189  1.00  0.00     0.167 HD
ATOM     57  C   UNL A   1      39.385  27.514  29.779  1.00  0.00     0.034 A 
ATOM     58  C   UNL A   1      42.933  33.394  30.140  1.00  0.00     0.034 A 
ATOM     59  C   UNL A   1      39.551  27.611  31.214  1.00  0.00     0.049 A 
ATOM     60  C   UNL A   1      43.221  32.079  30.760  1.00  0.00     0.074 A 
ATOM     61  C   UNL A   1      38.683  27.729  32.284  1.00  0.00     0.029 A 
ATOM     62  N   UNL A   1      40.780  28.000  31.698  1.00  0.00    -0.354 N 
ATOM     63  N   UNL A   1      42.921  31.801  31.998  1.00  0.00    -0.248 NA
ATOM     64  C   UNL A   1      43.384  30.924  29.891  1.00  0.00     0.031 C 
ATOM     65  C   UNL A   1      39.311  28.666  33.159  1.00  0.00     0.029 A 
ATOM     66  C   UNL A   1      40.559  28.990  32.625  1.00  0.00     0.049 A 
ATOM     67  H   UNL A   1      41.656  27.638  31.429  1.00  0.00     0.167 HD
ATOM     68  C   UNL A   1      42.407  30.515  31.959  1.00  0.00     0.074 A 
ATOM     69  C   UNL A   1      42.824  29.985  30.661  1.00  0.00     0.031 C 
ATOM     70  C   UNL A   1      41.458  30.106  32.855  1.00  0.00     0.034 A 
BRANCH  57  71
ATOM     71  C   UNL A   1      40.210  26.550  28.953  1.00  0.00     0.023 A 
ATOM     72  C   UNL A   1      41.472  27.000  28.514  1.00  0.00     0.031 A 
ATOM     73  C   UNL A   1      39.729  25.377  28.333  1.00  0.00     0.131 A 
ATOM     74  C   UNL A   1      42.127  26.382  27.437  1.00  0.00     0.055 A 
ATOM     75  C   UNL A   1      40.419  24.722  27.308  1.00  0.00     0.041 A 
ATOM     76  F   UNL A   1      38.531  24.850  28.608  1.00  0.00    -0.206 F 
ATOM     77  C   UNL A   1      41.608  25.244  26.827  1.00  0.00     0.022 A 
BRANCH  74  78
ATOM     78  S   UNL A   1      43.569  27.212  26.720  1.00  0.00     0.124 S 
ATOM     79  O   UNL A   1      43.079  28.579  26.584  1.00  0.00    -0.237 OA
ATOM     80  O   UNL A   1      44.584  26.989  27.746  1.00  0.00    -0.237 OA
ATOM     81  O   UNL A   1      43.782  26.496  25.465  1.00  0.00    -0.744 OA
ENDBRANCH  74  78
ENDBRANCH  57  71
BRANCH  58  82
ATOM     82  C   UNL A   1      43.967  34.231  29.472  1.00  0.00     0.023 A 
ATOM     83  C   UNL A   1      44.564  33.886  28.238  1.00  0.00     0.031 A 
ATOM     84  C   UNL A   1      44.192  35.546  29.935  1.00  0.00     0.131 A 
ATOM     85  C   UNL A   1      45.331  34.838  27.524  1.00  0.00     0.055 A 
ATOM     86  C   UNL A   1      44.949  36.482  29.227  1.00  0.00     0.041 A 
ATOM     87  F   UNL A   1      43.603  35.998  31.055  1.00  0.00    -0.206 F 
ATOM     88  C   UNL A   1      45.514  36.135  28.010  1.00  0.00     0.022 A 
BRANCH  85  89
ATOM     89  S   UNL A   1      46.027  34.438  25.884  1.00  0.00     0.124 S 
ATOM     90  O   UNL A   1      44.855  34.517  25.020  1.00  0.00    -0.237 OA
ATOM     91  O   UNL A   1      47.036  35.477  25.709  1.00  0.00    -0.237 OA
ATOM     92  O   UNL A   1      46.567  33.089  26.062  1.00  0.00    -0.744 OA
ENDBRANCH  85  89
ENDBRANCH  58  82
BRANCH  70  93
ATOM     93  C   UNL A   1      41.182  30.985  34.061  1.00  0.00     0.023 A 
ATOM     94  C   UNL A   1      40.255  32.054  34.092  1.00  0.00     0.031 A 
ATOM     95  C   UNL A   1      41.821  30.649  35.267  1.00  0.00     0.131 A 
ATOM     96  C   UNL A   1      40.019  32.754  35.292  1.00  0.00     0.055 A 
ATOM     97  C   UNL A   1      41.566  31.325  36.459  1.00  0.00     0.041 A 
ATOM     98  F   UNL A   1      42.693  29.627  35.314  1.00  0.00    -0.206 F 
ATOM     99  C   UNL A   1      40.669  32.386  36.475  1.00  0.00     0.022 A 
BRANCH  96 100
ATOM    100  S   UNL A   1      38.878  34.175  35.335  1.00  0.00     0.124 S 
ATOM    101  O   UNL A   1      38.785  34.581  33.937  1.00  0.00    -0.237 OA
ATOM    102  O   UNL A   1      37.669  33.594  35.912  1.00  0.00    -0.237 OA
ATOM    103  O   UNL A   1      39.564  35.135  36.203  1.00  0.00    -0.744 OA
ENDBRANCH  96 100
ENDBRANCH  70  93
ENDBRANCH  44  45
ENDBRANCH  36  39
ENDBRANCH  34  35
ENDBRANCH  33  34
ENDBRANCH  32  33
ENDBRANCH   1  32
TORSDOF 20
ENDMDL
