MODEL 1
REMARK VINA RESULT:     -11.4      0.000      0.000
REMARK SMILES Cc1nc(C[N@@H+]2CCC[C@H]2C(=O)NCCCCCCNC(=O)c2ccc(-c3c4nc(c(-c5cc(S(=O)(=O)[O-])ccc5F)c5ccc([nH]5)c(-c5cc(S(=O)(=O)[O-])ccc5F)c5nc(c(-c6cc(S(=O)(=O)[O-])ccc6F)c6ccc3[nH]6)C=C5)C=C4)cc2)cs1
REMARK SMILES IDX 17 1 16 2 15 3 14 4 13 5 11 6 12 7 10 9 6 10 7 11 8 13 9 14
REMARK SMILES IDX 5 15 4 16 1 17 2 18 3 19 87 20 86 21 18 22 19 23 20 24 21 25
REMARK SMILES IDX 22 27 23 28 24 29 85 30 25 31 84 32 26 33 27 34 28 35 78 36
REMARK SMILES IDX 29 37 83 38 77 39 79 40 30 41 82 42 76 43 75 44 31 46 63 47
REMARK SMILES IDX 43 48 62 49 44 50 47 51 61 52 80 53 45 54 46 55 60 57 81 58
REMARK SMILES IDX 48 59 32 60 33 61 41 62 34 63 40 64 42 65 39 66 35 67 36 68
REMARK SMILES IDX 37 69 38 70 64 71 65 72 73 73 66 74 72 75 74 76 71 77 67 78
REMARK SMILES IDX 68 79 69 80 70 81 49 82 50 83 58 84 51 85 57 86 59 87 56 88
REMARK SMILES IDX 52 89 53 90 54 91 55 92
REMARK H PARENT 13 8 6 12 20 26 79 45 47 56
REMARK Flexibility Score: inf
ROOT
ATOM      1  C   UNL A   1      31.740  28.332  25.211  1.00  0.00     0.002 C 
ENDROOT
BRANCH   1   2
ATOM      2  C   UNL A   1      30.729  27.854  24.163  1.00  0.00     0.002 C 
BRANCH   2   3
ATOM      3  C   UNL A   1      31.145  26.606  23.381  1.00  0.00     0.021 C 
BRANCH   3   4
ATOM      4  C   UNL A   1      32.122  25.695  24.116  1.00  0.00     0.116 C 
BRANCH   4   5
ATOM      5  N   UNL A   1      32.939  24.936  23.189  1.00  0.00    -0.351 N 
ATOM      6  C   UNL A   1      33.875  23.966  23.360  1.00  0.00     0.278 C 
ATOM      7  O   UNL A   1      34.431  23.583  22.319  1.00  0.00    -0.268 OA
ATOM      8  H   UNL A   1      32.783  25.170  22.246  1.00  0.00     0.163 HD
BRANCH   6   9
ATOM      9  C   UNL A   1      34.310  23.385  24.727  1.00  0.00     0.274 C 
ATOM     10  N   UNL A   1      35.149  22.183  24.624  1.00  0.00    -0.320 N 
ATOM     11  C   UNL A   1      36.541  22.575  24.744  1.00  0.00     0.263 C 
ATOM     12  H   UNL A   1      35.041  21.773  23.696  1.00  0.00     0.349 HD
ATOM     13  C   UNL A   1      36.543  23.782  25.654  1.00  0.00     0.068 C 
ATOM     14  C   UNL A   1      35.176  24.421  25.463  1.00  0.00     0.081 C 
BRANCH  10  15
ATOM     15  C   UNL A   1      34.700  21.043  25.428  1.00  0.00     0.321 C 
BRANCH  15  16
ATOM     16  C   UNL A   1      33.986  19.967  24.667  1.00  0.00     0.106 A 
ATOM     17  C   UNL A   1      34.078  16.466  23.624  1.00  0.00     0.079 C 
ATOM     18  C   UNL A   1      33.774  17.896  23.899  1.00  0.00     0.090 A 
ATOM     19  N   UNL A   1      34.579  18.716  24.540  1.00  0.00    -0.241 NA
ATOM     20  S   UNL A   1      32.293  18.581  23.366  1.00  0.00    -0.127 S 
ATOM     21  C   UNL A   1      32.726  20.061  24.102  1.00  0.00     0.096 A 
ENDBRANCH  15  16
ENDBRANCH  10  15
ENDBRANCH   6   9
ENDBRANCH   4   5
ENDBRANCH   3   4
ENDBRANCH   2   3
ENDBRANCH   1   2
BRANCH   1  22
ATOM     22  C   UNL A   1      31.904  29.850  25.315  1.00  0.00     0.021 C 
BRANCH  22  23
ATOM     23  C   UNL A   1      31.885  30.397  26.738  1.00  0.00     0.116 C 
BRANCH  23  24
ATOM     24  N   UNL A   1      31.908  31.849  26.762  1.00  0.00    -0.352 N 
ATOM     25  C   UNL A   1      32.769  32.691  27.421  1.00  0.00     0.251 C 
ATOM     26  H   UNL A   1      31.206  32.292  26.233  1.00  0.00     0.163 HD
ATOM     27  O   UNL A   1      32.509  33.885  27.501  1.00  0.00    -0.269 OA
BRANCH  25  28
ATOM     28  C   UNL A   1      33.995  32.145  28.048  1.00  0.00     0.039 A 
ATOM     29  C   UNL A   1      34.922  33.032  28.601  1.00  0.00     0.014 A 
ATOM     30  C   UNL A   1      34.240  30.770  28.073  1.00  0.00     0.014 A 
ATOM     31  C   UNL A   1      36.073  32.534  29.217  1.00  0.00     0.010 A 
ATOM     32  C   UNL A   1      35.347  30.272  28.755  1.00  0.00     0.010 A 
ATOM     33  C   UNL A   1      36.285  31.149  29.322  1.00  0.00    -0.014 A 
BRANCH  33  34
ATOM     34  C   UNL A   1      37.505  30.600  29.972  1.00  0.00     0.031 A 
ATOM     35  C   UNL A   1      37.863  31.035  31.370  1.00  0.00     0.074 A 
ATOM     36  C   UNL A   1      38.302  29.745  29.302  1.00  0.00     0.049 A 
ATOM     37  N   UNL A   1      38.921  30.744  32.083  1.00  0.00    -0.248 NA
ATOM     38  C   UNL A   1      36.918  31.941  32.042  1.00  0.00     0.031 C 
ATOM     39  C   UNL A   1      38.070  29.261  27.939  1.00  0.00     0.029 A 
ATOM     40  N   UNL A   1      39.473  29.129  29.674  1.00  0.00    -0.354 N 
ATOM     41  C   UNL A   1      38.769  31.430  33.283  1.00  0.00     0.074 A 
ATOM     42  C   UNL A   1      37.557  32.211  33.170  1.00  0.00     0.031 C 
ATOM     43  C   UNL A   1      39.049  28.404  27.604  1.00  0.00     0.029 A 
ATOM     44  C   UNL A   1      40.005  28.314  28.702  1.00  0.00     0.049 A 
ATOM     45  H   UNL A   1      39.892  29.260  30.556  1.00  0.00     0.167 HD
ATOM     46  C   UNL A   1      39.550  31.387  34.392  1.00  0.00     0.034 A 
ATOM     47  C   UNL A   1      41.141  27.586  28.695  1.00  0.00     0.034 A 
ATOM     48  C   UNL A   1      40.751  30.597  34.497  1.00  0.00     0.049 A 
ATOM     49  C   UNL A   1      42.021  27.601  29.924  1.00  0.00     0.074 A 
ATOM     50  C   UNL A   1      41.611  30.475  35.574  1.00  0.00     0.029 A 
ATOM     51  N   UNL A   1      41.261  29.788  33.489  1.00  0.00    -0.354 N 
ATOM     52  N   UNL A   1      41.852  28.242  31.057  1.00  0.00    -0.248 NA
ATOM     53  C   UNL A   1      43.239  26.782  29.876  1.00  0.00     0.031 C 
ATOM     54  C   UNL A   1      42.671  29.643  35.197  1.00  0.00     0.029 A 
ATOM     55  C   UNL A   1      42.430  29.178  33.915  1.00  0.00     0.049 A 
ATOM     56  H   UNL A   1      40.852  29.666  32.602  1.00  0.00     0.167 HD
ATOM     57  C   UNL A   1      42.913  27.856  31.873  1.00  0.00     0.074 A 
ATOM     58  C   UNL A   1      43.707  26.922  31.106  1.00  0.00     0.031 C 
ATOM     59  C   UNL A   1      43.203  28.235  33.144  1.00  0.00     0.034 A 
BRANCH  46  60
ATOM     60  C   UNL A   1      39.127  32.229  35.573  1.00  0.00     0.023 A 
ATOM     61  C   UNL A   1      39.553  33.561  35.714  1.00  0.00     0.031 A 
ATOM     62  C   UNL A   1      38.299  31.694  36.575  1.00  0.00     0.131 A 
ATOM     63  C   UNL A   1      39.207  34.291  36.861  1.00  0.00     0.055 A 
ATOM     64  C   UNL A   1      37.888  32.453  37.673  1.00  0.00     0.041 A 
ATOM     65  F   UNL A   1      37.879  30.421  36.508  1.00  0.00    -0.206 F 
ATOM     66  C   UNL A   1      38.353  33.755  37.828  1.00  0.00     0.022 A 
BRANCH  63  67
ATOM     67  S   UNL A   1      39.995  35.901  37.133  1.00  0.00     0.124 S 
ATOM     68  O   UNL A   1      41.389  35.514  37.342  1.00  0.00    -0.237 OA
ATOM     69  O   UNL A   1      39.707  36.609  35.891  1.00  0.00    -0.237 OA
ATOM     70  O   UNL A   1      39.315  36.419  38.319  1.00  0.00    -0.744 OA
ENDBRANCH  63  67
ENDBRANCH  46  60
BRANCH  47  71
ATOM     71  C   UNL A   1      41.533  26.783  27.499  1.00  0.00     0.023 A 
ATOM     72  C   UNL A   1      41.253  25.409  27.432  1.00  0.00     0.031 A 
ATOM     73  C   UNL A   1      42.276  27.352  26.448  1.00  0.00     0.131 A 
ATOM     74  C   UNL A   1      41.779  24.635  26.387  1.00  0.00     0.055 A 
ATOM     75  C   UNL A   1      42.735  26.591  25.372  1.00  0.00     0.041 A 
ATOM     76  F   UNL A   1      42.573  28.661  26.457  1.00  0.00    -0.206 F 
ATOM     77  C   UNL A   1      42.506  25.218  25.348  1.00  0.00     0.022 A 
BRANCH  74  78
ATOM     78  S   UNL A   1      41.621  22.829  26.483  1.00  0.00     0.124 S 
ATOM     79  O   UNL A   1      42.334  22.408  25.283  1.00  0.00    -0.237 OA
ATOM     80  O   UNL A   1      42.275  22.537  27.754  1.00  0.00    -0.237 OA
ATOM     81  O   UNL A   1      40.176  22.614  26.462  1.00  0.00    -0.744 OA
ENDBRANCH  74  78
ENDBRANCH  47  71
BRANCH  59  82
ATOM     82  C   UNL A   1      44.384  27.569  33.810  1.00  0.00     0.023 A 
ATOM     83  C   UNL A   1      44.256  26.375  34.539  1.00  0.00     0.031 A 
ATOM     84  C   UNL A   1      45.660  28.157  33.724  1.00  0.00     0.131 A 
ATOM     85  C   UNL A   1      45.369  25.842  35.208  1.00  0.00     0.055 A 
ATOM     86  C   UNL A   1      46.777  27.585  34.335  1.00  0.00     0.041 A 
ATOM     87  F   UNL A   1      45.841  29.300  33.042  1.00  0.00    -0.206 F 
ATOM     88  C   UNL A   1      46.632  26.429  35.096  1.00  0.00     0.022 A 
BRANCH  85  89
ATOM     89  S   UNL A   1      45.122  24.429  36.319  1.00  0.00     0.124 S 
ATOM     90  O   UNL A   1      44.296  23.542  35.505  1.00  0.00    -0.237 OA
ATOM     91  O   UNL A   1      46.489  23.981  36.562  1.00  0.00    -0.237 OA
ATOM     92  O   UNL A   1      44.449  25.016  37.476  1.00  0.00    -0.744 OA
ENDBRANCH  85  89
ENDBRANCH  59  82
ENDBRANCH  33  34
ENDBRANCH  25  28
ENDBRANCH  23  24
ENDBRANCH  22  23
ENDBRANCH   1  22
TORSDOF 18
ENDMDL
MODEL 2
REMARK VINA RESULT:     -11.4      5.014     10.327
REMARK SMILES Cc1nc(C[N@@H+]2CCC[C@H]2C(=O)NCCCCCCNC(=O)c2ccc(-c3c4nc(c(-c5cc(S(=O)(=O)[O-])ccc5F)c5ccc([nH]5)c(-c5cc(S(=O)(=O)[O-])ccc5F)c5nc(c(-c6cc(S(=O)(=O)[O-])ccc6F)c6ccc3[nH]6)C=C5)C=C4)cc2)cs1
REMARK SMILES IDX 17 1 16 2 15 3 14 4 13 5 11 6 12 7 10 9 6 10 7 11 8 13 9 14
REMARK SMILES IDX 5 15 4 16 1 17 2 18 3 19 87 20 86 21 18 22 19 23 20 24 21 25
REMARK SMILES IDX 22 27 23 28 24 29 85 30 25 31 84 32 26 33 27 34 28 35 78 36
REMARK SMILES IDX 29 37 83 38 77 39 79 40 30 41 82 42 76 43 75 44 31 46 63 47
REMARK SMILES IDX 43 48 62 49 44 50 47 51 61 52 80 53 45 54 46 55 60 57 81 58
REMARK SMILES IDX 48 59 32 60 33 61 41 62 34 63 40 64 42 65 39 66 35 67 36 68
REMARK SMILES IDX 37 69 38 70 64 71 65 72 73 73 66 74 72 75 74 76 71 77 67 78
REMARK SMILES IDX 68 79 69 80 70 81 49 82 50 83 58 84 51 85 57 86 59 87 56 88
REMARK SMILES IDX 52 89 53 90 54 91 55 92
REMARK H PARENT 13 8 6 12 20 26 79 45 47 56
REMARK Flexibility Score: inf
ROOT
ATOM      1  C   UNL A   1      35.395  21.503  26.163  1.00  0.00     0.002 C 
ENDROOT
BRANCH   1   2
ATOM      2  C   UNL A   1      34.658  20.732  25.063  1.00  0.00     0.002 C 
BRANCH   2   3
ATOM      3  C   UNL A   1      33.290  20.175  25.464  1.00  0.00     0.021 C 
BRANCH   3   4
ATOM      4  C   UNL A   1      32.105  21.017  25.005  1.00  0.00     0.116 C 
BRANCH   4   5
ATOM      5  N   UNL A   1      31.571  21.818  26.090  1.00  0.00    -0.351 N 
ATOM      6  C   UNL A   1      31.497  23.157  26.303  1.00  0.00     0.278 C 
ATOM      7  O   UNL A   1      31.025  23.490  27.401  1.00  0.00    -0.268 OA
ATOM      8  H   UNL A   1      31.186  21.281  26.820  1.00  0.00     0.163 HD
BRANCH   6   9
ATOM      9  C   UNL A   1      32.004  24.241  25.320  1.00  0.00     0.274 C 
ATOM     10  N   UNL A   1      31.028  25.305  25.051  1.00  0.00    -0.320 N 
ATOM     11  C   UNL A   1      31.329  26.440  25.905  1.00  0.00     0.263 C 
ATOM     12  H   UNL A   1      30.095  24.984  25.313  1.00  0.00     0.349 HD
ATOM     13  C   UNL A   1      32.828  26.413  26.096  1.00  0.00     0.068 C 
ATOM     14  C   UNL A   1      33.219  24.952  25.936  1.00  0.00     0.081 C 
BRANCH  10  15
ATOM     15  C   UNL A   1      30.783  25.578  23.632  1.00  0.00     0.321 C 
BRANCH  15  16
ATOM     16  C   UNL A   1      30.300  26.963  23.322  1.00  0.00     0.106 A 
ATOM     17  C   UNL A   1      27.374  29.140  23.105  1.00  0.00     0.079 C 
ATOM     18  C   UNL A   1      28.719  28.505  23.113  1.00  0.00     0.090 A 
ATOM     19  N   UNL A   1      28.936  27.228  23.346  1.00  0.00    -0.241 NA
ATOM     20  S   UNL A   1      30.119  29.448  22.798  1.00  0.00    -0.127 S 
ATOM     21  C   UNL A   1      31.092  28.067  23.059  1.00  0.00     0.096 A 
ENDBRANCH  15  16
ENDBRANCH  10  15
ENDBRANCH   6   9
ENDBRANCH   4   5
ENDBRANCH   3   4
ENDBRANCH   2   3
ENDBRANCH   1   2
BRANCH   1  22
ATOM     22  C   UNL A   1      36.199  22.714  25.684  1.00  0.00     0.021 C 
BRANCH  22  23
ATOM     23  C   UNL A   1      37.479  22.371  24.930  1.00  0.00     0.116 C 
BRANCH  23  24
ATOM     24  N   UNL A   1      38.252  21.345  25.608  1.00  0.00    -0.352 N 
ATOM     25  C   UNL A   1      39.389  21.477  26.366  1.00  0.00     0.251 C 
ATOM     26  H   UNL A   1      37.913  20.426  25.510  1.00  0.00     0.163 HD
ATOM     27  O   UNL A   1      40.026  20.479  26.683  1.00  0.00    -0.269 OA
BRANCH  25  28
ATOM     28  C   UNL A   1      39.849  22.823  26.775  1.00  0.00     0.039 A 
ATOM     29  C   UNL A   1      40.703  22.940  27.875  1.00  0.00     0.014 A 
ATOM     30  C   UNL A   1      39.426  23.967  26.092  1.00  0.00     0.014 A 
ATOM     31  C   UNL A   1      41.166  24.201  28.261  1.00  0.00     0.010 A 
ATOM     32  C   UNL A   1      39.949  25.212  26.430  1.00  0.00     0.010 A 
ATOM     33  C   UNL A   1      40.813  25.346  27.528  1.00  0.00    -0.014 A 
BRANCH  33  34
ATOM     34  C   UNL A   1      41.294  26.696  27.925  1.00  0.00     0.031 A 
ATOM     35  C   UNL A   1      42.722  27.089  27.650  1.00  0.00     0.074 A 
ATOM     36  C   UNL A   1      40.465  27.551  28.557  1.00  0.00     0.049 A 
ATOM     37  N   UNL A   1      43.362  28.179  27.987  1.00  0.00    -0.248 NA
ATOM     38  C   UNL A   1      43.547  26.111  26.922  1.00  0.00     0.031 C 
ATOM     39  C   UNL A   1      39.065  27.281  28.893  1.00  0.00     0.029 A 
ATOM     40  N   UNL A   1      40.678  28.821  29.033  1.00  0.00    -0.354 N 
ATOM     41  C   UNL A   1      44.661  28.017  27.516  1.00  0.00     0.074 A 
ATOM     42  C   UNL A   1      44.736  26.693  26.938  1.00  0.00     0.031 C 
ATOM     43  C   UNL A   1      38.540  28.362  29.493  1.00  0.00     0.029 A 
ATOM     44  C   UNL A   1      39.574  29.383  29.632  1.00  0.00     0.049 A 
ATOM     45  H   UNL A   1      41.542  29.287  28.954  1.00  0.00     0.167 HD
ATOM     46  C   UNL A   1      45.688  28.903  27.533  1.00  0.00     0.034 A 
ATOM     47  C   UNL A   1      39.416  30.580  30.233  1.00  0.00     0.034 A 
ATOM     48  C   UNL A   1      45.599  30.224  28.103  1.00  0.00     0.049 A 
ATOM     49  C   UNL A   1      40.595  31.526  30.287  1.00  0.00     0.074 A 
ATOM     50  C   UNL A   1      46.575  31.203  28.167  1.00  0.00     0.029 A 
ATOM     51  N   UNL A   1      44.465  30.755  28.705  1.00  0.00    -0.354 N 
ATOM     52  N   UNL A   1      41.811  31.363  29.819  1.00  0.00    -0.248 NA
ATOM     53  C   UNL A   1      40.373  32.824  30.937  1.00  0.00     0.031 C 
ATOM     54  C   UNL A   1      46.051  32.300  28.860  1.00  0.00     0.029 A 
ATOM     55  C   UNL A   1      44.723  32.040  29.155  1.00  0.00     0.049 A 
ATOM     56  H   UNL A   1      43.604  30.286  28.798  1.00  0.00     0.167 HD
ATOM     57  C   UNL A   1      42.477  32.560  30.070  1.00  0.00     0.074 A 
ATOM     58  C   UNL A   1      41.526  33.435  30.720  1.00  0.00     0.031 C 
ATOM     59  C   UNL A   1      43.759  32.908  29.786  1.00  0.00     0.034 A 
BRANCH  46  60
ATOM     60  C   UNL A   1      46.997  28.461  26.922  1.00  0.00     0.023 A 
ATOM     61  C   UNL A   1      47.151  28.333  25.530  1.00  0.00     0.031 A 
ATOM     62  C   UNL A   1      48.101  28.153  27.737  1.00  0.00     0.131 A 
ATOM     63  C   UNL A   1      48.355  27.847  24.999  1.00  0.00     0.055 A 
ATOM     64  C   UNL A   1      49.324  27.750  27.197  1.00  0.00     0.041 A 
ATOM     65  F   UNL A   1      48.008  28.233  29.073  1.00  0.00    -0.206 F 
ATOM     66  C   UNL A   1      49.452  27.581  25.821  1.00  0.00     0.022 A 
BRANCH  63  67
ATOM     67  S   UNL A   1      48.420  27.441  23.233  1.00  0.00     0.124 S 
ATOM     68  O   UNL A   1      48.284  25.986  23.261  1.00  0.00    -0.237 OA
ATOM     69  O   UNL A   1      47.283  28.179  22.697  1.00  0.00    -0.237 OA
ATOM     70  O   UNL A   1      49.734  27.929  22.818  1.00  0.00    -0.744 OA
ENDBRANCH  63  67
ENDBRANCH  46  60
BRANCH  47  71
ATOM     71  C   UNL A   1      38.111  30.970  30.843  1.00  0.00     0.023 A 
ATOM     72  C   UNL A   1      37.126  31.618  30.080  1.00  0.00     0.031 A 
ATOM     73  C   UNL A   1      37.863  30.790  32.216  1.00  0.00     0.131 A 
ATOM     74  C   UNL A   1      35.980  32.134  30.704  1.00  0.00     0.055 A 
ATOM     75  C   UNL A   1      36.687  31.240  32.819  1.00  0.00     0.041 A 
ATOM     76  F   UNL A   1      38.767  30.177  32.995  1.00  0.00    -0.206 F 
ATOM     77  C   UNL A   1      35.746  31.937  32.065  1.00  0.00     0.022 A 
BRANCH  74  78
ATOM     78  S   UNL A   1      34.869  33.193  29.735  1.00  0.00     0.124 S 
ATOM     79  O   UNL A   1      34.228  32.220  28.858  1.00  0.00    -0.237 OA
ATOM     80  O   UNL A   1      34.026  33.775  30.773  1.00  0.00    -0.237 OA
ATOM     81  O   UNL A   1      35.780  34.126  29.076  1.00  0.00    -0.744 OA
ENDBRANCH  74  78
ENDBRANCH  47  71
BRANCH  59  82
ATOM     82  C   UNL A   1      44.175  34.326  30.101  1.00  0.00     0.023 A 
ATOM     83  C   UNL A   1      44.037  35.369  29.171  1.00  0.00     0.031 A 
ATOM     84  C   UNL A   1      44.737  34.628  31.355  1.00  0.00     0.131 A 
ATOM     85  C   UNL A   1      44.516  36.651  29.483  1.00  0.00     0.055 A 
ATOM     86  C   UNL A   1      45.149  35.920  31.684  1.00  0.00     0.041 A 
ATOM     87  F   UNL A   1      44.896  33.670  32.283  1.00  0.00    -0.206 F 
ATOM     88  C   UNL A   1      45.055  36.937  30.740  1.00  0.00     0.022 A 
BRANCH  85  89
ATOM     89  S   UNL A   1      44.526  37.916  28.182  1.00  0.00     0.124 S 
ATOM     90  O   UNL A   1      45.774  37.626  27.484  1.00  0.00    -0.237 OA
ATOM     91  O   UNL A   1      43.301  37.617  27.448  1.00  0.00    -0.237 OA
ATOM     92  O   UNL A   1      44.507  39.174  28.928  1.00  0.00    -0.744 OA
ENDBRANCH  85  89
ENDBRANCH  59  82
ENDBRANCH  33  34
ENDBRANCH  25  28
ENDBRANCH  23  24
ENDBRANCH  22  23
ENDBRANCH   1  22
TORSDOF 18
ENDMDL
MODEL 3
REMARK VINA RESULT:     -11.3      2.662      8.220
REMARK SMILES Cc1nc(C[N@@H+]2CCC[C@H]2C(=O)NCCCCCCNC(=O)c2ccc(-c3c4nc(c(-c5cc(S(=O)(=O)[O-])ccc5F)c5ccc([nH]5)c(-c5cc(S(=O)(=O)[O-])ccc5F)c5nc(c(-c6cc(S(=O)(=O)[O-])ccc6F)c6ccc3[nH]6)C=C5)C=C4)cc2)cs1
REMARK SMILES IDX 17 1 16 2 15 3 14 4 13 5 11 6 12 7 10 9 6 10 7 11 8 13 9 14
REMARK SMILES IDX 5 15 4 16 1 17 2 18 3 19 87 20 86 21 18 22 19 23 20 24 21 25
REMARK SMILES IDX 22 27 23 28 24 29 85 30 25 31 84 32 26 33 27 34 28 35 78 36
REMARK SMILES IDX 29 37 83 38 77 39 79 40 30 41 82 42 76 43 75 44 31 46 63 47
REMARK SMILES IDX 43 48 62 49 44 50 47 51 61 52 80 53 45 54 46 55 60 57 81 58
REMARK SMILES IDX 48 59 32 60 33 61 41 62 34 63 40 64 42 65 39 66 35 67 36 68
REMARK SMILES IDX 37 69 38 70 64 71 65 72 73 73 66 74 72 75 74 76 71 77 67 78
REMARK SMILES IDX 68 79 69 80 70 81 49 82 50 83 58 84 51 85 57 86 59 87 56 88
REMARK SMILES IDX 52 89 53 90 54 91 55 92
REMARK H PARENT 13 8 6 12 20 26 79 45 47 56
REMARK Flexibility Score: inf
ROOT
ATOM      1  C   UNL A   1      31.529  30.694  25.764  1.00  0.00     0.002 C 
ENDROOT
BRANCH   1   2
ATOM      2  C   UNL A   1      32.268  29.428  26.207  1.00  0.00     0.002 C 
BRANCH   2   3
ATOM      3  C   UNL A   1      31.536  28.114  25.926  1.00  0.00     0.021 C 
BRANCH   3   4
ATOM      4  C   UNL A   1      32.209  26.877  26.509  1.00  0.00     0.116 C 
BRANCH   4   5
ATOM      5  N   UNL A   1      31.237  25.861  26.863  1.00  0.00    -0.351 N 
ATOM      6  C   UNL A   1      31.019  24.594  26.423  1.00  0.00     0.278 C 
ATOM      7  O   UNL A   1      30.031  24.029  26.916  1.00  0.00    -0.268 OA
ATOM      8  H   UNL A   1      30.608  26.147  27.564  1.00  0.00     0.163 HD
BRANCH   6   9
ATOM      9  C   UNL A   1      31.863  23.873  25.343  1.00  0.00     0.274 C 
ATOM     10  N   UNL A   1      33.248  23.603  25.751  1.00  0.00    -0.320 N 
ATOM     11  C   UNL A   1      33.334  22.236  26.230  1.00  0.00     0.263 C 
ATOM     12  H   UNL A   1      33.492  24.203  26.540  1.00  0.00     0.349 HD
ATOM     13  C   UNL A   1      32.304  21.465  25.436  1.00  0.00     0.068 C 
ATOM     14  C   UNL A   1      31.248  22.493  25.060  1.00  0.00     0.081 C 
BRANCH  10  15
ATOM     15  C   UNL A   1      34.272  24.050  24.803  1.00  0.00     0.321 C 
BRANCH  15  16
ATOM     16  C   UNL A   1      33.780  24.945  23.706  1.00  0.00     0.106 A 
ATOM     17  C   UNL A   1      33.629  28.384  22.482  1.00  0.00     0.079 C 
ATOM     18  C   UNL A   1      33.538  26.919  22.724  1.00  0.00     0.090 A 
ATOM     19  N   UNL A   1      33.978  26.317  23.807  1.00  0.00    -0.241 NA
ATOM     20  S   UNL A   1      32.816  25.895  21.550  1.00  0.00    -0.127 S 
ATOM     21  C   UNL A   1      33.177  24.541  22.527  1.00  0.00     0.096 A 
ENDBRANCH  15  16
ENDBRANCH  10  15
ENDBRANCH   6   9
ENDBRANCH   4   5
ENDBRANCH   3   4
ENDBRANCH   2   3
ENDBRANCH   1   2
BRANCH   1  22
ATOM     22  C   UNL A   1      31.432  31.797  26.820  1.00  0.00     0.021 C 
BRANCH  22  23
ATOM     23  C   UNL A   1      32.759  32.459  27.174  1.00  0.00     0.116 C 
BRANCH  23  24
ATOM     24  N   UNL A   1      32.591  33.855  27.536  1.00  0.00    -0.352 N 
ATOM     25  C   UNL A   1      33.200  34.570  28.538  1.00  0.00     0.251 C 
ATOM     26  H   UNL A   1      31.949  34.360  26.987  1.00  0.00     0.163 HD
ATOM     27  O   UNL A   1      32.779  35.682  28.833  1.00  0.00    -0.269 OA
BRANCH  25  28
ATOM     28  C   UNL A   1      34.347  33.983  29.267  1.00  0.00     0.039 A 
ATOM     29  C   UNL A   1      34.103  33.014  30.243  1.00  0.00     0.014 A 
ATOM     30  C   UNL A   1      35.655  34.400  29.005  1.00  0.00     0.014 A 
ATOM     31  C   UNL A   1      35.176  32.433  30.925  1.00  0.00     0.010 A 
ATOM     32  C   UNL A   1      36.726  33.765  29.629  1.00  0.00     0.010 A 
ATOM     33  C   UNL A   1      36.498  32.785  30.608  1.00  0.00    -0.014 A 
BRANCH  33  34
ATOM     34  C   UNL A   1      37.652  32.179  31.324  1.00  0.00     0.031 A 
ATOM     35  C   UNL A   1      38.400  31.032  30.694  1.00  0.00     0.074 A 
ATOM     36  C   UNL A   1      38.005  32.631  32.543  1.00  0.00     0.049 A 
ATOM     37  N   UNL A   1      39.376  30.311  31.183  1.00  0.00    -0.248 NA
ATOM     38  C   UNL A   1      37.973  30.626  29.345  1.00  0.00     0.031 C 
ATOM     39  C   UNL A   1      37.349  33.724  33.264  1.00  0.00     0.029 A 
ATOM     40  N   UNL A   1      39.003  32.227  33.397  1.00  0.00    -0.354 N 
ATOM     41  C   UNL A   1      39.677  29.368  30.206  1.00  0.00     0.074 A 
ATOM     42  C   UNL A   1      38.729  29.561  29.130  1.00  0.00     0.031 C 
ATOM     43  C   UNL A   1      37.980  33.922  34.433  1.00  0.00     0.029 A 
ATOM     44  C   UNL A   1      39.050  32.940  34.573  1.00  0.00     0.049 A 
ATOM     45  H   UNL A   1      39.626  31.494  33.186  1.00  0.00     0.167 HD
ATOM     46  C   UNL A   1      40.673  28.447  30.191  1.00  0.00     0.034 A 
ATOM     47  C   UNL A   1      39.858  32.808  35.645  1.00  0.00     0.034 A 
ATOM     48  C   UNL A   1      41.618  28.269  31.264  1.00  0.00     0.049 A 
ATOM     49  C   UNL A   1      40.924  31.736  35.624  1.00  0.00     0.074 A 
ATOM     50  C   UNL A   1      42.668  27.373  31.349  1.00  0.00     0.029 A 
ATOM     51  N   UNL A   1      41.630  29.007  32.442  1.00  0.00    -0.354 N 
ATOM     52  N   UNL A   1      41.206  30.865  34.682  1.00  0.00    -0.248 NA
ATOM     53  C   UNL A   1      41.790  31.640  36.806  1.00  0.00     0.031 C 
ATOM     54  C   UNL A   1      43.277  27.527  32.600  1.00  0.00     0.029 A 
ATOM     55  C   UNL A   1      42.661  28.575  33.263  1.00  0.00     0.049 A 
ATOM     56  H   UNL A   1      41.000  29.731  32.661  1.00  0.00     0.167 HD
ATOM     57  C   UNL A   1      42.317  30.160  35.139  1.00  0.00     0.074 A 
ATOM     58  C   UNL A   1      42.657  30.713  36.432  1.00  0.00     0.031 C 
ATOM     59  C   UNL A   1      42.998  29.148  34.542  1.00  0.00     0.034 A 
BRANCH  46  60
ATOM     60  C   UNL A   1      40.779  27.558  28.974  1.00  0.00     0.023 A 
ATOM     61  C   UNL A   1      41.743  27.789  27.978  1.00  0.00     0.031 A 
ATOM     62  C   UNL A   1      39.901  26.473  28.800  1.00  0.00     0.131 A 
ATOM     63  C   UNL A   1      41.766  26.993  26.823  1.00  0.00     0.055 A 
ATOM     64  C   UNL A   1      39.983  25.632  27.688  1.00  0.00     0.041 A 
ATOM     65  F   UNL A   1      38.944  26.216  29.704  1.00  0.00    -0.206 F 
ATOM     66  C   UNL A   1      40.910  25.898  26.685  1.00  0.00     0.022 A 
BRANCH  63  67
ATOM     67  S   UNL A   1      42.839  27.491  25.449  1.00  0.00     0.124 S 
ATOM     68  O   UNL A   1      42.939  26.247  24.689  1.00  0.00    -0.237 OA
ATOM     69  O   UNL A   1      42.074  28.563  24.823  1.00  0.00    -0.237 OA
ATOM     70  O   UNL A   1      44.073  27.909  26.113  1.00  0.00    -0.744 OA
ENDBRANCH  63  67
ENDBRANCH  46  60
BRANCH  47  71
ATOM     71  C   UNL A   1      39.707  33.695  36.836  1.00  0.00     0.023 A 
ATOM     72  C   UNL A   1      39.137  33.211  38.025  1.00  0.00     0.031 A 
ATOM     73  C   UNL A   1      40.040  35.061  36.778  1.00  0.00     0.131 A 
ATOM     74  C   UNL A   1      38.841  34.097  39.073  1.00  0.00     0.055 A 
ATOM     75  C   UNL A   1      39.811  35.923  37.851  1.00  0.00     0.041 A 
ATOM     76  F   UNL A   1      40.589  35.580  35.668  1.00  0.00    -0.206 F 
ATOM     77  C   UNL A   1      39.187  35.446  39.001  1.00  0.00     0.022 A 
BRANCH  74  78
ATOM     78  S   UNL A   1      37.864  33.483  40.474  1.00  0.00     0.124 S 
ATOM     79  O   UNL A   1      37.726  34.687  41.285  1.00  0.00    -0.237 OA
ATOM     80  O   UNL A   1      36.653  33.010  39.813  1.00  0.00    -0.237 OA
ATOM     81  O   UNL A   1      38.711  32.437  41.044  1.00  0.00    -0.744 OA
ENDBRANCH  74  78
ENDBRANCH  47  71
BRANCH  59  82
ATOM     82  C   UNL A   1      44.232  28.637  35.249  1.00  0.00     0.023 A 
ATOM     83  C   UNL A   1      44.177  27.596  36.191  1.00  0.00     0.031 A 
ATOM     84  C   UNL A   1      45.484  29.220  34.981  1.00  0.00     0.131 A 
ATOM     85  C   UNL A   1      45.339  27.215  36.880  1.00  0.00     0.055 A 
ATOM     86  C   UNL A   1      46.648  28.790  35.620  1.00  0.00     0.041 A 
ATOM     87  F   UNL A   1      45.597  30.220  34.092  1.00  0.00    -0.206 F 
ATOM     88  C   UNL A   1      46.577  27.793  36.588  1.00  0.00     0.022 A 
BRANCH  85  89
ATOM     89  S   UNL A   1      45.191  26.028  38.244  1.00  0.00     0.124 S 
ATOM     90  O   UNL A   1      44.052  26.556  38.987  1.00  0.00    -0.237 OA
ATOM     91  O   UNL A   1      44.964  24.770  37.539  1.00  0.00    -0.237 OA
ATOM     92  O   UNL A   1      46.480  26.129  38.927  1.00  0.00    -0.744 OA
ENDBRANCH  85  89
ENDBRANCH  59  82
ENDBRANCH  33  34
ENDBRANCH  25  28
ENDBRANCH  23  24
ENDBRANCH  22  23
ENDBRANCH   1  22
TORSDOF 18
ENDMDL
