MODEL 1
REMARK VINA RESULT:     -11.6      0.000      0.000
REMARK SMILES CC1=C(C)C[C@@H](C(=O)NCCCCCCNC(=O)c2ccc(-c3c4nc(c(-c5cc(S(=O)(=O)[O-])ccc5F)c5ccc([nH]5)c(-c5cc(S(=O)(=O)[O-])ccc5F)c5nc(c(-c6cc(S(=O)(=O)[O-])ccc6F)c6ccc3[nH]6)C=C5)C=C4)cc2)[C@@H](C(=O)NCC[NH+]2CCOCC2)C1
REMARK SMILES IDX 12 1 11 2 10 3 9 4 7 5 8 6 6 8 1 9 2 10 3 11 94 12 4 13 5 14
REMARK SMILES IDX 82 15 83 16 84 17 85 18 86 20 87 21 88 22 89 23 93 24 90 26
REMARK SMILES IDX 92 27 91 28 13 29 14 30 15 31 16 32 17 33 18 35 19 36 20 37
REMARK SMILES IDX 81 38 21 39 80 40 22 41 23 42 24 43 74 44 25 45 79 46 73 47
REMARK SMILES IDX 75 48 26 49 78 50 72 51 71 52 27 54 59 55 39 56 58 57 40 58
REMARK SMILES IDX 43 59 57 60 76 61 41 62 42 63 56 65 77 66 44 67 28 68 29 69
REMARK SMILES IDX 37 70 30 71 36 72 38 73 35 74 31 75 32 76 33 77 34 78 60 79
REMARK SMILES IDX 61 80 69 81 62 82 68 83 70 84 67 85 63 86 64 87 65 88 66 89
REMARK SMILES IDX 45 90 46 91 54 92 47 93 53 94 55 95 52 96 48 97 49 98 50 99
REMARK SMILES IDX 51 100
REMARK H PARENT 9 7 85 19 88 25 16 34 75 53 43 64
REMARK Flexibility Score: inf
ROOT
ATOM      1  C   UNL A   1      37.264  22.161  24.544  1.00  0.00     0.002 C 
ENDROOT
BRANCH   1   2
ATOM      2  C   UNL A   1      36.482  23.161  25.391  1.00  0.00     0.021 C 
BRANCH   2   3
ATOM      3  C   UNL A   1      35.314  22.538  26.148  1.00  0.00     0.116 C 
BRANCH   3   4
ATOM      4  N   UNL A   1      34.425  23.501  26.744  1.00  0.00    -0.356 N 
ATOM      5  C   UNL A   1      33.441  24.258  26.198  1.00  0.00     0.224 C 
ATOM      6  O   UNL A   1      32.754  24.938  26.971  1.00  0.00    -0.275 OA
ATOM      7  H   UNL A   1      34.552  23.632  27.712  1.00  0.00     0.163 HD
BRANCH   5   8
ATOM      8  C   UNL A   1      33.095  24.240  24.704  1.00  0.00     0.095 C 
ATOM      9  C   UNL A   1      29.507  26.510  23.393  1.00  0.00     0.039 C 
ATOM     10  C   UNL A   1      30.820  25.801  23.635  1.00  0.00    -0.074 C 
ATOM     11  C   UNL A   1      32.011  26.416  23.800  1.00  0.00    -0.074 C 
ATOM     12  C   UNL A   1      30.654  24.300  23.788  1.00  0.00     0.045 C 
ATOM     13  C   UNL A   1      32.237  27.909  23.794  1.00  0.00     0.039 C 
ATOM     14  C   UNL A   1      33.269  25.635  24.093  1.00  0.00     0.045 C 
ATOM     15  C   UNL A   1      31.873  23.444  24.204  1.00  0.00     0.095 C 
BRANCH  15  16
ATOM     16  C   UNL A   1      31.433  22.317  25.154  1.00  0.00     0.224 C 
ATOM     17  O   UNL A   1      30.715  22.475  26.138  1.00  0.00    -0.275 OA
ATOM     18  N   UNL A   1      31.853  21.040  24.917  1.00  0.00    -0.350 N 
ATOM     19  H   UNL A   1      31.183  20.323  24.985  1.00  0.00     0.163 HD
BRANCH  18  20
ATOM     20  C   UNL A   1      33.206  20.658  24.570  1.00  0.00     0.177 C 
BRANCH  20  21
ATOM     21  C   UNL A   1      33.511  19.277  25.192  1.00  0.00     0.283 C 
BRANCH  21  22
ATOM     22  N   UNL A   1      32.536  18.239  24.787  1.00  0.00    -0.330 N 
ATOM     23  C   UNL A   1      32.689  17.010  25.599  1.00  0.00     0.291 C 
ATOM     24  C   UNL A   1      32.660  17.849  23.365  1.00  0.00     0.291 C 
ATOM     25  H   UNL A   1      31.620  18.662  24.938  1.00  0.00     0.348 HD
ATOM     26  C   UNL A   1      33.971  16.224  25.277  1.00  0.00     0.221 C 
ATOM     27  C   UNL A   1      33.939  17.051  23.058  1.00  0.00     0.221 C 
ATOM     28  O   UNL A   1      34.046  15.886  23.885  1.00  0.00    -0.370 OA
ENDBRANCH  21  22
ENDBRANCH  20  21
ENDBRANCH  18  20
ENDBRANCH  15  16
ENDBRANCH   5   8
ENDBRANCH   3   4
ENDBRANCH   2   3
ENDBRANCH   1   2
BRANCH   1  29
ATOM     29  C   UNL A   1      37.106  20.708  24.997  1.00  0.00     0.002 C 
BRANCH  29  30
ATOM     30  C   UNL A   1      38.388  19.875  24.909  1.00  0.00     0.021 C 
BRANCH  30  31
ATOM     31  C   UNL A   1      39.371  20.132  26.043  1.00  0.00     0.116 C 
BRANCH  31  32
ATOM     32  N   UNL A   1      40.471  19.182  26.008  1.00  0.00    -0.352 N 
ATOM     33  C   UNL A   1      41.819  19.439  25.985  1.00  0.00     0.251 C 
ATOM     34  H   UNL A   1      40.216  18.232  25.999  1.00  0.00     0.163 HD
ATOM     35  O   UNL A   1      42.611  18.561  25.666  1.00  0.00    -0.269 OA
BRANCH  33  36
ATOM     36  C   UNL A   1      42.292  20.791  26.346  1.00  0.00     0.039 A 
ATOM     37  C   UNL A   1      42.531  21.099  27.686  1.00  0.00     0.014 A 
ATOM     38  C   UNL A   1      42.505  21.746  25.347  1.00  0.00     0.014 A 
ATOM     39  C   UNL A   1      43.030  22.360  28.021  1.00  0.00     0.010 A 
ATOM     40  C   UNL A   1      43.074  22.970  25.676  1.00  0.00     0.010 A 
ATOM     41  C   UNL A   1      43.328  23.296  27.018  1.00  0.00    -0.014 A 
BRANCH  41  42
ATOM     42  C   UNL A   1      43.863  24.643  27.336  1.00  0.00     0.031 A 
ATOM     43  C   UNL A   1      42.930  25.698  27.864  1.00  0.00     0.074 A 
ATOM     44  C   UNL A   1      45.152  24.940  27.078  1.00  0.00     0.049 A 
ATOM     45  N   UNL A   1      43.144  26.973  28.061  1.00  0.00    -0.248 NA
ATOM     46  C   UNL A   1      41.560  25.262  28.177  1.00  0.00     0.031 C 
ATOM     47  C   UNL A   1      46.147  24.003  26.554  1.00  0.00     0.029 A 
ATOM     48  N   UNL A   1      45.842  26.119  27.208  1.00  0.00    -0.354 N 
ATOM     49  C   UNL A   1      41.932  27.495  28.502  1.00  0.00     0.074 A 
ATOM     50  C   UNL A   1      40.974  26.410  28.478  1.00  0.00     0.031 C 
ATOM     51  C   UNL A   1      47.322  24.639  26.424  1.00  0.00     0.029 A 
ATOM     52  C   UNL A   1      47.152  26.040  26.797  1.00  0.00     0.049 A 
ATOM     53  H   UNL A   1      45.438  26.944  27.563  1.00  0.00     0.167 HD
ATOM     54  C   UNL A   1      41.652  28.757  28.909  1.00  0.00     0.034 A 
ATOM     55  C   UNL A   1      48.100  26.995  26.707  1.00  0.00     0.034 A 
ATOM     56  C   UNL A   1      42.626  29.821  28.935  1.00  0.00     0.049 A 
ATOM     57  C   UNL A   1      47.755  28.406  27.117  1.00  0.00     0.074 A 
ATOM     58  C   UNL A   1      42.464  31.127  29.361  1.00  0.00     0.029 A 
ATOM     59  N   UNL A   1      43.944  29.702  28.511  1.00  0.00    -0.354 N 
ATOM     60  N   UNL A   1      46.610  28.883  27.551  1.00  0.00    -0.248 NA
ATOM     61  C   UNL A   1      48.827  29.406  27.034  1.00  0.00     0.031 C 
ATOM     62  C   UNL A   1      43.657  31.816  29.125  1.00  0.00     0.029 A 
ATOM     63  C   UNL A   1      44.595  30.918  28.639  1.00  0.00     0.049 A 
ATOM     64  H   UNL A   1      44.354  28.875  28.169  1.00  0.00     0.167 HD
ATOM     65  C   UNL A   1      46.842  30.226  27.839  1.00  0.00     0.074 A 
ATOM     66  C   UNL A   1      48.232  30.483  27.525  1.00  0.00     0.031 C 
ATOM     67  C   UNL A   1      45.987  31.157  28.330  1.00  0.00     0.034 A 
BRANCH  54  68
ATOM     68  C   UNL A   1      40.230  29.056  29.325  1.00  0.00     0.023 A 
ATOM     69  C   UNL A   1      39.834  29.034  30.673  1.00  0.00     0.031 A 
ATOM     70  C   UNL A   1      39.248  29.333  28.357  1.00  0.00     0.131 A 
ATOM     71  C   UNL A   1      38.482  29.199  31.010  1.00  0.00     0.055 A 
ATOM     72  C   UNL A   1      37.921  29.589  28.706  1.00  0.00     0.041 A 
ATOM     73  F   UNL A   1      39.558  29.345  27.051  1.00  0.00    -0.206 F 
ATOM     74  C   UNL A   1      37.527  29.505  30.038  1.00  0.00     0.022 A 
BRANCH  71  75
ATOM     75  S   UNL A   1      37.967  28.844  32.712  1.00  0.00     0.124 S 
ATOM     76  O   UNL A   1      36.600  29.361  32.719  1.00  0.00    -0.237 OA
ATOM     77  O   UNL A   1      38.101  27.394  32.787  1.00  0.00    -0.237 OA
ATOM     78  O   UNL A   1      38.916  29.604  33.523  1.00  0.00    -0.744 OA
ENDBRANCH  71  75
ENDBRANCH  54  68
BRANCH  55  79
ATOM     79  C   UNL A   1      49.463  26.663  26.196  1.00  0.00     0.023 A 
ATOM     80  C   UNL A   1      49.893  27.118  24.941  1.00  0.00     0.031 A 
ATOM     81  C   UNL A   1      50.338  25.846  26.937  1.00  0.00     0.131 A 
ATOM     82  C   UNL A   1      51.141  26.713  24.440  1.00  0.00     0.055 A 
ATOM     83  C   UNL A   1      51.603  25.497  26.459  1.00  0.00     0.041 A 
ATOM     84  F   UNL A   1      49.978  25.384  28.144  1.00  0.00    -0.206 F 
ATOM     85  C   UNL A   1      52.005  25.919  25.196  1.00  0.00     0.022 A 
BRANCH  82  86
ATOM     86  S   UNL A   1      51.577  27.159  22.736  1.00  0.00     0.124 S 
ATOM     87  O   UNL A   1      52.745  26.317  22.501  1.00  0.00    -0.237 OA
ATOM     88  O   UNL A   1      50.366  26.795  22.008  1.00  0.00    -0.237 OA
ATOM     89  O   UNL A   1      51.846  28.592  22.818  1.00  0.00    -0.744 OA
ENDBRANCH  82  86
ENDBRANCH  55  79
BRANCH  67  90
ATOM     90  C   UNL A   1      46.547  32.524  28.641  1.00  0.00     0.023 A 
ATOM     91  C   UNL A   1      46.624  33.542  27.675  1.00  0.00     0.031 A 
ATOM     92  C   UNL A   1      46.987  32.815  29.946  1.00  0.00     0.131 A 
ATOM     93  C   UNL A   1      47.166  34.790  28.019  1.00  0.00     0.055 A 
ATOM     94  C   UNL A   1      47.468  34.076  30.297  1.00  0.00     0.041 A 
ATOM     95  F   UNL A   1      46.939  31.879  30.907  1.00  0.00    -0.206 F 
ATOM     96  C   UNL A   1      47.569  35.069  29.328  1.00  0.00     0.022 A 
BRANCH  93  97
ATOM     97  S   UNL A   1      47.406  36.028  26.715  1.00  0.00     0.124 S 
ATOM     98  O   UNL A   1      46.342  36.983  27.003  1.00  0.00    -0.237 OA
ATOM     99  O   UNL A   1      48.766  36.493  26.971  1.00  0.00    -0.237 OA
ATOM    100  O   UNL A   1      47.236  35.264  25.481  1.00  0.00    -0.744 OA
ENDBRANCH  93  97
ENDBRANCH  67  90
ENDBRANCH  41  42
ENDBRANCH  33  36
ENDBRANCH  31  32
ENDBRANCH  30  31
ENDBRANCH  29  30
ENDBRANCH   1  29
TORSDOF 20
ENDMDL
MODEL 2
REMARK VINA RESULT:     -11.4      6.030     11.756
REMARK SMILES CC1=C(C)C[C@@H](C(=O)NCCCCCCNC(=O)c2ccc(-c3c4nc(c(-c5cc(S(=O)(=O)[O-])ccc5F)c5ccc([nH]5)c(-c5cc(S(=O)(=O)[O-])ccc5F)c5nc(c(-c6cc(S(=O)(=O)[O-])ccc6F)c6ccc3[nH]6)C=C5)C=C4)cc2)[C@@H](C(=O)NCC[NH+]2CCOCC2)C1
REMARK SMILES IDX 12 1 11 2 10 3 9 4 7 5 8 6 6 8 1 9 2 10 3 11 94 12 4 13 5 14
REMARK SMILES IDX 82 15 83 16 84 17 85 18 86 20 87 21 88 22 89 23 93 24 90 26
REMARK SMILES IDX 92 27 91 28 13 29 14 30 15 31 16 32 17 33 18 35 19 36 20 37
REMARK SMILES IDX 81 38 21 39 80 40 22 41 23 42 24 43 74 44 25 45 79 46 73 47
REMARK SMILES IDX 75 48 26 49 78 50 72 51 71 52 27 54 59 55 39 56 58 57 40 58
REMARK SMILES IDX 43 59 57 60 76 61 41 62 42 63 56 65 77 66 44 67 28 68 29 69
REMARK SMILES IDX 37 70 30 71 36 72 38 73 35 74 31 75 32 76 33 77 34 78 60 79
REMARK SMILES IDX 61 80 69 81 62 82 68 83 70 84 67 85 63 86 64 87 65 88 66 89
REMARK SMILES IDX 45 90 46 91 54 92 47 93 53 94 55 95 52 96 48 97 49 98 50 99
REMARK SMILES IDX 51 100
REMARK H PARENT 9 7 85 19 88 25 16 34 75 53 43 64
REMARK Flexibility Score: inf
ROOT
ATOM      1  C   UNL A   1      33.329  29.895  26.574  1.00  0.00     0.002 C 
ENDROOT
BRANCH   1   2
ATOM      2  C   UNL A   1      33.307  28.576  27.342  1.00  0.00     0.021 C 
BRANCH   2   3
ATOM      3  C   UNL A   1      32.688  27.424  26.559  1.00  0.00     0.116 C 
BRANCH   3   4
ATOM      4  N   UNL A   1      33.640  26.665  25.789  1.00  0.00    -0.356 N 
ATOM      5  C   UNL A   1      33.489  25.537  25.053  1.00  0.00     0.224 C 
ATOM      6  O   UNL A   1      34.468  25.149  24.402  1.00  0.00    -0.275 OA
ATOM      7  H   UNL A   1      34.556  27.028  25.798  1.00  0.00     0.163 HD
BRANCH   5   8
ATOM      8  C   UNL A   1      32.158  24.785  24.928  1.00  0.00     0.095 C 
ATOM      9  C   UNL A   1      32.196  20.866  22.833  1.00  0.00     0.039 C 
ATOM     10  C   UNL A   1      32.019  22.105  23.682  1.00  0.00    -0.074 C 
ATOM     11  C   UNL A   1      32.347  22.198  24.988  1.00  0.00    -0.074 C 
ATOM     12  C   UNL A   1      31.529  23.297  22.881  1.00  0.00     0.045 C 
ATOM     13  C   UNL A   1      32.962  21.099  25.821  1.00  0.00     0.039 C 
ATOM     14  C   UNL A   1      32.190  23.492  25.751  1.00  0.00     0.045 C 
ATOM     15  C   UNL A   1      31.454  24.684  23.560  1.00  0.00     0.095 C 
BRANCH  15  16
ATOM     16  C   UNL A   1      31.861  25.787  22.568  1.00  0.00     0.224 C 
ATOM     17  O   UNL A   1      32.815  25.713  21.798  1.00  0.00    -0.275 OA
ATOM     18  N   UNL A   1      31.133  26.939  22.513  1.00  0.00    -0.350 N 
ATOM     19  H   UNL A   1      30.896  27.284  21.622  1.00  0.00     0.163 HD
BRANCH  18  20
ATOM     20  C   UNL A   1      30.679  27.694  23.662  1.00  0.00     0.177 C 
BRANCH  20  21
ATOM     21  C   UNL A   1      29.501  28.598  23.235  1.00  0.00     0.283 C 
BRANCH  21  22
ATOM     22  N   UNL A   1      29.926  29.981  22.918  1.00  0.00    -0.330 N 
ATOM     23  C   UNL A   1      29.262  30.964  23.805  1.00  0.00     0.291 C 
ATOM     24  C   UNL A   1      29.633  30.374  21.522  1.00  0.00     0.291 C 
ATOM     25  H   UNL A   1      30.936  29.987  23.061  1.00  0.00     0.348 HD
ATOM     26  C   UNL A   1      27.764  31.137  23.507  1.00  0.00     0.221 C 
ATOM     27  C   UNL A   1      28.131  30.558  21.240  1.00  0.00     0.221 C 
ATOM     28  O   UNL A   1      27.538  31.503  22.139  1.00  0.00    -0.370 OA
ENDBRANCH  21  22
ENDBRANCH  20  21
ENDBRANCH  18  20
ENDBRANCH  15  16
ENDBRANCH   5   8
ENDBRANCH   3   4
ENDBRANCH   2   3
ENDBRANCH   1   2
BRANCH   1  29
ATOM     29  C   UNL A   1      31.939  30.462  26.275  1.00  0.00     0.002 C 
BRANCH  29  30
ATOM     30  C   UNL A   1      31.714  31.888  26.785  1.00  0.00     0.021 C 
BRANCH  30  31
ATOM     31  C   UNL A   1      32.975  32.560  27.315  1.00  0.00     0.116 C 
BRANCH  31  32
ATOM     32  N   UNL A   1      32.721  33.949  27.662  1.00  0.00    -0.352 N 
ATOM     33  C   UNL A   1      33.213  34.666  28.723  1.00  0.00     0.251 C 
ATOM     34  H   UNL A   1      32.117  34.438  27.057  1.00  0.00     0.163 HD
ATOM     35  O   UNL A   1      32.692  35.725  29.049  1.00  0.00    -0.269 OA
BRANCH  33  36
ATOM     36  C   UNL A   1      34.375  34.134  29.464  1.00  0.00     0.039 A 
ATOM     37  C   UNL A   1      34.169  33.208  30.488  1.00  0.00     0.014 A 
ATOM     38  C   UNL A   1      35.667  34.550  29.129  1.00  0.00     0.014 A 
ATOM     39  C   UNL A   1      35.271  32.663  31.151  1.00  0.00     0.010 A 
ATOM     40  C   UNL A   1      36.762  33.950  29.737  1.00  0.00     0.010 A 
ATOM     41  C   UNL A   1      36.576  33.011  30.764  1.00  0.00    -0.014 A 
BRANCH  41  42
ATOM     42  C   UNL A   1      37.771  32.450  31.443  1.00  0.00     0.031 A 
ATOM     43  C   UNL A   1      38.511  31.308  30.803  1.00  0.00     0.074 A 
ATOM     44  C   UNL A   1      38.139  32.907  32.656  1.00  0.00     0.049 A 
ATOM     45  N   UNL A   1      39.476  30.569  31.285  1.00  0.00    -0.248 NA
ATOM     46  C   UNL A   1      38.078  30.924  29.450  1.00  0.00     0.031 C 
ATOM     47  C   UNL A   1      37.490  34.001  33.380  1.00  0.00     0.029 A 
ATOM     48  N   UNL A   1      39.140  32.497  33.501  1.00  0.00    -0.354 N 
ATOM     49  C   UNL A   1      39.753  29.622  30.304  1.00  0.00     0.074 A 
ATOM     50  C   UNL A   1      38.807  29.841  29.231  1.00  0.00     0.031 C 
ATOM     51  C   UNL A   1      38.120  34.186  34.552  1.00  0.00     0.029 A 
ATOM     52  C   UNL A   1      39.177  33.189  34.689  1.00  0.00     0.049 A 
ATOM     53  H   UNL A   1      39.772  31.776  33.277  1.00  0.00     0.167 HD
ATOM     54  C   UNL A   1      40.720  28.673  30.294  1.00  0.00     0.034 A 
ATOM     55  C   UNL A   1      39.958  33.020  35.776  1.00  0.00     0.034 A 
ATOM     56  C   UNL A   1      41.660  28.480  31.371  1.00  0.00     0.049 A 
ATOM     57  C   UNL A   1      40.996  31.924  35.764  1.00  0.00     0.074 A 
ATOM     58  C   UNL A   1      42.703  27.575  31.452  1.00  0.00     0.029 A 
ATOM     59  N   UNL A   1      41.666  29.200  32.559  1.00  0.00    -0.354 N 
ATOM     60  N   UNL A   1      41.261  31.047  34.822  1.00  0.00    -0.248 NA
ATOM     61  C   UNL A   1      41.847  31.799  36.955  1.00  0.00     0.031 C 
ATOM     62  C   UNL A   1      43.291  27.695  32.715  1.00  0.00     0.029 A 
ATOM     63  C   UNL A   1      42.676  28.740  33.388  1.00  0.00     0.049 A 
ATOM     64  H   UNL A   1      41.044  29.931  32.779  1.00  0.00     0.167 HD
ATOM     65  C   UNL A   1      42.340  30.301  35.290  1.00  0.00     0.074 A 
ATOM     66  C   UNL A   1      42.673  30.827  36.597  1.00  0.00     0.031 C 
ATOM     67  C   UNL A   1      43.003  29.282  34.687  1.00  0.00     0.034 A 
BRANCH  54  68
ATOM     68  C   UNL A   1      40.783  27.756  29.094  1.00  0.00     0.023 A 
ATOM     69  C   UNL A   1      41.732  27.937  28.074  1.00  0.00     0.031 A 
ATOM     70  C   UNL A   1      39.858  26.707  28.950  1.00  0.00     0.131 A 
ATOM     71  C   UNL A   1      41.684  27.141  26.920  1.00  0.00     0.055 A 
ATOM     72  C   UNL A   1      39.874  25.857  27.842  1.00  0.00     0.041 A 
ATOM     73  F   UNL A   1      38.911  26.496  29.878  1.00  0.00    -0.206 F 
ATOM     74  C   UNL A   1      40.779  26.082  26.810  1.00  0.00     0.022 A 
BRANCH  71  75
ATOM     75  S   UNL A   1      42.708  27.613  25.500  1.00  0.00     0.124 S 
ATOM     76  O   UNL A   1      41.990  28.781  24.995  1.00  0.00    -0.237 OA
ATOM     77  O   UNL A   1      44.002  27.876  26.118  1.00  0.00    -0.237 OA
ATOM     78  O   UNL A   1      42.656  26.437  24.633  1.00  0.00    -0.744 OA
ENDBRANCH  71  75
ENDBRANCH  54  68
BRANCH  55  79
ATOM     79  C   UNL A   1      39.787  33.894  36.973  1.00  0.00     0.023 A 
ATOM     80  C   UNL A   1      40.678  34.947  37.231  1.00  0.00     0.031 A 
ATOM     81  C   UNL A   1      38.756  33.661  37.903  1.00  0.00     0.131 A 
ATOM     82  C   UNL A   1      40.555  35.694  38.413  1.00  0.00     0.055 A 
ATOM     83  C   UNL A   1      38.602  34.447  39.046  1.00  0.00     0.041 A 
ATOM     84  F   UNL A   1      37.875  32.668  37.705  1.00  0.00    -0.206 F 
ATOM     85  C   UNL A   1      39.514  35.462  39.315  1.00  0.00     0.022 A 
BRANCH  82  86
ATOM     86  S   UNL A   1      41.841  36.913  38.806  1.00  0.00     0.124 S 
ATOM     87  O   UNL A   1      42.713  36.145  39.689  1.00  0.00    -0.237 OA
ATOM     88  O   UNL A   1      42.377  37.224  37.486  1.00  0.00    -0.237 OA
ATOM     89  O   UNL A   1      41.098  37.995  39.447  1.00  0.00    -0.744 OA
ENDBRANCH  82  86
ENDBRANCH  55  79
BRANCH  67  90
ATOM     90  C   UNL A   1      44.211  28.720  35.396  1.00  0.00     0.023 A 
ATOM     91  C   UNL A   1      44.106  27.741  36.398  1.00  0.00     0.031 A 
ATOM     92  C   UNL A   1      45.498  29.161  35.033  1.00  0.00     0.131 A 
ATOM     93  C   UNL A   1      45.265  27.264  37.031  1.00  0.00     0.055 A 
ATOM     94  C   UNL A   1      46.649  28.639  35.623  1.00  0.00     0.041 A 
ATOM     95  F   UNL A   1      45.656  30.097  34.083  1.00  0.00    -0.206 F 
ATOM     96  C   UNL A   1      46.536  27.692  36.635  1.00  0.00     0.022 A 
BRANCH  93  97
ATOM     97  S   UNL A   1      45.090  26.125  38.433  1.00  0.00     0.124 S 
ATOM     98  O   UNL A   1      46.184  26.544  39.303  1.00  0.00    -0.237 OA
ATOM     99  O   UNL A   1      43.744  26.424  38.912  1.00  0.00    -0.237 OA
ATOM    100  O   UNL A   1      45.251  24.806  37.825  1.00  0.00    -0.744 OA
ENDBRANCH  93  97
ENDBRANCH  67  90
ENDBRANCH  41  42
ENDBRANCH  33  36
ENDBRANCH  31  32
ENDBRANCH  30  31
ENDBRANCH  29  30
ENDBRANCH   1  29
TORSDOF 20
ENDMDL
MODEL 3
REMARK VINA RESULT:     -11.4      3.165      5.549
REMARK SMILES CC1=C(C)C[C@@H](C(=O)NCCCCCCNC(=O)c2ccc(-c3c4nc(c(-c5cc(S(=O)(=O)[O-])ccc5F)c5ccc([nH]5)c(-c5cc(S(=O)(=O)[O-])ccc5F)c5nc(c(-c6cc(S(=O)(=O)[O-])ccc6F)c6ccc3[nH]6)C=C5)C=C4)cc2)[C@@H](C(=O)NCC[NH+]2CCOCC2)C1
REMARK SMILES IDX 12 1 11 2 10 3 9 4 7 5 8 6 6 8 1 9 2 10 3 11 94 12 4 13 5 14
REMARK SMILES IDX 82 15 83 16 84 17 85 18 86 20 87 21 88 22 89 23 93 24 90 26
REMARK SMILES IDX 92 27 91 28 13 29 14 30 15 31 16 32 17 33 18 35 19 36 20 37
REMARK SMILES IDX 81 38 21 39 80 40 22 41 23 42 24 43 74 44 25 45 79 46 73 47
REMARK SMILES IDX 75 48 26 49 78 50 72 51 71 52 27 54 59 55 39 56 58 57 40 58
REMARK SMILES IDX 43 59 57 60 76 61 41 62 42 63 56 65 77 66 44 67 28 68 29 69
REMARK SMILES IDX 37 70 30 71 36 72 38 73 35 74 31 75 32 76 33 77 34 78 60 79
REMARK SMILES IDX 61 80 69 81 62 82 68 83 70 84 67 85 63 86 64 87 65 88 66 89
REMARK SMILES IDX 45 90 46 91 54 92 47 93 53 94 55 95 52 96 48 97 49 98 50 99
REMARK SMILES IDX 51 100
REMARK H PARENT 9 7 85 19 88 25 16 34 75 53 43 64
REMARK Flexibility Score: inf
ROOT
ATOM      1  C   UNL A   1      33.876  22.784  22.728  1.00  0.00     0.002 C 
ENDROOT
BRANCH   1   2
ATOM      2  C   UNL A   1      32.458  22.944  23.268  1.00  0.00     0.021 C 
BRANCH   2   3
ATOM      3  C   UNL A   1      32.076  24.392  23.557  1.00  0.00     0.116 C 
BRANCH   3   4
ATOM      4  N   UNL A   1      32.019  24.709  24.961  1.00  0.00    -0.356 N 
ATOM      5  C   UNL A   1      32.301  25.858  25.623  1.00  0.00     0.224 C 
ATOM      6  O   UNL A   1      32.065  25.885  26.838  1.00  0.00    -0.275 OA
ATOM      7  H   UNL A   1      31.724  23.967  25.537  1.00  0.00     0.163 HD
BRANCH   5   8
ATOM      8  C   UNL A   1      32.809  27.128  24.929  1.00  0.00     0.095 C 
ATOM      9  C   UNL A   1      32.460  30.966  27.141  1.00  0.00     0.039 C 
ATOM     10  C   UNL A   1      32.777  29.748  26.303  1.00  0.00    -0.074 C 
ATOM     11  C   UNL A   1      33.820  28.917  26.511  1.00  0.00    -0.074 C 
ATOM     12  C   UNL A   1      31.723  29.478  25.244  1.00  0.00     0.045 C 
ATOM     13  C   UNL A   1      34.836  29.043  27.622  1.00  0.00     0.039 C 
ATOM     14  C   UNL A   1      34.034  27.689  25.660  1.00  0.00     0.045 C 
ATOM     15  C   UNL A   1      31.807  28.178  24.411  1.00  0.00     0.095 C 
BRANCH  15  16
ATOM     16  C   UNL A   1      30.397  27.619  24.152  1.00  0.00     0.224 C 
ATOM     17  O   UNL A   1      29.934  26.620  24.696  1.00  0.00    -0.275 OA
ATOM     18  N   UNL A   1      29.579  28.252  23.263  1.00  0.00    -0.350 N 
ATOM     19  H   UNL A   1      28.643  28.397  23.532  1.00  0.00     0.163 HD
BRANCH  18  20
ATOM     20  C   UNL A   1      29.978  28.730  21.955  1.00  0.00     0.177 C 
BRANCH  20  21
ATOM     21  C   UNL A   1      29.685  30.243  21.864  1.00  0.00     0.283 C 
BRANCH  21  22
ATOM     22  N   UNL A   1      28.251  30.561  22.055  1.00  0.00    -0.330 N 
ATOM     23  C   UNL A   1      27.651  31.110  20.817  1.00  0.00     0.291 C 
ATOM     24  C   UNL A   1      28.013  31.542  23.136  1.00  0.00     0.291 C 
ATOM     25  H   UNL A   1      27.815  29.675  22.308  1.00  0.00     0.348 HD
ATOM     26  C   UNL A   1      28.134  32.532  20.487  1.00  0.00     0.221 C 
ATOM     27  C   UNL A   1      28.487  32.964  22.788  1.00  0.00     0.221 C 
ATOM     28  O   UNL A   1      27.891  33.437  21.573  1.00  0.00    -0.370 OA
ENDBRANCH  21  22
ENDBRANCH  20  21
ENDBRANCH  18  20
ENDBRANCH  15  16
ENDBRANCH   5   8
ENDBRANCH   3   4
ENDBRANCH   2   3
ENDBRANCH   1   2
BRANCH   1  29
ATOM     29  C   UNL A   1      34.968  23.039  23.770  1.00  0.00     0.002 C 
BRANCH  29  30
ATOM     30  C   UNL A   1      34.802  22.244  25.069  1.00  0.00     0.021 C 
BRANCH  30  31
ATOM     31  C   UNL A   1      35.997  22.342  26.009  1.00  0.00     0.116 C 
BRANCH  31  32
ATOM     32  N   UNL A   1      36.875  21.193  25.861  1.00  0.00    -0.352 N 
ATOM     33  C   UNL A   1      38.246  21.169  25.811  1.00  0.00     0.251 C 
ATOM     34  H   UNL A   1      36.428  20.320  25.785  1.00  0.00     0.163 HD
ATOM     35  O   UNL A   1      38.833  20.178  25.396  1.00  0.00    -0.269 OA
BRANCH  33  36
ATOM     36  C   UNL A   1      38.995  22.361  26.260  1.00  0.00     0.039 A 
ATOM     37  C   UNL A   1      40.053  22.207  27.158  1.00  0.00     0.014 A 
ATOM     38  C   UNL A   1      38.648  23.626  25.779  1.00  0.00     0.014 A 
ATOM     39  C   UNL A   1      40.796  23.326  27.541  1.00  0.00     0.010 A 
ATOM     40  C   UNL A   1      39.436  24.724  26.100  1.00  0.00     0.010 A 
ATOM     41  C   UNL A   1      40.509  24.589  26.996  1.00  0.00    -0.014 A 
BRANCH  41  42
ATOM     42  C   UNL A   1      41.279  25.800  27.376  1.00  0.00     0.031 A 
ATOM     43  C   UNL A   1      40.612  26.865  28.202  1.00  0.00     0.074 A 
ATOM     44  C   UNL A   1      42.533  25.977  26.918  1.00  0.00     0.049 A 
ATOM     45  N   UNL A   1      41.038  28.060  28.516  1.00  0.00    -0.248 NA
ATOM     46  C   UNL A   1      39.268  26.551  28.712  1.00  0.00     0.031 C 
ATOM     47  C   UNL A   1      43.279  25.019  26.099  1.00  0.00     0.029 A 
ATOM     48  N   UNL A   1      43.399  27.033  27.064  1.00  0.00    -0.354 N 
ATOM     49  C   UNL A   1      40.007  28.649  29.243  1.00  0.00     0.074 A 
ATOM     50  C   UNL A   1      38.914  27.701  29.263  1.00  0.00     0.031 C 
ATOM     51  C   UNL A   1      44.493  25.525  25.830  1.00  0.00     0.029 A 
ATOM     52  C   UNL A   1      44.593  26.863  26.404  1.00  0.00     0.049 A 
ATOM     53  H   UNL A   1      43.184  27.836  27.591  1.00  0.00     0.167 HD
ATOM     54  C   UNL A   1      39.986  29.859  29.853  1.00  0.00     0.034 A 
ATOM     55  C   UNL A   1      45.639  27.702  26.258  1.00  0.00     0.034 A 
ATOM     56  C   UNL A   1      41.093  30.784  29.829  1.00  0.00     0.049 A 
ATOM     57  C   UNL A   1      45.576  29.065  26.903  1.00  0.00     0.074 A 
ATOM     58  C   UNL A   1      41.196  32.020  30.441  1.00  0.00     0.029 A 
ATOM     59  N   UNL A   1      42.287  30.576  29.150  1.00  0.00    -0.354 N 
ATOM     60  N   UNL A   1      44.603  29.602  27.604  1.00  0.00    -0.248 NA
ATOM     61  C   UNL A   1      46.751  29.932  26.746  1.00  0.00     0.031 C 
ATOM     62  C   UNL A   1      42.418  32.591  30.072  1.00  0.00     0.029 A 
ATOM     63  C   UNL A   1      43.120  31.673  29.306  1.00  0.00     0.049 A 
ATOM     64  H   UNL A   1      42.510  29.767  28.633  1.00  0.00     0.167 HD
ATOM     65  C   UNL A   1      45.072  30.849  28.011  1.00  0.00     0.074 A 
ATOM     66  C   UNL A   1      46.410  30.985  27.475  1.00  0.00     0.031 C 
ATOM     67  C   UNL A   1      44.457  31.790  28.772  1.00  0.00     0.034 A 
BRANCH  54  68
ATOM     68  C   UNL A   1      38.715  30.257  30.566  1.00  0.00     0.023 A 
ATOM     69  C   UNL A   1      37.740  31.059  29.948  1.00  0.00     0.031 A 
ATOM     70  C   UNL A   1      38.488  29.857  31.895  1.00  0.00     0.131 A 
ATOM     71  C   UNL A   1      36.631  31.505  30.681  1.00  0.00     0.055 A 
ATOM     72  C   UNL A   1      37.335  30.228  32.590  1.00  0.00     0.041 A 
ATOM     73  F   UNL A   1      39.392  29.110  32.549  1.00  0.00    -0.206 F 
ATOM     74  C   UNL A   1      36.407  31.071  31.990  1.00  0.00     0.022 A 
BRANCH  71  75
ATOM     75  S   UNL A   1      35.575  32.790  29.956  1.00  0.00     0.124 S 
ATOM     76  O   UNL A   1      35.436  32.314  28.581  1.00  0.00    -0.237 OA
ATOM     77  O   UNL A   1      34.376  32.717  30.782  1.00  0.00    -0.237 OA
ATOM     78  O   UNL A   1      36.367  34.010  30.107  1.00  0.00    -0.744 OA
ENDBRANCH  71  75
ENDBRANCH  54  68
BRANCH  55  79
ATOM     79  C   UNL A   1      46.831  27.292  25.460  1.00  0.00     0.023 A 
ATOM     80  C   UNL A   1      47.025  27.771  24.155  1.00  0.00     0.031 A 
ATOM     81  C   UNL A   1      47.772  26.379  25.972  1.00  0.00     0.131 A 
ATOM     82  C   UNL A   1      48.102  27.297  23.388  1.00  0.00     0.055 A 
ATOM     83  C   UNL A   1      48.875  25.959  25.227  1.00  0.00     0.041 A 
ATOM     84  F   UNL A   1      47.636  25.890  27.215  1.00  0.00    -0.206 F 
ATOM     85  C   UNL A   1      49.036  26.407  23.920  1.00  0.00     0.022 A 
BRANCH  82  86
ATOM     86  S   UNL A   1      48.205  27.787  21.644  1.00  0.00     0.124 S 
ATOM     87  O   UNL A   1      46.967  28.540  21.476  1.00  0.00    -0.237 OA
ATOM     88  O   UNL A   1      49.439  28.566  21.621  1.00  0.00    -0.237 OA
ATOM     89  O   UNL A   1      48.263  26.511  20.936  1.00  0.00    -0.744 OA
ENDBRANCH  82  86
ENDBRANCH  55  79
BRANCH  67  90
ATOM     90  C   UNL A   1      45.253  33.018  29.142  1.00  0.00     0.023 A 
ATOM     91  C   UNL A   1      45.210  34.199  28.381  1.00  0.00     0.031 A 
ATOM     92  C   UNL A   1      46.050  33.006  30.302  1.00  0.00     0.131 A 
ATOM     93  C   UNL A   1      45.982  35.305  28.768  1.00  0.00     0.055 A 
ATOM     94  C   UNL A   1      46.767  34.129  30.715  1.00  0.00     0.041 A 
ATOM     95  F   UNL A   1      46.130  31.903  31.064  1.00  0.00    -0.206 F 
ATOM     96  C   UNL A   1      46.743  35.284  29.940  1.00  0.00     0.022 A 
BRANCH  93  97
ATOM     97  S   UNL A   1      46.037  36.756  27.680  1.00  0.00     0.124 S 
ATOM     98  O   UNL A   1      45.835  36.157  26.365  1.00  0.00    -0.237 OA
ATOM     99  O   UNL A   1      44.936  37.569  28.187  1.00  0.00    -0.237 OA
ATOM    100  O   UNL A   1      47.371  37.308  27.911  1.00  0.00    -0.744 OA
ENDBRANCH  93  97
ENDBRANCH  67  90
ENDBRANCH  41  42
ENDBRANCH  33  36
ENDBRANCH  31  32
ENDBRANCH  30  31
ENDBRANCH  29  30
ENDBRANCH   1  29
TORSDOF 20
ENDMDL
