MODEL 1
REMARK VINA RESULT:     -12.8      0.000      0.000
REMARK SMILES O=C(NCCCCCCNC(=O)c1ccc(-c2c3nc(c(-c4cc(S(=O)(=O)[O-])ccc4F)c4ccc([nH]4)c(-c4cc(S(=O)(=O)[O-])ccc4F)c4nc(c(-c5cc(S(=O)(=O)[O-])ccc5F)c5ccc2[nH]5)C=C4)C=C3)cc1)C1=Cc2cc(Cl)cc(-c3ccc(CO)cc3)c2O[C@@H]1C(F)(F)F
REMARK SMILES IDX 6 1 5 2 4 3 3 4 1 5 2 6 76 8 77 9 94 10 78 11 93 12 79 13
REMARK SMILES IDX 92 14 80 15 83 16 81 17 82 18 95 19 96 20 97 21 98 22 84 23
REMARK SMILES IDX 85 24 91 25 86 26 90 27 87 28 88 29 89 30 7 32 8 33 9 34
REMARK SMILES IDX 10 35 11 36 12 38 13 39 14 40 75 41 15 42 74 43 16 44 17 45
REMARK SMILES IDX 18 46 68 47 19 48 73 49 67 50 69 51 20 52 72 53 66 54 65 55
REMARK SMILES IDX 21 57 53 58 33 59 52 60 34 61 37 62 51 63 70 64 35 65 36 66
REMARK SMILES IDX 50 68 71 69 38 70 22 71 23 72 31 73 24 74 30 75 32 76 29 77
REMARK SMILES IDX 25 78 26 79 27 80 28 81 54 82 55 83 63 84 56 85 62 86 64 87
REMARK SMILES IDX 61 88 57 89 58 90 59 91 60 92 39 93 40 94 48 95 41 96 47 97
REMARK SMILES IDX 49 98 46 99 42 100 43 101 44 102 45 103
REMARK H PARENT 3 7 89 31 10 37 69 56 37 67
REMARK Flexibility Score: inf
ROOT
ATOM      1  C   UNL A   1      31.060  27.812  26.272  1.00  0.00     0.002 C 
ENDROOT
BRANCH   1   2
ATOM      2  C   UNL A   1      30.885  26.579  25.379  1.00  0.00     0.021 C 
BRANCH   2   3
ATOM      3  C   UNL A   1      29.966  25.467  25.897  1.00  0.00     0.116 C 
BRANCH   3   4
ATOM      4  N   UNL A   1      30.583  24.563  26.866  1.00  0.00    -0.352 N 
ATOM      5  O   UNL A   1      32.157  23.219  27.759  1.00  0.00    -0.270 OA
ATOM      6  C   UNL A   1      31.706  23.774  26.759  1.00  0.00     0.251 C 
ATOM      7  H   UNL A   1      30.121  24.510  27.735  1.00  0.00     0.163 HD
BRANCH   6   8
ATOM      8  C   UNL A   1      32.487  23.758  25.493  1.00  0.00     0.067 C 
ATOM      9  C   UNL A   1      33.758  24.156  25.349  1.00  0.00     0.025 C 
ATOM     10  C   UNL A   1      31.968  22.828  24.437  1.00  0.00     0.314 C 
ATOM     11  C   UNL A   1      34.665  23.039  25.020  1.00  0.00     0.019 A 
ATOM     12  O   UNL A   1      32.769  21.626  24.389  1.00  0.00    -0.475 OA
ATOM     13  C   UNL A   1      36.014  23.140  25.378  1.00  0.00     0.032 A 
ATOM     14  C   UNL A   1      34.109  21.779  24.681  1.00  0.00     0.135 A 
ATOM     15  C   UNL A   1      36.796  21.991  25.437  1.00  0.00     0.042 A 
ATOM     16  C   UNL A   1      34.882  20.610  24.797  1.00  0.00     0.026 A 
ATOM     17  Cl  UNL A   1      38.406  22.083  26.035  1.00  0.00    -0.084 Cl
ATOM     18  C   UNL A   1      36.240  20.744  25.152  1.00  0.00     0.033 A 
BRANCH  10  19
ATOM     19  C   UNL A   1      31.884  23.554  23.070  1.00  0.00     0.429 C 
ATOM     20  F   UNL A   1      30.612  23.593  22.605  1.00  0.00    -0.167 F 
ATOM     21  F   UNL A   1      32.301  24.843  23.164  1.00  0.00    -0.167 F 
ATOM     22  F   UNL A   1      32.639  22.973  22.107  1.00  0.00    -0.167 F 
ENDBRANCH  10  19
BRANCH  16  23
ATOM     23  C   UNL A   1      34.296  19.258  24.830  1.00  0.00    -0.015 A 
ATOM     24  C   UNL A   1      33.091  19.082  25.528  1.00  0.00     0.009 A 
ATOM     25  C   UNL A   1      34.894  18.126  24.275  1.00  0.00     0.009 A 
ATOM     26  C   UNL A   1      32.533  17.828  25.749  1.00  0.00     0.007 A 
ATOM     27  C   UNL A   1      34.335  16.854  24.488  1.00  0.00     0.007 A 
ATOM     28  C   UNL A   1      33.171  16.692  25.255  1.00  0.00    -0.023 A 
BRANCH  28  29
ATOM     29  C   UNL A   1      32.605  15.335  25.572  1.00  0.00     0.191 C 
BRANCH  29  30
ATOM     30  O   UNL A   1      33.586  14.320  25.383  1.00  0.00    -0.392 OA
ATOM     31  H   UNL A   1      33.427  13.597  26.009  1.00  0.00     0.211 HD
ENDBRANCH  29  30
ENDBRANCH  28  29
ENDBRANCH  16  23
ENDBRANCH   6   8
ENDBRANCH   3   4
ENDBRANCH   2   3
ENDBRANCH   1   2
BRANCH   1  32
ATOM     32  C   UNL A   1      32.227  27.790  27.267  1.00  0.00     0.002 C 
BRANCH  32  33
ATOM     33  C   UNL A   1      33.639  27.807  26.670  1.00  0.00     0.021 C 
BRANCH  33  34
ATOM     34  C   UNL A   1      33.976  28.988  25.772  1.00  0.00     0.116 C 
BRANCH  34  35
ATOM     35  N   UNL A   1      33.820  30.251  26.473  1.00  0.00    -0.352 N 
ATOM     36  C   UNL A   1      34.492  30.774  27.552  1.00  0.00     0.251 C 
ATOM     37  H   UNL A   1      33.111  30.832  26.112  1.00  0.00     0.163 HD
ATOM     38  O   UNL A   1      33.999  31.740  28.131  1.00  0.00    -0.269 OA
BRANCH  36  39
ATOM     39  C   UNL A   1      35.778  30.205  28.031  1.00  0.00     0.039 A 
ATOM     40  C   UNL A   1      35.806  29.567  29.278  1.00  0.00     0.014 A 
ATOM     41  C   UNL A   1      36.969  30.357  27.319  1.00  0.00     0.014 A 
ATOM     42  C   UNL A   1      37.009  29.059  29.785  1.00  0.00     0.010 A 
ATOM     43  C   UNL A   1      38.148  29.768  27.780  1.00  0.00     0.010 A 
ATOM     44  C   UNL A   1      38.189  29.134  29.030  1.00  0.00    -0.014 A 
BRANCH  44  45
ATOM     45  C   UNL A   1      39.482  28.605  29.546  1.00  0.00     0.031 A 
ATOM     46  C   UNL A   1      40.193  29.323  30.667  1.00  0.00     0.074 A 
ATOM     47  C   UNL A   1      40.046  27.523  28.972  1.00  0.00     0.049 A 
ATOM     48  N   UNL A   1      41.372  29.093  31.185  1.00  0.00    -0.248 NA
ATOM     49  C   UNL A   1      39.495  30.476  31.259  1.00  0.00     0.031 C 
ATOM     50  C   UNL A   1      39.474  26.761  27.860  1.00  0.00     0.029 A 
ATOM     51  N   UNL A   1      41.231  26.881  29.236  1.00  0.00    -0.354 N 
ATOM     52  C   UNL A   1      41.569  30.085  32.142  1.00  0.00     0.074 A 
ATOM     53  C   UNL A   1      40.411  30.951  32.089  1.00  0.00     0.031 C 
ATOM     54  C   UNL A   1      40.294  25.742  27.557  1.00  0.00     0.029 A 
ATOM     55  C   UNL A   1      41.474  25.805  28.413  1.00  0.00     0.049 A 
ATOM     56  H   UNL A   1      41.849  27.163  29.949  1.00  0.00     0.167 HD
ATOM     57  C   UNL A   1      42.608  30.247  32.999  1.00  0.00     0.034 A 
ATOM     58  C   UNL A   1      42.533  24.974  28.345  1.00  0.00     0.034 A 
ATOM     59  C   UNL A   1      43.739  29.353  33.062  1.00  0.00     0.049 A 
ATOM     60  C   UNL A   1      43.679  25.177  29.305  1.00  0.00     0.074 A 
ATOM     61  C   UNL A   1      44.814  29.384  33.933  1.00  0.00     0.029 A 
ATOM     62  N   UNL A   1      43.942  28.268  32.220  1.00  0.00    -0.354 N 
ATOM     63  N   UNL A   1      43.827  26.096  30.232  1.00  0.00    -0.248 NA
ATOM     64  C   UNL A   1      44.794  24.226  29.217  1.00  0.00     0.031 C 
ATOM     65  C   UNL A   1      45.697  28.359  33.577  1.00  0.00     0.029 A 
ATOM     66  C   UNL A   1      45.138  27.641  32.532  1.00  0.00     0.049 A 
ATOM     67  H   UNL A   1      43.327  27.986  31.504  1.00  0.00     0.167 HD
ATOM     68  C   UNL A   1      45.038  25.809  30.859  1.00  0.00     0.074 A 
ATOM     69  C   UNL A   1      45.568  24.626  30.215  1.00  0.00     0.031 C 
ATOM     70  C   UNL A   1      45.655  26.462  31.877  1.00  0.00     0.034 A 
BRANCH  57  71
ATOM     71  C   UNL A   1      42.577  31.444  33.920  1.00  0.00     0.023 A 
ATOM     72  C   UNL A   1      41.911  31.411  35.159  1.00  0.00     0.031 A 
ATOM     73  C   UNL A   1      43.211  32.643  33.549  1.00  0.00     0.131 A 
ATOM     74  C   UNL A   1      41.832  32.572  35.944  1.00  0.00     0.055 A 
ATOM     75  C   UNL A   1      43.198  33.771  34.373  1.00  0.00     0.041 A 
ATOM     76  F   UNL A   1      43.846  32.744  32.371  1.00  0.00    -0.206 F 
ATOM     77  C   UNL A   1      42.493  33.745  35.572  1.00  0.00     0.022 A 
BRANCH  74  78
ATOM     78  S   UNL A   1      40.738  32.562  37.390  1.00  0.00     0.124 S 
ATOM     79  O   UNL A   1      40.421  33.980  37.531  1.00  0.00    -0.237 OA
ATOM     80  O   UNL A   1      39.649  31.699  36.959  1.00  0.00    -0.237 OA
ATOM     81  O   UNL A   1      41.586  32.013  38.455  1.00  0.00    -0.744 OA
ENDBRANCH  74  78
ENDBRANCH  57  71
BRANCH  58  82
ATOM     82  C   UNL A   1      42.576  23.877  27.333  1.00  0.00     0.023 A 
ATOM     83  C   UNL A   1      41.951  22.644  27.579  1.00  0.00     0.031 A 
ATOM     84  C   UNL A   1      43.287  24.026  26.129  1.00  0.00     0.131 A 
ATOM     85  C   UNL A   1      42.094  21.590  26.662  1.00  0.00     0.055 A 
ATOM     86  C   UNL A   1      43.378  22.994  25.193  1.00  0.00     0.041 A 
ATOM     87  F   UNL A   1      43.899  25.185  25.840  1.00  0.00    -0.206 F 
ATOM     88  C   UNL A   1      42.791  21.761  25.465  1.00  0.00     0.022 A 
BRANCH  85  89
ATOM     89  S   UNL A   1      41.436  19.959  27.106  1.00  0.00     0.124 S 
ATOM     90  O   UNL A   1      40.758  20.245  28.365  1.00  0.00    -0.237 OA
ATOM     91  O   UNL A   1      40.576  19.660  25.967  1.00  0.00    -0.237 OA
ATOM     92  O   UNL A   1      42.634  19.129  27.216  1.00  0.00    -0.744 OA
ENDBRANCH  85  89
ENDBRANCH  58  82
BRANCH  70  93
ATOM     93  C   UNL A   1      46.946  25.871  32.386  1.00  0.00     0.023 A 
ATOM     94  C   UNL A   1      46.977  24.989  33.479  1.00  0.00     0.031 A 
ATOM     95  C   UNL A   1      48.165  26.208  31.770  1.00  0.00     0.131 A 
ATOM     96  C   UNL A   1      48.207  24.517  33.960  1.00  0.00     0.055 A 
ATOM     97  C   UNL A   1      49.380  25.686  32.215  1.00  0.00     0.041 A 
ATOM     98  F   UNL A   1      48.194  27.046  30.722  1.00  0.00    -0.206 F 
ATOM     99  C   UNL A   1      49.408  24.846  33.325  1.00  0.00     0.022 A 
BRANCH  96 100
ATOM    100  S   UNL A   1      48.227  23.539  35.487  1.00  0.00     0.124 S 
ATOM    101  O   UNL A   1      49.445  22.752  35.327  1.00  0.00    -0.237 OA
ATOM    102  O   UNL A   1      48.266  24.570  36.518  1.00  0.00    -0.237 OA
ATOM    103  O   UNL A   1      46.982  22.775  35.422  1.00  0.00    -0.744 OA
ENDBRANCH  96 100
ENDBRANCH  70  93
ENDBRANCH  44  45
ENDBRANCH  36  39
ENDBRANCH  34  35
ENDBRANCH  33  34
ENDBRANCH  32  33
ENDBRANCH   1  32
TORSDOF 20
ENDMDL
MODEL 2
REMARK VINA RESULT:     -12.4      2.265      7.392
REMARK SMILES O=C(NCCCCCCNC(=O)c1ccc(-c2c3nc(c(-c4cc(S(=O)(=O)[O-])ccc4F)c4ccc([nH]4)c(-c4cc(S(=O)(=O)[O-])ccc4F)c4nc(c(-c5cc(S(=O)(=O)[O-])ccc5F)c5ccc2[nH]5)C=C4)C=C3)cc1)C1=Cc2cc(Cl)cc(-c3ccc(CO)cc3)c2O[C@@H]1C(F)(F)F
REMARK SMILES IDX 6 1 5 2 4 3 3 4 1 5 2 6 76 8 77 9 94 10 78 11 93 12 79 13
REMARK SMILES IDX 92 14 80 15 83 16 81 17 82 18 95 19 96 20 97 21 98 22 84 23
REMARK SMILES IDX 85 24 91 25 86 26 90 27 87 28 88 29 89 30 7 32 8 33 9 34
REMARK SMILES IDX 10 35 11 36 12 38 13 39 14 40 75 41 15 42 74 43 16 44 17 45
REMARK SMILES IDX 18 46 68 47 19 48 73 49 67 50 69 51 20 52 72 53 66 54 65 55
REMARK SMILES IDX 21 57 53 58 33 59 52 60 34 61 37 62 51 63 70 64 35 65 36 66
REMARK SMILES IDX 50 68 71 69 38 70 22 71 23 72 31 73 24 74 30 75 32 76 29 77
REMARK SMILES IDX 25 78 26 79 27 80 28 81 54 82 55 83 63 84 56 85 62 86 64 87
REMARK SMILES IDX 61 88 57 89 58 90 59 91 60 92 39 93 40 94 48 95 41 96 47 97
REMARK SMILES IDX 49 98 46 99 42 100 43 101 44 102 45 103
REMARK H PARENT 3 7 89 31 10 37 69 56 37 67
REMARK Flexibility Score: inf
ROOT
ATOM      1  C   UNL A   1      31.101  27.046  24.318  1.00  0.00     0.002 C 
ENDROOT
BRANCH   1   2
ATOM      2  C   UNL A   1      30.830  26.568  25.749  1.00  0.00     0.021 C 
BRANCH   2   3
ATOM      3  C   UNL A   1      30.137  25.211  25.912  1.00  0.00     0.116 C 
BRANCH   3   4
ATOM      4  N   UNL A   1      30.769  24.310  26.875  1.00  0.00    -0.352 N 
ATOM      5  O   UNL A   1      32.343  22.943  27.731  1.00  0.00    -0.270 OA
ATOM      6  C   UNL A   1      31.866  23.489  26.739  1.00  0.00     0.251 C 
ATOM      7  H   UNL A   1      30.343  24.288  27.762  1.00  0.00     0.163 HD
BRANCH   6   8
ATOM      8  C   UNL A   1      32.593  23.426  25.442  1.00  0.00     0.067 C 
ATOM      9  C   UNL A   1      33.876  23.757  25.245  1.00  0.00     0.025 C 
ATOM     10  C   UNL A   1      31.985  22.519  24.415  1.00  0.00     0.314 C 
ATOM     11  C   UNL A   1      34.710  22.593  24.888  1.00  0.00     0.019 A 
ATOM     12  O   UNL A   1      32.720  21.277  24.344  1.00  0.00    -0.475 OA
ATOM     13  C   UNL A   1      36.077  22.626  25.191  1.00  0.00     0.032 A 
ATOM     14  C   UNL A   1      34.078  21.362  24.580  1.00  0.00     0.135 A 
ATOM     15  C   UNL A   1      36.800  21.439  25.227  1.00  0.00     0.042 A 
ATOM     16  C   UNL A   1      34.793  20.155  24.674  1.00  0.00     0.026 A 
ATOM     17  Cl  UNL A   1      38.435  21.451  25.759  1.00  0.00    -0.084 Cl
ATOM     18  C   UNL A   1      36.170  20.221  24.973  1.00  0.00     0.033 A 
BRANCH  10  19
ATOM     19  C   UNL A   1      31.883  23.241  23.047  1.00  0.00     0.429 C 
ATOM     20  F   UNL A   1      30.603  23.573  22.755  1.00  0.00    -0.167 F 
ATOM     21  F   UNL A   1      32.595  24.398  23.041  1.00  0.00    -0.167 F 
ATOM     22  F   UNL A   1      32.345  22.498  22.013  1.00  0.00    -0.167 F 
ENDBRANCH  10  19
BRANCH  16  23
ATOM     23  C   UNL A   1      34.141  18.835  24.741  1.00  0.00    -0.015 A 
ATOM     24  C   UNL A   1      32.968  18.721  25.503  1.00  0.00     0.009 A 
ATOM     25  C   UNL A   1      34.648  17.675  24.155  1.00  0.00     0.009 A 
ATOM     26  C   UNL A   1      32.358  17.497  25.756  1.00  0.00     0.007 A 
ATOM     27  C   UNL A   1      34.036  16.433  24.400  1.00  0.00     0.007 A 
ATOM     28  C   UNL A   1      32.908  16.330  25.229  1.00  0.00    -0.023 A 
BRANCH  28  29
ATOM     29  C   UNL A   1      32.291  15.004  25.578  1.00  0.00     0.191 C 
BRANCH  29  30
ATOM     30  O   UNL A   1      33.279  13.980  25.617  1.00  0.00    -0.392 OA
ATOM     31  H   UNL A   1      34.157  14.372  25.491  1.00  0.00     0.211 HD
ENDBRANCH  29  30
ENDBRANCH  28  29
ENDBRANCH  16  23
ENDBRANCH   6   8
ENDBRANCH   3   4
ENDBRANCH   2   3
ENDBRANCH   1   2
BRANCH   1  32
ATOM     32  C   UNL A   1      32.561  27.323  23.943  1.00  0.00     0.002 C 
BRANCH  32  33
ATOM     33  C   UNL A   1      33.056  28.763  24.125  1.00  0.00     0.021 C 
BRANCH  33  34
ATOM     34  C   UNL A   1      33.573  29.127  25.509  1.00  0.00     0.116 C 
BRANCH  34  35
ATOM     35  N   UNL A   1      33.121  30.447  25.915  1.00  0.00    -0.352 N 
ATOM     36  C   UNL A   1      33.490  31.243  26.974  1.00  0.00     0.251 C 
ATOM     37  H   UNL A   1      32.432  30.839  25.330  1.00  0.00     0.163 HD
ATOM     38  O   UNL A   1      32.774  32.199  27.259  1.00  0.00    -0.269 OA
BRANCH  36  39
ATOM     39  C   UNL A   1      34.715  30.974  27.770  1.00  0.00     0.039 A 
ATOM     40  C   UNL A   1      34.859  29.719  28.377  1.00  0.00     0.014 A 
ATOM     41  C   UNL A   1      35.683  31.954  28.001  1.00  0.00     0.014 A 
ATOM     42  C   UNL A   1      35.976  29.444  29.175  1.00  0.00     0.010 A 
ATOM     43  C   UNL A   1      36.841  31.649  28.716  1.00  0.00     0.010 A 
ATOM     44  C   UNL A   1      36.991  30.399  29.334  1.00  0.00    -0.014 A 
BRANCH  44  45
ATOM     45  C   UNL A   1      38.189  30.134  30.180  1.00  0.00     0.031 A 
ATOM     46  C   UNL A   1      39.309  29.274  29.647  1.00  0.00     0.074 A 
ATOM     47  C   UNL A   1      38.245  30.612  31.440  1.00  0.00     0.049 A 
ATOM     48  N   UNL A   1      40.381  28.836  30.256  1.00  0.00    -0.248 NA
ATOM     49  C   UNL A   1      39.186  28.819  28.253  1.00  0.00     0.031 C 
ATOM     50  C   UNL A   1      37.212  31.429  32.080  1.00  0.00     0.029 A 
ATOM     51  N   UNL A   1      39.204  30.474  32.412  1.00  0.00    -0.354 N 
ATOM     52  C   UNL A   1      41.044  28.034  29.331  1.00  0.00     0.074 A 
ATOM     53  C   UNL A   1      40.222  28.002  28.142  1.00  0.00     0.031 C 
ATOM     54  C   UNL A   1      37.605  31.739  33.326  1.00  0.00     0.029 A 
ATOM     55  C   UNL A   1      38.891  31.103  33.594  1.00  0.00     0.049 A 
ATOM     56  H   UNL A   1      40.040  29.971  32.275  1.00  0.00     0.167 HD
ATOM     57  C   UNL A   1      42.237  27.401  29.454  1.00  0.00     0.034 A 
ATOM     58  C   UNL A   1      39.556  31.151  34.766  1.00  0.00     0.034 A 
ATOM     59  C   UNL A   1      43.062  27.473  30.636  1.00  0.00     0.049 A 
ATOM     60  C   UNL A   1      40.878  30.434  34.881  1.00  0.00     0.074 A 
ATOM     61  C   UNL A   1      44.316  26.926  30.846  1.00  0.00     0.029 A 
ATOM     62  N   UNL A   1      42.715  28.131  31.809  1.00  0.00    -0.354 N 
ATOM     63  N   UNL A   1      41.510  29.716  33.980  1.00  0.00    -0.248 NA
ATOM     64  C   UNL A   1      41.582  30.544  36.165  1.00  0.00     0.031 C 
ATOM     65  C   UNL A   1      44.699  27.198  32.164  1.00  0.00     0.029 A 
ATOM     66  C   UNL A   1      43.717  27.979  32.754  1.00  0.00     0.049 A 
ATOM     67  H   UNL A   1      41.878  28.631  31.949  1.00  0.00     0.167 HD
ATOM     68  C   UNL A   1      42.702  29.319  34.581  1.00  0.00     0.074 A 
ATOM     69  C   UNL A   1      42.706  29.889  35.912  1.00  0.00     0.031 C 
ATOM     70  C   UNL A   1      43.704  28.553  34.079  1.00  0.00     0.034 A 
BRANCH  57  71
ATOM     71  C   UNL A   1      42.709  26.561  28.290  1.00  0.00     0.023 A 
ATOM     72  C   UNL A   1      42.346  25.209  28.154  1.00  0.00     0.031 A 
ATOM     73  C   UNL A   1      43.545  27.117  27.305  1.00  0.00     0.131 A 
ATOM     74  C   UNL A   1      42.875  24.442  27.105  1.00  0.00     0.055 A 
ATOM     75  C   UNL A   1      44.004  26.369  26.218  1.00  0.00     0.041 A 
ATOM     76  F   UNL A   1      43.943  28.396  27.388  1.00  0.00    -0.206 F 
ATOM     77  C   UNL A   1      43.681  25.019  26.121  1.00  0.00     0.022 A 
BRANCH  74  78
ATOM     78  S   UNL A   1      42.605  22.649  27.125  1.00  0.00     0.124 S 
ATOM     79  O   UNL A   1      42.188  22.428  28.507  1.00  0.00    -0.237 OA
ATOM     80  O   UNL A   1      41.581  22.470  26.108  1.00  0.00    -0.237 OA
ATOM     81  O   UNL A   1      43.924  22.102  26.787  1.00  0.00    -0.744 OA
ENDBRANCH  74  78
ENDBRANCH  57  71
BRANCH  58  82
ATOM     82  C   UNL A   1      38.991  31.892  35.932  1.00  0.00     0.023 A 
ATOM     83  C   UNL A   1      38.305  31.216  36.954  1.00  0.00     0.031 A 
ATOM     84  C   UNL A   1      39.082  33.293  36.016  1.00  0.00     0.131 A 
ATOM     85  C   UNL A   1      37.690  31.943  37.986  1.00  0.00     0.055 A 
ATOM     86  C   UNL A   1      38.518  34.007  37.075  1.00  0.00     0.041 A 
ATOM     87  F   UNL A   1      39.730  33.990  35.070  1.00  0.00    -0.206 F 
ATOM     88  C   UNL A   1      37.804  33.332  38.061  1.00  0.00     0.022 A 
BRANCH  85  89
ATOM     89  S   UNL A   1      36.653  31.050  39.177  1.00  0.00     0.124 S 
ATOM     90  O   UNL A   1      35.490  31.924  39.271  1.00  0.00    -0.237 OA
ATOM     91  O   UNL A   1      36.445  29.775  38.501  1.00  0.00    -0.237 OA
ATOM     92  O   UNL A   1      37.489  30.990  40.375  1.00  0.00    -0.744 OA
ENDBRANCH  85  89
ENDBRANCH  58  82
BRANCH  70  93
ATOM     93  C   UNL A   1      44.910  28.339  34.961  1.00  0.00     0.023 A 
ATOM     94  C   UNL A   1      44.983  27.269  35.868  1.00  0.00     0.031 A 
ATOM     95  C   UNL A   1      45.996  29.230  34.896  1.00  0.00     0.131 A 
ATOM     96  C   UNL A   1      46.094  27.148  36.716  1.00  0.00     0.055 A 
ATOM     97  C   UNL A   1      47.126  29.068  35.698  1.00  0.00     0.041 A 
ATOM     98  F   UNL A   1      45.979  30.270  34.047  1.00  0.00    -0.206 F 
ATOM     99  C   UNL A   1      47.174  28.031  36.625  1.00  0.00     0.022 A 
BRANCH  96 100
ATOM    100  S   UNL A   1      46.070  25.873  38.005  1.00  0.00     0.124 S 
ATOM    101  O   UNL A   1      44.653  25.813  38.347  1.00  0.00    -0.237 OA
ATOM    102  O   UNL A   1      46.606  24.710  37.304  1.00  0.00    -0.237 OA
ATOM    103  O   UNL A   1      46.938  26.421  39.046  1.00  0.00    -0.744 OA
ENDBRANCH  96 100
ENDBRANCH  70  93
ENDBRANCH  44  45
ENDBRANCH  36  39
ENDBRANCH  34  35
ENDBRANCH  33  34
ENDBRANCH  32  33
ENDBRANCH   1  32
TORSDOF 20
ENDMDL
MODEL 3
REMARK VINA RESULT:     -12.2      5.275      8.900
REMARK SMILES O=C(NCCCCCCNC(=O)c1ccc(-c2c3nc(c(-c4cc(S(=O)(=O)[O-])ccc4F)c4ccc([nH]4)c(-c4cc(S(=O)(=O)[O-])ccc4F)c4nc(c(-c5cc(S(=O)(=O)[O-])ccc5F)c5ccc2[nH]5)C=C4)C=C3)cc1)C1=Cc2cc(Cl)cc(-c3ccc(CO)cc3)c2O[C@@H]1C(F)(F)F
REMARK SMILES IDX 6 1 5 2 4 3 3 4 1 5 2 6 76 8 77 9 94 10 78 11 93 12 79 13
REMARK SMILES IDX 92 14 80 15 83 16 81 17 82 18 95 19 96 20 97 21 98 22 84 23
REMARK SMILES IDX 85 24 91 25 86 26 90 27 87 28 88 29 89 30 7 32 8 33 9 34
REMARK SMILES IDX 10 35 11 36 12 38 13 39 14 40 75 41 15 42 74 43 16 44 17 45
REMARK SMILES IDX 18 46 68 47 19 48 73 49 67 50 69 51 20 52 72 53 66 54 65 55
REMARK SMILES IDX 21 57 53 58 33 59 52 60 34 61 37 62 51 63 70 64 35 65 36 66
REMARK SMILES IDX 50 68 71 69 38 70 22 71 23 72 31 73 24 74 30 75 32 76 29 77
REMARK SMILES IDX 25 78 26 79 27 80 28 81 54 82 55 83 63 84 56 85 62 86 64 87
REMARK SMILES IDX 61 88 57 89 58 90 59 91 60 92 39 93 40 94 48 95 41 96 47 97
REMARK SMILES IDX 49 98 46 99 42 100 43 101 44 102 45 103
REMARK H PARENT 3 7 89 31 10 37 69 56 37 67
REMARK Flexibility Score: inf
ROOT
ATOM      1  C   UNL A   1      35.604  20.369  24.993  1.00  0.00     0.002 C 
ENDROOT
BRANCH   1   2
ATOM      2  C   UNL A   1      34.781  21.092  26.065  1.00  0.00     0.021 C 
BRANCH   2   3
ATOM      3  C   UNL A   1      33.258  20.931  26.002  1.00  0.00     0.116 C 
BRANCH   3   4
ATOM      4  N   UNL A   1      32.506  21.871  26.830  1.00  0.00    -0.352 N 
ATOM      5  O   UNL A   1      31.296  23.706  27.332  1.00  0.00    -0.270 OA
ATOM      6  C   UNL A   1      32.071  23.149  26.557  1.00  0.00     0.251 C 
ATOM      7  H   UNL A   1      32.272  21.537  27.727  1.00  0.00     0.163 HD
BRANCH   6   8
ATOM      8  C   UNL A   1      32.370  23.772  25.239  1.00  0.00     0.067 C 
ATOM      9  C   UNL A   1      31.473  24.063  24.288  1.00  0.00     0.025 C 
ATOM     10  C   UNL A   1      33.668  24.519  25.168  1.00  0.00     0.314 C 
ATOM     11  C   UNL A   1      31.330  25.516  24.074  1.00  0.00     0.019 A 
ATOM     12  O   UNL A   1      33.432  25.943  25.251  1.00  0.00    -0.475 OA
ATOM     13  C   UNL A   1      30.116  26.007  23.577  1.00  0.00     0.032 A 
ATOM     14  C   UNL A   1      32.257  26.397  24.688  1.00  0.00     0.135 A 
ATOM     15  C   UNL A   1      29.810  27.356  23.724  1.00  0.00     0.042 A 
ATOM     16  C   UNL A   1      31.923  27.747  24.890  1.00  0.00     0.026 A 
ATOM     17  Cl  UNL A   1      28.256  27.933  23.267  1.00  0.00    -0.084 Cl
ATOM     18  C   UNL A   1      30.698  28.214  24.371  1.00  0.00     0.033 A 
BRANCH  10  19
ATOM     19  C   UNL A   1      34.459  24.111  23.899  1.00  0.00     0.429 C 
ATOM     20  F   UNL A   1      34.317  25.025  22.909  1.00  0.00    -0.167 F 
ATOM     21  F   UNL A   1      35.791  24.017  24.151  1.00  0.00    -0.167 F 
ATOM     22  F   UNL A   1      34.077  22.915  23.391  1.00  0.00    -0.167 F 
ENDBRANCH  10  19
BRANCH  16  23
ATOM     23  C   UNL A   1      32.647  28.623  25.830  1.00  0.00    -0.015 A 
ATOM     24  C   UNL A   1      31.950  29.708  26.385  1.00  0.00     0.009 A 
ATOM     25  C   UNL A   1      33.997  28.489  26.151  1.00  0.00     0.009 A 
ATOM     26  C   UNL A   1      32.574  30.679  27.159  1.00  0.00     0.007 A 
ATOM     27  C   UNL A   1      34.638  29.462  26.939  1.00  0.00     0.007 A 
ATOM     28  C   UNL A   1      33.940  30.581  27.419  1.00  0.00    -0.023 A 
BRANCH  28  29
ATOM     29  C   UNL A   1      34.622  31.680  28.187  1.00  0.00     0.191 C 
BRANCH  29  30
ATOM     30  O   UNL A   1      34.024  32.941  27.908  1.00  0.00    -0.392 OA
ATOM     31  H   UNL A   1      34.482  33.358  27.162  1.00  0.00     0.211 HD
ENDBRANCH  29  30
ENDBRANCH  28  29
ENDBRANCH  16  23
ENDBRANCH   6   8
ENDBRANCH   3   4
ENDBRANCH   2   3
ENDBRANCH   1   2
BRANCH   1  32
ATOM     32  C   UNL A   1      37.030  20.878  24.752  1.00  0.00     0.002 C 
BRANCH  32  33
ATOM     33  C   UNL A   1      38.167  19.876  24.988  1.00  0.00     0.021 C 
BRANCH  33  34
ATOM     34  C   UNL A   1      39.192  20.259  26.045  1.00  0.00     0.116 C 
BRANCH  34  35
ATOM     35  N   UNL A   1      40.323  19.346  26.044  1.00  0.00    -0.352 N 
ATOM     36  C   UNL A   1      41.677  19.584  26.030  1.00  0.00     0.251 C 
ATOM     37  H   UNL A   1      40.076  18.392  26.055  1.00  0.00     0.163 HD
ATOM     38  O   UNL A   1      42.428  18.651  25.759  1.00  0.00    -0.269 OA
BRANCH  36  39
ATOM     39  C   UNL A   1      42.243  20.925  26.327  1.00  0.00     0.039 A 
ATOM     40  C   UNL A   1      42.601  21.225  27.649  1.00  0.00     0.014 A 
ATOM     41  C   UNL A   1      42.353  21.919  25.353  1.00  0.00     0.014 A 
ATOM     42  C   UNL A   1      43.093  22.494  27.978  1.00  0.00     0.010 A 
ATOM     43  C   UNL A   1      42.932  23.150  25.661  1.00  0.00     0.010 A 
ATOM     44  C   UNL A   1      43.286  23.463  26.982  1.00  0.00    -0.014 A 
BRANCH  44  45
ATOM     45  C   UNL A   1      43.805  24.822  27.303  1.00  0.00     0.031 A 
ATOM     46  C   UNL A   1      42.868  25.875  27.844  1.00  0.00     0.074 A 
ATOM     47  C   UNL A   1      45.095  25.128  27.055  1.00  0.00     0.049 A 
ATOM     48  N   UNL A   1      43.092  27.141  28.084  1.00  0.00    -0.248 NA
ATOM     49  C   UNL A   1      41.486  25.451  28.116  1.00  0.00     0.031 C 
ATOM     50  C   UNL A   1      46.091  24.207  26.504  1.00  0.00     0.029 A 
ATOM     51  N   UNL A   1      45.788  26.301  27.224  1.00  0.00    -0.354 N 
ATOM     52  C   UNL A   1      41.876  27.670  28.508  1.00  0.00     0.074 A 
ATOM     53  C   UNL A   1      40.907  26.598  28.436  1.00  0.00     0.031 C 
ATOM     54  C   UNL A   1      47.270  24.842  26.406  1.00  0.00     0.029 A 
ATOM     55  C   UNL A   1      47.106  26.227  26.835  1.00  0.00     0.049 A 
ATOM     56  H   UNL A   1      45.380  27.119  27.590  1.00  0.00     0.167 HD
ATOM     57  C   UNL A   1      41.598  28.926  28.939  1.00  0.00     0.034 A 
ATOM     58  C   UNL A   1      48.069  27.170  26.814  1.00  0.00     0.034 A 
ATOM     59  C   UNL A   1      42.584  29.974  29.038  1.00  0.00     0.049 A 
ATOM     60  C   UNL A   1      47.734  28.562  27.292  1.00  0.00     0.074 A 
ATOM     61  C   UNL A   1      42.428  31.262  29.521  1.00  0.00     0.029 A 
ATOM     62  N   UNL A   1      43.912  29.856  28.646  1.00  0.00    -0.354 N 
ATOM     63  N   UNL A   1      46.588  29.031  27.730  1.00  0.00    -0.248 NA
ATOM     64  C   UNL A   1      48.824  29.546  27.283  1.00  0.00     0.031 C 
ATOM     65  C   UNL A   1      43.641  31.940  29.362  1.00  0.00     0.029 A 
ATOM     66  C   UNL A   1      44.576  31.055  28.850  1.00  0.00     0.049 A 
ATOM     67  H   UNL A   1      44.321  29.039  28.276  1.00  0.00     0.167 HD
ATOM     68  C   UNL A   1      46.832  30.357  28.081  1.00  0.00     0.074 A 
ATOM     69  C   UNL A   1      48.234  30.605  27.817  1.00  0.00     0.031 C 
ATOM     70  C   UNL A   1      45.975  31.286  28.578  1.00  0.00     0.034 A 
BRANCH  57  71
ATOM     71  C   UNL A   1      40.167  29.238  29.313  1.00  0.00     0.023 A 
ATOM     72  C   UNL A   1      39.741  29.273  30.653  1.00  0.00     0.031 A 
ATOM     73  C   UNL A   1      39.210  29.491  28.314  1.00  0.00     0.131 A 
ATOM     74  C   UNL A   1      38.386  29.481  30.953  1.00  0.00     0.055 A 
ATOM     75  C   UNL A   1      37.879  29.777  28.624  1.00  0.00     0.041 A 
ATOM     76  F   UNL A   1      39.550  29.453  27.016  1.00  0.00    -0.206 F 
ATOM     77  C   UNL A   1      37.456  29.759  29.949  1.00  0.00     0.022 A 
BRANCH  74  78
ATOM     78  S   UNL A   1      37.835  29.244  32.665  1.00  0.00     0.124 S 
ATOM     79  O   UNL A   1      36.595  30.012  32.685  1.00  0.00    -0.237 OA
ATOM     80  O   UNL A   1      37.700  27.799  32.758  1.00  0.00    -0.237 OA
ATOM     81  O   UNL A   1      38.928  29.822  33.457  1.00  0.00    -0.744 OA
ENDBRANCH  74  78
ENDBRANCH  57  71
BRANCH  58  82
ATOM     82  C   UNL A   1      49.440  26.848  26.318  1.00  0.00     0.023 A 
ATOM     83  C   UNL A   1      49.867  27.272  25.050  1.00  0.00     0.031 A 
ATOM     84  C   UNL A   1      50.324  26.066  27.083  1.00  0.00     0.131 A 
ATOM     85  C   UNL A   1      51.119  26.868  24.560  1.00  0.00     0.055 A 
ATOM     86  C   UNL A   1      51.591  25.715  26.615  1.00  0.00     0.041 A 
ATOM     87  F   UNL A   1      49.969  25.637  28.305  1.00  0.00    -0.206 F 
ATOM     88  C   UNL A   1      51.989  26.104  25.340  1.00  0.00     0.022 A 
BRANCH  85  89
ATOM     89  S   UNL A   1      51.553  27.274  22.846  1.00  0.00     0.124 S 
ATOM     90  O   UNL A   1      50.256  27.186  22.184  1.00  0.00    -0.237 OA
ATOM     91  O   UNL A   1      52.113  28.613  22.986  1.00  0.00    -0.237 OA
ATOM     92  O   UNL A   1      52.512  26.233  22.484  1.00  0.00    -0.744 OA
ENDBRANCH  85  89
ENDBRANCH  58  82
BRANCH  70  93
ATOM     93  C   UNL A   1      46.554  32.637  28.917  1.00  0.00     0.023 A 
ATOM     94  C   UNL A   1      46.651  33.663  27.961  1.00  0.00     0.031 A 
ATOM     95  C   UNL A   1      47.024  32.896  30.217  1.00  0.00     0.131 A 
ATOM     96  C   UNL A   1      47.257  34.881  28.304  1.00  0.00     0.055 A 
ATOM     97  C   UNL A   1      47.570  34.131  30.568  1.00  0.00     0.041 A 
ATOM     98  F   UNL A   1      46.956  31.952  31.170  1.00  0.00    -0.206 F 
ATOM     99  C   UNL A   1      47.703  35.127  29.606  1.00  0.00     0.022 A 
BRANCH  96 100
ATOM    100  S   UNL A   1      47.541  36.108  27.000  1.00  0.00     0.124 S 
ATOM    101  O   UNL A   1      47.351  37.364  27.718  1.00  0.00    -0.237 OA
ATOM    102  O   UNL A   1      48.910  35.813  26.586  1.00  0.00    -0.237 OA
ATOM    103  O   UNL A   1      46.514  35.798  26.006  1.00  0.00    -0.744 OA
ENDBRANCH  96 100
ENDBRANCH  70  93
ENDBRANCH  44  45
ENDBRANCH  36  39
ENDBRANCH  34  35
ENDBRANCH  33  34
ENDBRANCH  32  33
ENDBRANCH   1  32
TORSDOF 20
ENDMDL
