MODEL 1
REMARK VINA RESULT:     -10.8      0.000      0.000
REMARK SMILES CC[C@@](C)(NC(=O)[C@@H](C)NC(=O)c1ccco1)C(=O)NCCCCCCNC(=O)c1ccc(-c2c3nc(c(-c4cc(S(=O)(=O)[O-])ccc4F)c4ccc([nH]4)c(-c4cc(S(=O)(=O)[O-])ccc4F)c4nc(c(-c5cc(S(=O)(=O)[O-])ccc5F)c5ccc2[nH]5)C=C4)C=C3)cc1
REMARK SMILES IDX 23 1 22 2 21 3 20 4 18 5 19 6 3 8 4 9 2 10 1 11 5 12 6 13
REMARK SMILES IDX 7 15 8 16 9 17 10 18 11 19 12 21 13 22 14 23 17 24 15 25
REMARK SMILES IDX 16 26 24 27 25 28 26 29 27 30 28 31 29 33 30 34 31 35 92 36
REMARK SMILES IDX 32 37 91 38 33 39 34 40 35 41 85 42 36 43 90 44 84 45 86 46
REMARK SMILES IDX 37 47 89 48 83 49 82 50 38 52 70 53 50 54 69 55 51 56 54 57
REMARK SMILES IDX 68 58 87 59 52 60 53 61 67 63 88 64 55 65 39 66 40 67 48 68
REMARK SMILES IDX 41 69 47 70 49 71 46 72 42 73 43 74 44 75 45 76 71 77 72 78
REMARK SMILES IDX 80 79 73 80 79 81 81 82 78 83 74 84 75 85 76 86 77 87 56 88
REMARK SMILES IDX 57 89 65 90 58 91 64 92 66 93 63 94 59 95 60 96 61 97 62 98
REMARK H PARENT 20 7 5 14 10 20 27 32 86 51 54 62
REMARK Flexibility Score: inf
ROOT
ATOM      1  C   UNL A   1      32.195  29.408  25.876  1.00  0.00     0.002 C 
ENDROOT
BRANCH   1   2
ATOM      2  C   UNL A   1      33.492  29.208  25.093  1.00  0.00     0.021 C 
BRANCH   2   3
ATOM      3  C   UNL A   1      33.609  27.852  24.402  1.00  0.00     0.116 C 
BRANCH   3   4
ATOM      4  N   UNL A   1      33.212  26.746  25.261  1.00  0.00    -0.354 N 
ATOM      5  C   UNL A   1      32.161  25.879  25.213  1.00  0.00     0.245 C 
ATOM      6  O   UNL A   1      31.979  25.177  26.214  1.00  0.00    -0.272 OA
ATOM      7  H   UNL A   1      33.817  26.595  26.022  1.00  0.00     0.163 HD
BRANCH   5   8
ATOM      8  C   UNL A   1      31.194  25.803  24.010  1.00  0.00     0.116 C 
ATOM      9  C   UNL A   1      30.249  24.590  24.200  1.00  0.00     0.045 C 
BRANCH   8  10
ATOM     10  C   UNL A   1      30.287  27.057  23.863  1.00  0.00     0.035 C 
ATOM     11  C   UNL A   1      30.371  27.828  22.547  1.00  0.00     0.007 C 
ENDBRANCH   8  10
BRANCH   8  12
ATOM     12  N   UNL A   1      31.968  25.634  22.757  1.00  0.00    -0.340 N 
ATOM     13  C   UNL A   1      32.978  24.825  22.349  1.00  0.00     0.243 C 
ATOM     14  H   UNL A   1      31.681  26.258  22.052  1.00  0.00     0.164 HD
ATOM     15  O   UNL A   1      33.652  25.299  21.420  1.00  0.00    -0.273 OA
BRANCH  13  16
ATOM     16  C   UNL A   1      33.450  23.473  22.972  1.00  0.00     0.168 C 
ATOM     17  C   UNL A   1      32.666  22.289  22.416  1.00  0.00     0.041 C 
BRANCH  16  18
ATOM     18  N   UNL A   1      34.861  23.108  23.037  1.00  0.00    -0.338 N 
ATOM     19  C   UNL A   1      35.605  22.644  24.103  1.00  0.00     0.287 C 
ATOM     20  H   UNL A   1      35.356  23.206  22.192  1.00  0.00     0.164 HD
ATOM     21  O   UNL A   1      36.797  22.415  23.890  1.00  0.00    -0.266 OA
BRANCH  19  22
ATOM     22  C   UNL A   1      34.998  22.456  25.405  1.00  0.00     0.191 A 
ATOM     23  C   UNL A   1      34.912  23.244  26.540  1.00  0.00     0.056 A 
ATOM     24  O   UNL A   1      34.283  21.304  25.615  1.00  0.00    -0.459 OA
ATOM     25  C   UNL A   1      34.145  22.522  27.489  1.00  0.00     0.043 A 
ATOM     26  C   UNL A   1      33.795  21.342  26.879  1.00  0.00     0.196 A 
ENDBRANCH  19  22
ENDBRANCH  16  18
ENDBRANCH  13  16
ENDBRANCH   8  12
ENDBRANCH   5   8
ENDBRANCH   3   4
ENDBRANCH   2   3
ENDBRANCH   1   2
BRANCH   1  27
ATOM     27  C   UNL A   1      31.166  30.338  25.242  1.00  0.00     0.002 C 
BRANCH  27  28
ATOM     28  C   UNL A   1      31.044  31.707  25.905  1.00  0.00     0.021 C 
BRANCH  28  29
ATOM     29  C   UNL A   1      32.080  31.994  26.987  1.00  0.00     0.116 C 
BRANCH  29  30
ATOM     30  N   UNL A   1      32.134  33.400  27.372  1.00  0.00    -0.352 N 
ATOM     31  C   UNL A   1      33.113  34.068  28.069  1.00  0.00     0.251 C 
ATOM     32  H   UNL A   1      31.363  33.946  27.096  1.00  0.00     0.163 HD
ATOM     33  O   UNL A   1      32.963  35.230  28.421  1.00  0.00    -0.269 OA
BRANCH  31  34
ATOM     34  C   UNL A   1      34.345  33.330  28.418  1.00  0.00     0.039 A 
ATOM     35  C   UNL A   1      35.583  33.949  28.242  1.00  0.00     0.014 A 
ATOM     36  C   UNL A   1      34.248  32.081  29.037  1.00  0.00     0.014 A 
ATOM     37  C   UNL A   1      36.724  33.358  28.789  1.00  0.00     0.010 A 
ATOM     38  C   UNL A   1      35.371  31.542  29.653  1.00  0.00     0.010 A 
ATOM     39  C   UNL A   1      36.616  32.184  29.551  1.00  0.00    -0.014 A 
BRANCH  39  40
ATOM     40  C   UNL A   1      37.782  31.621  30.282  1.00  0.00     0.031 A 
ATOM     41  C   UNL A   1      38.637  30.571  29.632  1.00  0.00     0.074 A 
ATOM     42  C   UNL A   1      37.998  31.973  31.566  1.00  0.00     0.049 A 
ATOM     43  N   UNL A   1      39.612  29.863  30.140  1.00  0.00    -0.248 NA
ATOM     44  C   UNL A   1      38.319  30.246  28.234  1.00  0.00     0.031 C 
ATOM     45  C   UNL A   1      37.192  32.929  32.330  1.00  0.00     0.029 A 
ATOM     46  N   UNL A   1      38.949  31.553  32.463  1.00  0.00    -0.354 N 
ATOM     47  C   UNL A   1      40.011  28.994  29.132  1.00  0.00     0.074 A 
ATOM     48  C   UNL A   1      39.120  29.217  28.012  1.00  0.00     0.031 C 
ATOM     49  C   UNL A   1      37.688  33.028  33.574  1.00  0.00     0.029 A 
ATOM     50  C   UNL A   1      38.819  32.117  33.711  1.00  0.00     0.049 A 
ATOM     51  H   UNL A   1      39.656  30.908  32.234  1.00  0.00     0.167 HD
ATOM     52  C   UNL A   1      41.044  28.114  29.127  1.00  0.00     0.034 A 
ATOM     53  C   UNL A   1      39.521  31.911  34.843  1.00  0.00     0.034 A 
ATOM     54  C   UNL A   1      41.929  27.915  30.249  1.00  0.00     0.049 A 
ATOM     55  C   UNL A   1      40.666  30.932  34.821  1.00  0.00     0.074 A 
ATOM     56  C   UNL A   1      43.047  27.104  30.336  1.00  0.00     0.029 A 
ATOM     57  N   UNL A   1      41.789  28.530  31.488  1.00  0.00    -0.354 N 
ATOM     58  N   UNL A   1      41.075  30.164  33.838  1.00  0.00    -0.248 NA
ATOM     59  C   UNL A   1      41.448  30.799  36.057  1.00  0.00     0.031 C 
ATOM     60  C   UNL A   1      43.547  27.184  31.641  1.00  0.00     0.029 A 
ATOM     61  C   UNL A   1      42.781  28.095  32.353  1.00  0.00     0.049 A 
ATOM     62  H   UNL A   1      41.087  29.181  31.718  1.00  0.00     0.167 HD
ATOM     63  C   UNL A   1      42.172  29.468  34.333  1.00  0.00     0.074 A 
ATOM     64  C   UNL A   1      42.371  29.920  35.696  1.00  0.00     0.031 C 
ATOM     65  C   UNL A   1      42.949  28.540  33.717  1.00  0.00     0.034 A 
BRANCH  52  66
ATOM     66  C   UNL A   1      41.241  27.296  27.872  1.00  0.00     0.023 A 
ATOM     67  C   UNL A   1      40.861  25.943  27.811  1.00  0.00     0.031 A 
ATOM     68  C   UNL A   1      41.877  27.849  26.747  1.00  0.00     0.131 A 
ATOM     69  C   UNL A   1      41.217  25.162  26.701  1.00  0.00     0.055 A 
ATOM     70  C   UNL A   1      42.144  27.089  25.604  1.00  0.00     0.041 A 
ATOM     71  F   UNL A   1      42.280  29.129  26.748  1.00  0.00    -0.206 F 
ATOM     72  C   UNL A   1      41.834  25.732  25.586  1.00  0.00     0.022 A 
BRANCH  69  73
ATOM     73  S   UNL A   1      41.026  23.362  26.818  1.00  0.00     0.124 S 
ATOM     74  O   UNL A   1      39.603  23.199  26.526  1.00  0.00    -0.237 OA
ATOM     75  O   UNL A   1      41.947  22.881  25.796  1.00  0.00    -0.237 OA
ATOM     76  O   UNL A   1      41.409  23.066  28.197  1.00  0.00    -0.744 OA
ENDBRANCH  69  73
ENDBRANCH  52  66
BRANCH  53  77
ATOM     77  C   UNL A   1      39.149  32.629  36.094  1.00  0.00     0.023 A 
ATOM     78  C   UNL A   1      39.639  33.916  36.366  1.00  0.00     0.031 A 
ATOM     79  C   UNL A   1      38.306  32.028  37.045  1.00  0.00     0.131 A 
ATOM     80  C   UNL A   1      39.307  34.549  37.574  1.00  0.00     0.055 A 
ATOM     81  C   UNL A   1      37.945  32.678  38.227  1.00  0.00     0.041 A 
ATOM     82  F   UNL A   1      37.802  30.802  36.827  1.00  0.00    -0.206 F 
ATOM     83  C   UNL A   1      38.455  33.944  38.501  1.00  0.00     0.022 A 
BRANCH  80  84
ATOM     84  S   UNL A   1      40.051  36.162  37.945  1.00  0.00     0.124 S 
ATOM     85  O   UNL A   1      39.153  36.673  38.975  1.00  0.00    -0.237 OA
ATOM     86  O   UNL A   1      41.389  35.783  38.389  1.00  0.00    -0.237 OA
ATOM     87  O   UNL A   1      39.997  36.864  36.665  1.00  0.00    -0.744 OA
ENDBRANCH  80  84
ENDBRANCH  53  77
BRANCH  65  88
ATOM     88  C   UNL A   1      44.098  27.976  34.513  1.00  0.00     0.023 A 
ATOM     89  C   UNL A   1      43.967  26.789  35.256  1.00  0.00     0.031 A 
ATOM     90  C   UNL A   1      45.338  28.638  34.533  1.00  0.00     0.131 A 
ATOM     91  C   UNL A   1      45.044  26.324  36.024  1.00  0.00     0.055 A 
ATOM     92  C   UNL A   1      46.423  28.143  35.256  1.00  0.00     0.041 A 
ATOM     93  F   UNL A   1      45.515  29.775  33.842  1.00  0.00    -0.206 F 
ATOM     94  C   UNL A   1      46.277  26.985  36.016  1.00  0.00     0.022 A 
BRANCH  91  95
ATOM     95  S   UNL A   1      44.795  24.881  37.093  1.00  0.00     0.124 S 
ATOM     96  O   UNL A   1      43.408  25.051  37.512  1.00  0.00    -0.237 OA
ATOM     97  O   UNL A   1      45.055  23.770  36.184  1.00  0.00    -0.237 OA
ATOM     98  O   UNL A   1      45.789  25.061  38.151  1.00  0.00    -0.744 OA
ENDBRANCH  91  95
ENDBRANCH  65  88
ENDBRANCH  39  40
ENDBRANCH  31  34
ENDBRANCH  29  30
ENDBRANCH  28  29
ENDBRANCH  27  28
ENDBRANCH   1  27
TORSDOF 21
ENDMDL
MODEL 2
REMARK VINA RESULT:     -10.7      2.129      2.782
REMARK SMILES CC[C@@](C)(NC(=O)[C@@H](C)NC(=O)c1ccco1)C(=O)NCCCCCCNC(=O)c1ccc(-c2c3nc(c(-c4cc(S(=O)(=O)[O-])ccc4F)c4ccc([nH]4)c(-c4cc(S(=O)(=O)[O-])ccc4F)c4nc(c(-c5cc(S(=O)(=O)[O-])ccc5F)c5ccc2[nH]5)C=C4)C=C3)cc1
REMARK SMILES IDX 23 1 22 2 21 3 20 4 18 5 19 6 3 8 4 9 2 10 1 11 5 12 6 13
REMARK SMILES IDX 7 15 8 16 9 17 10 18 11 19 12 21 13 22 14 23 17 24 15 25
REMARK SMILES IDX 16 26 24 27 25 28 26 29 27 30 28 31 29 33 30 34 31 35 92 36
REMARK SMILES IDX 32 37 91 38 33 39 34 40 35 41 85 42 36 43 90 44 84 45 86 46
REMARK SMILES IDX 37 47 89 48 83 49 82 50 38 52 70 53 50 54 69 55 51 56 54 57
REMARK SMILES IDX 68 58 87 59 52 60 53 61 67 63 88 64 55 65 39 66 40 67 48 68
REMARK SMILES IDX 41 69 47 70 49 71 46 72 42 73 43 74 44 75 45 76 71 77 72 78
REMARK SMILES IDX 80 79 73 80 79 81 81 82 78 83 74 84 75 85 76 86 77 87 56 88
REMARK SMILES IDX 57 89 65 90 58 91 64 92 66 93 63 94 59 95 60 96 61 97 62 98
REMARK H PARENT 20 7 5 14 10 20 27 32 86 51 54 62
REMARK Flexibility Score: inf
ROOT
ATOM      1  C   UNL A   1      32.136  29.756  25.841  1.00  0.00     0.002 C 
ENDROOT
BRANCH   1   2
ATOM      2  C   UNL A   1      31.840  28.859  27.042  1.00  0.00     0.021 C 
BRANCH   2   3
ATOM      3  C   UNL A   1      31.492  27.418  26.682  1.00  0.00     0.116 C 
BRANCH   3   4
ATOM      4  N   UNL A   1      30.800  27.307  25.406  1.00  0.00    -0.354 N 
ATOM      5  C   UNL A   1      30.779  26.331  24.456  1.00  0.00     0.245 C 
ATOM      6  O   UNL A   1      30.257  26.623  23.374  1.00  0.00    -0.272 OA
ATOM      7  H   UNL A   1      30.240  28.087  25.187  1.00  0.00     0.163 HD
BRANCH   5   8
ATOM      8  C   UNL A   1      31.424  24.942  24.669  1.00  0.00     0.116 C 
ATOM      9  C   UNL A   1      30.926  23.980  23.562  1.00  0.00     0.045 C 
BRANCH   8  10
ATOM     10  C   UNL A   1      32.976  24.959  24.582  1.00  0.00     0.035 C 
ATOM     11  C   UNL A   1      33.595  25.281  23.223  1.00  0.00     0.007 C 
ENDBRANCH   8  10
BRANCH   8  12
ATOM     12  N   UNL A   1      31.034  24.409  25.997  1.00  0.00    -0.340 N 
ATOM     13  C   UNL A   1      31.366  23.319  26.733  1.00  0.00     0.243 C 
ATOM     14  H   UNL A   1      30.379  24.983  26.454  1.00  0.00     0.164 HD
ATOM     15  O   UNL A   1      30.496  22.988  27.555  1.00  0.00    -0.273 OA
BRANCH  13  16
ATOM     16  C   UNL A   1      32.615  22.392  26.586  1.00  0.00     0.168 C 
ATOM     17  C   UNL A   1      33.395  22.282  27.891  1.00  0.00     0.041 C 
BRANCH  16  18
ATOM     18  N   UNL A   1      32.521  21.066  25.987  1.00  0.00    -0.338 N 
ATOM     19  C   UNL A   1      33.438  20.376  25.220  1.00  0.00     0.287 C 
ATOM     20  H   UNL A   1      31.675  20.591  26.155  1.00  0.00     0.164 HD
ATOM     21  O   UNL A   1      33.103  19.257  24.826  1.00  0.00    -0.266 OA
BRANCH  19  22
ATOM     22  C   UNL A   1      34.723  20.962  24.895  1.00  0.00     0.191 A 
ATOM     23  C   UNL A   1      36.031  20.607  25.175  1.00  0.00     0.056 A 
ATOM     24  O   UNL A   1      34.731  22.071  24.088  1.00  0.00    -0.459 OA
ATOM     25  C   UNL A   1      36.865  21.562  24.542  1.00  0.00     0.043 A 
ATOM     26  C   UNL A   1      36.023  22.439  23.902  1.00  0.00     0.196 A 
ENDBRANCH  19  22
ENDBRANCH  16  18
ENDBRANCH  13  16
ENDBRANCH   8  12
ENDBRANCH   5   8
ENDBRANCH   3   4
ENDBRANCH   2   3
ENDBRANCH   1   2
BRANCH   1  27
ATOM     27  C   UNL A   1      31.029  30.724  25.436  1.00  0.00     0.002 C 
BRANCH  27  28
ATOM     28  C   UNL A   1      30.978  32.016  26.246  1.00  0.00     0.021 C 
BRANCH  28  29
ATOM     29  C   UNL A   1      32.288  32.404  26.924  1.00  0.00     0.116 C 
BRANCH  29  30
ATOM     30  N   UNL A   1      32.260  33.742  27.505  1.00  0.00    -0.352 N 
ATOM     31  C   UNL A   1      33.167  34.336  28.351  1.00  0.00     0.251 C 
ATOM     32  H   UNL A   1      31.485  34.296  27.257  1.00  0.00     0.163 HD
ATOM     33  O   UNL A   1      32.946  35.430  28.852  1.00  0.00    -0.269 OA
BRANCH  31  34
ATOM     34  C   UNL A   1      34.404  33.596  28.675  1.00  0.00     0.039 A 
ATOM     35  C   UNL A   1      35.634  34.245  28.564  1.00  0.00     0.014 A 
ATOM     36  C   UNL A   1      34.318  32.307  29.207  1.00  0.00     0.014 A 
ATOM     37  C   UNL A   1      36.775  33.638  29.092  1.00  0.00     0.010 A 
ATOM     38  C   UNL A   1      35.438  31.746  29.807  1.00  0.00     0.010 A 
ATOM     39  C   UNL A   1      36.673  32.413  29.773  1.00  0.00    -0.014 A 
BRANCH  39  40
ATOM     40  C   UNL A   1      37.836  31.822  30.487  1.00  0.00     0.031 A 
ATOM     41  C   UNL A   1      38.660  30.758  29.821  1.00  0.00     0.074 A 
ATOM     42  C   UNL A   1      38.074  32.162  31.770  1.00  0.00     0.049 A 
ATOM     43  N   UNL A   1      39.626  30.026  30.314  1.00  0.00    -0.248 NA
ATOM     44  C   UNL A   1      38.320  30.447  28.426  1.00  0.00     0.031 C 
ATOM     45  C   UNL A   1      37.298  33.130  32.549  1.00  0.00     0.029 A 
ATOM     46  N   UNL A   1      39.026  31.717  32.653  1.00  0.00    -0.354 N 
ATOM     47  C   UNL A   1      39.996  29.154  29.296  1.00  0.00     0.074 A 
ATOM     48  C   UNL A   1      39.096  29.403  28.188  1.00  0.00     0.031 C 
ATOM     49  C   UNL A   1      37.809  33.211  33.787  1.00  0.00     0.029 A 
ATOM     50  C   UNL A   1      38.923  32.276  33.906  1.00  0.00     0.049 A 
ATOM     51  H   UNL A   1      39.717  31.058  32.413  1.00  0.00     0.167 HD
ATOM     52  C   UNL A   1      41.009  28.252  29.275  1.00  0.00     0.034 A 
ATOM     53  C   UNL A   1      39.633  32.049  35.029  1.00  0.00     0.034 A 
ATOM     54  C   UNL A   1      41.903  28.029  30.385  1.00  0.00     0.049 A 
ATOM     55  C   UNL A   1      40.756  31.045  34.989  1.00  0.00     0.074 A 
ATOM     56  C   UNL A   1      43.004  27.194  30.455  1.00  0.00     0.029 A 
ATOM     57  N   UNL A   1      41.789  28.640  31.629  1.00  0.00    -0.354 N 
ATOM     58  N   UNL A   1      41.137  30.275  33.997  1.00  0.00    -0.248 NA
ATOM     59  C   UNL A   1      41.549  30.889  36.215  1.00  0.00     0.031 C 
ATOM     60  C   UNL A   1      43.520  27.256  31.755  1.00  0.00     0.029 A 
ATOM     61  C   UNL A   1      42.782  28.179  32.481  1.00  0.00     0.049 A 
ATOM     62  H   UNL A   1      41.104  29.304  31.871  1.00  0.00     0.167 HD
ATOM     63  C   UNL A   1      42.225  29.553  34.475  1.00  0.00     0.074 A 
ATOM     64  C   UNL A   1      42.449  29.993  35.838  1.00  0.00     0.031 C 
ATOM     65  C   UNL A   1      42.975  28.612  33.845  1.00  0.00     0.034 A 
BRANCH  52  66
ATOM     66  C   UNL A   1      41.175  27.438  28.013  1.00  0.00     0.023 A 
ATOM     67  C   UNL A   1      40.775  26.090  27.953  1.00  0.00     0.031 A 
ATOM     68  C   UNL A   1      41.799  27.987  26.881  1.00  0.00     0.131 A 
ATOM     69  C   UNL A   1      41.102  25.310  26.834  1.00  0.00     0.055 A 
ATOM     70  C   UNL A   1      42.037  27.229  25.730  1.00  0.00     0.041 A 
ATOM     71  F   UNL A   1      42.220  29.262  26.881  1.00  0.00    -0.206 F 
ATOM     72  C   UNL A   1      41.708  25.876  25.711  1.00  0.00     0.022 A 
BRANCH  69  73
ATOM     73  S   UNL A   1      40.888  23.512  26.946  1.00  0.00     0.124 S 
ATOM     74  O   UNL A   1      41.697  23.050  25.820  1.00  0.00    -0.237 OA
ATOM     75  O   UNL A   1      41.412  23.215  28.274  1.00  0.00    -0.237 OA
ATOM     76  O   UNL A   1      39.447  23.328  26.785  1.00  0.00    -0.744 OA
ENDBRANCH  69  73
ENDBRANCH  52  66
BRANCH  53  77
ATOM     77  C   UNL A   1      39.290  32.767  36.288  1.00  0.00     0.023 A 
ATOM     78  C   UNL A   1      38.432  32.194  37.241  1.00  0.00     0.031 A 
ATOM     79  C   UNL A   1      39.807  34.048  36.550  1.00  0.00     0.131 A 
ATOM     80  C   UNL A   1      38.091  32.914  38.397  1.00  0.00     0.055 A 
ATOM     81  C   UNL A   1      39.499  34.743  37.721  1.00  0.00     0.041 A 
ATOM     82  F   UNL A   1      40.641  34.635  35.675  1.00  0.00    -0.206 F 
ATOM     83  C   UNL A   1      38.628  34.179  38.648  1.00  0.00     0.022 A 
BRANCH  80  84
ATOM     84  S   UNL A   1      36.890  32.193  39.549  1.00  0.00     0.124 S 
ATOM     85  O   UNL A   1      35.624  32.628  38.970  1.00  0.00    -0.237 OA
ATOM     86  O   UNL A   1      37.188  30.768  39.444  1.00  0.00    -0.237 OA
ATOM     87  O   UNL A   1      37.236  32.806  40.829  1.00  0.00    -0.744 OA
ENDBRANCH  80  84
ENDBRANCH  53  77
BRANCH  65  88
ATOM     88  C   UNL A   1      44.120  28.019  34.624  1.00  0.00     0.023 A 
ATOM     89  C   UNL A   1      45.400  28.602  34.611  1.00  0.00     0.031 A 
ATOM     90  C   UNL A   1      43.930  26.854  35.387  1.00  0.00     0.131 A 
ATOM     91  C   UNL A   1      46.452  27.992  35.310  1.00  0.00     0.055 A 
ATOM     92  C   UNL A   1      44.967  26.280  36.123  1.00  0.00     0.041 A 
ATOM     93  F   UNL A   1      42.728  26.257  35.432  1.00  0.00    -0.206 F 
ATOM     94  C   UNL A   1      46.240  26.843  36.079  1.00  0.00     0.022 A 
BRANCH  91  95
ATOM     95  S   UNL A   1      48.123  28.678  35.145  1.00  0.00     0.124 S 
ATOM     96  O   UNL A   1      48.921  27.478  34.916  1.00  0.00    -0.237 OA
ATOM     97  O   UNL A   1      47.982  29.577  34.006  1.00  0.00    -0.237 OA
ATOM     98  O   UNL A   1      48.351  29.338  36.430  1.00  0.00    -0.744 OA
ENDBRANCH  91  95
ENDBRANCH  65  88
ENDBRANCH  39  40
ENDBRANCH  31  34
ENDBRANCH  29  30
ENDBRANCH  28  29
ENDBRANCH  27  28
ENDBRANCH   1  27
TORSDOF 21
ENDMDL
MODEL 3
REMARK VINA RESULT:     -10.6      2.251      2.893
REMARK SMILES CC[C@@](C)(NC(=O)[C@@H](C)NC(=O)c1ccco1)C(=O)NCCCCCCNC(=O)c1ccc(-c2c3nc(c(-c4cc(S(=O)(=O)[O-])ccc4F)c4ccc([nH]4)c(-c4cc(S(=O)(=O)[O-])ccc4F)c4nc(c(-c5cc(S(=O)(=O)[O-])ccc5F)c5ccc2[nH]5)C=C4)C=C3)cc1
REMARK SMILES IDX 23 1 22 2 21 3 20 4 18 5 19 6 3 8 4 9 2 10 1 11 5 12 6 13
REMARK SMILES IDX 7 15 8 16 9 17 10 18 11 19 12 21 13 22 14 23 17 24 15 25
REMARK SMILES IDX 16 26 24 27 25 28 26 29 27 30 28 31 29 33 30 34 31 35 92 36
REMARK SMILES IDX 32 37 91 38 33 39 34 40 35 41 85 42 36 43 90 44 84 45 86 46
REMARK SMILES IDX 37 47 89 48 83 49 82 50 38 52 70 53 50 54 69 55 51 56 54 57
REMARK SMILES IDX 68 58 87 59 52 60 53 61 67 63 88 64 55 65 39 66 40 67 48 68
REMARK SMILES IDX 41 69 47 70 49 71 46 72 42 73 43 74 44 75 45 76 71 77 72 78
REMARK SMILES IDX 80 79 73 80 79 81 81 82 78 83 74 84 75 85 76 86 77 87 56 88
REMARK SMILES IDX 57 89 65 90 58 91 64 92 66 93 63 94 59 95 60 96 61 97 62 98
REMARK H PARENT 20 7 5 14 10 20 27 32 86 51 54 62
REMARK Flexibility Score: inf
ROOT
ATOM      1  C   UNL A   1      31.596  28.776  27.404  1.00  0.00     0.002 C 
ENDROOT
BRANCH   1   2
ATOM      2  C   UNL A   1      31.758  27.317  26.979  1.00  0.00     0.021 C 
BRANCH   2   3
ATOM      3  C   UNL A   1      31.851  27.107  25.470  1.00  0.00     0.116 C 
BRANCH   3   4
ATOM      4  N   UNL A   1      31.297  25.831  25.044  1.00  0.00    -0.354 N 
ATOM      5  C   UNL A   1      31.287  25.191  23.840  1.00  0.00     0.245 C 
ATOM      6  O   UNL A   1      30.546  24.207  23.744  1.00  0.00    -0.272 OA
ATOM      7  H   UNL A   1      30.842  25.334  25.761  1.00  0.00     0.163 HD
BRANCH   5   8
ATOM      8  C   UNL A   1      32.101  25.687  22.624  1.00  0.00     0.116 C 
ATOM      9  C   UNL A   1      31.272  26.754  21.865  1.00  0.00     0.045 C 
BRANCH   8  10
ATOM     10  C   UNL A   1      33.448  26.361  23.011  1.00  0.00     0.035 C 
ATOM     11  C   UNL A   1      33.766  27.707  22.363  1.00  0.00     0.007 C 
ENDBRANCH   8  10
BRANCH   8  12
ATOM     12  N   UNL A   1      32.389  24.550  21.718  1.00  0.00    -0.340 N 
ATOM     13  C   UNL A   1      33.194  23.458  21.767  1.00  0.00     0.243 C 
ATOM     14  H   UNL A   1      31.874  24.598  20.880  1.00  0.00     0.164 HD
ATOM     15  O   UNL A   1      33.502  23.016  20.648  1.00  0.00    -0.273 OA
BRANCH  13  16
ATOM     16  C   UNL A   1      33.852  22.793  23.017  1.00  0.00     0.168 C 
ATOM     17  C   UNL A   1      35.245  23.352  23.288  1.00  0.00     0.041 C 
BRANCH  16  18
ATOM     18  N   UNL A   1      33.144  22.673  24.286  1.00  0.00    -0.338 N 
ATOM     19  C   UNL A   1      32.591  21.560  24.887  1.00  0.00     0.287 C 
ATOM     20  H   UNL A   1      33.045  23.513  24.790  1.00  0.00     0.164 HD
ATOM     21  O   UNL A   1      32.033  21.734  25.972  1.00  0.00    -0.266 OA
BRANCH  19  22
ATOM     22  C   UNL A   1      32.664  20.260  24.250  1.00  0.00     0.191 A 
ATOM     23  C   UNL A   1      32.131  19.739  23.085  1.00  0.00     0.056 A 
ATOM     24  O   UNL A   1      33.463  19.309  24.833  1.00  0.00    -0.459 OA
ATOM     25  C   UNL A   1      32.596  18.404  22.976  1.00  0.00     0.043 A 
ATOM     26  C   UNL A   1      33.395  18.189  24.072  1.00  0.00     0.196 A 
ENDBRANCH  19  22
ENDBRANCH  16  18
ENDBRANCH  13  16
ENDBRANCH   8  12
ENDBRANCH   5   8
ENDBRANCH   3   4
ENDBRANCH   2   3
ENDBRANCH   1   2
BRANCH   1  27
ATOM     27  C   UNL A   1      32.828  29.662  27.248  1.00  0.00     0.002 C 
BRANCH  27  28
ATOM     28  C   UNL A   1      32.532  31.129  26.953  1.00  0.00     0.021 C 
BRANCH  28  29
ATOM     29  C   UNL A   1      33.504  32.122  27.582  1.00  0.00     0.116 C 
BRANCH  29  30
ATOM     30  N   UNL A   1      32.942  33.461  27.728  1.00  0.00    -0.352 N 
ATOM     31  C   UNL A   1      33.293  34.453  28.613  1.00  0.00     0.251 C 
ATOM     32  H   UNL A   1      32.211  33.684  27.108  1.00  0.00     0.163 HD
ATOM     33  O   UNL A   1      32.648  35.489  28.694  1.00  0.00    -0.269 OA
BRANCH  31  34
ATOM     34  C   UNL A   1      34.454  34.218  29.496  1.00  0.00     0.039 A 
ATOM     35  C   UNL A   1      34.248  33.652  30.755  1.00  0.00     0.014 A 
ATOM     36  C   UNL A   1      35.745  34.444  29.014  1.00  0.00     0.014 A 
ATOM     37  C   UNL A   1      35.348  33.208  31.491  1.00  0.00     0.010 A 
ATOM     38  C   UNL A   1      36.829  33.924  29.710  1.00  0.00     0.010 A 
ATOM     39  C   UNL A   1      36.640  33.284  30.946  1.00  0.00    -0.014 A 
BRANCH  39  40
ATOM     40  C   UNL A   1      37.811  32.673  31.631  1.00  0.00     0.031 A 
ATOM     41  C   UNL A   1      38.525  31.513  30.999  1.00  0.00     0.074 A 
ATOM     42  C   UNL A   1      38.153  33.091  32.866  1.00  0.00     0.049 A 
ATOM     43  N   UNL A   1      39.477  30.759  31.487  1.00  0.00    -0.248 NA
ATOM     44  C   UNL A   1      38.075  31.123  29.655  1.00  0.00     0.031 C 
ATOM     45  C   UNL A   1      37.489  34.161  33.615  1.00  0.00     0.029 A 
ATOM     46  N   UNL A   1      39.134  32.651  33.721  1.00  0.00    -0.354 N 
ATOM     47  C   UNL A   1      39.725  29.793  30.518  1.00  0.00     0.074 A 
ATOM     48  C   UNL A   1      38.771  30.017  29.452  1.00  0.00     0.031 C 
ATOM     49  C   UNL A   1      38.085  34.300  34.809  1.00  0.00     0.029 A 
ATOM     50  C   UNL A   1      39.147  33.306  34.931  1.00  0.00     0.049 A 
ATOM     51  H   UNL A   1      39.767  31.934  33.490  1.00  0.00     0.167 HD
ATOM     52  C   UNL A   1      40.680  28.829  30.504  1.00  0.00     0.034 A 
ATOM     53  C   UNL A   1      39.916  33.117  36.022  1.00  0.00     0.034 A 
ATOM     54  C   UNL A   1      41.630  28.631  31.571  1.00  0.00     0.049 A 
ATOM     55  C   UNL A   1      40.972  32.044  35.990  1.00  0.00     0.074 A 
ATOM     56  C   UNL A   1      42.682  27.735  31.637  1.00  0.00     0.029 A 
ATOM     57  N   UNL A   1      41.636  29.337  32.768  1.00  0.00    -0.354 N 
ATOM     58  N   UNL A   1      41.241  31.180  35.039  1.00  0.00    -0.248 NA
ATOM     59  C   UNL A   1      41.834  31.927  37.173  1.00  0.00     0.031 C 
ATOM     60  C   UNL A   1      43.287  27.859  32.894  1.00  0.00     0.029 A 
ATOM     61  C   UNL A   1      42.655  28.877  33.590  1.00  0.00     0.049 A 
ATOM     62  H   UNL A   1      41.009  30.059  33.000  1.00  0.00     0.167 HD
ATOM     63  C   UNL A   1      42.314  30.427  35.503  1.00  0.00     0.074 A 
ATOM     64  C   UNL A   1      42.653  30.950  36.811  1.00  0.00     0.031 C 
ATOM     65  C   UNL A   1      42.963  29.396  34.902  1.00  0.00     0.034 A 
BRANCH  52  66
ATOM     66  C   UNL A   1      40.713  27.916  29.301  1.00  0.00     0.023 A 
ATOM     67  C   UNL A   1      41.648  28.101  28.265  1.00  0.00     0.031 A 
ATOM     68  C   UNL A   1      39.761  26.893  29.149  1.00  0.00     0.131 A 
ATOM     69  C   UNL A   1      41.542  27.355  27.082  1.00  0.00     0.055 A 
ATOM     70  C   UNL A   1      39.721  26.088  28.007  1.00  0.00     0.041 A 
ATOM     71  F   UNL A   1      38.832  26.677  30.093  1.00  0.00    -0.206 F 
ATOM     72  C   UNL A   1      40.601  26.332  26.956  1.00  0.00     0.022 A 
BRANCH  69  73
ATOM     73  S   UNL A   1      42.531  27.867  25.650  1.00  0.00     0.124 S 
ATOM     74  O   UNL A   1      42.516  26.654  24.835  1.00  0.00    -0.237 OA
ATOM     75  O   UNL A   1      41.770  28.996  25.130  1.00  0.00    -0.237 OA
ATOM     76  O   UNL A   1      43.829  28.202  26.233  1.00  0.00    -0.744 OA
ENDBRANCH  69  73
ENDBRANCH  52  66
BRANCH  53  77
ATOM     77  C   UNL A   1      39.700  33.946  37.241  1.00  0.00     0.023 A 
ATOM     78  C   UNL A   1      38.980  33.449  38.339  1.00  0.00     0.031 A 
ATOM     79  C   UNL A   1      40.202  35.257  37.317  1.00  0.00     0.131 A 
ATOM     80  C   UNL A   1      38.755  34.269  39.455  1.00  0.00     0.055 A 
ATOM     81  C   UNL A   1      40.011  36.055  38.447  1.00  0.00     0.041 A 
ATOM     82  F   UNL A   1      40.907  35.775  36.298  1.00  0.00    -0.206 F 
ATOM     83  C   UNL A   1      39.275  35.564  39.521  1.00  0.00     0.022 A 
BRANCH  80  84
ATOM     84  S   UNL A   1      37.722  33.637  40.806  1.00  0.00     0.124 S 
ATOM     85  O   UNL A   1      37.352  34.866  41.498  1.00  0.00    -0.237 OA
ATOM     86  O   UNL A   1      36.652  32.962  40.078  1.00  0.00    -0.237 OA
ATOM     87  O   UNL A   1      38.626  32.755  41.541  1.00  0.00    -0.744 OA
ENDBRANCH  80  84
ENDBRANCH  53  77
BRANCH  65  88
ATOM     88  C   UNL A   1      44.120  28.790  35.653  1.00  0.00     0.023 A 
ATOM     89  C   UNL A   1      43.944  27.700  36.524  1.00  0.00     0.031 A 
ATOM     90  C   UNL A   1      45.416  29.314  35.500  1.00  0.00     0.131 A 
ATOM     91  C   UNL A   1      45.038  27.197  37.243  1.00  0.00     0.055 A 
ATOM     92  C   UNL A   1      46.511  28.776  36.177  1.00  0.00     0.041 A 
ATOM     93  F   UNL A   1      45.638  30.356  34.683  1.00  0.00    -0.206 F 
ATOM     94  C   UNL A   1      46.323  27.718  37.063  1.00  0.00     0.022 A 
BRANCH  91  95
ATOM     95  S   UNL A   1      44.750  25.895  38.472  1.00  0.00     0.124 S 
ATOM     96  O   UNL A   1      43.881  24.978  37.744  1.00  0.00    -0.237 OA
ATOM     97  O   UNL A   1      46.101  25.415  38.743  1.00  0.00    -0.237 OA
ATOM     98  O   UNL A   1      44.112  26.605  39.580  1.00  0.00    -0.744 OA
ENDBRANCH  91  95
ENDBRANCH  65  88
ENDBRANCH  39  40
ENDBRANCH  31  34
ENDBRANCH  29  30
ENDBRANCH  28  29
ENDBRANCH  27  28
ENDBRANCH   1  27
TORSDOF 21
ENDMDL
