MODEL 1
REMARK VINA RESULT:     -11.9      0.000      0.000
REMARK SMILES O=C(NCCCCCCNC(=O)c1ccccc1/C=C1/SC(=S)N(C2CCCCC2)C1=O)c1ccc(-c2c3nc(c(-c4cc(S(=O)(=O)[O-])ccc4F)c4ccc([nH]4)c(-c4cc(S(=O)(=O)[O-])ccc4F)c4nc(c(-c5cc(S(=O)(=O)[O-])ccc5F)c5ccc2[nH]5)C=C4)C=C3)cc1
REMARK SMILES IDX 6 1 5 2 4 3 3 4 1 5 2 6 33 8 34 9 95 10 35 11 94 12 36 13
REMARK SMILES IDX 37 14 38 15 88 16 39 17 93 18 87 19 89 20 40 21 92 22 86 23
REMARK SMILES IDX 85 24 41 26 73 27 53 28 72 29 54 30 57 31 71 32 90 33 55 34
REMARK SMILES IDX 56 35 70 37 91 38 58 39 42 40 43 41 51 42 44 43 50 44 52 45
REMARK SMILES IDX 49 46 45 47 46 48 47 49 48 50 74 51 75 52 83 53 76 54 82 55
REMARK SMILES IDX 84 56 81 57 77 58 78 59 79 60 80 61 59 62 60 63 68 64 61 65
REMARK SMILES IDX 67 66 69 67 66 68 62 69 63 70 64 71 65 72 7 73 8 74 9 75
REMARK SMILES IDX 10 76 11 77 12 79 13 80 14 81 18 82 15 83 17 84 16 85 19 86
REMARK SMILES IDX 20 87 21 88 31 89 22 90 24 91 32 92 23 93 25 94 26 95 30 96
REMARK SMILES IDX 27 97 29 98 28 99
REMARK H PARENT 3 7 89 25 57 36 10 78
REMARK Flexibility Score: inf
ROOT
ATOM      1  C   UNL A   1      35.105  32.204  27.934  1.00  0.00     0.002 C 
ENDROOT
BRANCH   1   2
ATOM      2  C   UNL A   1      33.813  33.021  27.992  1.00  0.00     0.021 C 
BRANCH   2   3
ATOM      3  C   UNL A   1      34.002  34.532  28.067  1.00  0.00     0.116 C 
BRANCH   3   4
ATOM      4  N   UNL A   1      33.296  35.125  29.189  1.00  0.00    -0.352 N 
ATOM      5  O   UNL A   1      32.686  35.391  31.341  1.00  0.00    -0.269 OA
ATOM      6  C   UNL A   1      33.485  34.925  30.533  1.00  0.00     0.251 C 
ATOM      7  H   UNL A   1      32.580  35.759  28.951  1.00  0.00     0.163 HD
BRANCH   6   8
ATOM      8  C   UNL A   1      34.645  34.138  31.003  1.00  0.00     0.039 A 
ATOM      9  C   UNL A   1      35.952  34.559  30.742  1.00  0.00     0.014 A 
ATOM     10  C   UNL A   1      34.413  32.968  31.731  1.00  0.00     0.014 A 
ATOM     11  C   UNL A   1      37.027  33.759  31.118  1.00  0.00     0.010 A 
ATOM     12  C   UNL A   1      35.496  32.203  32.167  1.00  0.00     0.010 A 
ATOM     13  C   UNL A   1      36.810  32.582  31.849  1.00  0.00    -0.014 A 
BRANCH  13  14
ATOM     14  C   UNL A   1      37.958  31.771  32.329  1.00  0.00     0.031 A 
ATOM     15  C   UNL A   1      38.642  32.105  33.622  1.00  0.00     0.074 A 
ATOM     16  C   UNL A   1      38.410  30.760  31.563  1.00  0.00     0.049 A 
ATOM     17  N   UNL A   1      39.730  31.594  34.139  1.00  0.00    -0.248 NA
ATOM     18  C   UNL A   1      38.028  33.166  34.431  1.00  0.00     0.031 C 
ATOM     19  C   UNL A   1      37.820  30.343  30.289  1.00  0.00     0.029 A 
ATOM     20  N   UNL A   1      39.478  29.915  31.728  1.00  0.00    -0.354 N 
ATOM     21  C   UNL A   1      39.947  32.287  35.326  1.00  0.00     0.074 A 
ATOM     22  C   UNL A   1      38.893  33.276  35.428  1.00  0.00     0.031 C 
ATOM     23  C   UNL A   1      38.534  29.325  29.788  1.00  0.00     0.029 A 
ATOM     24  C   UNL A   1      39.672  29.067  30.664  1.00  0.00     0.049 A 
ATOM     25  H   UNL A   1      40.049  29.916  32.530  1.00  0.00     0.167 HD
ATOM     26  C   UNL A   1      40.933  32.105  36.243  1.00  0.00     0.034 A 
ATOM     27  C   UNL A   1      40.678  28.214  30.392  1.00  0.00     0.034 A 
ATOM     28  C   UNL A   1      41.980  31.119  36.105  1.00  0.00     0.049 A 
ATOM     29  C   UNL A   1      41.803  28.076  31.380  1.00  0.00     0.074 A 
ATOM     30  C   UNL A   1      43.006  30.821  36.986  1.00  0.00     0.029 A 
ATOM     31  N   UNL A   1      42.153  30.288  35.003  1.00  0.00    -0.354 N 
ATOM     32  N   UNL A   1      41.987  28.717  32.511  1.00  0.00    -0.248 NA
ATOM     33  C   UNL A   1      42.850  27.098  31.064  1.00  0.00     0.031 C 
ATOM     34  C   UNL A   1      43.842  29.876  36.382  1.00  0.00     0.029 A 
ATOM     35  C   UNL A   1      43.289  29.509  35.165  1.00  0.00     0.049 A 
ATOM     36  H   UNL A   1      41.555  30.257  34.222  1.00  0.00     0.167 HD
ATOM     37  C   UNL A   1      43.157  28.199  33.057  1.00  0.00     0.074 A 
ATOM     38  C   UNL A   1      43.636  27.194  32.128  1.00  0.00     0.031 C 
ATOM     39  C   UNL A   1      43.766  28.515  34.228  1.00  0.00     0.034 A 
BRANCH  26  40
ATOM     40  C   UNL A   1      40.949  33.036  37.435  1.00  0.00     0.023 A 
ATOM     41  C   UNL A   1      40.323  32.698  38.649  1.00  0.00     0.031 A 
ATOM     42  C   UNL A   1      41.547  34.306  37.339  1.00  0.00     0.131 A 
ATOM     43  C   UNL A   1      40.218  33.652  39.673  1.00  0.00     0.055 A 
ATOM     44  C   UNL A   1      41.524  35.216  38.399  1.00  0.00     0.041 A 
ATOM     45  F   UNL A   1      42.145  34.697  36.203  1.00  0.00    -0.206 F 
ATOM     46  C   UNL A   1      40.835  34.899  39.567  1.00  0.00     0.022 A 
BRANCH  43  47
ATOM     47  S   UNL A   1      39.094  33.308  41.057  1.00  0.00     0.124 S 
ATOM     48  O   UNL A   1      39.986  33.445  42.206  1.00  0.00    -0.237 OA
ATOM     49  O   UNL A   1      38.083  34.348  40.907  1.00  0.00    -0.237 OA
ATOM     50  O   UNL A   1      38.635  31.945  40.794  1.00  0.00    -0.744 OA
ENDBRANCH  43  47
ENDBRANCH  26  40
BRANCH  27  51
ATOM     51  C   UNL A   1      40.679  27.475  29.099  1.00  0.00     0.023 A 
ATOM     52  C   UNL A   1      41.568  27.808  28.068  1.00  0.00     0.031 A 
ATOM     53  C   UNL A   1      39.800  26.394  28.895  1.00  0.00     0.131 A 
ATOM     54  C   UNL A   1      41.547  27.078  26.869  1.00  0.00     0.055 A 
ATOM     55  C   UNL A   1      39.817  25.641  27.722  1.00  0.00     0.041 A 
ATOM     56  F   UNL A   1      38.936  26.031  29.857  1.00  0.00    -0.206 F 
ATOM     57  C   UNL A   1      40.691  25.986  26.696  1.00  0.00     0.022 A 
BRANCH  54  58
ATOM     58  S   UNL A   1      42.633  27.599  25.515  1.00  0.00     0.124 S 
ATOM     59  O   UNL A   1      41.926  28.766  25.000  1.00  0.00    -0.237 OA
ATOM     60  O   UNL A   1      43.886  27.864  26.214  1.00  0.00    -0.237 OA
ATOM     61  O   UNL A   1      42.653  26.438  24.627  1.00  0.00    -0.744 OA
ENDBRANCH  54  58
ENDBRANCH  27  51
BRANCH  39  62
ATOM     62  C   UNL A   1      44.990  27.720  34.612  1.00  0.00     0.023 A 
ATOM     63  C   UNL A   1      44.906  26.506  35.315  1.00  0.00     0.031 A 
ATOM     64  C   UNL A   1      46.264  28.178  34.229  1.00  0.00     0.131 A 
ATOM     65  C   UNL A   1      46.079  25.805  35.636  1.00  0.00     0.055 A 
ATOM     66  C   UNL A   1      47.421  27.450  34.504  1.00  0.00     0.041 A 
ATOM     67  F   UNL A   1      46.401  29.336  33.562  1.00  0.00    -0.206 F 
ATOM     68  C   UNL A   1      47.334  26.260  35.217  1.00  0.00     0.022 A 
BRANCH  65  69
ATOM     69  S   UNL A   1      45.958  24.311  36.659  1.00  0.00     0.124 S 
ATOM     70  O   UNL A   1      46.532  24.763  37.923  1.00  0.00    -0.237 OA
ATOM     71  O   UNL A   1      44.523  24.051  36.666  1.00  0.00    -0.237 OA
ATOM     72  O   UNL A   1      46.761  23.330  35.930  1.00  0.00    -0.744 OA
ENDBRANCH  65  69
ENDBRANCH  39  62
ENDBRANCH  13  14
ENDBRANCH   6   8
ENDBRANCH   3   4
ENDBRANCH   2   3
ENDBRANCH   1   2
BRANCH   1  73
ATOM     73  C   UNL A   1      35.009  30.773  28.472  1.00  0.00     0.002 C 
BRANCH  73  74
ATOM     74  C   UNL A   1      35.408  29.660  27.494  1.00  0.00     0.021 C 
BRANCH  74  75
ATOM     75  C   UNL A   1      34.251  29.013  26.742  1.00  0.00     0.116 C 
BRANCH  75  76
ATOM     76  N   UNL A   1      33.186  28.596  27.634  1.00  0.00    -0.352 N 
ATOM     77  C   UNL A   1      31.879  28.296  27.347  1.00  0.00     0.251 C 
ATOM     78  H   UNL A   1      33.438  28.513  28.582  1.00  0.00     0.163 HD
ATOM     79  O   UNL A   1      31.096  28.088  28.272  1.00  0.00    -0.269 OA
BRANCH  77  80
ATOM     80  C   UNL A   1      31.397  28.254  25.944  1.00  0.00     0.047 A 
ATOM     81  C   UNL A   1      31.457  29.463  25.235  1.00  0.00     0.014 A 
ATOM     82  C   UNL A   1      30.853  27.102  25.337  1.00  0.00    -0.012 A 
ATOM     83  C   UNL A   1      31.032  29.521  23.909  1.00  0.00     0.001 A 
ATOM     84  C   UNL A   1      30.452  27.173  23.995  1.00  0.00     0.009 A 
ATOM     85  C   UNL A   1      30.542  28.375  23.287  1.00  0.00     0.001 A 
BRANCH  82  86
ATOM     86  C   UNL A   1      30.709  25.807  26.018  1.00  0.00     0.030 C 
ATOM     87  C   UNL A   1      31.648  24.853  26.087  1.00  0.00     0.081 C 
ATOM     88  S   UNL A   1      31.325  23.261  26.640  1.00  0.00    -0.054 SA
ATOM     89  C   UNL A   1      33.062  24.950  25.642  1.00  0.00     0.266 C 
ATOM     90  C   UNL A   1      32.864  22.645  26.037  1.00  0.00     0.148 C 
ATOM     91  N   UNL A   1      33.626  23.684  25.530  1.00  0.00    -0.290 N 
ATOM     92  O   UNL A   1      33.648  26.013  25.492  1.00  0.00    -0.268 OA
ATOM     93  S   UNL A   1      33.213  21.016  26.150  1.00  0.00    -0.052 S 
BRANCH  91  94
ATOM     94  C   UNL A   1      35.015  23.612  25.029  1.00  0.00     0.092 C 
ATOM     95  C   UNL A   1      36.022  23.472  26.182  1.00  0.00     0.025 C 
ATOM     96  C   UNL A   1      35.234  22.598  23.893  1.00  0.00     0.025 C 
ATOM     97  C   UNL A   1      37.461  23.409  25.683  1.00  0.00     0.002 C 
ATOM     98  C   UNL A   1      36.696  22.554  23.445  1.00  0.00     0.002 C 
ATOM     99  C   UNL A   1      37.635  22.326  24.625  1.00  0.00     0.000 C 
ENDBRANCH  91  94
ENDBRANCH  82  86
ENDBRANCH  77  80
ENDBRANCH  75  76
ENDBRANCH  74  75
ENDBRANCH  73  74
ENDBRANCH   1  73
TORSDOF 18
ENDMDL
MODEL 2
REMARK VINA RESULT:     -11.8      0.529      7.515
REMARK SMILES O=C(NCCCCCCNC(=O)c1ccccc1/C=C1/SC(=S)N(C2CCCCC2)C1=O)c1ccc(-c2c3nc(c(-c4cc(S(=O)(=O)[O-])ccc4F)c4ccc([nH]4)c(-c4cc(S(=O)(=O)[O-])ccc4F)c4nc(c(-c5cc(S(=O)(=O)[O-])ccc5F)c5ccc2[nH]5)C=C4)C=C3)cc1
REMARK SMILES IDX 6 1 5 2 4 3 3 4 1 5 2 6 33 8 34 9 95 10 35 11 94 12 36 13
REMARK SMILES IDX 37 14 38 15 88 16 39 17 93 18 87 19 89 20 40 21 92 22 86 23
REMARK SMILES IDX 85 24 41 26 73 27 53 28 72 29 54 30 57 31 71 32 90 33 55 34
REMARK SMILES IDX 56 35 70 37 91 38 58 39 42 40 43 41 51 42 44 43 50 44 52 45
REMARK SMILES IDX 49 46 45 47 46 48 47 49 48 50 74 51 75 52 83 53 76 54 82 55
REMARK SMILES IDX 84 56 81 57 77 58 78 59 79 60 80 61 59 62 60 63 68 64 61 65
REMARK SMILES IDX 67 66 69 67 66 68 62 69 63 70 64 71 65 72 7 73 8 74 9 75
REMARK SMILES IDX 10 76 11 77 12 79 13 80 14 81 18 82 15 83 17 84 16 85 19 86
REMARK SMILES IDX 20 87 21 88 31 89 22 90 24 91 32 92 23 93 25 94 26 95 30 96
REMARK SMILES IDX 27 97 29 98 28 99
REMARK H PARENT 3 7 89 25 57 36 10 78
REMARK Flexibility Score: inf
ROOT
ATOM      1  C   UNL A   1      35.260  31.893  27.812  1.00  0.00     0.002 C 
ENDROOT
BRANCH   1   2
ATOM      2  C   UNL A   1      33.903  32.571  28.008  1.00  0.00     0.021 C 
BRANCH   2   3
ATOM      3  C   UNL A   1      33.910  34.090  27.876  1.00  0.00     0.116 C 
BRANCH   3   4
ATOM      4  N   UNL A   1      33.221  34.747  28.973  1.00  0.00    -0.352 N 
ATOM      5  O   UNL A   1      32.720  35.207  31.120  1.00  0.00    -0.269 OA
ATOM      6  C   UNL A   1      33.509  34.721  30.314  1.00  0.00     0.251 C 
ATOM      7  H   UNL A   1      32.437  35.285  28.718  1.00  0.00     0.163 HD
BRANCH   6   8
ATOM      8  C   UNL A   1      34.763  34.096  30.784  1.00  0.00     0.039 A 
ATOM      9  C   UNL A   1      36.008  34.623  30.424  1.00  0.00     0.014 A 
ATOM     10  C   UNL A   1      34.686  32.974  31.613  1.00  0.00     0.014 A 
ATOM     11  C   UNL A   1      37.174  33.968  30.807  1.00  0.00     0.010 A 
ATOM     12  C   UNL A   1      35.859  32.360  32.053  1.00  0.00     0.010 A 
ATOM     13  C   UNL A   1      37.112  32.841  31.639  1.00  0.00    -0.014 A 
BRANCH  13  14
ATOM     14  C   UNL A   1      38.358  32.191  32.121  1.00  0.00     0.031 A 
ATOM     15  C   UNL A   1      38.997  31.085  31.334  1.00  0.00     0.074 A 
ATOM     16  C   UNL A   1      38.881  32.575  33.301  1.00  0.00     0.049 A 
ATOM     17  N   UNL A   1      40.008  30.319  31.654  1.00  0.00    -0.248 NA
ATOM     18  C   UNL A   1      38.409  30.794  30.021  1.00  0.00     0.031 C 
ATOM     19  C   UNL A   1      38.347  33.642  34.149  1.00  0.00     0.029 A 
ATOM     20  N   UNL A   1      39.961  32.101  34.003  1.00  0.00    -0.354 N 
ATOM     21  C   UNL A   1      40.166  29.436  30.591  1.00  0.00     0.074 A 
ATOM     22  C   UNL A   1      39.121  29.745  29.636  1.00  0.00     0.031 C 
ATOM     23  C   UNL A   1      39.097  33.740  35.255  1.00  0.00     0.029 A 
ATOM     24  C   UNL A   1      40.117  32.697  35.231  1.00  0.00     0.049 A 
ATOM     25  H   UNL A   1      40.564  31.403  33.660  1.00  0.00     0.167 HD
ATOM     26  C   UNL A   1      41.101  28.463  30.430  1.00  0.00     0.034 A 
ATOM     27  C   UNL A   1      40.948  32.407  36.250  1.00  0.00     0.034 A 
ATOM     28  C   UNL A   1      42.122  28.168  31.409  1.00  0.00     0.049 A 
ATOM     29  C   UNL A   1      41.930  31.279  36.089  1.00  0.00     0.074 A 
ATOM     30  C   UNL A   1      43.142  27.234  31.338  1.00  0.00     0.029 A 
ATOM     31  N   UNL A   1      42.239  28.784  32.651  1.00  0.00    -0.354 N 
ATOM     32  N   UNL A   1      42.088  30.465  35.071  1.00  0.00    -0.248 NA
ATOM     33  C   UNL A   1      42.849  31.033  37.206  1.00  0.00     0.031 C 
ATOM     34  C   UNL A   1      43.818  27.227  32.563  1.00  0.00     0.029 A 
ATOM     35  C   UNL A   1      43.285  28.222  33.368  1.00  0.00     0.049 A 
ATOM     36  H   UNL A   1      41.662  29.513  32.974  1.00  0.00     0.167 HD
ATOM     37  C   UNL A   1      43.146  29.628  35.413  1.00  0.00     0.074 A 
ATOM     38  C   UNL A   1      43.584  30.035  36.733  1.00  0.00     0.031 C 
ATOM     39  C   UNL A   1      43.710  28.628  34.690  1.00  0.00     0.034 A 
BRANCH  26  40
ATOM     40  C   UNL A   1      41.013  27.618  29.180  1.00  0.00     0.023 A 
ATOM     41  C   UNL A   1      41.934  27.754  28.125  1.00  0.00     0.031 A 
ATOM     42  C   UNL A   1      39.958  26.703  29.011  1.00  0.00     0.131 A 
ATOM     43  C   UNL A   1      41.723  27.072  26.917  1.00  0.00     0.055 A 
ATOM     44  C   UNL A   1      39.809  25.953  27.842  1.00  0.00     0.041 A 
ATOM     45  F   UNL A   1      39.035  26.538  29.972  1.00  0.00    -0.206 F 
ATOM     46  C   UNL A   1      40.682  26.154  26.776  1.00  0.00     0.022 A 
BRANCH  43  47
ATOM     47  S   UNL A   1      42.711  27.556  25.472  1.00  0.00     0.124 S 
ATOM     48  O   UNL A   1      42.602  26.369  24.626  1.00  0.00    -0.237 OA
ATOM     49  O   UNL A   1      42.012  28.744  24.997  1.00  0.00    -0.237 OA
ATOM     50  O   UNL A   1      44.041  27.792  26.030  1.00  0.00    -0.744 OA
ENDBRANCH  43  47
ENDBRANCH  26  40
BRANCH  27  51
ATOM     51  C   UNL A   1      40.837  33.170  37.524  1.00  0.00     0.023 A 
ATOM     52  C   UNL A   1      39.985  32.751  38.554  1.00  0.00     0.031 A 
ATOM     53  C   UNL A   1      41.617  34.323  37.734  1.00  0.00     0.131 A 
ATOM     54  C   UNL A   1      39.919  33.490  39.746  1.00  0.00     0.055 A 
ATOM     55  C   UNL A   1      41.584  35.026  38.939  1.00  0.00     0.041 A 
ATOM     56  F   UNL A   1      42.455  34.760  36.781  1.00  0.00    -0.206 F 
ATOM     57  C   UNL A   1      40.725  34.613  39.952  1.00  0.00     0.022 A 
BRANCH  54  58
ATOM     58  S   UNL A   1      38.730  32.985  41.018  1.00  0.00     0.124 S 
ATOM     59  O   UNL A   1      39.280  33.624  42.208  1.00  0.00    -0.237 OA
ATOM     60  O   UNL A   1      37.483  33.544  40.508  1.00  0.00    -0.237 OA
ATOM     61  O   UNL A   1      38.809  31.526  40.999  1.00  0.00    -0.744 OA
ENDBRANCH  54  58
ENDBRANCH  27  51
BRANCH  39  62
ATOM     62  C   UNL A   1      44.915  27.938  35.281  1.00  0.00     0.023 A 
ATOM     63  C   UNL A   1      44.804  26.775  36.063  1.00  0.00     0.031 A 
ATOM     64  C   UNL A   1      46.202  28.443  35.022  1.00  0.00     0.131 A 
ATOM     65  C   UNL A   1      45.962  26.170  36.579  1.00  0.00     0.055 A 
ATOM     66  C   UNL A   1      47.351  27.807  35.492  1.00  0.00     0.041 A 
ATOM     67  F   UNL A   1      46.363  29.555  34.288  1.00  0.00    -0.206 F 
ATOM     68  C   UNL A   1      47.235  26.668  36.280  1.00  0.00     0.022 A 
BRANCH  65  69
ATOM     69  S   UNL A   1      45.789  24.748  37.693  1.00  0.00     0.124 S 
ATOM     70  O   UNL A   1      45.772  23.630  36.755  1.00  0.00    -0.237 OA
ATOM     71  O   UNL A   1      46.977  24.860  38.532  1.00  0.00    -0.237 OA
ATOM     72  O   UNL A   1      44.522  25.001  38.378  1.00  0.00    -0.744 OA
ENDBRANCH  65  69
ENDBRANCH  39  62
ENDBRANCH  13  14
ENDBRANCH   6   8
ENDBRANCH   3   4
ENDBRANCH   2   3
ENDBRANCH   1   2
BRANCH   1  73
ATOM     73  C   UNL A   1      35.427  30.533  28.498  1.00  0.00     0.002 C 
BRANCH  73  74
ATOM     74  C   UNL A   1      35.472  29.314  27.568  1.00  0.00     0.021 C 
BRANCH  74  75
ATOM     75  C   UNL A   1      34.187  29.042  26.795  1.00  0.00     0.116 C 
BRANCH  75  76
ATOM     76  N   UNL A   1      33.114  28.590  27.660  1.00  0.00    -0.352 N 
ATOM     77  C   UNL A   1      31.820  28.264  27.343  1.00  0.00     0.251 C 
ATOM     78  H   UNL A   1      33.349  28.502  28.612  1.00  0.00     0.163 HD
ATOM     79  O   UNL A   1      31.024  28.027  28.249  1.00  0.00    -0.269 OA
BRANCH  77  80
ATOM     80  C   UNL A   1      31.368  28.228  25.930  1.00  0.00     0.047 A 
ATOM     81  C   UNL A   1      31.438  29.441  25.229  1.00  0.00     0.014 A 
ATOM     82  C   UNL A   1      30.841  27.077  25.305  1.00  0.00    -0.012 A 
ATOM     83  C   UNL A   1      31.041  29.505  23.895  1.00  0.00     0.001 A 
ATOM     84  C   UNL A   1      30.469  27.153  23.955  1.00  0.00     0.009 A 
ATOM     85  C   UNL A   1      30.568  28.360  23.256  1.00  0.00     0.001 A 
BRANCH  82  86
ATOM     86  C   UNL A   1      30.688  25.777  25.976  1.00  0.00     0.030 C 
ATOM     87  C   UNL A   1      31.628  24.825  26.053  1.00  0.00     0.081 C 
ATOM     88  S   UNL A   1      31.298  23.229  26.591  1.00  0.00    -0.054 SA
ATOM     89  C   UNL A   1      33.049  24.925  25.632  1.00  0.00     0.266 C 
ATOM     90  C   UNL A   1      32.847  22.618  26.009  1.00  0.00     0.148 C 
ATOM     91  N   UNL A   1      33.615  23.661  25.520  1.00  0.00    -0.290 N 
ATOM     92  O   UNL A   1      33.635  25.990  25.497  1.00  0.00    -0.268 OA
ATOM     93  S   UNL A   1      33.196  20.989  26.118  1.00  0.00    -0.052 S 
BRANCH  91  94
ATOM     94  C   UNL A   1      35.013  23.594  25.041  1.00  0.00     0.092 C 
ATOM     95  C   UNL A   1      35.981  23.234  26.179  1.00  0.00     0.025 C 
ATOM     96  C   UNL A   1      35.213  22.750  23.770  1.00  0.00     0.025 C 
ATOM     97  C   UNL A   1      37.428  23.173  25.704  1.00  0.00     0.002 C 
ATOM     98  C   UNL A   1      36.682  22.699  23.348  1.00  0.00     0.002 C 
ATOM     99  C   UNL A   1      37.578  22.251  24.499  1.00  0.00     0.000 C 
ENDBRANCH  91  94
ENDBRANCH  82  86
ENDBRANCH  77  80
ENDBRANCH  75  76
ENDBRANCH  74  75
ENDBRANCH  73  74
ENDBRANCH   1  73
TORSDOF 18
ENDMDL
MODEL 3
REMARK VINA RESULT:     -11.2      1.891      7.814
REMARK SMILES O=C(NCCCCCCNC(=O)c1ccccc1/C=C1/SC(=S)N(C2CCCCC2)C1=O)c1ccc(-c2c3nc(c(-c4cc(S(=O)(=O)[O-])ccc4F)c4ccc([nH]4)c(-c4cc(S(=O)(=O)[O-])ccc4F)c4nc(c(-c5cc(S(=O)(=O)[O-])ccc5F)c5ccc2[nH]5)C=C4)C=C3)cc1
REMARK SMILES IDX 6 1 5 2 4 3 3 4 1 5 2 6 33 8 34 9 95 10 35 11 94 12 36 13
REMARK SMILES IDX 37 14 38 15 88 16 39 17 93 18 87 19 89 20 40 21 92 22 86 23
REMARK SMILES IDX 85 24 41 26 73 27 53 28 72 29 54 30 57 31 71 32 90 33 55 34
REMARK SMILES IDX 56 35 70 37 91 38 58 39 42 40 43 41 51 42 44 43 50 44 52 45
REMARK SMILES IDX 49 46 45 47 46 48 47 49 48 50 74 51 75 52 83 53 76 54 82 55
REMARK SMILES IDX 84 56 81 57 77 58 78 59 79 60 80 61 59 62 60 63 68 64 61 65
REMARK SMILES IDX 67 66 69 67 66 68 62 69 63 70 64 71 65 72 7 73 8 74 9 75
REMARK SMILES IDX 10 76 11 77 12 79 13 80 14 81 18 82 15 83 17 84 16 85 19 86
REMARK SMILES IDX 20 87 21 88 31 89 22 90 24 91 32 92 23 93 25 94 26 95 30 96
REMARK SMILES IDX 27 97 29 98 28 99
REMARK H PARENT 3 7 89 25 57 36 10 78
REMARK Flexibility Score: inf
ROOT
ATOM      1  C   UNL A   1      31.694  30.510  26.017  1.00  0.00     0.002 C 
ENDROOT
BRANCH   1   2
ATOM      2  C   UNL A   1      31.497  31.895  26.636  1.00  0.00     0.021 C 
BRANCH   2   3
ATOM      3  C   UNL A   1      32.752  32.526  27.229  1.00  0.00     0.116 C 
BRANCH   3   4
ATOM      4  N   UNL A   1      32.537  33.898  27.655  1.00  0.00    -0.352 N 
ATOM      5  O   UNL A   1      32.743  35.707  28.981  1.00  0.00    -0.269 OA
ATOM      6  C   UNL A   1      33.167  34.603  28.650  1.00  0.00     0.251 C 
ATOM      7  H   UNL A   1      31.841  34.390  27.163  1.00  0.00     0.163 HD
BRANCH   6   8
ATOM      8  C   UNL A   1      34.345  34.023  29.328  1.00  0.00     0.039 A 
ATOM      9  C   UNL A   1      34.193  33.102  30.370  1.00  0.00     0.014 A 
ATOM     10  C   UNL A   1      35.620  34.396  28.897  1.00  0.00     0.014 A 
ATOM     11  C   UNL A   1      35.313  32.635  31.051  1.00  0.00     0.010 A 
ATOM     12  C   UNL A   1      36.744  33.871  29.537  1.00  0.00     0.010 A 
ATOM     13  C   UNL A   1      36.600  33.001  30.630  1.00  0.00    -0.014 A 
BRANCH  13  14
ATOM     14  C   UNL A   1      37.800  32.434  31.297  1.00  0.00     0.031 A 
ATOM     15  C   UNL A   1      38.543  31.283  30.685  1.00  0.00     0.074 A 
ATOM     16  C   UNL A   1      38.186  32.936  32.486  1.00  0.00     0.049 A 
ATOM     17  N   UNL A   1      39.530  30.579  31.176  1.00  0.00    -0.248 NA
ATOM     18  C   UNL A   1      38.106  30.861  29.348  1.00  0.00     0.031 C 
ATOM     19  C   UNL A   1      37.541  34.056  33.174  1.00  0.00     0.029 A 
ATOM     20  N   UNL A   1      39.193  32.558  33.337  1.00  0.00    -0.354 N 
ATOM     21  C   UNL A   1      39.820  29.612  30.220  1.00  0.00     0.074 A 
ATOM     22  C   UNL A   1      38.876  29.804  29.137  1.00  0.00     0.031 C 
ATOM     23  C   UNL A   1      38.166  34.273  34.339  1.00  0.00     0.029 A 
ATOM     24  C   UNL A   1      39.204  33.264  34.516  1.00  0.00     0.049 A 
ATOM     25  H   UNL A   1      39.844  31.851  33.123  1.00  0.00     0.167 HD
ATOM     26  C   UNL A   1      40.787  28.659  30.247  1.00  0.00     0.034 A 
ATOM     27  C   UNL A   1      39.928  33.090  35.639  1.00  0.00     0.034 A 
ATOM     28  C   UNL A   1      41.703  28.482  31.350  1.00  0.00     0.049 A 
ATOM     29  C   UNL A   1      40.945  31.982  35.684  1.00  0.00     0.074 A 
ATOM     30  C   UNL A   1      42.744  27.577  31.471  1.00  0.00     0.029 A 
ATOM     31  N   UNL A   1      41.673  29.207  32.537  1.00  0.00    -0.354 N 
ATOM     32  N   UNL A   1      41.228  31.088  34.765  1.00  0.00    -0.248 NA
ATOM     33  C   UNL A   1      41.744  31.863  36.908  1.00  0.00     0.031 C 
ATOM     34  C   UNL A   1      43.284  27.698  32.756  1.00  0.00     0.029 A 
ATOM     35  C   UNL A   1      42.647  28.742  33.407  1.00  0.00     0.049 A 
ATOM     36  H   UNL A   1      41.049  29.944  32.730  1.00  0.00     0.167 HD
ATOM     37  C   UNL A   1      42.260  30.317  35.290  1.00  0.00     0.074 A 
ATOM     38  C   UNL A   1      42.546  30.851  36.607  1.00  0.00     0.031 C 
ATOM     39  C   UNL A   1      42.920  29.275  34.724  1.00  0.00     0.034 A 
BRANCH  26  40
ATOM     40  C   UNL A   1      40.851  27.704  29.075  1.00  0.00     0.023 A 
ATOM     41  C   UNL A   1      41.802  27.852  28.049  1.00  0.00     0.031 A 
ATOM     42  C   UNL A   1      39.911  26.666  28.950  1.00  0.00     0.131 A 
ATOM     43  C   UNL A   1      41.724  27.050  26.900  1.00  0.00     0.055 A 
ATOM     44  C   UNL A   1      39.900  25.807  27.848  1.00  0.00     0.041 A 
ATOM     45  F   UNL A   1      38.966  26.481  29.885  1.00  0.00    -0.206 F 
ATOM     46  C   UNL A   1      40.797  26.012  26.803  1.00  0.00     0.022 A 
BRANCH  43  47
ATOM     47  S   UNL A   1      42.723  27.516  25.457  1.00  0.00     0.124 S 
ATOM     48  O   UNL A   1      42.699  26.285  24.668  1.00  0.00    -0.237 OA
ATOM     49  O   UNL A   1      41.975  28.640  24.907  1.00  0.00    -0.237 OA
ATOM     50  O   UNL A   1      44.023  27.850  26.033  1.00  0.00    -0.744 OA
ENDBRANCH  43  47
ENDBRANCH  26  40
BRANCH  27  51
ATOM     51  C   UNL A   1      39.664  33.958  36.819  1.00  0.00     0.023 A 
ATOM     52  C   UNL A   1      39.025  33.460  37.963  1.00  0.00     0.031 A 
ATOM     53  C   UNL A   1      40.084  35.302  36.824  1.00  0.00     0.131 A 
ATOM     54  C   UNL A   1      38.808  34.307  39.062  1.00  0.00     0.055 A 
ATOM     55  C   UNL A   1      39.910  36.125  37.936  1.00  0.00     0.041 A 
ATOM     56  F   UNL A   1      40.709  35.821  35.755  1.00  0.00    -0.206 F 
ATOM     57  C   UNL A   1      39.262  35.630  39.063  1.00  0.00     0.022 A 
BRANCH  54  58
ATOM     58  S   UNL A   1      37.885  33.667  40.484  1.00  0.00     0.124 S 
ATOM     59  O   UNL A   1      37.659  34.880  41.262  1.00  0.00    -0.237 OA
ATOM     60  O   UNL A   1      36.709  33.085  39.846  1.00  0.00    -0.237 OA
ATOM     61  O   UNL A   1      38.806  32.703  41.083  1.00  0.00    -0.744 OA
ENDBRANCH  54  58
ENDBRANCH  27  51
BRANCH  39  62
ATOM     62  C   UNL A   1      44.068  28.676  35.499  1.00  0.00     0.023 A 
ATOM     63  C   UNL A   1      45.388  29.141  35.363  1.00  0.00     0.031 A 
ATOM     64  C   UNL A   1      43.822  27.640  36.418  1.00  0.00     0.131 A 
ATOM     65  C   UNL A   1      46.415  28.551  36.118  1.00  0.00     0.055 A 
ATOM     66  C   UNL A   1      44.837  27.095  37.203  1.00  0.00     0.041 A 
ATOM     67  F   UNL A   1      42.580  27.154  36.581  1.00  0.00    -0.206 F 
ATOM     68  C   UNL A   1      46.143  27.546  37.051  1.00  0.00     0.022 A 
BRANCH  65  69
ATOM     69  S   UNL A   1      48.128  29.075  35.830  1.00  0.00     0.124 S 
ATOM     70  O   UNL A   1      48.505  28.259  34.681  1.00  0.00    -0.237 OA
ATOM     71  O   UNL A   1      47.981  30.504  35.577  1.00  0.00    -0.237 OA
ATOM     72  O   UNL A   1      48.806  28.735  37.080  1.00  0.00    -0.744 OA
ENDBRANCH  65  69
ENDBRANCH  39  62
ENDBRANCH  13  14
ENDBRANCH   6   8
ENDBRANCH   3   4
ENDBRANCH   2   3
ENDBRANCH   1   2
BRANCH   1  73
ATOM     73  C   UNL A   1      32.895  29.716  26.538  1.00  0.00     0.002 C 
BRANCH  73  74
ATOM     74  C   UNL A   1      32.570  28.540  27.468  1.00  0.00     0.021 C 
BRANCH  74  75
ATOM     75  C   UNL A   1      32.577  27.169  26.804  1.00  0.00     0.116 C 
BRANCH  75  76
ATOM     76  N   UNL A   1      31.299  26.492  26.933  1.00  0.00    -0.352 N 
ATOM     77  C   UNL A   1      30.435  26.072  25.955  1.00  0.00     0.251 C 
ATOM     78  H   UNL A   1      31.012  26.307  27.857  1.00  0.00     0.163 HD
ATOM     79  O   UNL A   1      29.333  25.633  26.279  1.00  0.00    -0.269 OA
BRANCH  77  80
ATOM     80  C   UNL A   1      30.802  26.171  24.520  1.00  0.00     0.047 A 
ATOM     81  C   UNL A   1      30.855  27.467  23.986  1.00  0.00     0.014 A 
ATOM     82  C   UNL A   1      31.036  25.052  23.692  1.00  0.00    -0.012 A 
ATOM     83  C   UNL A   1      31.196  27.661  22.649  1.00  0.00     0.001 A 
ATOM     84  C   UNL A   1      31.401  25.268  22.355  1.00  0.00     0.009 A 
ATOM     85  C   UNL A   1      31.480  26.564  21.839  1.00  0.00     0.001 A 
BRANCH  82  86
ATOM     86  C   UNL A   1      30.956  23.659  24.156  1.00  0.00     0.030 C 
ATOM     87  C   UNL A   1      31.998  22.897  24.517  1.00  0.00     0.081 C 
ATOM     88  S   UNL A   1      31.874  21.203  24.768  1.00  0.00    -0.054 SA
ATOM     89  C   UNL A   1      33.411  23.323  24.682  1.00  0.00     0.266 C 
ATOM     90  C   UNL A   1      33.624  20.988  24.782  1.00  0.00     0.148 C 
ATOM     91  N   UNL A   1      34.255  22.218  24.704  1.00  0.00    -0.290 N 
ATOM     92  O   UNL A   1      33.745  24.486  24.862  1.00  0.00    -0.268 OA
ATOM     93  S   UNL A   1      34.276  19.456  24.896  1.00  0.00    -0.052 S 
BRANCH  91  94
ATOM     94  C   UNL A   1      35.706  22.487  24.794  1.00  0.00     0.092 C 
ATOM     95  C   UNL A   1      36.022  23.498  25.908  1.00  0.00     0.025 C 
ATOM     96  C   UNL A   1      36.588  21.227  24.836  1.00  0.00     0.025 C 
ATOM     97  C   UNL A   1      37.514  23.795  26.006  1.00  0.00     0.002 C 
ATOM     98  C   UNL A   1      38.072  21.576  24.960  1.00  0.00     0.002 C 
ATOM     99  C   UNL A   1      38.328  22.513  26.137  1.00  0.00     0.000 C 
ENDBRANCH  91  94
ENDBRANCH  82  86
ENDBRANCH  77  80
ENDBRANCH  75  76
ENDBRANCH  74  75
ENDBRANCH  73  74
ENDBRANCH   1  73
TORSDOF 18
ENDMDL
