MODEL 1
REMARK VINA RESULT:     -11.2      0.000      0.000
REMARK SMILES Nc1c(Nc2ccc(I)cc2)ncnc1Nc1ccc(C(=O)NCCCCCCNC(=O)c2ccc(-c3c4nc(c(-c5cc(S(=O)(=O)[O-])ccc5F)c5ccc([nH]5)c(-c5cc(S(=O)(=O)[O-])ccc5F)c5nc(c(-c6cc(S(=O)(=O)[O-])ccc6F)c6ccc3[nH]6)C=C5)C=C4)cc2)cc1
REMARK SMILES IDX 26 1 25 2 24 3 23 4 21 5 22 6 20 8 17 9 18 10 97 11 19 12
REMARK SMILES IDX 96 13 16 14 15 16 2 17 3 18 12 19 14 20 13 21 1 22 4 25 5 27
REMARK SMILES IDX 6 28 11 29 7 30 10 31 8 32 9 33 27 34 28 35 29 36 30 37
REMARK SMILES IDX 31 38 32 40 33 41 34 42 95 43 35 44 94 45 36 46 37 47 38 48
REMARK SMILES IDX 88 49 39 50 93 51 87 52 89 53 40 54 92 55 86 56 85 57 41 59
REMARK SMILES IDX 73 60 53 61 72 62 54 63 57 64 71 65 90 66 55 67 56 68 70 70
REMARK SMILES IDX 91 71 58 72 42 73 43 74 51 75 44 76 50 77 52 78 49 79 45 80
REMARK SMILES IDX 46 81 47 82 48 83 74 84 75 85 83 86 76 87 82 88 84 89 81 90
REMARK SMILES IDX 77 91 78 92 79 93 80 94 59 95 60 96 68 97 61 98 67 99 69 100
REMARK SMILES IDX 66 101 62 102 63 103 64 104 65 105
REMARK H PARENT 23 7 16 15 1 23 1 24 4 26 30 39 89 58 57 69
REMARK Flexibility Score: inf
ROOT
ATOM      1  C   UNL A   1      40.480  22.739  26.803  1.00  0.00     0.002 C 
ENDROOT
BRANCH   1   2
ATOM      2  C   UNL A   1      39.258  23.637  27.054  1.00  0.00     0.021 C 
BRANCH   2   3
ATOM      3  C   UNL A   1      38.090  23.334  26.112  1.00  0.00     0.116 C 
BRANCH   3   4
ATOM      4  N   UNL A   1      38.230  21.994  25.575  1.00  0.00    -0.352 N 
ATOM      5  C   UNL A   1      37.375  21.157  24.909  1.00  0.00     0.251 C 
ATOM      6  O   UNL A   1      37.797  20.032  24.628  1.00  0.00    -0.269 OA
ATOM      7  H   UNL A   1      39.123  21.605  25.722  1.00  0.00     0.163 HD
BRANCH   5   8
ATOM      8  C   UNL A   1      36.015  21.550  24.441  1.00  0.00     0.039 A 
ATOM      9  C   UNL A   1      33.521  22.622  23.643  1.00  0.00     0.040 A 
ATOM     10  C   UNL A   1      34.711  23.219  23.224  1.00  0.00     0.027 A 
ATOM     11  C   UNL A   1      33.592  21.450  24.403  1.00  0.00     0.027 A 
ATOM     12  C   UNL A   1      35.942  22.694  23.629  1.00  0.00     0.016 A 
ATOM     13  C   UNL A   1      34.826  20.891  24.758  1.00  0.00     0.016 A 
BRANCH   9  14
ATOM     14  N   UNL A   1      32.295  23.277  23.439  1.00  0.00    -0.338 N 
ATOM     15  H   UNL A   1      31.850  23.160  22.569  1.00  0.00     0.168 HD
BRANCH  14  16
ATOM     16  C   UNL A   1      31.654  24.094  24.411  1.00  0.00     0.159 A 
ATOM     17  C   UNL A   1      31.731  25.485  24.264  1.00  0.00     0.118 A 
ATOM     18  C   UNL A   1      31.135  26.229  25.294  1.00  0.00     0.159 A 
ATOM     19  N   UNL A   1      30.551  25.648  26.358  1.00  0.00    -0.217 NA
ATOM     20  N   UNL A   1      31.015  23.505  25.439  1.00  0.00    -0.217 NA
ATOM     21  C   UNL A   1      30.503  24.315  26.366  1.00  0.00     0.226 A 
BRANCH  17  22
ATOM     22  N   UNL A   1      32.416  26.078  23.195  1.00  0.00    -0.393 N 
ATOM     23  H   UNL A   1      32.949  26.892  23.341  1.00  0.00     0.156 HD
ATOM     24  H   UNL A   1      32.363  25.678  22.295  1.00  0.00     0.156 HD
ENDBRANCH  17  22
BRANCH  18  25
ATOM     25  N   UNL A   1      31.110  27.643  25.184  1.00  0.00    -0.338 N 
ATOM     26  H   UNL A   1      30.480  28.023  24.530  1.00  0.00     0.168 HD
BRANCH  25  27
ATOM     27  C   UNL A   1      31.890  28.560  25.912  1.00  0.00     0.040 A 
ATOM     28  C   UNL A   1      33.056  28.120  26.554  1.00  0.00     0.027 A 
ATOM     29  C   UNL A   1      31.583  29.926  25.953  1.00  0.00     0.027 A 
ATOM     30  C   UNL A   1      33.904  29.024  27.201  1.00  0.00     0.017 A 
ATOM     31  C   UNL A   1      32.419  30.835  26.609  1.00  0.00     0.017 A 
ATOM     32  C   UNL A   1      33.583  30.379  27.224  1.00  0.00     0.013 A 
ATOM     33  I   UNL A   1      34.856  31.728  28.160  1.00  0.00    -0.044 I 
ENDBRANCH  25  27
ENDBRANCH  18  25
ENDBRANCH  14  16
ENDBRANCH   9  14
ENDBRANCH   5   8
ENDBRANCH   3   4
ENDBRANCH   2   3
ENDBRANCH   1   2
BRANCH   1  34
ATOM     34  C   UNL A   1      40.842  21.809  27.968  1.00  0.00     0.002 C 
BRANCH  34  35
ATOM     35  C   UNL A   1      41.166  20.366  27.566  1.00  0.00     0.021 C 
BRANCH  35  36
ATOM     36  C   UNL A   1      41.101  20.106  26.064  1.00  0.00     0.116 C 
BRANCH  36  37
ATOM     37  N   UNL A   1      42.337  19.513  25.576  1.00  0.00    -0.352 N 
ATOM     38  C   UNL A   1      43.528  20.122  25.274  1.00  0.00     0.251 C 
ATOM     39  H   UNL A   1      42.315  18.537  25.445  1.00  0.00     0.163 HD
ATOM     40  O   UNL A   1      44.376  19.519  24.627  1.00  0.00    -0.269 OA
BRANCH  38  41
ATOM     41  C   UNL A   1      43.777  21.508  25.729  1.00  0.00     0.039 A 
ATOM     42  C   UNL A   1      44.287  21.722  27.012  1.00  0.00     0.014 A 
ATOM     43  C   UNL A   1      43.483  22.591  24.895  1.00  0.00     0.014 A 
ATOM     44  C   UNL A   1      44.547  23.025  27.442  1.00  0.00     0.010 A 
ATOM     45  C   UNL A   1      43.798  23.884  25.303  1.00  0.00     0.010 A 
ATOM     46  C   UNL A   1      44.328  24.113  26.581  1.00  0.00    -0.014 A 
BRANCH  46  47
ATOM     47  C   UNL A   1      44.619  25.505  27.004  1.00  0.00     0.031 A 
ATOM     48  C   UNL A   1      43.514  26.364  27.552  1.00  0.00     0.074 A 
ATOM     49  C   UNL A   1      45.859  26.007  26.846  1.00  0.00     0.049 A 
ATOM     50  N   UNL A   1      43.530  27.635  27.861  1.00  0.00    -0.248 NA
ATOM     51  C   UNL A   1      42.212  25.710  27.760  1.00  0.00     0.031 C 
ATOM     52  C   UNL A   1      47.011  25.267  26.325  1.00  0.00     0.029 A 
ATOM     53  N   UNL A   1      46.357  27.259  27.103  1.00  0.00    -0.354 N 
ATOM     54  C   UNL A   1      42.244  27.934  28.296  1.00  0.00     0.074 A 
ATOM     55  C   UNL A   1      41.460  26.725  28.161  1.00  0.00     0.031 C 
ATOM     56  C   UNL A   1      48.086  26.072  26.328  1.00  0.00     0.029 A 
ATOM     57  C   UNL A   1      47.691  27.396  26.800  1.00  0.00     0.049 A 
ATOM     58  H   UNL A   1      45.811  27.991  27.472  1.00  0.00     0.167 HD
ATOM     59  C   UNL A   1      41.767  29.106  28.781  1.00  0.00     0.034 A 
ATOM     60  C   UNL A   1      48.501  28.469  26.880  1.00  0.00     0.034 A 
ATOM     61  C   UNL A   1      42.563  30.300  28.920  1.00  0.00     0.049 A 
ATOM     62  C   UNL A   1      47.934  29.775  27.371  1.00  0.00     0.074 A 
ATOM     63  C   UNL A   1      42.181  31.536  29.413  1.00  0.00     0.029 A 
ATOM     64  N   UNL A   1      43.902  30.408  28.572  1.00  0.00    -0.354 N 
ATOM     65  N   UNL A   1      46.709  30.050  27.754  1.00  0.00    -0.248 NA
ATOM     66  C   UNL A   1      48.859  30.914  27.440  1.00  0.00     0.031 C 
ATOM     67  C   UNL A   1      43.273  32.405  29.310  1.00  0.00     0.029 A 
ATOM     68  C   UNL A   1      44.356  31.694  28.819  1.00  0.00     0.049 A 
ATOM     69  H   UNL A   1      44.450  29.678  28.202  1.00  0.00     0.167 HD
ATOM     70  C   UNL A   1      46.722  31.389  28.132  1.00  0.00     0.074 A 
ATOM     71  C   UNL A   1      48.078  31.862  27.939  1.00  0.00     0.031 C 
ATOM     72  C   UNL A   1      45.706  32.156  28.603  1.00  0.00     0.034 A 
BRANCH  59  73
ATOM     73  C   UNL A   1      40.316  29.156  29.182  1.00  0.00     0.023 A 
ATOM     74  C   UNL A   1      39.923  29.083  30.529  1.00  0.00     0.031 A 
ATOM     75  C   UNL A   1      39.313  29.287  28.206  1.00  0.00     0.131 A 
ATOM     76  C   UNL A   1      38.561  29.098  30.862  1.00  0.00     0.055 A 
ATOM     77  C   UNL A   1      37.962  29.367  28.548  1.00  0.00     0.041 A 
ATOM     78  F   UNL A   1      39.630  29.340  26.902  1.00  0.00    -0.206 F 
ATOM     79  C   UNL A   1      37.578  29.265  29.883  1.00  0.00     0.022 A 
BRANCH  76  80
ATOM     80  S   UNL A   1      38.084  28.812  32.588  1.00  0.00     0.124 S 
ATOM     81  O   UNL A   1      39.075  29.612  33.302  1.00  0.00    -0.237 OA
ATOM     82  O   UNL A   1      36.714  29.309  32.624  1.00  0.00    -0.237 OA
ATOM     83  O   UNL A   1      38.226  27.366  32.747  1.00  0.00    -0.744 OA
ENDBRANCH  76  80
ENDBRANCH  59  73
BRANCH  60  84
ATOM     84  C   UNL A   1      49.930  28.357  26.480  1.00  0.00     0.023 A 
ATOM     85  C   UNL A   1      50.317  28.540  25.144  1.00  0.00     0.031 A 
ATOM     86  C   UNL A   1      50.928  28.067  27.426  1.00  0.00     0.131 A 
ATOM     87  C   UNL A   1      51.667  28.408  24.784  1.00  0.00     0.055 A 
ATOM     88  C   UNL A   1      52.274  27.974  27.070  1.00  0.00     0.041 A 
ATOM     89  F   UNL A   1      50.609  27.892  28.718  1.00  0.00    -0.206 F 
ATOM     90  C   UNL A   1      52.649  28.139  25.739  1.00  0.00     0.022 A 
BRANCH  87  91
ATOM     91  S   UNL A   1      52.120  28.564  23.034  1.00  0.00     0.124 S 
ATOM     92  O   UNL A   1      53.575  28.471  23.096  1.00  0.00    -0.237 OA
ATOM     93  O   UNL A   1      51.428  27.427  22.438  1.00  0.00    -0.237 OA
ATOM     94  O   UNL A   1      51.593  29.875  22.663  1.00  0.00    -0.744 OA
ENDBRANCH  87  91
ENDBRANCH  60  84
BRANCH  72  95
ATOM     95  C   UNL A   1      46.032  33.580  28.972  1.00  0.00     0.023 A 
ATOM     96  C   UNL A   1      45.923  34.624  28.038  1.00  0.00     0.031 A 
ATOM     97  C   UNL A   1      46.438  33.896  30.280  1.00  0.00     0.131 A 
ATOM     98  C   UNL A   1      46.259  35.932  28.415  1.00  0.00     0.055 A 
ATOM     99  C   UNL A   1      46.718  35.207  30.664  1.00  0.00     0.041 A 
ATOM    100  F   UNL A   1      46.556  32.934  31.209  1.00  0.00    -0.206 F 
ATOM    101  C   UNL A   1      46.639  36.234  29.726  1.00  0.00     0.022 A 
BRANCH  98 102
ATOM    102  S   UNL A   1      46.250  37.232  27.151  1.00  0.00     0.124 S 
ATOM    103  O   UNL A   1      44.840  37.610  27.117  1.00  0.00    -0.237 OA
ATOM    104  O   UNL A   1      47.160  38.224  27.714  1.00  0.00    -0.237 OA
ATOM    105  O   UNL A   1      46.740  36.553  25.953  1.00  0.00    -0.744 OA
ENDBRANCH  98 102
ENDBRANCH  72  95
ENDBRANCH  46  47
ENDBRANCH  38  41
ENDBRANCH  36  37
ENDBRANCH  35  36
ENDBRANCH  34  35
ENDBRANCH   1  34
TORSDOF 21
ENDMDL
MODEL 2
REMARK VINA RESULT:     -11.0      0.384      7.449
REMARK SMILES Nc1c(Nc2ccc(I)cc2)ncnc1Nc1ccc(C(=O)NCCCCCCNC(=O)c2ccc(-c3c4nc(c(-c5cc(S(=O)(=O)[O-])ccc5F)c5ccc([nH]5)c(-c5cc(S(=O)(=O)[O-])ccc5F)c5nc(c(-c6cc(S(=O)(=O)[O-])ccc6F)c6ccc3[nH]6)C=C5)C=C4)cc2)cc1
REMARK SMILES IDX 26 1 25 2 24 3 23 4 21 5 22 6 20 8 17 9 18 10 97 11 19 12
REMARK SMILES IDX 96 13 16 14 15 16 2 17 3 18 12 19 14 20 13 21 1 22 4 25 5 27
REMARK SMILES IDX 6 28 11 29 7 30 10 31 8 32 9 33 27 34 28 35 29 36 30 37
REMARK SMILES IDX 31 38 32 40 33 41 34 42 95 43 35 44 94 45 36 46 37 47 38 48
REMARK SMILES IDX 88 49 39 50 93 51 87 52 89 53 40 54 92 55 86 56 85 57 41 59
REMARK SMILES IDX 73 60 53 61 72 62 54 63 57 64 71 65 90 66 55 67 56 68 70 70
REMARK SMILES IDX 91 71 58 72 42 73 43 74 51 75 44 76 50 77 52 78 49 79 45 80
REMARK SMILES IDX 46 81 47 82 48 83 74 84 75 85 83 86 76 87 82 88 84 89 81 90
REMARK SMILES IDX 77 91 78 92 79 93 80 94 59 95 60 96 68 97 61 98 67 99 69 100
REMARK SMILES IDX 66 101 62 102 63 103 64 104 65 105
REMARK H PARENT 23 7 16 15 1 23 1 24 4 26 30 39 89 58 57 69
REMARK Flexibility Score: inf
ROOT
ATOM      1  C   UNL A   1      40.610  22.547  26.722  1.00  0.00     0.002 C 
ENDROOT
BRANCH   1   2
ATOM      2  C   UNL A   1      39.403  23.452  27.013  1.00  0.00     0.021 C 
BRANCH   2   3
ATOM      3  C   UNL A   1      38.194  23.140  26.129  1.00  0.00     0.116 C 
BRANCH   3   4
ATOM      4  N   UNL A   1      38.291  21.782  25.629  1.00  0.00    -0.352 N 
ATOM      5  C   UNL A   1      37.409  20.952  24.990  1.00  0.00     0.251 C 
ATOM      6  O   UNL A   1      37.797  19.809  24.739  1.00  0.00    -0.269 OA
ATOM      7  H   UNL A   1      39.174  21.372  25.781  1.00  0.00     0.163 HD
BRANCH   5   8
ATOM      8  C   UNL A   1      36.058  21.372  24.519  1.00  0.00     0.039 A 
ATOM      9  C   UNL A   1      33.586  22.492  23.719  1.00  0.00     0.040 A 
ATOM     10  C   UNL A   1      34.787  23.076  23.315  1.00  0.00     0.027 A 
ATOM     11  C   UNL A   1      33.634  21.309  24.463  1.00  0.00     0.027 A 
ATOM     12  C   UNL A   1      36.008  22.527  23.721  1.00  0.00     0.016 A 
ATOM     13  C   UNL A   1      34.857  20.727  24.819  1.00  0.00     0.016 A 
BRANCH   9  14
ATOM     14  N   UNL A   1      32.370  23.167  23.516  1.00  0.00    -0.338 N 
ATOM     15  H   UNL A   1      31.922  23.055  22.646  1.00  0.00     0.168 HD
BRANCH  14  16
ATOM     16  C   UNL A   1      31.747  23.998  24.486  1.00  0.00     0.159 A 
ATOM     17  C   UNL A   1      31.802  25.387  24.306  1.00  0.00     0.118 A 
ATOM     18  C   UNL A   1      31.226  26.146  25.335  1.00  0.00     0.159 A 
ATOM     19  N   UNL A   1      30.677  25.583  26.427  1.00  0.00    -0.217 NA
ATOM     20  N   UNL A   1      31.143  23.426  25.545  1.00  0.00    -0.217 NA
ATOM     21  C   UNL A   1      30.646  24.250  26.467  1.00  0.00     0.226 A 
BRANCH  17  22
ATOM     22  N   UNL A   1      32.450  25.963  23.205  1.00  0.00    -0.393 N 
ATOM     23  H   UNL A   1      32.555  26.940  23.151  1.00  0.00     0.156 HD
ATOM     24  H   UNL A   1      32.800  25.389  22.485  1.00  0.00     0.156 HD
ENDBRANCH  17  22
BRANCH  18  25
ATOM     25  N   UNL A   1      31.180  27.557  25.194  1.00  0.00    -0.338 N 
ATOM     26  H   UNL A   1      30.474  27.920  24.610  1.00  0.00     0.168 HD
BRANCH  25  27
ATOM     27  C   UNL A   1      32.035  28.494  25.802  1.00  0.00     0.040 A 
ATOM     28  C   UNL A   1      31.630  29.831  25.913  1.00  0.00     0.027 A 
ATOM     29  C   UNL A   1      33.256  28.119  26.378  1.00  0.00     0.027 A 
ATOM     30  C   UNL A   1      32.414  30.764  26.599  1.00  0.00     0.017 A 
ATOM     31  C   UNL A   1      34.052  29.049  27.054  1.00  0.00     0.017 A 
ATOM     32  C   UNL A   1      33.621  30.368  27.169  1.00  0.00     0.013 A 
ATOM     33  I   UNL A   1      34.773  31.745  28.214  1.00  0.00    -0.044 I 
ENDBRANCH  25  27
ENDBRANCH  18  25
ENDBRANCH  14  16
ENDBRANCH   9  14
ENDBRANCH   5   8
ENDBRANCH   3   4
ENDBRANCH   2   3
ENDBRANCH   1   2
BRANCH   1  34
ATOM     34  C   UNL A   1      40.992  21.599  27.866  1.00  0.00     0.002 C 
BRANCH  34  35
ATOM     35  C   UNL A   1      41.367  20.179  27.431  1.00  0.00     0.021 C 
BRANCH  35  36
ATOM     36  C   UNL A   1      41.407  19.978  25.919  1.00  0.00     0.116 C 
BRANCH  36  37
ATOM     37  N   UNL A   1      42.688  19.437  25.491  1.00  0.00    -0.352 N 
ATOM     38  C   UNL A   1      43.851  20.101  25.193  1.00  0.00     0.251 C 
ATOM     39  H   UNL A   1      42.725  18.457  25.404  1.00  0.00     0.163 HD
ATOM     40  O   UNL A   1      44.750  19.519  24.596  1.00  0.00    -0.269 OA
BRANCH  38  41
ATOM     41  C   UNL A   1      44.008  21.517  25.590  1.00  0.00     0.039 A 
ATOM     42  C   UNL A   1      44.484  21.817  26.869  1.00  0.00     0.014 A 
ATOM     43  C   UNL A   1      43.661  22.544  24.706  1.00  0.00     0.014 A 
ATOM     44  C   UNL A   1      44.658  23.150  27.245  1.00  0.00     0.010 A 
ATOM     45  C   UNL A   1      43.890  23.869  25.061  1.00  0.00     0.010 A 
ATOM     46  C   UNL A   1      44.385  24.185  26.335  1.00  0.00    -0.014 A 
BRANCH  46  47
ATOM     47  C   UNL A   1      44.584  25.609  26.701  1.00  0.00     0.031 A 
ATOM     48  C   UNL A   1      45.935  26.243  26.520  1.00  0.00     0.074 A 
ATOM     49  C   UNL A   1      43.568  26.311  27.239  1.00  0.00     0.049 A 
ATOM     50  N   UNL A   1      46.348  27.428  26.888  1.00  0.00    -0.248 NA
ATOM     51  C   UNL A   1      46.963  25.426  25.856  1.00  0.00     0.031 C 
ATOM     52  C   UNL A   1      42.213  25.801  27.460  1.00  0.00     0.029 A 
ATOM     53  N   UNL A   1      43.517  27.601  27.701  1.00  0.00    -0.354 N 
ATOM     54  C   UNL A   1      47.682  27.499  26.505  1.00  0.00     0.074 A 
ATOM     55  C   UNL A   1      48.024  26.218  25.923  1.00  0.00     0.031 C 
ATOM     56  C   UNL A   1      41.459  26.777  27.991  1.00  0.00     0.029 A 
ATOM     57  C   UNL A   1      42.286  27.963  28.195  1.00  0.00     0.049 A 
ATOM     58  H   UNL A   1      44.289  28.211  27.681  1.00  0.00     0.167 HD
ATOM     59  C   UNL A   1      48.539  28.544  26.612  1.00  0.00     0.034 A 
ATOM     60  C   UNL A   1      41.873  29.114  28.760  1.00  0.00     0.034 A 
ATOM     61  C   UNL A   1      48.182  29.818  27.184  1.00  0.00     0.049 A 
ATOM     62  C   UNL A   1      42.858  30.243  28.917  1.00  0.00     0.074 A 
ATOM     63  C   UNL A   1      48.970  30.947  27.328  1.00  0.00     0.029 A 
ATOM     64  N   UNL A   1      46.934  30.135  27.702  1.00  0.00    -0.354 N 
ATOM     65  N   UNL A   1      44.124  30.286  28.573  1.00  0.00    -0.248 NA
ATOM     66  C   UNL A   1      42.358  31.476  29.538  1.00  0.00     0.031 C 
ATOM     67  C   UNL A   1      48.215  31.927  27.983  1.00  0.00     0.029 A 
ATOM     68  C   UNL A   1      46.936  31.435  28.185  1.00  0.00     0.049 A 
ATOM     69  H   UNL A   1      46.160  29.527  27.724  1.00  0.00     0.167 HD
ATOM     70  C   UNL A   1      44.566  31.560  28.916  1.00  0.00     0.074 A 
ATOM     71  C   UNL A   1      43.429  32.255  29.484  1.00  0.00     0.031 C 
ATOM     72  C   UNL A   1      45.799  32.108  28.766  1.00  0.00     0.034 A 
BRANCH  59  73
ATOM     73  C   UNL A   1      49.946  28.346  26.113  1.00  0.00     0.023 A 
ATOM     74  C   UNL A   1      50.302  28.636  24.785  1.00  0.00     0.031 A 
ATOM     75  C   UNL A   1      50.947  27.870  26.978  1.00  0.00     0.131 A 
ATOM     76  C   UNL A   1      51.614  28.406  24.347  1.00  0.00     0.055 A 
ATOM     77  C   UNL A   1      52.267  27.707  26.554  1.00  0.00     0.041 A 
ATOM     78  F   UNL A   1      50.658  27.558  28.252  1.00  0.00    -0.206 F 
ATOM     79  C   UNL A   1      52.606  27.968  25.229  1.00  0.00     0.022 A 
BRANCH  76  80
ATOM     80  S   UNL A   1      51.992  28.610  22.585  1.00  0.00     0.124 S 
ATOM     81  O   UNL A   1      51.107  27.620  21.979  1.00  0.00    -0.237 OA
ATOM     82  O   UNL A   1      51.650  30.007  22.347  1.00  0.00    -0.237 OA
ATOM     83  O   UNL A   1      53.418  28.297  22.503  1.00  0.00    -0.744 OA
ENDBRANCH  76  80
ENDBRANCH  59  73
BRANCH  60  84
ATOM     84  C   UNL A   1      40.466  29.256  29.224  1.00  0.00     0.023 A 
ATOM     85  C   UNL A   1      40.155  29.211  30.591  1.00  0.00     0.031 A 
ATOM     86  C   UNL A   1      39.415  29.438  28.309  1.00  0.00     0.131 A 
ATOM     87  C   UNL A   1      38.819  29.324  31.006  1.00  0.00     0.055 A 
ATOM     88  C   UNL A   1      38.093  29.588  28.729  1.00  0.00     0.041 A 
ATOM     89  F   UNL A   1      39.664  29.496  26.991  1.00  0.00    -0.206 F 
ATOM     90  C   UNL A   1      37.788  29.525  30.086  1.00  0.00     0.022 A 
BRANCH  87  91
ATOM     91  S   UNL A   1      38.442  29.175  32.774  1.00  0.00     0.124 S 
ATOM     92  O   UNL A   1      37.089  28.631  32.743  1.00  0.00    -0.237 OA
ATOM     93  O   UNL A   1      39.489  28.269  33.233  1.00  0.00    -0.237 OA
ATOM     94  O   UNL A   1      38.552  30.548  33.262  1.00  0.00    -0.744 OA
ENDBRANCH  87  91
ENDBRANCH  60  84
BRANCH  72  95
ATOM     95  C   UNL A   1      45.973  33.541  29.198  1.00  0.00     0.023 A 
ATOM     96  C   UNL A   1      45.785  34.607  28.303  1.00  0.00     0.031 A 
ATOM     97  C   UNL A   1      46.313  33.841  30.529  1.00  0.00     0.131 A 
ATOM     98  C   UNL A   1      45.980  35.924  28.739  1.00  0.00     0.055 A 
ATOM     99  C   UNL A   1      46.453  35.156  30.971  1.00  0.00     0.041 A 
ATOM    100  F   UNL A   1      46.502  32.858  31.423  1.00  0.00    -0.206 F 
ATOM    101  C   UNL A   1      46.296  36.208  30.071  1.00  0.00     0.022 A 
BRANCH  98 102
ATOM    102  S   UNL A   1      45.874  37.268  27.526  1.00  0.00     0.124 S 
ATOM    103  O   UNL A   1      46.634  36.724  26.406  1.00  0.00    -0.237 OA
ATOM    104  O   UNL A   1      44.434  37.391  27.319  1.00  0.00    -0.237 OA
ATOM    105  O   UNL A   1      46.498  38.399  28.210  1.00  0.00    -0.744 OA
ENDBRANCH  98 102
ENDBRANCH  72  95
ENDBRANCH  46  47
ENDBRANCH  38  41
ENDBRANCH  36  37
ENDBRANCH  35  36
ENDBRANCH  34  35
ENDBRANCH   1  34
TORSDOF 21
ENDMDL
MODEL 3
REMARK VINA RESULT:     -10.9      5.778     11.881
REMARK SMILES Nc1c(Nc2ccc(I)cc2)ncnc1Nc1ccc(C(=O)NCCCCCCNC(=O)c2ccc(-c3c4nc(c(-c5cc(S(=O)(=O)[O-])ccc5F)c5ccc([nH]5)c(-c5cc(S(=O)(=O)[O-])ccc5F)c5nc(c(-c6cc(S(=O)(=O)[O-])ccc6F)c6ccc3[nH]6)C=C5)C=C4)cc2)cc1
REMARK SMILES IDX 26 1 25 2 24 3 23 4 21 5 22 6 20 8 17 9 18 10 97 11 19 12
REMARK SMILES IDX 96 13 16 14 15 16 2 17 3 18 12 19 14 20 13 21 1 22 4 25 5 27
REMARK SMILES IDX 6 28 11 29 7 30 10 31 8 32 9 33 27 34 28 35 29 36 30 37
REMARK SMILES IDX 31 38 32 40 33 41 34 42 95 43 35 44 94 45 36 46 37 47 38 48
REMARK SMILES IDX 88 49 39 50 93 51 87 52 89 53 40 54 92 55 86 56 85 57 41 59
REMARK SMILES IDX 73 60 53 61 72 62 54 63 57 64 71 65 90 66 55 67 56 68 70 70
REMARK SMILES IDX 91 71 58 72 42 73 43 74 51 75 44 76 50 77 52 78 49 79 45 80
REMARK SMILES IDX 46 81 47 82 48 83 74 84 75 85 83 86 76 87 82 88 84 89 81 90
REMARK SMILES IDX 77 91 78 92 79 93 80 94 59 95 60 96 68 97 61 98 67 99 69 100
REMARK SMILES IDX 66 101 62 102 63 103 64 104 65 105
REMARK H PARENT 23 7 16 15 1 23 1 24 4 26 30 39 89 58 57 69
REMARK Flexibility Score: inf
ROOT
ATOM      1  C   UNL A   1      31.773  29.753  25.359  1.00  0.00     0.002 C 
ENDROOT
BRANCH   1   2
ATOM      2  C   UNL A   1      31.452  29.072  24.020  1.00  0.00     0.021 C 
BRANCH   2   3
ATOM      3  C   UNL A   1      32.704  28.658  23.243  1.00  0.00     0.116 C 
BRANCH   3   4
ATOM      4  N   UNL A   1      32.349  27.689  22.223  1.00  0.00    -0.352 N 
ATOM      5  C   UNL A   1      32.677  26.375  22.023  1.00  0.00     0.251 C 
ATOM      6  O   UNL A   1      32.239  25.837  21.003  1.00  0.00    -0.269 OA
ATOM      7  H   UNL A   1      31.749  28.053  21.532  1.00  0.00     0.163 HD
BRANCH   5   8
ATOM      8  C   UNL A   1      33.455  25.550  22.992  1.00  0.00     0.039 A 
ATOM      9  C   UNL A   1      34.708  23.727  24.755  1.00  0.00     0.040 A 
ATOM     10  C   UNL A   1      34.412  23.349  23.444  1.00  0.00     0.027 A 
ATOM     11  C   UNL A   1      34.437  25.040  25.150  1.00  0.00     0.027 A 
ATOM     12  C   UNL A   1      33.783  24.248  22.578  1.00  0.00     0.016 A 
ATOM     13  C   UNL A   1      33.861  25.958  24.263  1.00  0.00     0.016 A 
BRANCH   9  14
ATOM     14  N   UNL A   1      35.119  22.763  25.690  1.00  0.00    -0.338 N 
ATOM     15  H   UNL A   1      34.552  22.618  26.482  1.00  0.00     0.168 HD
BRANCH  14  16
ATOM     16  C   UNL A   1      36.300  21.981  25.566  1.00  0.00     0.159 A 
ATOM     17  C   UNL A   1      37.514  22.538  25.990  1.00  0.00     0.118 A 
ATOM     18  C   UNL A   1      38.646  21.738  25.776  1.00  0.00     0.159 A 
ATOM     19  N   UNL A   1      38.576  20.531  25.185  1.00  0.00    -0.217 NA
ATOM     20  N   UNL A   1      36.213  20.748  25.032  1.00  0.00    -0.217 NA
ATOM     21  C   UNL A   1      37.359  20.088  24.861  1.00  0.00     0.226 A 
BRANCH  17  22
ATOM     22  N   UNL A   1      37.585  23.830  26.528  1.00  0.00    -0.393 N 
ATOM     23  H   UNL A   1      36.800  24.421  26.496  1.00  0.00     0.156 HD
ATOM     24  H   UNL A   1      38.423  24.146  26.940  1.00  0.00     0.156 HD
ENDBRANCH  17  22
BRANCH  18  25
ATOM     25  N   UNL A   1      39.904  22.201  26.241  1.00  0.00    -0.338 N 
ATOM     26  H   UNL A   1      39.903  23.048  26.744  1.00  0.00     0.168 HD
BRANCH  25  27
ATOM     27  C   UNL A   1      41.152  21.577  26.061  1.00  0.00     0.040 A 
ATOM     28  C   UNL A   1      41.242  20.180  26.121  1.00  0.00     0.027 A 
ATOM     29  C   UNL A   1      42.305  22.306  25.741  1.00  0.00     0.027 A 
ATOM     30  C   UNL A   1      42.448  19.526  25.848  1.00  0.00     0.017 A 
ATOM     31  C   UNL A   1      43.517  21.660  25.479  1.00  0.00     0.017 A 
ATOM     32  C   UNL A   1      43.581  20.269  25.526  1.00  0.00     0.013 A 
ATOM     33  I   UNL A   1      45.366  19.300  25.092  1.00  0.00    -0.044 I 
ENDBRANCH  25  27
ENDBRANCH  18  25
ENDBRANCH  14  16
ENDBRANCH   9  14
ENDBRANCH   5   8
ENDBRANCH   3   4
ENDBRANCH   2   3
ENDBRANCH   1   2
BRANCH   1  34
ATOM     34  C   UNL A   1      31.091  31.111  25.569  1.00  0.00     0.002 C 
BRANCH  34  35
ATOM     35  C   UNL A   1      31.360  31.766  26.927  1.00  0.00     0.021 C 
BRANCH  35  36
ATOM     36  C   UNL A   1      32.701  32.490  27.018  1.00  0.00     0.116 C 
BRANCH  36  37
ATOM     37  N   UNL A   1      32.528  33.874  27.430  1.00  0.00    -0.352 N 
ATOM     38  C   UNL A   1      33.124  34.549  28.464  1.00  0.00     0.251 C 
ATOM     39  H   UNL A   1      31.895  34.400  26.890  1.00  0.00     0.163 HD
ATOM     40  O   UNL A   1      32.670  35.627  28.833  1.00  0.00    -0.269 OA
BRANCH  38  41
ATOM     41  C   UNL A   1      34.310  33.969  29.130  1.00  0.00     0.039 A 
ATOM     42  C   UNL A   1      35.585  34.364  28.717  1.00  0.00     0.014 A 
ATOM     43  C   UNL A   1      34.159  33.017  30.144  1.00  0.00     0.014 A 
ATOM     44  C   UNL A   1      36.711  33.838  29.355  1.00  0.00     0.010 A 
ATOM     45  C   UNL A   1      35.279  32.539  30.817  1.00  0.00     0.010 A 
ATOM     46  C   UNL A   1      36.565  32.941  30.426  1.00  0.00    -0.014 A 
BRANCH  46  47
ATOM     47  C   UNL A   1      37.743  32.387  31.137  1.00  0.00     0.031 A 
ATOM     48  C   UNL A   1      38.490  31.222  30.548  1.00  0.00     0.074 A 
ATOM     49  C   UNL A   1      38.105  32.896  32.330  1.00  0.00     0.049 A 
ATOM     50  N   UNL A   1      39.461  30.516  31.065  1.00  0.00    -0.248 NA
ATOM     51  C   UNL A   1      38.071  30.781  29.208  1.00  0.00     0.031 C 
ATOM     52  C   UNL A   1      37.457  34.026  33.000  1.00  0.00     0.029 A 
ATOM     53  N   UNL A   1      39.105  32.528  33.194  1.00  0.00    -0.354 N 
ATOM     54  C   UNL A   1      39.769  29.547  30.118  1.00  0.00     0.074 A 
ATOM     55  C   UNL A   1      38.845  29.722  29.018  1.00  0.00     0.031 C 
ATOM     56  C   UNL A   1      38.093  34.274  34.156  1.00  0.00     0.029 A 
ATOM     57  C   UNL A   1      39.159  33.293  34.335  1.00  0.00     0.049 A 
ATOM     58  H   UNL A   1      39.727  31.786  33.014  1.00  0.00     0.167 HD
ATOM     59  C   UNL A   1      40.746  28.608  30.155  1.00  0.00     0.034 A 
ATOM     60  C   UNL A   1      39.966  33.206  35.411  1.00  0.00     0.034 A 
ATOM     61  C   UNL A   1      41.667  28.451  31.254  1.00  0.00     0.049 A 
ATOM     62  C   UNL A   1      41.008  32.120  35.453  1.00  0.00     0.074 A 
ATOM     63  C   UNL A   1      42.701  27.541  31.386  1.00  0.00     0.029 A 
ATOM     64  N   UNL A   1      41.668  29.225  32.406  1.00  0.00    -0.354 N 
ATOM     65  N   UNL A   1      41.270  31.193  34.561  1.00  0.00    -0.248 NA
ATOM     66  C   UNL A   1      41.862  32.068  36.647  1.00  0.00     0.031 C 
ATOM     67  C   UNL A   1      43.292  27.729  32.640  1.00  0.00     0.029 A 
ATOM     68  C   UNL A   1      42.672  28.801  33.263  1.00  0.00     0.049 A 
ATOM     69  H   UNL A   1      41.048  29.967  32.589  1.00  0.00     0.167 HD
ATOM     70  C   UNL A   1      42.337  30.462  35.077  1.00  0.00     0.074 A 
ATOM     71  C   UNL A   1      42.673  31.062  36.352  1.00  0.00     0.031 C 
ATOM     72  C   UNL A   1      42.983  29.397  34.540  1.00  0.00     0.034 A 
BRANCH  59  73
ATOM     73  C   UNL A   1      40.857  27.671  28.982  1.00  0.00     0.023 A 
ATOM     74  C   UNL A   1      41.812  27.871  27.970  1.00  0.00     0.031 A 
ATOM     75  C   UNL A   1      40.005  26.557  28.877  1.00  0.00     0.131 A 
ATOM     76  C   UNL A   1      41.863  26.996  26.875  1.00  0.00     0.055 A 
ATOM     77  C   UNL A   1      40.105  25.653  27.818  1.00  0.00     0.041 A 
ATOM     78  F   UNL A   1      39.061  26.330  29.804  1.00  0.00    -0.206 F 
ATOM     79  C   UNL A   1      41.033  25.874  26.804  1.00  0.00     0.022 A 
BRANCH  76  80
ATOM     80  S   UNL A   1      42.975  27.390  25.498  1.00  0.00     0.124 S 
ATOM     81  O   UNL A   1      44.128  27.945  26.202  1.00  0.00    -0.237 OA
ATOM     82  O   UNL A   1      43.174  26.090  24.868  1.00  0.00    -0.237 OA
ATOM     83  O   UNL A   1      42.212  28.354  24.707  1.00  0.00    -0.744 OA
ENDBRANCH  76  80
ENDBRANCH  59  73
BRANCH  60  84
ATOM     84  C   UNL A   1      39.816  34.168  36.536  1.00  0.00     0.023 A 
ATOM     85  C   UNL A   1      39.304  33.749  37.774  1.00  0.00     0.031 A 
ATOM     86  C   UNL A   1      40.182  35.517  36.392  1.00  0.00     0.131 A 
ATOM     87  C   UNL A   1      39.150  34.677  38.815  1.00  0.00     0.055 A 
ATOM     88  C   UNL A   1      40.063  36.428  37.442  1.00  0.00     0.041 A 
ATOM     89  F   UNL A   1      40.685  35.963  35.230  1.00  0.00    -0.206 F 
ATOM     90  C   UNL A   1      39.538  36.010  38.662  1.00  0.00     0.022 A 
BRANCH  87  91
ATOM     91  S   UNL A   1      38.404  34.122  40.372  1.00  0.00     0.124 S 
ATOM     92  O   UNL A   1      37.837  35.363  40.887  1.00  0.00    -0.237 OA
ATOM     93  O   UNL A   1      37.449  33.120  39.912  1.00  0.00    -0.237 OA
ATOM     94  O   UNL A   1      39.541  33.595  41.124  1.00  0.00    -0.744 OA
ENDBRANCH  87  91
ENDBRANCH  60  84
BRANCH  72  95
ATOM     95  C   UNL A   1      44.141  28.830  35.319  1.00  0.00     0.023 A 
ATOM     96  C   UNL A   1      43.962  27.801  36.258  1.00  0.00     0.031 A 
ATOM     97  C   UNL A   1      45.443  29.315  35.103  1.00  0.00     0.131 A 
ATOM     98  C   UNL A   1      45.063  27.318  36.980  1.00  0.00     0.055 A 
ATOM     99  C   UNL A   1      46.542  28.793  35.784  1.00  0.00     0.041 A 
ATOM    100  F   UNL A   1      45.667  30.297  34.215  1.00  0.00    -0.206 F 
ATOM    101  C   UNL A   1      46.354  27.794  36.737  1.00  0.00     0.022 A 
BRANCH  98 102
ATOM    102  S   UNL A   1      44.779  26.094  38.287  1.00  0.00     0.124 S 
ATOM    103  O   UNL A   1      43.564  25.432  37.822  1.00  0.00    -0.237 OA
ATOM    104  O   UNL A   1      45.998  25.294  38.239  1.00  0.00    -0.237 OA
ATOM    105  O   UNL A   1      44.621  26.907  39.492  1.00  0.00    -0.744 OA
ENDBRANCH  98 102
ENDBRANCH  72  95
ENDBRANCH  46  47
ENDBRANCH  38  41
ENDBRANCH  36  37
ENDBRANCH  35  36
ENDBRANCH  34  35
ENDBRANCH   1  34
TORSDOF 21
ENDMDL
