MODEL 1
REMARK VINA RESULT:     -10.5      0.000      0.000
REMARK SMILES CN(Cc1ncc(C(=O)NCCCCCCNC(=O)c2ccc(-c3c4nc(c(-c5cc(S(=O)(=O)[O-])ccc5F)c5ccc([nH]5)c(-c5cc(S(=O)(=O)[O-])ccc5F)c5nc(c(-c6cc(S(=O)(=O)[O-])ccc6F)c6ccc3[nH]6)C=C5)C=C4)cc2)cn1)S(=O)(=O)c1ccc(Cl)cc1
REMARK SMILES IDX 13 1 12 2 11 3 10 4 8 5 9 6 7 8 4 9 5 10 84 11 6 12 83 13
REMARK SMILES IDX 3 14 2 15 1 16 85 17 86 18 87 19 88 20 89 21 94 22 90 23
REMARK SMILES IDX 93 24 91 25 92 26 14 27 15 28 16 29 17 30 18 31 19 33 20 34
REMARK SMILES IDX 21 35 82 36 22 37 81 38 23 39 24 40 25 41 75 42 26 43 80 44
REMARK SMILES IDX 74 45 76 46 27 47 79 48 73 49 72 50 28 52 60 53 40 54 59 55
REMARK SMILES IDX 41 56 44 57 58 58 77 59 42 60 43 61 57 63 78 64 45 65 29 66
REMARK SMILES IDX 30 67 38 68 31 69 37 70 39 71 36 72 32 73 33 74 34 75 35 76
REMARK SMILES IDX 61 77 62 78 70 79 63 80 69 81 71 82 68 83 64 84 65 85 66 86
REMARK SMILES IDX 67 87 46 88 47 89 55 90 48 91 54 92 56 93 53 94 49 95 50 96
REMARK SMILES IDX 51 97 52 98
REMARK H PARENT 10 7 17 32 76 51 44 62
REMARK Flexibility Score: inf
ROOT
ATOM      1  C   UNL A   1      35.647  31.968  28.621  1.00  0.00     0.002 C 
ENDROOT
BRANCH   1   2
ATOM      2  C   UNL A   1      36.040  30.754  27.766  1.00  0.00     0.021 C 
BRANCH   2   3
ATOM      3  C   UNL A   1      35.084  29.572  27.935  1.00  0.00     0.116 C 
BRANCH   3   4
ATOM      4  N   UNL A   1      33.747  29.909  27.485  1.00  0.00    -0.352 N 
ATOM      5  C   UNL A   1      32.702  29.207  26.948  1.00  0.00     0.254 C 
ATOM      6  O   UNL A   1      31.672  29.848  26.722  1.00  0.00    -0.269 OA
ATOM      7  H   UNL A   1      33.544  30.866  27.589  1.00  0.00     0.163 HD
BRANCH   5   8
ATOM      8  C   UNL A   1      32.703  27.765  26.628  1.00  0.00     0.076 A 
ATOM      9  C   UNL A   1      32.416  25.130  25.952  1.00  0.00     0.143 A 
ATOM     10  N   UNL A   1      33.611  25.711  25.754  1.00  0.00    -0.239 NA
ATOM     11  N   UNL A   1      31.371  25.730  26.550  1.00  0.00    -0.239 NA
ATOM     12  C   UNL A   1      33.708  27.024  26.057  1.00  0.00     0.128 A 
ATOM     13  C   UNL A   1      31.549  27.038  26.871  1.00  0.00     0.128 A 
BRANCH   9  14
ATOM     14  C   UNL A   1      32.185  23.812  25.238  1.00  0.00     0.179 C 
BRANCH  14  15
ATOM     15  N   UNL A   1      32.093  23.890  23.735  1.00  0.00    -0.193 NA
ATOM     16  C   UNL A   1      30.694  24.073  23.267  1.00  0.00     0.125 C 
BRANCH  15  17
ATOM     17  S   UNL A   1      32.905  22.660  22.867  1.00  0.00     0.243 S 
ATOM     18  O   UNL A   1      32.182  21.419  22.992  1.00  0.00    -0.207 OA
ATOM     19  O   UNL A   1      33.224  23.191  21.554  1.00  0.00    -0.207 OA
BRANCH  17  20
ATOM     20  C   UNL A   1      34.443  22.521  23.746  1.00  0.00     0.082 A 
ATOM     21  C   UNL A   1      34.612  21.455  24.635  1.00  0.00     0.023 A 
ATOM     22  C   UNL A   1      35.450  23.474  23.565  1.00  0.00     0.023 A 
ATOM     23  C   UNL A   1      35.812  21.331  25.337  1.00  0.00     0.022 A 
ATOM     24  C   UNL A   1      36.650  23.341  24.267  1.00  0.00     0.022 A 
ATOM     25  C   UNL A   1      36.825  22.272  25.147  1.00  0.00     0.041 A 
ATOM     26  Cl  UNL A   1      38.305  22.113  26.011  1.00  0.00    -0.084 Cl
ENDBRANCH  17  20
ENDBRANCH  15  17
ENDBRANCH  14  15
ENDBRANCH   9  14
ENDBRANCH   5   8
ENDBRANCH   3   4
ENDBRANCH   2   3
ENDBRANCH   1   2
BRANCH   1  27
ATOM     27  C   UNL A   1      36.009  33.331  28.012  1.00  0.00     0.002 C 
BRANCH  27  28
ATOM     28  C   UNL A   1      34.861  34.344  27.962  1.00  0.00     0.021 C 
BRANCH  28  29
ATOM     29  C   UNL A   1      33.537  33.815  28.504  1.00  0.00     0.116 C 
BRANCH  29  30
ATOM     30  N   UNL A   1      32.975  34.714  29.500  1.00  0.00    -0.352 N 
ATOM     31  C   UNL A   1      33.277  34.831  30.833  1.00  0.00     0.251 C 
ATOM     32  H   UNL A   1      32.278  35.325  29.170  1.00  0.00     0.163 HD
ATOM     33  O   UNL A   1      32.522  35.452  31.577  1.00  0.00    -0.269 OA
BRANCH  31  34
ATOM     34  C   UNL A   1      34.502  34.200  31.368  1.00  0.00     0.039 A 
ATOM     35  C   UNL A   1      34.418  32.930  31.944  1.00  0.00     0.014 A 
ATOM     36  C   UNL A   1      35.728  34.870  31.318  1.00  0.00     0.014 A 
ATOM     37  C   UNL A   1      35.574  32.309  32.420  1.00  0.00     0.010 A 
ATOM     38  C   UNL A   1      36.889  34.224  31.733  1.00  0.00     0.010 A 
ATOM     39  C   UNL A   1      36.823  32.937  32.292  1.00  0.00    -0.014 A 
BRANCH  39  40
ATOM     40  C   UNL A   1      38.072  32.273  32.745  1.00  0.00     0.031 A 
ATOM     41  C   UNL A   1      38.701  31.199  31.900  1.00  0.00     0.074 A 
ATOM     42  C   UNL A   1      38.599  32.592  33.944  1.00  0.00     0.049 A 
ATOM     43  N   UNL A   1      39.733  30.439  32.160  1.00  0.00    -0.248 NA
ATOM     44  C   UNL A   1      38.062  30.924  30.605  1.00  0.00     0.031 C 
ATOM     45  C   UNL A   1      38.056  33.592  34.865  1.00  0.00     0.029 A 
ATOM     46  N   UNL A   1      39.698  32.100  34.600  1.00  0.00    -0.354 N 
ATOM     47  C   UNL A   1      39.861  29.587  31.069  1.00  0.00     0.074 A 
ATOM     48  C   UNL A   1      38.763  29.885  30.174  1.00  0.00     0.031 C 
ATOM     49  C   UNL A   1      38.835  33.653  35.957  1.00  0.00     0.029 A 
ATOM     50  C   UNL A   1      39.903  32.665  35.837  1.00  0.00     0.049 A 
ATOM     51  H   UNL A   1      40.286  31.407  34.222  1.00  0.00     0.167 HD
ATOM     52  C   UNL A   1      40.819  28.657  30.826  1.00  0.00     0.034 A 
ATOM     53  C   UNL A   1      40.835  32.407  36.775  1.00  0.00     0.034 A 
ATOM     54  C   UNL A   1      41.913  28.382  31.725  1.00  0.00     0.049 A 
ATOM     55  C   UNL A   1      41.875  31.351  36.495  1.00  0.00     0.074 A 
ATOM     56  C   UNL A   1      42.969  27.502  31.556  1.00  0.00     0.029 A 
ATOM     57  N   UNL A   1      42.090  28.977  32.969  1.00  0.00    -0.354 N 
ATOM     58  N   UNL A   1      42.009  30.585  35.436  1.00  0.00    -0.248 NA
ATOM     59  C   UNL A   1      42.891  31.132  37.531  1.00  0.00     0.031 C 
ATOM     60  C   UNL A   1      43.743  27.516  32.722  1.00  0.00     0.029 A 
ATOM     61  C   UNL A   1      43.217  28.459  33.589  1.00  0.00     0.049 A 
ATOM     62  H   UNL A   1      41.500  29.665  33.353  1.00  0.00     0.167 HD
ATOM     63  C   UNL A   1      43.146  29.815  35.668  1.00  0.00     0.074 A 
ATOM     64  C   UNL A   1      43.664  30.219  36.960  1.00  0.00     0.031 C 
ATOM     65  C   UNL A   1      43.714  28.864  34.884  1.00  0.00     0.034 A 
BRANCH  52  66
ATOM     66  C   UNL A   1      40.702  27.856  29.549  1.00  0.00     0.023 A 
ATOM     67  C   UNL A   1      41.580  28.056  28.469  1.00  0.00     0.031 A 
ATOM     68  C   UNL A   1      39.683  26.900  29.398  1.00  0.00     0.131 A 
ATOM     69  C   UNL A   1      41.375  27.371  27.263  1.00  0.00     0.055 A 
ATOM     70  C   UNL A   1      39.535  26.160  28.223  1.00  0.00     0.041 A 
ATOM     71  F   UNL A   1      38.800  26.679  30.385  1.00  0.00    -0.206 F 
ATOM     72  C   UNL A   1      40.374  26.405  27.140  1.00  0.00     0.022 A 
BRANCH  69  73
ATOM     73  S   UNL A   1      42.340  27.868  25.810  1.00  0.00     0.124 S 
ATOM     74  O   UNL A   1      42.235  26.680  24.966  1.00  0.00    -0.237 OA
ATOM     75  O   UNL A   1      41.622  29.049  25.344  1.00  0.00    -0.237 OA
ATOM     76  O   UNL A   1      43.672  28.122  26.353  1.00  0.00    -0.744 OA
ENDBRANCH  69  73
ENDBRANCH  52  66
BRANCH  53  77
ATOM     77  C   UNL A   1      40.829  33.146  38.070  1.00  0.00     0.023 A 
ATOM     78  C   UNL A   1      40.048  32.705  39.150  1.00  0.00     0.031 A 
ATOM     79  C   UNL A   1      41.574  34.326  38.235  1.00  0.00     0.131 A 
ATOM     80  C   UNL A   1      39.993  33.463  40.330  1.00  0.00     0.055 A 
ATOM     81  C   UNL A   1      41.558  35.049  39.429  1.00  0.00     0.041 A 
ATOM     82  F   UNL A   1      42.344  34.789  37.236  1.00  0.00    -0.206 F 
ATOM     83  C   UNL A   1      40.753  34.626  40.481  1.00  0.00     0.022 A 
BRANCH  80  84
ATOM     84  S   UNL A   1      38.846  32.952  41.637  1.00  0.00     0.124 S 
ATOM     85  O   UNL A   1      39.368  33.676  42.791  1.00  0.00    -0.237 OA
ATOM     86  O   UNL A   1      37.565  33.415  41.114  1.00  0.00    -0.237 OA
ATOM     87  O   UNL A   1      39.009  31.501  41.685  1.00  0.00    -0.744 OA
ENDBRANCH  80  84
ENDBRANCH  53  77
BRANCH  65  88
ATOM     88  C   UNL A   1      44.987  28.231  35.389  1.00  0.00     0.023 A 
ATOM     89  C   UNL A   1      44.976  27.040  36.136  1.00  0.00     0.031 A 
ATOM     90  C   UNL A   1      46.229  28.836  35.123  1.00  0.00     0.131 A 
ATOM     91  C   UNL A   1      46.178  26.520  36.637  1.00  0.00     0.055 A 
ATOM     92  C   UNL A   1      47.427  28.281  35.575  1.00  0.00     0.041 A 
ATOM     93  F   UNL A   1      46.297  29.975  34.417  1.00  0.00    -0.206 F 
ATOM     94  C   UNL A   1      47.404  27.123  36.347  1.00  0.00     0.022 A 
BRANCH  91  95
ATOM     95  S   UNL A   1      46.111  25.090  37.750  1.00  0.00     0.124 S 
ATOM     96  O   UNL A   1      46.501  25.679  39.027  1.00  0.00    -0.237 OA
ATOM     97  O   UNL A   1      44.717  24.672  37.640  1.00  0.00    -0.237 OA
ATOM     98  O   UNL A   1      47.082  24.161  37.175  1.00  0.00    -0.744 OA
ENDBRANCH  91  95
ENDBRANCH  65  88
ENDBRANCH  39  40
ENDBRANCH  31  34
ENDBRANCH  29  30
ENDBRANCH  28  29
ENDBRANCH  27  28
ENDBRANCH   1  27
TORSDOF 20
ENDMDL
MODEL 2
REMARK VINA RESULT:     -10.5      1.671      2.162
REMARK SMILES CN(Cc1ncc(C(=O)NCCCCCCNC(=O)c2ccc(-c3c4nc(c(-c5cc(S(=O)(=O)[O-])ccc5F)c5ccc([nH]5)c(-c5cc(S(=O)(=O)[O-])ccc5F)c5nc(c(-c6cc(S(=O)(=O)[O-])ccc6F)c6ccc3[nH]6)C=C5)C=C4)cc2)cn1)S(=O)(=O)c1ccc(Cl)cc1
REMARK SMILES IDX 13 1 12 2 11 3 10 4 8 5 9 6 7 8 4 9 5 10 84 11 6 12 83 13
REMARK SMILES IDX 3 14 2 15 1 16 85 17 86 18 87 19 88 20 89 21 94 22 90 23
REMARK SMILES IDX 93 24 91 25 92 26 14 27 15 28 16 29 17 30 18 31 19 33 20 34
REMARK SMILES IDX 21 35 82 36 22 37 81 38 23 39 24 40 25 41 75 42 26 43 80 44
REMARK SMILES IDX 74 45 76 46 27 47 79 48 73 49 72 50 28 52 60 53 40 54 59 55
REMARK SMILES IDX 41 56 44 57 58 58 77 59 42 60 43 61 57 63 78 64 45 65 29 66
REMARK SMILES IDX 30 67 38 68 31 69 37 70 39 71 36 72 32 73 33 74 34 75 35 76
REMARK SMILES IDX 61 77 62 78 70 79 63 80 69 81 71 82 68 83 64 84 65 85 66 86
REMARK SMILES IDX 67 87 46 88 47 89 55 90 48 91 54 92 56 93 53 94 49 95 50 96
REMARK SMILES IDX 51 97 52 98
REMARK H PARENT 10 7 17 32 76 51 44 62
REMARK Flexibility Score: inf
ROOT
ATOM      1  C   UNL A   1      33.336  29.603  27.197  1.00  0.00     0.002 C 
ENDROOT
BRANCH   1   2
ATOM      2  C   UNL A   1      32.989  29.718  25.706  1.00  0.00     0.021 C 
BRANCH   2   3
ATOM      3  C   UNL A   1      31.506  30.003  25.459  1.00  0.00     0.116 C 
BRANCH   3   4
ATOM      4  N   UNL A   1      31.194  29.973  24.043  1.00  0.00    -0.352 N 
ATOM      5  C   UNL A   1      30.953  28.986  23.127  1.00  0.00     0.254 C 
ATOM      6  O   UNL A   1      30.673  29.357  21.984  1.00  0.00    -0.269 OA
ATOM      7  H   UNL A   1      31.146  30.874  23.648  1.00  0.00     0.163 HD
BRANCH   5   8
ATOM      8  C   UNL A   1      30.993  27.533  23.392  1.00  0.00     0.076 A 
ATOM      9  C   UNL A   1      30.799  24.827  23.741  1.00  0.00     0.143 A 
ATOM     10  N   UNL A   1      32.020  25.359  23.553  1.00  0.00    -0.239 NA
ATOM     11  N   UNL A   1      29.670  25.547  23.864  1.00  0.00    -0.239 NA
ATOM     12  C   UNL A   1      32.076  26.692  23.340  1.00  0.00     0.128 A 
ATOM     13  C   UNL A   1      29.804  26.886  23.684  1.00  0.00     0.128 A 
BRANCH   9  14
ATOM     14  C   UNL A   1      30.688  23.325  23.559  1.00  0.00     0.179 C 
BRANCH  14  15
ATOM     15  N   UNL A   1      31.981  22.557  23.660  1.00  0.00    -0.193 NA
ATOM     16  C   UNL A   1      32.177  21.634  22.512  1.00  0.00     0.125 C 
BRANCH  15  17
ATOM     17  S   UNL A   1      32.285  21.791  25.159  1.00  0.00     0.243 S 
ATOM     18  O   UNL A   1      31.549  22.458  26.204  1.00  0.00    -0.207 OA
ATOM     19  O   UNL A   1      32.134  20.360  24.957  1.00  0.00    -0.207 OA
BRANCH  17  20
ATOM     20  C   UNL A   1      34.020  22.088  25.398  1.00  0.00     0.082 A 
ATOM     21  C   UNL A   1      34.899  21.002  25.348  1.00  0.00     0.023 A 
ATOM     22  C   UNL A   1      34.488  23.381  25.654  1.00  0.00     0.023 A 
ATOM     23  C   UNL A   1      36.265  21.216  25.537  1.00  0.00     0.022 A 
ATOM     24  C   UNL A   1      35.857  23.588  25.837  1.00  0.00     0.022 A 
ATOM     25  C   UNL A   1      36.737  22.507  25.777  1.00  0.00     0.041 A 
ATOM     26  Cl  UNL A   1      38.423  22.766  26.005  1.00  0.00    -0.084 Cl
ENDBRANCH  17  20
ENDBRANCH  15  17
ENDBRANCH  14  15
ENDBRANCH   9  14
ENDBRANCH   5   8
ENDBRANCH   3   4
ENDBRANCH   2   3
ENDBRANCH   1   2
BRANCH   1  27
ATOM     27  C   UNL A   1      34.194  30.750  27.752  1.00  0.00     0.002 C 
BRANCH  27  28
ATOM     28  C   UNL A   1      33.874  32.135  27.181  1.00  0.00     0.021 C 
BRANCH  28  29
ATOM     29  C   UNL A   1      32.588  32.751  27.723  1.00  0.00     0.116 C 
BRANCH  29  30
ATOM     30  N   UNL A   1      32.721  34.189  27.897  1.00  0.00    -0.352 N 
ATOM     31  C   UNL A   1      33.555  34.889  28.731  1.00  0.00     0.251 C 
ATOM     32  H   UNL A   1      32.128  34.738  27.335  1.00  0.00     0.163 HD
ATOM     33  O   UNL A   1      33.347  36.081  28.940  1.00  0.00    -0.269 OA
BRANCH  31  34
ATOM     34  C   UNL A   1      34.691  34.202  29.380  1.00  0.00     0.039 A 
ATOM     35  C   UNL A   1      35.980  34.389  28.874  1.00  0.00     0.014 A 
ATOM     36  C   UNL A   1      34.481  33.358  30.476  1.00  0.00     0.014 A 
ATOM     37  C   UNL A   1      37.065  33.773  29.500  1.00  0.00     0.010 A 
ATOM     38  C   UNL A   1      35.569  32.799  31.138  1.00  0.00     0.010 A 
ATOM     39  C   UNL A   1      36.873  32.997  30.654  1.00  0.00    -0.014 A 
BRANCH  39  40
ATOM     40  C   UNL A   1      38.018  32.375  31.367  1.00  0.00     0.031 A 
ATOM     41  C   UNL A   1      38.774  31.241  30.730  1.00  0.00     0.074 A 
ATOM     42  C   UNL A   1      38.332  32.788  32.611  1.00  0.00     0.049 A 
ATOM     43  N   UNL A   1      39.739  30.508  31.224  1.00  0.00    -0.248 NA
ATOM     44  C   UNL A   1      38.368  30.864  29.368  1.00  0.00     0.031 C 
ATOM     45  C   UNL A   1      37.646  33.854  33.344  1.00  0.00     0.029 A 
ATOM     46  N   UNL A   1      39.295  32.353  33.485  1.00  0.00    -0.354 N 
ATOM     47  C   UNL A   1      40.046  29.575  30.239  1.00  0.00     0.074 A 
ATOM     48  C   UNL A   1      39.123  29.798  29.147  1.00  0.00     0.031 C 
ATOM     49  C   UNL A   1      38.224  34.003  34.547  1.00  0.00     0.029 A 
ATOM     50  C   UNL A   1      39.287  33.013  34.691  1.00  0.00     0.049 A 
ATOM     51  H   UNL A   1      39.933  31.635  33.269  1.00  0.00     0.167 HD
ATOM     52  C   UNL A   1      41.023  28.633  30.239  1.00  0.00     0.034 A 
ATOM     53  C   UNL A   1      40.040  32.832  35.794  1.00  0.00     0.034 A 
ATOM     54  C   UNL A   1      41.941  28.433  31.333  1.00  0.00     0.049 A 
ATOM     55  C   UNL A   1      41.103  31.763  35.781  1.00  0.00     0.074 A 
ATOM     56  C   UNL A   1      43.002  27.547  31.419  1.00  0.00     0.029 A 
ATOM     57  N   UNL A   1      41.905  29.123  32.540  1.00  0.00    -0.354 N 
ATOM     58  N   UNL A   1      41.412  30.917  34.824  1.00  0.00    -0.248 NA
ATOM     59  C   UNL A   1      41.921  31.628  36.992  1.00  0.00     0.031 C 
ATOM     60  C   UNL A   1      43.562  27.654  32.697  1.00  0.00     0.029 A 
ATOM     61  C   UNL A   1      42.902  28.660  33.385  1.00  0.00     0.049 A 
ATOM     62  H   UNL A   1      41.264  29.836  32.761  1.00  0.00     0.167 HD
ATOM     63  C   UNL A   1      42.484  30.173  35.309  1.00  0.00     0.074 A 
ATOM     64  C   UNL A   1      42.773  30.677  36.636  1.00  0.00     0.031 C 
ATOM     65  C   UNL A   1      43.171  29.166  34.711  1.00  0.00     0.034 A 
BRANCH  52  66
ATOM     66  C   UNL A   1      41.122  27.735  29.027  1.00  0.00     0.023 A 
ATOM     67  C   UNL A   1      42.124  27.913  28.056  1.00  0.00     0.031 A 
ATOM     68  C   UNL A   1      40.188  26.705  28.825  1.00  0.00     0.131 A 
ATOM     69  C   UNL A   1      42.119  27.130  26.893  1.00  0.00     0.055 A 
ATOM     70  C   UNL A   1      40.240  25.872  27.705  1.00  0.00     0.041 A 
ATOM     71  F   UNL A   1      39.196  26.497  29.706  1.00  0.00    -0.206 F 
ATOM     72  C   UNL A   1      41.200  26.093  26.722  1.00  0.00     0.022 A 
BRANCH  69  73
ATOM     73  S   UNL A   1      43.239  27.584  25.540  1.00  0.00     0.124 S 
ATOM     74  O   UNL A   1      43.870  26.301  25.238  1.00  0.00    -0.237 OA
ATOM     75  O   UNL A   1      42.321  28.098  24.530  1.00  0.00    -0.237 OA
ATOM     76  O   UNL A   1      44.123  28.577  26.145  1.00  0.00    -0.744 OA
ENDBRANCH  69  73
ENDBRANCH  52  66
BRANCH  53  77
ATOM     77  C   UNL A   1      39.816  33.669  37.007  1.00  0.00     0.023 A 
ATOM     78  C   UNL A   1      39.245  33.122  38.167  1.00  0.00     0.031 A 
ATOM     79  C   UNL A   1      40.133  35.039  37.012  1.00  0.00     0.131 A 
ATOM     80  C   UNL A   1      38.966  33.948  39.267  1.00  0.00     0.055 A 
ATOM     81  C   UNL A   1      39.903  35.846  38.127  1.00  0.00     0.041 A 
ATOM     82  F   UNL A   1      40.687  35.612  35.931  1.00  0.00    -0.206 F 
ATOM     83  C   UNL A   1      39.303  35.304  39.259  1.00  0.00     0.022 A 
BRANCH  80  84
ATOM     84  S   UNL A   1      38.078  33.242  40.680  1.00  0.00     0.124 S 
ATOM     85  O   UNL A   1      38.658  31.906  40.759  1.00  0.00    -0.237 OA
ATOM     86  O   UNL A   1      38.437  34.163  41.754  1.00  0.00    -0.237 OA
ATOM     87  O   UNL A   1      36.679  33.292  40.262  1.00  0.00    -0.744 OA
ENDBRANCH  80  84
ENDBRANCH  53  77
BRANCH  65  88
ATOM     88  C   UNL A   1      44.330  28.579  35.477  1.00  0.00     0.023 A 
ATOM     89  C   UNL A   1      44.141  27.625  36.492  1.00  0.00     0.031 A 
ATOM     90  C   UNL A   1      45.645  28.989  35.189  1.00  0.00     0.131 A 
ATOM     91  C   UNL A   1      45.243  27.152  37.219  1.00  0.00     0.055 A 
ATOM     92  C   UNL A   1      46.743  28.471  35.877  1.00  0.00     0.041 A 
ATOM     93  F   UNL A   1      45.883  29.899  34.232  1.00  0.00    -0.206 F 
ATOM     94  C   UNL A   1      46.543  27.556  36.907  1.00  0.00     0.022 A 
BRANCH  91  95
ATOM     95  S   UNL A   1      44.946  26.066  38.641  1.00  0.00     0.124 S 
ATOM     96  O   UNL A   1      45.230  24.748  38.081  1.00  0.00    -0.237 OA
ATOM     97  O   UNL A   1      45.907  26.563  39.621  1.00  0.00    -0.237 OA
ATOM     98  O   UNL A   1      43.544  26.309  38.973  1.00  0.00    -0.744 OA
ENDBRANCH  91  95
ENDBRANCH  65  88
ENDBRANCH  39  40
ENDBRANCH  31  34
ENDBRANCH  29  30
ENDBRANCH  28  29
ENDBRANCH  27  28
ENDBRANCH   1  27
TORSDOF 20
ENDMDL
MODEL 3
REMARK VINA RESULT:     -10.4      6.072     10.519
REMARK SMILES CN(Cc1ncc(C(=O)NCCCCCCNC(=O)c2ccc(-c3c4nc(c(-c5cc(S(=O)(=O)[O-])ccc5F)c5ccc([nH]5)c(-c5cc(S(=O)(=O)[O-])ccc5F)c5nc(c(-c6cc(S(=O)(=O)[O-])ccc6F)c6ccc3[nH]6)C=C5)C=C4)cc2)cn1)S(=O)(=O)c1ccc(Cl)cc1
REMARK SMILES IDX 13 1 12 2 11 3 10 4 8 5 9 6 7 8 4 9 5 10 84 11 6 12 83 13
REMARK SMILES IDX 3 14 2 15 1 16 85 17 86 18 87 19 88 20 89 21 94 22 90 23
REMARK SMILES IDX 93 24 91 25 92 26 14 27 15 28 16 29 17 30 18 31 19 33 20 34
REMARK SMILES IDX 21 35 82 36 22 37 81 38 23 39 24 40 25 41 75 42 26 43 80 44
REMARK SMILES IDX 74 45 76 46 27 47 79 48 73 49 72 50 28 52 60 53 40 54 59 55
REMARK SMILES IDX 41 56 44 57 58 58 77 59 42 60 43 61 57 63 78 64 45 65 29 66
REMARK SMILES IDX 30 67 38 68 31 69 37 70 39 71 36 72 32 73 33 74 34 75 35 76
REMARK SMILES IDX 61 77 62 78 70 79 63 80 69 81 71 82 68 83 64 84 65 85 66 86
REMARK SMILES IDX 67 87 46 88 47 89 55 90 48 91 54 92 56 93 53 94 49 95 50 96
REMARK SMILES IDX 51 97 52 98
REMARK H PARENT 10 7 17 32 76 51 44 62
REMARK Flexibility Score: inf
ROOT
ATOM      1  C   UNL A   1      40.190  22.860  26.496  1.00  0.00     0.002 C 
ENDROOT
BRANCH   1   2
ATOM      2  C   UNL A   1      38.947  23.678  26.875  1.00  0.00     0.021 C 
BRANCH   2   3
ATOM      3  C   UNL A   1      37.893  23.708  25.767  1.00  0.00     0.116 C 
BRANCH   3   4
ATOM      4  N   UNL A   1      37.240  22.420  25.627  1.00  0.00    -0.352 N 
ATOM      5  C   UNL A   1      36.022  21.999  25.170  1.00  0.00     0.254 C 
ATOM      6  O   UNL A   1      35.831  20.780  25.165  1.00  0.00    -0.269 OA
ATOM      7  H   UNL A   1      37.806  21.676  25.935  1.00  0.00     0.163 HD
BRANCH   5   8
ATOM      8  C   UNL A   1      34.933  22.870  24.681  1.00  0.00     0.076 A 
ATOM      9  C   UNL A   1      32.945  24.340  23.511  1.00  0.00     0.143 A 
ATOM     10  N   UNL A   1      32.840  24.055  24.821  1.00  0.00    -0.239 NA
ATOM     11  N   UNL A   1      34.011  24.032  22.752  1.00  0.00    -0.239 NA
ATOM     12  C   UNL A   1      33.816  23.292  25.358  1.00  0.00     0.128 A 
ATOM     13  C   UNL A   1      34.978  23.302  23.366  1.00  0.00     0.128 A 
BRANCH   9  14
ATOM     14  C   UNL A   1      31.679  24.818  22.826  1.00  0.00     0.179 C 
BRANCH  14  15
ATOM     15  N   UNL A   1      31.475  26.312  22.799  1.00  0.00    -0.193 NA
ATOM     16  C   UNL A   1      32.762  27.054  22.773  1.00  0.00     0.125 C 
BRANCH  15  17
ATOM     17  S   UNL A   1      30.391  26.944  23.962  1.00  0.00     0.243 S 
ATOM     18  O   UNL A   1      29.438  27.812  23.317  1.00  0.00    -0.207 OA
ATOM     19  O   UNL A   1      29.933  25.835  24.780  1.00  0.00    -0.207 OA
BRANCH  17  20
ATOM     20  C   UNL A   1      31.459  27.925  24.989  1.00  0.00     0.082 A 
ATOM     21  C   UNL A   1      32.328  27.272  25.867  1.00  0.00     0.023 A 
ATOM     22  C   UNL A   1      31.408  29.321  24.931  1.00  0.00     0.023 A 
ATOM     23  C   UNL A   1      33.171  28.025  26.685  1.00  0.00     0.022 A 
ATOM     24  C   UNL A   1      32.258  30.069  25.749  1.00  0.00     0.022 A 
ATOM     25  C   UNL A   1      33.135  29.419  26.619  1.00  0.00     0.041 A 
ATOM     26  Cl  UNL A   1      34.179  30.344  27.626  1.00  0.00    -0.084 Cl
ENDBRANCH  17  20
ENDBRANCH  15  17
ENDBRANCH  14  15
ENDBRANCH   9  14
ENDBRANCH   5   8
ENDBRANCH   3   4
ENDBRANCH   2   3
ENDBRANCH   1   2
BRANCH   1  27
ATOM     27  C   UNL A   1      40.566  21.754  27.494  1.00  0.00     0.002 C 
BRANCH  27  28
ATOM     28  C   UNL A   1      40.753  20.363  26.880  1.00  0.00     0.021 C 
BRANCH  28  29
ATOM     29  C   UNL A   1      42.030  19.654  27.320  1.00  0.00     0.116 C 
BRANCH  29  30
ATOM     30  N   UNL A   1      42.845  19.272  26.177  1.00  0.00    -0.352 N 
ATOM     31  C   UNL A   1      43.551  20.066  25.310  1.00  0.00     0.251 C 
ATOM     32  H   UNL A   1      42.897  18.305  26.002  1.00  0.00     0.163 HD
ATOM     33  O   UNL A   1      43.961  19.597  24.251  1.00  0.00    -0.269 OA
BRANCH  31  34
ATOM     34  C   UNL A   1      43.802  21.482  25.649  1.00  0.00     0.039 A 
ATOM     35  C   UNL A   1      43.450  22.475  24.731  1.00  0.00     0.014 A 
ATOM     36  C   UNL A   1      44.404  21.828  26.863  1.00  0.00     0.014 A 
ATOM     37  C   UNL A   1      43.651  23.818  25.055  1.00  0.00     0.010 A 
ATOM     38  C   UNL A   1      44.542  23.168  27.212  1.00  0.00     0.010 A 
ATOM     39  C   UNL A   1      44.171  24.177  26.309  1.00  0.00    -0.014 A 
BRANCH  39  40
ATOM     40  C   UNL A   1      44.344  25.601  26.695  1.00  0.00     0.031 A 
ATOM     41  C   UNL A   1      45.699  26.247  26.598  1.00  0.00     0.074 A 
ATOM     42  C   UNL A   1      43.297  26.289  27.192  1.00  0.00     0.049 A 
ATOM     43  N   UNL A   1      46.075  27.443  26.972  1.00  0.00    -0.248 NA
ATOM     44  C   UNL A   1      46.781  25.424  26.037  1.00  0.00     0.031 C 
ATOM     45  C   UNL A   1      41.943  25.756  27.365  1.00  0.00     0.029 A 
ATOM     46  N   UNL A   1      43.207  27.576  27.657  1.00  0.00    -0.354 N 
ATOM     47  C   UNL A   1      47.438  27.513  26.702  1.00  0.00     0.074 A 
ATOM     48  C   UNL A   1      47.831  26.216  26.192  1.00  0.00     0.031 C 
ATOM     49  C   UNL A   1      41.156  26.715  27.878  1.00  0.00     0.029 A 
ATOM     50  C   UNL A   1      41.955  27.913  28.116  1.00  0.00     0.049 A 
ATOM     51  H   UNL A   1      43.968  28.201  27.660  1.00  0.00     0.167 HD
ATOM     52  C   UNL A   1      48.278  28.568  26.847  1.00  0.00     0.034 A 
ATOM     53  C   UNL A   1      41.506  29.051  28.680  1.00  0.00     0.034 A 
ATOM     54  C   UNL A   1      47.865  29.857  27.347  1.00  0.00     0.049 A 
ATOM     55  C   UNL A   1      42.463  30.202  28.855  1.00  0.00     0.074 A 
ATOM     56  C   UNL A   1      48.618  31.011  27.484  1.00  0.00     0.029 A 
ATOM     57  N   UNL A   1      46.587  30.162  27.801  1.00  0.00    -0.354 N 
ATOM     58  N   UNL A   1      43.740  30.268  28.552  1.00  0.00    -0.248 NA
ATOM     59  C   UNL A   1      41.918  31.434  29.440  1.00  0.00     0.031 C 
ATOM     60  C   UNL A   1      47.815  31.990  28.082  1.00  0.00     0.029 A 
ATOM     61  C   UNL A   1      46.540  31.475  28.248  1.00  0.00     0.049 A 
ATOM     62  H   UNL A   1      45.827  29.537  27.805  1.00  0.00     0.167 HD
ATOM     63  C   UNL A   1      44.141  31.560  28.881  1.00  0.00     0.074 A 
ATOM     64  C   UNL A   1      42.969  32.241  29.393  1.00  0.00     0.031 C 
ATOM     65  C   UNL A   1      45.365  32.135  28.767  1.00  0.00     0.034 A 
BRANCH  52  66
ATOM     66  C   UNL A   1      49.730  28.356  26.484  1.00  0.00     0.023 A 
ATOM     67  C   UNL A   1      50.202  28.561  25.176  1.00  0.00     0.031 A 
ATOM     68  C   UNL A   1      50.650  27.915  27.452  1.00  0.00     0.131 A 
ATOM     69  C   UNL A   1      51.531  28.250  24.853  1.00  0.00     0.055 A 
ATOM     70  C   UNL A   1      51.993  27.688  27.143  1.00  0.00     0.041 A 
ATOM     71  F   UNL A   1      50.256  27.681  28.714  1.00  0.00    -0.206 F 
ATOM     72  C   UNL A   1      52.437  27.840  25.833  1.00  0.00     0.022 A 
BRANCH  69  73
ATOM     73  S   UNL A   1      52.019  28.248  23.106  1.00  0.00     0.124 S 
ATOM     74  O   UNL A   1      52.109  26.817  22.828  1.00  0.00    -0.237 OA
ATOM     75  O   UNL A   1      50.913  28.955  22.469  1.00  0.00    -0.237 OA
ATOM     76  O   UNL A   1      53.297  28.957  23.106  1.00  0.00    -0.744 OA
ENDBRANCH  69  73
ENDBRANCH  52  66
BRANCH  53  77
ATOM     77  C   UNL A   1      40.089  29.162  29.131  1.00  0.00     0.023 A 
ATOM     78  C   UNL A   1      39.759  29.111  30.494  1.00  0.00     0.031 A 
ATOM     79  C   UNL A   1      39.040  29.283  28.203  1.00  0.00     0.131 A 
ATOM     80  C   UNL A   1      38.412  29.133  30.890  1.00  0.00     0.055 A 
ATOM     81  C   UNL A   1      37.705  29.358  28.603  1.00  0.00     0.041 A 
ATOM     82  F   UNL A   1      39.301  29.343  26.887  1.00  0.00    -0.206 F 
ATOM     83  C   UNL A   1      37.384  29.269  29.954  1.00  0.00     0.022 A 
BRANCH  80  84
ATOM     84  S   UNL A   1      38.018  28.897  32.643  1.00  0.00     0.124 S 
ATOM     85  O   UNL A   1      39.042  29.709  33.290  1.00  0.00    -0.237 OA
ATOM     86  O   UNL A   1      36.652  29.407  32.718  1.00  0.00    -0.237 OA
ATOM     87  O   UNL A   1      38.154  27.455  32.831  1.00  0.00    -0.744 OA
ENDBRANCH  80  84
ENDBRANCH  53  77
BRANCH  65  88
ATOM     88  C   UNL A   1      45.480  33.586  29.164  1.00  0.00     0.023 A 
ATOM     89  C   UNL A   1      45.270  34.626  28.241  1.00  0.00     0.031 A 
ATOM     90  C   UNL A   1      45.812  33.931  30.487  1.00  0.00     0.131 A 
ATOM     91  C   UNL A   1      45.448  35.959  28.639  1.00  0.00     0.055 A 
ATOM     92  C   UNL A   1      45.929  35.262  30.892  1.00  0.00     0.041 A 
ATOM     93  F   UNL A   1      46.026  32.979  31.408  1.00  0.00    -0.206 F 
ATOM     94  C   UNL A   1      45.759  36.284  29.962  1.00  0.00     0.022 A 
BRANCH  91  95
ATOM     95  S   UNL A   1      45.352  37.263  27.383  1.00  0.00     0.124 S 
ATOM     96  O   UNL A   1      43.946  37.210  26.996  1.00  0.00    -0.237 OA
ATOM     97  O   UNL A   1      45.765  38.448  28.129  1.00  0.00    -0.237 OA
ATOM     98  O   UNL A   1      46.294  36.821  26.356  1.00  0.00    -0.744 OA
ENDBRANCH  91  95
ENDBRANCH  65  88
ENDBRANCH  39  40
ENDBRANCH  31  34
ENDBRANCH  29  30
ENDBRANCH  28  29
ENDBRANCH  27  28
ENDBRANCH   1  27
TORSDOF 20
ENDMDL
