MODEL 1
REMARK VINA RESULT:     -10.7      0.000      0.000
REMARK SMILES O=C(CSc1ccc2ccccc2n1)NCc1ccc(C(=O)NCCCCCCNC(=O)c2ccc(-c3c4nc(c(-c5cc(S(=O)(=O)[O-])ccc5F)c5ccc([nH]5)c(-c5cc(S(=O)(=O)[O-])ccc5F)c5nc(c(-c6cc(S(=O)(=O)[O-])ccc6F)c6ccc3[nH]6)C=C5)C=C4)cc2)cc1
REMARK SMILES IDX 25 1 24 2 23 3 21 4 22 5 20 7 17 8 18 9 97 10 19 11 96 12
REMARK SMILES IDX 16 13 15 14 1 15 2 16 3 18 4 19 5 20 6 21 14 22 7 23 13 24
REMARK SMILES IDX 8 25 12 26 9 27 11 28 10 29 26 30 27 31 28 32 29 33 30 34
REMARK SMILES IDX 31 35 32 37 33 38 34 39 95 40 35 41 94 42 36 43 37 44 38 45
REMARK SMILES IDX 88 46 39 47 93 48 87 49 89 50 40 51 92 52 86 53 85 54 41 56
REMARK SMILES IDX 73 57 53 58 72 59 54 60 57 61 71 62 90 63 55 64 56 65 70 67
REMARK SMILES IDX 91 68 58 69 42 70 43 71 51 72 44 73 50 74 52 75 49 76 45 77
REMARK SMILES IDX 46 78 47 79 48 80 74 81 75 82 83 83 76 84 82 85 84 86 81 87
REMARK SMILES IDX 77 88 78 89 79 90 80 91 59 92 60 93 68 94 61 95 67 96 69 97
REMARK SMILES IDX 66 98 62 99 63 100 64 101 65 102
REMARK H PARENT 23 6 15 17 30 36 89 55 57 66
REMARK Flexibility Score: inf
ROOT
ATOM      1  C   UNL A   1      35.691  30.475  28.060  1.00  0.00     0.021 C 
ENDROOT
BRANCH   1   2
ATOM      2  C   UNL A   1      34.716  29.392  27.594  1.00  0.00     0.116 C 
BRANCH   2   3
ATOM      3  N   UNL A   1      34.246  29.697  26.254  1.00  0.00    -0.352 N 
ATOM      4  C   UNL A   1      33.462  29.002  25.371  1.00  0.00     0.251 C 
ATOM      5  O   UNL A   1      33.227  29.520  24.279  1.00  0.00    -0.269 OA
ATOM      6  H   UNL A   1      34.549  30.570  25.915  1.00  0.00     0.163 HD
BRANCH   4   7
ATOM      7  C   UNL A   1      32.830  27.694  25.699  1.00  0.00     0.039 A 
ATOM      8  C   UNL A   1      31.791  25.113  26.189  1.00  0.00    -0.029 A 
ATOM      9  C   UNL A   1      33.163  25.298  25.988  1.00  0.00     0.006 A 
ATOM     10  C   UNL A   1      30.954  26.238  26.176  1.00  0.00     0.006 A 
ATOM     11  C   UNL A   1      33.674  26.576  25.742  1.00  0.00     0.014 A 
ATOM     12  C   UNL A   1      31.474  27.521  25.977  1.00  0.00     0.014 A 
BRANCH   8  13
ATOM     13  C   UNL A   1      31.222  23.727  26.372  1.00  0.00     0.151 C 
BRANCH  13  14
ATOM     14  N   UNL A   1      31.934  22.763  25.566  1.00  0.00    -0.351 N 
ATOM     15  O   UNL A   1      30.867  23.263  23.598  1.00  0.00    -0.274 OA
ATOM     16  C   UNL A   1      31.675  22.586  24.227  1.00  0.00     0.230 C 
ATOM     17  H   UNL A   1      32.628  22.212  25.991  1.00  0.00     0.163 HD
BRANCH  16  18
ATOM     18  C   UNL A   1      32.392  21.410  23.590  1.00  0.00     0.176 C 
BRANCH  18  19
ATOM     19  S   UNL A   1      32.936  20.183  24.816  1.00  0.00    -0.096 SA
BRANCH  19  20
ATOM     20  C   UNL A   1      34.662  20.583  25.006  1.00  0.00     0.097 A 
ATOM     21  C   UNL A   1      35.685  19.667  24.807  1.00  0.00     0.036 A 
ATOM     22  N   UNL A   1      34.894  21.854  25.408  1.00  0.00    -0.241 NA
ATOM     23  C   UNL A   1      36.999  20.076  25.016  1.00  0.00     0.013 A 
ATOM     24  C   UNL A   1      36.161  22.242  25.628  1.00  0.00     0.072 A 
ATOM     25  C   UNL A   1      37.260  21.380  25.442  1.00  0.00     0.000 A 
ATOM     26  C   UNL A   1      36.413  23.536  26.066  1.00  0.00     0.029 A 
ATOM     27  C   UNL A   1      38.567  21.830  25.692  1.00  0.00     0.010 A 
ATOM     28  C   UNL A   1      37.711  23.988  26.323  1.00  0.00     0.002 A 
ATOM     29  C   UNL A   1      38.790  23.132  26.135  1.00  0.00     0.001 A 
ENDBRANCH  19  20
ENDBRANCH  18  19
ENDBRANCH  16  18
ENDBRANCH  13  14
ENDBRANCH   8  13
ENDBRANCH   4   7
ENDBRANCH   2   3
ENDBRANCH   1   2
BRANCH   1  30
ATOM     30  C   UNL A   1      35.001  31.625  28.806  1.00  0.00     0.002 C 
BRANCH  30  31
ATOM     31  C   UNL A   1      35.063  32.980  28.090  1.00  0.00     0.002 C 
BRANCH  31  32
ATOM     32  C   UNL A   1      33.800  33.837  28.223  1.00  0.00     0.021 C 
BRANCH  32  33
ATOM     33  C   UNL A   1      34.052  35.247  28.749  1.00  0.00     0.116 C 
BRANCH  33  34
ATOM     34  N   UNL A   1      33.129  35.589  29.820  1.00  0.00    -0.352 N 
ATOM     35  C   UNL A   1      33.145  35.198  31.136  1.00  0.00     0.251 C 
ATOM     36  H   UNL A   1      32.389  36.185  29.565  1.00  0.00     0.163 HD
ATOM     37  O   UNL A   1      32.150  35.368  31.833  1.00  0.00    -0.269 OA
BRANCH  35  38
ATOM     38  C   UNL A   1      34.355  34.562  31.700  1.00  0.00     0.039 A 
ATOM     39  C   UNL A   1      34.296  33.223  32.097  1.00  0.00     0.014 A 
ATOM     40  C   UNL A   1      35.538  35.289  31.855  1.00  0.00     0.014 A 
ATOM     41  C   UNL A   1      35.440  32.601  32.602  1.00  0.00     0.010 A 
ATOM     42  C   UNL A   1      36.695  34.648  32.291  1.00  0.00     0.010 A 
ATOM     43  C   UNL A   1      36.656  33.300  32.677  1.00  0.00    -0.014 A 
BRANCH  43  44
ATOM     44  C   UNL A   1      37.893  32.638  33.166  1.00  0.00     0.031 A 
ATOM     45  C   UNL A   1      38.521  31.528  32.368  1.00  0.00     0.074 A 
ATOM     46  C   UNL A   1      38.411  32.994  34.358  1.00  0.00     0.049 A 
ATOM     47  N   UNL A   1      39.558  30.783  32.656  1.00  0.00    -0.248 NA
ATOM     48  C   UNL A   1      37.878  31.191  31.089  1.00  0.00     0.031 C 
ATOM     49  C   UNL A   1      37.862  34.024  35.243  1.00  0.00     0.029 A 
ATOM     50  N   UNL A   1      39.508  32.526  35.037  1.00  0.00    -0.354 N 
ATOM     51  C   UNL A   1      39.681  29.881  31.606  1.00  0.00     0.074 A 
ATOM     52  C   UNL A   1      38.576  30.134  30.706  1.00  0.00     0.031 C 
ATOM     53  C   UNL A   1      38.635  34.123  36.336  1.00  0.00     0.029 A 
ATOM     54  C   UNL A   1      39.707  33.136  36.254  1.00  0.00     0.049 A 
ATOM     55  H   UNL A   1      40.096  31.819  34.687  1.00  0.00     0.167 HD
ATOM     56  C   UNL A   1      40.640  28.944  31.400  1.00  0.00     0.034 A 
ATOM     57  C   UNL A   1      40.639  32.917  37.203  1.00  0.00     0.034 A 
ATOM     58  C   UNL A   1      41.742  28.716  32.305  1.00  0.00     0.049 A 
ATOM     59  C   UNL A   1      41.690  31.864  36.959  1.00  0.00     0.074 A 
ATOM     60  C   UNL A   1      42.807  27.842  32.165  1.00  0.00     0.029 A 
ATOM     61  N   UNL A   1      41.919  29.360  33.524  1.00  0.00    -0.354 N 
ATOM     62  N   UNL A   1      41.829  31.059  35.930  1.00  0.00    -0.248 NA
ATOM     63  C   UNL A   1      42.714  31.699  37.997  1.00  0.00     0.031 C 
ATOM     64  C   UNL A   1      43.581  27.903  33.329  1.00  0.00     0.029 A 
ATOM     65  C   UNL A   1      43.051  28.875  34.162  1.00  0.00     0.049 A 
ATOM     66  H   UNL A   1      41.324  30.058  33.884  1.00  0.00     0.167 HD
ATOM     67  C   UNL A   1      42.976  30.312  36.187  1.00  0.00     0.074 A 
ATOM     68  C   UNL A   1      43.496  30.775  37.457  1.00  0.00     0.031 C 
ATOM     69  C   UNL A   1      43.550  29.336  35.438  1.00  0.00     0.034 A 
BRANCH  56  70
ATOM     70  C   UNL A   1      40.516  28.077  30.167  1.00  0.00     0.023 A 
ATOM     71  C   UNL A   1      41.386  28.218  29.071  1.00  0.00     0.031 A 
ATOM     72  C   UNL A   1      39.492  27.117  30.072  1.00  0.00     0.131 A 
ATOM     73  C   UNL A   1      41.169  27.474  27.902  1.00  0.00     0.055 A 
ATOM     74  C   UNL A   1      39.334  26.319  28.937  1.00  0.00     0.041 A 
ATOM     75  F   UNL A   1      38.616  26.949  31.075  1.00  0.00    -0.206 F 
ATOM     76  C   UNL A   1      40.164  26.507  27.836  1.00  0.00     0.022 A 
BRANCH  73  77
ATOM     77  S   UNL A   1      42.115  27.903  26.414  1.00  0.00     0.124 S 
ATOM     78  O   UNL A   1      43.432  27.360  26.737  1.00  0.00    -0.237 OA
ATOM     79  O   UNL A   1      41.379  27.212  25.362  1.00  0.00    -0.237 OA
ATOM     80  O   UNL A   1      42.044  29.361  26.372  1.00  0.00    -0.744 OA
ENDBRANCH  73  77
ENDBRANCH  56  70
BRANCH  57  81
ATOM     81  C   UNL A   1      40.618  33.697  38.473  1.00  0.00     0.023 A 
ATOM     82  C   UNL A   1      41.457  34.807  38.659  1.00  0.00     0.031 A 
ATOM     83  C   UNL A   1      39.773  33.324  39.535  1.00  0.00     0.131 A 
ATOM     84  C   UNL A   1      41.467  35.479  39.891  1.00  0.00     0.055 A 
ATOM     85  C   UNL A   1      39.749  34.028  40.741  1.00  0.00     0.041 A 
ATOM     86  F   UNL A   1      38.946  32.275  39.408  1.00  0.00    -0.206 F 
ATOM     87  C   UNL A   1      40.608  35.105  40.928  1.00  0.00     0.022 A 
BRANCH  84  88
ATOM     88  S   UNL A   1      42.679  36.804  40.148  1.00  0.00     0.124 S 
ATOM     89  O   UNL A   1      43.561  36.211  41.146  1.00  0.00    -0.237 OA
ATOM     90  O   UNL A   1      43.239  36.965  38.810  1.00  0.00    -0.237 OA
ATOM     91  O   UNL A   1      41.864  37.922  40.619  1.00  0.00    -0.744 OA
ENDBRANCH  84  88
ENDBRANCH  57  81
BRANCH  69  92
ATOM     92  C   UNL A   1      44.832  28.733  35.963  1.00  0.00     0.023 A 
ATOM     93  C   UNL A   1      44.833  27.586  36.775  1.00  0.00     0.031 A 
ATOM     94  C   UNL A   1      46.068  29.329  35.657  1.00  0.00     0.131 A 
ATOM     95  C   UNL A   1      46.042  27.106  37.303  1.00  0.00     0.055 A 
ATOM     96  C   UNL A   1      47.273  28.808  36.132  1.00  0.00     0.041 A 
ATOM     97  F   UNL A   1      46.127  30.429  34.890  1.00  0.00    -0.206 F 
ATOM     98  C   UNL A   1      47.263  27.699  36.972  1.00  0.00     0.022 A 
BRANCH  95  99
ATOM     99  S   UNL A   1      45.988  25.754  38.512  1.00  0.00     0.124 S 
ATOM    100  O   UNL A   1      46.397  26.430  39.739  1.00  0.00    -0.237 OA
ATOM    101  O   UNL A   1      44.591  25.335  38.450  1.00  0.00    -0.237 OA
ATOM    102  O   UNL A   1      46.949  24.786  37.987  1.00  0.00    -0.744 OA
ENDBRANCH  95  99
ENDBRANCH  69  92
ENDBRANCH  43  44
ENDBRANCH  35  38
ENDBRANCH  33  34
ENDBRANCH  32  33
ENDBRANCH  31  32
ENDBRANCH  30  31
ENDBRANCH   1  30
TORSDOF 21
ENDMDL
MODEL 2
REMARK VINA RESULT:     -10.7      2.379      7.824
REMARK SMILES O=C(CSc1ccc2ccccc2n1)NCc1ccc(C(=O)NCCCCCCNC(=O)c2ccc(-c3c4nc(c(-c5cc(S(=O)(=O)[O-])ccc5F)c5ccc([nH]5)c(-c5cc(S(=O)(=O)[O-])ccc5F)c5nc(c(-c6cc(S(=O)(=O)[O-])ccc6F)c6ccc3[nH]6)C=C5)C=C4)cc2)cc1
REMARK SMILES IDX 25 1 24 2 23 3 21 4 22 5 20 7 17 8 18 9 97 10 19 11 96 12
REMARK SMILES IDX 16 13 15 14 1 15 2 16 3 18 4 19 5 20 6 21 14 22 7 23 13 24
REMARK SMILES IDX 8 25 12 26 9 27 11 28 10 29 26 30 27 31 28 32 29 33 30 34
REMARK SMILES IDX 31 35 32 37 33 38 34 39 95 40 35 41 94 42 36 43 37 44 38 45
REMARK SMILES IDX 88 46 39 47 93 48 87 49 89 50 40 51 92 52 86 53 85 54 41 56
REMARK SMILES IDX 73 57 53 58 72 59 54 60 57 61 71 62 90 63 55 64 56 65 70 67
REMARK SMILES IDX 91 68 58 69 42 70 43 71 51 72 44 73 50 74 52 75 49 76 45 77
REMARK SMILES IDX 46 78 47 79 48 80 74 81 75 82 83 83 76 84 82 85 84 86 81 87
REMARK SMILES IDX 77 88 78 89 79 90 80 91 59 92 60 93 68 94 61 95 67 96 69 97
REMARK SMILES IDX 66 98 62 99 63 100 64 101 65 102
REMARK H PARENT 23 6 15 17 30 36 89 55 57 66
REMARK Flexibility Score: inf
ROOT
ATOM      1  C   UNL A   1      35.590  30.191  27.578  1.00  0.00     0.021 C 
ENDROOT
BRANCH   1   2
ATOM      2  C   UNL A   1      34.354  29.500  26.997  1.00  0.00     0.116 C 
BRANCH   2   3
ATOM      3  N   UNL A   1      33.257  30.448  26.906  1.00  0.00    -0.352 N 
ATOM      4  C   UNL A   1      32.028  30.382  26.302  1.00  0.00     0.251 C 
ATOM      5  O   UNL A   1      31.291  31.364  26.390  1.00  0.00    -0.269 OA
ATOM      6  H   UNL A   1      33.429  31.301  27.365  1.00  0.00     0.163 HD
BRANCH   4   7
ATOM      7  C   UNL A   1      31.524  29.161  25.615  1.00  0.00     0.039 A 
ATOM      8  C   UNL A   1      30.696  26.719  24.459  1.00  0.00    -0.029 A 
ATOM      9  C   UNL A   1      30.985  26.793  25.825  1.00  0.00     0.006 A 
ATOM     10  C   UNL A   1      30.794  27.887  23.689  1.00  0.00     0.006 A 
ATOM     11  C   UNL A   1      31.398  28.002  26.395  1.00  0.00     0.014 A 
ATOM     12  C   UNL A   1      31.161  29.105  24.270  1.00  0.00     0.014 A 
BRANCH   8  13
ATOM     13  C   UNL A   1      30.330  25.401  23.821  1.00  0.00     0.151 C 
BRANCH  13  14
ATOM     14  N   UNL A   1      31.259  24.364  24.206  1.00  0.00    -0.351 N 
ATOM     15  O   UNL A   1      32.815  24.822  22.584  1.00  0.00    -0.274 OA
ATOM     16  C   UNL A   1      32.433  24.135  23.528  1.00  0.00     0.230 C 
ATOM     17  H   UNL A   1      31.042  23.798  24.981  1.00  0.00     0.163 HD
BRANCH  16  18
ATOM     18  C   UNL A   1      33.190  22.895  23.964  1.00  0.00     0.176 C 
BRANCH  18  19
ATOM     19  S   UNL A   1      32.201  21.827  25.053  1.00  0.00    -0.096 SA
BRANCH  19  20
ATOM     20  C   UNL A   1      33.101  20.291  24.990  1.00  0.00     0.097 A 
ATOM     21  C   UNL A   1      34.447  20.207  24.668  1.00  0.00     0.036 A 
ATOM     22  N   UNL A   1      32.345  19.197  25.244  1.00  0.00    -0.241 NA
ATOM     23  C   UNL A   1      35.045  18.951  24.614  1.00  0.00     0.013 A 
ATOM     24  C   UNL A   1      32.918  17.984  25.173  1.00  0.00     0.072 A 
ATOM     25  C   UNL A   1      34.281  17.808  24.860  1.00  0.00     0.000 A 
ATOM     26  C   UNL A   1      32.149  16.851  25.404  1.00  0.00     0.029 A 
ATOM     27  C   UNL A   1      34.834  16.518  24.792  1.00  0.00     0.010 A 
ATOM     28  C   UNL A   1      32.692  15.564  25.331  1.00  0.00     0.002 A 
ATOM     29  C   UNL A   1      34.037  15.399  25.024  1.00  0.00     0.001 A 
ENDBRANCH  19  20
ENDBRANCH  18  19
ENDBRANCH  16  18
ENDBRANCH  13  14
ENDBRANCH   8  13
ENDBRANCH   4   7
ENDBRANCH   2   3
ENDBRANCH   1   2
BRANCH   1  30
ATOM     30  C   UNL A   1      35.242  31.319  28.559  1.00  0.00     0.002 C 
BRANCH  30  31
ATOM     31  C   UNL A   1      35.406  32.734  27.990  1.00  0.00     0.002 C 
BRANCH  31  32
ATOM     32  C   UNL A   1      34.140  33.595  28.029  1.00  0.00     0.021 C 
BRANCH  32  33
ATOM     33  C   UNL A   1      34.377  35.038  28.466  1.00  0.00     0.116 C 
BRANCH  33  34
ATOM     34  N   UNL A   1      33.552  35.390  29.611  1.00  0.00    -0.352 N 
ATOM     35  C   UNL A   1      33.614  34.922  30.901  1.00  0.00     0.251 C 
ATOM     36  H   UNL A   1      32.850  36.056  29.437  1.00  0.00     0.163 HD
ATOM     37  O   UNL A   1      32.680  35.131  31.668  1.00  0.00    -0.269 OA
BRANCH  35  38
ATOM     38  C   UNL A   1      34.798  34.160  31.351  1.00  0.00     0.039 A 
ATOM     39  C   UNL A   1      34.622  32.873  31.864  1.00  0.00     0.014 A 
ATOM     40  C   UNL A   1      36.077  34.721  31.284  1.00  0.00     0.014 A 
ATOM     41  C   UNL A   1      35.735  32.129  32.264  1.00  0.00     0.010 A 
ATOM     42  C   UNL A   1      37.190  33.953  31.616  1.00  0.00     0.010 A 
ATOM     43  C   UNL A   1      37.030  32.652  32.117  1.00  0.00    -0.014 A 
BRANCH  43  44
ATOM     44  C   UNL A   1      38.227  31.855  32.491  1.00  0.00     0.031 A 
ATOM     45  C   UNL A   1      38.968  32.160  33.764  1.00  0.00     0.074 A 
ATOM     46  C   UNL A   1      38.679  30.900  31.654  1.00  0.00     0.049 A 
ATOM     47  N   UNL A   1      40.068  31.625  34.232  1.00  0.00    -0.248 NA
ATOM     48  C   UNL A   1      38.417  33.230  34.608  1.00  0.00     0.031 C 
ATOM     49  C   UNL A   1      38.069  30.548  30.370  1.00  0.00     0.029 A 
ATOM     50  N   UNL A   1      39.758  30.059  31.750  1.00  0.00    -0.354 N 
ATOM     51  C   UNL A   1      40.349  32.304  35.412  1.00  0.00     0.074 A 
ATOM     52  C   UNL A   1      39.336  33.329  35.555  1.00  0.00     0.031 C 
ATOM     53  C   UNL A   1      38.772  29.551  29.808  1.00  0.00     0.029 A 
ATOM     54  C   UNL A   1      39.906  29.223  30.667  1.00  0.00     0.049 A 
ATOM     55  H   UNL A   1      40.371  30.055  32.520  1.00  0.00     0.167 HD
ATOM     56  C   UNL A   1      41.344  32.078  36.305  1.00  0.00     0.034 A 
ATOM     57  C   UNL A   1      40.854  28.305  30.390  1.00  0.00     0.034 A 
ATOM     58  C   UNL A   1      42.337  31.041  36.150  1.00  0.00     0.049 A 
ATOM     59  C   UNL A   1      41.957  28.077  31.392  1.00  0.00     0.074 A 
ATOM     60  C   UNL A   1      43.349  30.678  37.022  1.00  0.00     0.029 A 
ATOM     61  N   UNL A   1      42.450  30.205  35.045  1.00  0.00    -0.354 N 
ATOM     62  N   UNL A   1      42.174  28.685  32.535  1.00  0.00    -0.248 NA
ATOM     63  C   UNL A   1      42.935  27.031  31.071  1.00  0.00     0.031 C 
ATOM     64  C   UNL A   1      44.117  29.678  36.413  1.00  0.00     0.029 A 
ATOM     65  C   UNL A   1      43.536  29.355  35.197  1.00  0.00     0.049 A 
ATOM     66  H   UNL A   1      41.847  30.216  34.267  1.00  0.00     0.167 HD
ATOM     67  C   UNL A   1      43.298  28.073  33.083  1.00  0.00     0.074 A 
ATOM     68  C   UNL A   1      43.701  27.039  32.152  1.00  0.00     0.031 C 
ATOM     69  C   UNL A   1      43.937  28.338  34.252  1.00  0.00     0.034 A 
BRANCH  56  70
ATOM     70  C   UNL A   1      41.423  32.991  37.508  1.00  0.00     0.023 A 
ATOM     71  C   UNL A   1      40.739  32.704  38.703  1.00  0.00     0.031 A 
ATOM     72  C   UNL A   1      42.168  34.182  37.449  1.00  0.00     0.131 A 
ATOM     73  C   UNL A   1      40.746  33.631  39.756  1.00  0.00     0.055 A 
ATOM     74  C   UNL A   1      42.241  35.060  38.533  1.00  0.00     0.041 A 
ATOM     75  F   UNL A   1      42.826  34.524  36.330  1.00  0.00    -0.206 F 
ATOM     76  C   UNL A   1      41.513  34.795  39.690  1.00  0.00     0.022 A 
BRANCH  73  77
ATOM     77  S   UNL A   1      39.612  33.369  41.148  1.00  0.00     0.124 S 
ATOM     78  O   UNL A   1      39.502  31.912  41.168  1.00  0.00    -0.237 OA
ATOM     79  O   UNL A   1      40.335  33.971  42.261  1.00  0.00    -0.237 OA
ATOM     80  O   UNL A   1      38.398  34.072  40.737  1.00  0.00    -0.744 OA
ENDBRANCH  73  77
ENDBRANCH  56  70
BRANCH  57  81
ATOM     81  C   UNL A   1      40.811  27.543  29.110  1.00  0.00     0.023 A 
ATOM     82  C   UNL A   1      41.699  27.829  28.062  1.00  0.00     0.031 A 
ATOM     83  C   UNL A   1      39.855  26.530  28.905  1.00  0.00     0.131 A 
ATOM     84  C   UNL A   1      41.589  27.143  26.843  1.00  0.00     0.055 A 
ATOM     85  C   UNL A   1      39.783  25.814  27.709  1.00  0.00     0.041 A 
ATOM     86  F   UNL A   1      38.986  26.211  29.877  1.00  0.00    -0.206 F 
ATOM     87  C   UNL A   1      40.645  26.128  26.664  1.00  0.00     0.022 A 
BRANCH  84  88
ATOM     88  S   UNL A   1      42.647  27.654  25.460  1.00  0.00     0.124 S 
ATOM     89  O   UNL A   1      43.894  27.974  26.142  1.00  0.00    -0.237 OA
ATOM     90  O   UNL A   1      42.657  26.454  24.629  1.00  0.00    -0.237 OA
ATOM     91  O   UNL A   1      41.934  28.796  24.892  1.00  0.00    -0.744 OA
ENDBRANCH  84  88
ENDBRANCH  57  81
BRANCH  69  92
ATOM     92  C   UNL A   1      45.117  27.463  34.601  1.00  0.00     0.023 A 
ATOM     93  C   UNL A   1      46.424  27.784  34.194  1.00  0.00     0.031 A 
ATOM     94  C   UNL A   1      44.925  26.282  35.340  1.00  0.00     0.131 A 
ATOM     95  C   UNL A   1      47.479  26.902  34.477  1.00  0.00     0.055 A 
ATOM     96  C   UNL A   1      45.989  25.442  35.674  1.00  0.00     0.041 A 
ATOM     97  F   UNL A   1      43.699  25.924  35.751  1.00  0.00    -0.206 F 
ATOM     98  C   UNL A   1      47.272  25.743  35.229  1.00  0.00     0.022 A 
BRANCH  95  99
ATOM     99  S   UNL A   1      49.111  27.240  33.760  1.00  0.00     0.124 S 
ATOM    100  O   UNL A   1      49.216  28.687  33.916  1.00  0.00    -0.237 OA
ATOM    101  O   UNL A   1      49.994  26.442  34.605  1.00  0.00    -0.237 OA
ATOM    102  O   UNL A   1      48.984  26.773  32.381  1.00  0.00    -0.744 OA
ENDBRANCH  95  99
ENDBRANCH  69  92
ENDBRANCH  43  44
ENDBRANCH  35  38
ENDBRANCH  33  34
ENDBRANCH  32  33
ENDBRANCH  31  32
ENDBRANCH  30  31
ENDBRANCH   1  30
TORSDOF 21
ENDMDL
MODEL 3
REMARK VINA RESULT:     -10.7      4.712     10.896
REMARK SMILES O=C(CSc1ccc2ccccc2n1)NCc1ccc(C(=O)NCCCCCCNC(=O)c2ccc(-c3c4nc(c(-c5cc(S(=O)(=O)[O-])ccc5F)c5ccc([nH]5)c(-c5cc(S(=O)(=O)[O-])ccc5F)c5nc(c(-c6cc(S(=O)(=O)[O-])ccc6F)c6ccc3[nH]6)C=C5)C=C4)cc2)cc1
REMARK SMILES IDX 25 1 24 2 23 3 21 4 22 5 20 7 17 8 18 9 97 10 19 11 96 12
REMARK SMILES IDX 16 13 15 14 1 15 2 16 3 18 4 19 5 20 6 21 14 22 7 23 13 24
REMARK SMILES IDX 8 25 12 26 9 27 11 28 10 29 26 30 27 31 28 32 29 33 30 34
REMARK SMILES IDX 31 35 32 37 33 38 34 39 95 40 35 41 94 42 36 43 37 44 38 45
REMARK SMILES IDX 88 46 39 47 93 48 87 49 89 50 40 51 92 52 86 53 85 54 41 56
REMARK SMILES IDX 73 57 53 58 72 59 54 60 57 61 71 62 90 63 55 64 56 65 70 67
REMARK SMILES IDX 91 68 58 69 42 70 43 71 51 72 44 73 50 74 52 75 49 76 45 77
REMARK SMILES IDX 46 78 47 79 48 80 74 81 75 82 83 83 76 84 82 85 84 86 81 87
REMARK SMILES IDX 77 88 78 89 79 90 80 91 59 92 60 93 68 94 61 95 67 96 69 97
REMARK SMILES IDX 66 98 62 99 63 100 64 101 65 102
REMARK H PARENT 23 6 15 17 30 36 89 55 57 66
REMARK Flexibility Score: inf
ROOT
ATOM      1  C   UNL A   1      36.283  33.832  31.328  1.00  0.00     0.021 C 
ENDROOT
BRANCH   1   2
ATOM      2  C   UNL A   1      37.450  34.092  32.284  1.00  0.00     0.116 C 
BRANCH   2   3
ATOM      3  N   UNL A   1      37.038  33.821  33.650  1.00  0.00    -0.352 N 
ATOM      4  C   UNL A   1      37.226  32.742  34.474  1.00  0.00     0.251 C 
ATOM      5  O   UNL A   1      36.747  32.794  35.607  1.00  0.00    -0.269 OA
ATOM      6  H   UNL A   1      36.524  34.552  34.063  1.00  0.00     0.163 HD
BRANCH   4   7
ATOM      7  C   UNL A   1      38.037  31.555  34.087  1.00  0.00     0.039 A 
ATOM      8  C   UNL A   1      39.378  29.181  33.345  1.00  0.00    -0.029 A 
ATOM      9  C   UNL A   1      38.082  29.435  32.886  1.00  0.00     0.006 A 
ATOM     10  C   UNL A   1      40.004  30.144  34.151  1.00  0.00     0.006 A 
ATOM     11  C   UNL A   1      37.419  30.609  33.257  1.00  0.00     0.014 A 
ATOM     12  C   UNL A   1      39.357  31.338  34.481  1.00  0.00     0.014 A 
BRANCH   8  13
ATOM     13  C   UNL A   1      40.068  27.880  33.017  1.00  0.00     0.151 C 
BRANCH  13  14
ATOM     14  N   UNL A   1      40.786  27.370  34.163  1.00  0.00    -0.351 N 
ATOM     15  O   UNL A   1      42.873  27.520  33.223  1.00  0.00    -0.274 OA
ATOM     16  C   UNL A   1      42.150  27.202  34.164  1.00  0.00     0.230 C 
ATOM     17  H   UNL A   1      40.278  27.133  34.971  1.00  0.00     0.163 HD
BRANCH  16  18
ATOM     18  C   UNL A   1      42.704  26.491  35.385  1.00  0.00     0.176 C 
BRANCH  18  19
ATOM     19  S   UNL A   1      42.383  24.702  35.349  1.00  0.00    -0.096 SA
BRANCH  19  20
ATOM     20  C   UNL A   1      44.004  24.037  35.020  1.00  0.00     0.097 A 
ATOM     21  C   UNL A   1      44.938  24.667  34.212  1.00  0.00     0.036 A 
ATOM     22  N   UNL A   1      44.234  22.834  35.596  1.00  0.00    -0.241 NA
ATOM     23  C   UNL A   1      46.163  24.043  33.994  1.00  0.00     0.013 A 
ATOM     24  C   UNL A   1      45.409  22.223  35.370  1.00  0.00     0.072 A 
ATOM     25  C   UNL A   1      46.418  22.795  34.569  1.00  0.00     0.000 A 
ATOM     26  C   UNL A   1      45.650  20.976  35.932  1.00  0.00     0.029 A 
ATOM     27  C   UNL A   1      47.628  22.115  34.356  1.00  0.00     0.010 A 
ATOM     28  C   UNL A   1      46.850  20.291  35.719  1.00  0.00     0.002 A 
ATOM     29  C   UNL A   1      47.841  20.863  34.930  1.00  0.00     0.001 A 
ENDBRANCH  19  20
ENDBRANCH  18  19
ENDBRANCH  16  18
ENDBRANCH  13  14
ENDBRANCH   8  13
ENDBRANCH   4   7
ENDBRANCH   2   3
ENDBRANCH   1   2
BRANCH   1  30
ATOM     30  C   UNL A   1      36.626  32.831  30.218  1.00  0.00     0.002 C 
BRANCH  30  31
ATOM     31  C   UNL A   1      36.533  33.397  28.795  1.00  0.00     0.002 C 
BRANCH  31  32
ATOM     32  C   UNL A   1      35.226  33.081  28.060  1.00  0.00     0.021 C 
BRANCH  32  33
ATOM     33  C   UNL A   1      34.303  32.123  28.806  1.00  0.00     0.116 C 
BRANCH  33  34
ATOM     34  N   UNL A   1      33.911  30.999  27.969  1.00  0.00    -0.352 N 
ATOM     35  C   UNL A   1      34.688  29.998  27.443  1.00  0.00     0.251 C 
ATOM     36  H   UNL A   1      32.954  30.952  27.748  1.00  0.00     0.163 HD
ATOM     37  O   UNL A   1      34.240  29.285  26.551  1.00  0.00    -0.269 OA
BRANCH  35  38
ATOM     38  C   UNL A   1      36.065  29.793  27.945  1.00  0.00     0.039 A 
ATOM     39  C   UNL A   1      36.249  29.334  29.252  1.00  0.00     0.014 A 
ATOM     40  C   UNL A   1      37.169  30.069  27.134  1.00  0.00     0.014 A 
ATOM     41  C   UNL A   1      37.542  29.106  29.728  1.00  0.00     0.010 A 
ATOM     42  C   UNL A   1      38.452  29.773  27.586  1.00  0.00     0.010 A 
ATOM     43  C   UNL A   1      38.653  29.297  28.890  1.00  0.00    -0.014 A 
BRANCH  43  44
ATOM     44  C   UNL A   1      40.031  29.011  29.366  1.00  0.00     0.031 A 
ATOM     45  C   UNL A   1      40.764  30.022  30.205  1.00  0.00     0.074 A 
ATOM     46  C   UNL A   1      40.642  27.870  28.990  1.00  0.00     0.049 A 
ATOM     47  N   UNL A   1      41.991  29.989  30.660  1.00  0.00    -0.248 NA
ATOM     48  C   UNL A   1      40.029  31.248  30.551  1.00  0.00     0.031 C 
ATOM     49  C   UNL A   1      40.047  26.836  28.140  1.00  0.00     0.029 A 
ATOM     50  N   UNL A   1      41.898  27.391  29.264  1.00  0.00    -0.354 N 
ATOM     51  C   UNL A   1      42.181  31.192  31.331  1.00  0.00     0.074 A 
ATOM     52  C   UNL A   1      40.961  31.956  31.169  1.00  0.00     0.031 C 
ATOM     53  C   UNL A   1      40.931  25.838  27.978  1.00  0.00     0.029 A 
ATOM     54  C   UNL A   1      42.168  26.177  28.675  1.00  0.00     0.049 A 
ATOM     55  H   UNL A   1      42.546  27.871  29.828  1.00  0.00     0.167 HD
ATOM     56  C   UNL A   1      43.262  31.611  32.035  1.00  0.00     0.034 A 
ATOM     57  C   UNL A   1      43.289  25.428  28.682  1.00  0.00     0.034 A 
ATOM     58  C   UNL A   1      44.464  30.827  32.194  1.00  0.00     0.049 A 
ATOM     59  C   UNL A   1      44.482  25.917  29.462  1.00  0.00     0.074 A 
ATOM     60  C   UNL A   1      45.593  31.120  32.939  1.00  0.00     0.029 A 
ATOM     61  N   UNL A   1      44.699  29.596  31.591  1.00  0.00    -0.354 N 
ATOM     62  N   UNL A   1      44.625  27.030  30.144  1.00  0.00    -0.248 NA
ATOM     63  C   UNL A   1      45.660  25.042  29.485  1.00  0.00     0.031 C 
ATOM     64  C   UNL A   1      46.536  30.108  32.726  1.00  0.00     0.029 A 
ATOM     65  C   UNL A   1      45.967  29.138  31.917  1.00  0.00     0.049 A 
ATOM     66  H   UNL A   1      44.058  29.120  31.015  1.00  0.00     0.167 HD
ATOM     67  C   UNL A   1      45.900  26.974  30.700  1.00  0.00     0.074 A 
ATOM     68  C   UNL A   1      46.475  25.710  30.287  1.00  0.00     0.031 C 
ATOM     69  C   UNL A   1      46.536  27.882  31.484  1.00  0.00     0.034 A 
BRANCH  56  70
ATOM     70  C   UNL A   1      43.201  32.989  32.653  1.00  0.00     0.023 A 
ATOM     71  C   UNL A   1      42.677  33.201  33.941  1.00  0.00     0.031 A 
ATOM     72  C   UNL A   1      43.645  34.113  31.933  1.00  0.00     0.131 A 
ATOM     73  C   UNL A   1      42.533  34.506  34.435  1.00  0.00     0.055 A 
ATOM     74  C   UNL A   1      43.579  35.402  32.466  1.00  0.00     0.041 A 
ATOM     75  F   UNL A   1      44.135  33.980  30.691  1.00  0.00    -0.206 F 
ATOM     76  C   UNL A   1      43.004  35.607  33.717  1.00  0.00     0.022 A 
BRANCH  73  77
ATOM     77  S   UNL A   1      41.578  34.756  35.957  1.00  0.00     0.124 S 
ATOM     78  O   UNL A   1      41.795  36.179  36.210  1.00  0.00    -0.237 OA
ATOM     79  O   UNL A   1      40.230  34.378  35.548  1.00  0.00    -0.237 OA
ATOM     80  O   UNL A   1      42.217  33.857  36.914  1.00  0.00    -0.744 OA
ENDBRANCH  73  77
ENDBRANCH  56  70
BRANCH  57  81
ATOM     81  C   UNL A   1      43.343  24.148  27.921  1.00  0.00     0.023 A 
ATOM     82  C   UNL A   1      44.076  24.040  26.729  1.00  0.00     0.031 A 
ATOM     83  C   UNL A   1      42.633  23.015  28.363  1.00  0.00     0.131 A 
ATOM     84  C   UNL A   1      44.050  22.843  25.996  1.00  0.00     0.055 A 
ATOM     85  C   UNL A   1      42.653  21.811  27.658  1.00  0.00     0.041 A 
ATOM     86  F   UNL A   1      41.921  23.062  29.500  1.00  0.00    -0.206 F 
ATOM     87  C   UNL A   1      43.354  21.724  26.460  1.00  0.00     0.022 A 
BRANCH  84  88
ATOM     88  S   UNL A   1      44.875  22.795  24.382  1.00  0.00     0.124 S 
ATOM     89  O   UNL A   1      45.381  24.157  24.265  1.00  0.00    -0.237 OA
ATOM     90  O   UNL A   1      45.876  21.753  24.585  1.00  0.00    -0.237 OA
ATOM     91  O   UNL A   1      43.796  22.446  23.460  1.00  0.00    -0.744 OA
ENDBRANCH  84  88
ENDBRANCH  57  81
BRANCH  69  92
ATOM     92  C   UNL A   1      47.915  27.514  31.977  1.00  0.00     0.023 A 
ATOM     93  C   UNL A   1      49.030  27.506  31.121  1.00  0.00     0.031 A 
ATOM     94  C   UNL A   1      48.111  27.152  33.322  1.00  0.00     0.131 A 
ATOM     95  C   UNL A   1      50.278  27.085  31.605  1.00  0.00     0.055 A 
ATOM     96  C   UNL A   1      49.368  26.797  33.813  1.00  0.00     0.041 A 
ATOM     97  F   UNL A   1      47.081  27.139  34.183  1.00  0.00    -0.206 F 
ATOM     98  C   UNL A   1      50.458  26.748  32.949  1.00  0.00     0.022 A 
BRANCH  95  99
ATOM     99  S   UNL A   1      51.646  26.886  30.429  1.00  0.00     0.124 S 
ATOM    100  O   UNL A   1      51.053  26.016  29.420  1.00  0.00    -0.237 OA
ATOM    101  O   UNL A   1      51.903  28.261  30.014  1.00  0.00    -0.237 OA
ATOM    102  O   UNL A   1      52.703  26.274  31.233  1.00  0.00    -0.744 OA
ENDBRANCH  95  99
ENDBRANCH  69  92
ENDBRANCH  43  44
ENDBRANCH  35  38
ENDBRANCH  33  34
ENDBRANCH  32  33
ENDBRANCH  31  32
ENDBRANCH  30  31
ENDBRANCH   1  30
TORSDOF 21
ENDMDL
