MODEL 1
REMARK VINA RESULT:     -11.6      0.000      0.000
REMARK SMILES CC(C)CCN1C(=O)/C(=C2/SC(=S)N(CCC(=O)NCCCCCCNC(=O)c3ccc(-c4c5nc(c(-c6cc(S(=O)(=O)[O-])ccc6F)c6ccc([nH]6)c(-c6cc(S(=O)(=O)[O-])ccc6F)c6nc(c(-c7cc(S(=O)(=O)[O-])ccc7F)c7ccc4[nH]7)C=C6)C=C5)cc3)C2=O)c2ccccc21
REMARK SMILES IDX 21 1 20 2 19 3 17 4 18 5 16 7 15 8 14 9 6 10 7 11 99 12 8 13
REMARK SMILES IDX 9 14 94 15 98 16 10 17 95 18 97 19 11 20 92 21 96 22 12 23
REMARK SMILES IDX 93 24 13 25 5 26 4 27 2 28 1 29 3 30 22 31 23 32 24 33 25 34
REMARK SMILES IDX 26 35 27 36 28 38 29 39 30 40 91 41 31 42 90 43 32 44 33 45
REMARK SMILES IDX 34 46 84 47 35 48 89 49 83 50 85 51 36 52 88 53 82 54 81 55
REMARK SMILES IDX 37 57 69 58 49 59 68 60 50 61 53 62 67 63 86 64 51 65 52 66
REMARK SMILES IDX 66 68 87 69 54 70 38 71 39 72 47 73 40 74 46 75 48 76 45 77
REMARK SMILES IDX 41 78 42 79 43 80 44 81 70 82 71 83 79 84 72 85 78 86 80 87
REMARK SMILES IDX 77 88 73 89 74 90 75 91 76 92 55 93 56 94 64 95 57 96 63 97
REMARK SMILES IDX 65 98 62 99 58 100 59 101 60 102 61 103
REMARK H PARENT 19 6 26 37 85 56 53 67
REMARK Flexibility Score: inf
ROOT
ATOM      1  C   UNL A   1      33.880  31.346  27.813  1.00  0.00     0.021 C 
ENDROOT
BRANCH   1   2
ATOM      2  C   UNL A   1      34.165  29.966  27.214  1.00  0.00     0.116 C 
BRANCH   2   3
ATOM      3  N   UNL A   1      33.275  28.972  27.792  1.00  0.00    -0.356 N 
ATOM      4  C   UNL A   1      32.148  28.397  27.284  1.00  0.00     0.221 C 
ATOM      5  O   UNL A   1      31.431  27.747  28.048  1.00  0.00    -0.275 OA
ATOM      6  H   UNL A   1      33.527  28.666  28.693  1.00  0.00     0.163 HD
BRANCH   4   7
ATOM      7  C   UNL A   1      31.813  28.501  25.811  1.00  0.00     0.122 C 
BRANCH   7   8
ATOM      8  C   UNL A   1      30.893  27.390  25.291  1.00  0.00     0.137 C 
BRANCH   8   9
ATOM      9  N   UNL A   1      31.556  26.395  24.435  1.00  0.00    -0.292 N 
ATOM     10  N   UNL A   1      33.409  20.979  25.182  1.00  0.00    -0.308 N 
ATOM     11  C   UNL A   1      32.429  21.976  25.109  1.00  0.00     0.260 C 
ATOM     12  C   UNL A   1      34.619  21.436  24.666  1.00  0.00     0.052 A 
ATOM     13  O   UNL A   1      31.274  21.927  25.477  1.00  0.00    -0.269 OA
ATOM     14  C   UNL A   1      33.055  23.079  24.272  1.00  0.00     0.069 C 
ATOM     15  C   UNL A   1      34.428  22.637  23.978  1.00  0.00     0.012 A 
ATOM     16  C   UNL A   1      35.864  20.879  24.892  1.00  0.00     0.027 A 
ATOM     17  C   UNL A   1      32.518  24.272  23.967  1.00  0.00     0.093 C 
ATOM     18  C   UNL A   1      35.509  23.264  23.415  1.00  0.00     0.011 A 
ATOM     19  C   UNL A   1      36.954  21.594  24.457  1.00  0.00     0.002 A 
ATOM     20  S   UNL A   1      32.963  25.267  22.620  1.00  0.00    -0.053 SA
ATOM     21  C   UNL A   1      31.634  25.068  24.874  1.00  0.00     0.267 C 
ATOM     22  C   UNL A   1      36.763  22.741  23.703  1.00  0.00     0.001 A 
ATOM     23  C   UNL A   1      32.110  26.675  23.207  1.00  0.00     0.148 C 
ATOM     24  O   UNL A   1      31.190  24.684  25.944  1.00  0.00    -0.268 OA
ATOM     25  S   UNL A   1      32.077  28.103  22.343  1.00  0.00    -0.052 S 
BRANCH  10  26
ATOM     26  C   UNL A   1      33.253  19.589  25.592  1.00  0.00     0.126 C 
BRANCH  26  27
ATOM     27  C   UNL A   1      32.491  18.729  24.584  1.00  0.00     0.025 C 
BRANCH  27  28
ATOM     28  C   UNL A   1      33.251  17.508  24.017  1.00  0.00    -0.016 C 
ATOM     29  C   UNL A   1      33.185  17.397  22.492  1.00  0.00     0.007 C 
ATOM     30  C   UNL A   1      34.706  17.579  24.481  1.00  0.00     0.007 C 
ENDBRANCH  27  28
ENDBRANCH  26  27
ENDBRANCH  10  26
ENDBRANCH   8   9
ENDBRANCH   7   8
ENDBRANCH   4   7
ENDBRANCH   2   3
ENDBRANCH   1   2
BRANCH   1  31
ATOM     31  C   UNL A   1      34.914  31.881  28.815  1.00  0.00     0.002 C 
BRANCH  31  32
ATOM     32  C   UNL A   1      34.852  33.388  29.112  1.00  0.00     0.002 C 
BRANCH  32  33
ATOM     33  C   UNL A   1      33.582  34.117  28.642  1.00  0.00     0.021 C 
BRANCH  33  34
ATOM     34  C   UNL A   1      33.348  35.552  29.168  1.00  0.00     0.116 C 
BRANCH  34  35
ATOM     35  N   UNL A   1      32.537  35.605  30.387  1.00  0.00    -0.352 N 
ATOM     36  C   UNL A   1      32.714  35.379  31.736  1.00  0.00     0.251 C 
ATOM     37  H   UNL A   1      31.611  35.875  30.189  1.00  0.00     0.163 HD
ATOM     38  O   UNL A   1      31.713  35.511  32.446  1.00  0.00    -0.269 OA
BRANCH  36  39
ATOM     39  C   UNL A   1      33.968  34.912  32.401  1.00  0.00     0.039 A 
ATOM     40  C   UNL A   1      35.180  35.594  32.399  1.00  0.00     0.014 A 
ATOM     41  C   UNL A   1      33.897  33.724  33.149  1.00  0.00     0.014 A 
ATOM     42  C   UNL A   1      36.341  34.975  32.941  1.00  0.00     0.010 A 
ATOM     43  C   UNL A   1      35.037  33.160  33.763  1.00  0.00     0.010 A 
ATOM     44  C   UNL A   1      36.309  33.717  33.589  1.00  0.00    -0.014 A 
BRANCH  44  45
ATOM     45  C   UNL A   1      37.570  32.980  34.022  1.00  0.00     0.031 A 
ATOM     46  C   UNL A   1      38.105  31.746  33.282  1.00  0.00     0.074 A 
ATOM     47  C   UNL A   1      38.307  33.414  35.071  1.00  0.00     0.049 A 
ATOM     48  N   UNL A   1      39.247  31.110  33.449  1.00  0.00    -0.248 NA
ATOM     49  C   UNL A   1      37.293  31.169  32.199  1.00  0.00     0.031 C 
ATOM     50  C   UNL A   1      37.987  34.571  35.901  1.00  0.00     0.029 A 
ATOM     51  N   UNL A   1      39.477  32.929  35.627  1.00  0.00    -0.354 N 
ATOM     52  C   UNL A   1      39.306  30.120  32.467  1.00  0.00     0.074 A 
ATOM     53  C   UNL A   1      38.077  30.212  31.718  1.00  0.00     0.031 C 
ATOM     54  C   UNL A   1      38.936  34.724  36.834  1.00  0.00     0.029 A 
ATOM     55  C   UNL A   1      39.892  33.621  36.744  1.00  0.00     0.049 A 
ATOM     56  H   UNL A   1      39.967  32.158  35.259  1.00  0.00     0.167 HD
ATOM     57  C   UNL A   1      40.272  29.206  32.202  1.00  0.00     0.034 A 
ATOM     58  C   UNL A   1      40.882  33.393  37.638  1.00  0.00     0.034 A 
ATOM     59  C   UNL A   1      41.444  28.986  33.010  1.00  0.00     0.049 A 
ATOM     60  C   UNL A   1      41.828  32.234  37.452  1.00  0.00     0.074 A 
ATOM     61  C   UNL A   1      42.450  28.052  32.812  1.00  0.00     0.029 A 
ATOM     62  N   UNL A   1      41.742  29.643  34.190  1.00  0.00    -0.354 N 
ATOM     63  N   UNL A   1      41.911  31.393  36.451  1.00  0.00    -0.248 NA
ATOM     64  C   UNL A   1      42.817  31.987  38.516  1.00  0.00     0.031 C 
ATOM     65  C   UNL A   1      43.282  28.062  33.929  1.00  0.00     0.029 A 
ATOM     66  C   UNL A   1      42.873  29.083  34.768  1.00  0.00     0.049 A 
ATOM     67  H   UNL A   1      41.230  30.395  34.564  1.00  0.00     0.167 HD
ATOM     68  C   UNL A   1      42.975  30.541  36.749  1.00  0.00     0.074 A 
ATOM     69  C   UNL A   1      43.516  30.975  38.017  1.00  0.00     0.031 C 
ATOM     70  C   UNL A   1      43.449  29.498  36.024  1.00  0.00     0.034 A 
BRANCH  57  71
ATOM     71  C   UNL A   1      40.127  28.315  30.986  1.00  0.00     0.023 A 
ATOM     72  C   UNL A   1      40.846  28.599  29.808  1.00  0.00     0.031 A 
ATOM     73  C   UNL A   1      39.135  27.320  30.937  1.00  0.00     0.131 A 
ATOM     74  C   UNL A   1      40.527  27.931  28.618  1.00  0.00     0.055 A 
ATOM     75  C   UNL A   1      38.844  26.634  29.756  1.00  0.00     0.041 A 
ATOM     76  F   UNL A   1      38.419  27.020  32.034  1.00  0.00    -0.206 F 
ATOM     77  C   UNL A   1      39.531  26.949  28.586  1.00  0.00     0.022 A 
BRANCH  74  78
ATOM     78  S   UNL A   1      41.328  28.369  27.050  1.00  0.00     0.124 S 
ATOM     79  O   UNL A   1      42.439  29.203  27.508  1.00  0.00    -0.237 OA
ATOM     80  O   UNL A   1      41.705  27.062  26.522  1.00  0.00    -0.237 OA
ATOM     81  O   UNL A   1      40.288  29.076  26.311  1.00  0.00    -0.744 OA
ENDBRANCH  74  78
ENDBRANCH  57  71
BRANCH  58  82
ATOM     82  C   UNL A   1      41.003  34.303  38.821  1.00  0.00     0.023 A 
ATOM     83  C   UNL A   1      40.168  34.127  39.941  1.00  0.00     0.031 A 
ATOM     84  C   UNL A   1      41.867  35.410  38.811  1.00  0.00     0.131 A 
ATOM     85  C   UNL A   1      40.135  35.098  40.947  1.00  0.00     0.055 A 
ATOM     86  C   UNL A   1      41.897  36.327  39.864  1.00  0.00     0.041 A 
ATOM     87  F   UNL A   1      42.687  35.619  37.770  1.00  0.00    -0.206 F 
ATOM     88  C   UNL A   1      41.009  36.187  40.927  1.00  0.00     0.022 A 
BRANCH  85  89
ATOM     89  S   UNL A   1      38.841  35.063  42.219  1.00  0.00     0.124 S 
ATOM     90  O   UNL A   1      37.624  35.175  41.421  1.00  0.00    -0.237 OA
ATOM     91  O   UNL A   1      39.073  33.762  42.840  1.00  0.00    -0.237 OA
ATOM     92  O   UNL A   1      39.153  36.213  43.060  1.00  0.00    -0.744 OA
ENDBRANCH  85  89
ENDBRANCH  58  82
BRANCH  70  93
ATOM     93  C   UNL A   1      44.636  28.707  36.528  1.00  0.00     0.023 A 
ATOM     94  C   UNL A   1      44.437  27.662  37.453  1.00  0.00     0.031 A 
ATOM     95  C   UNL A   1      45.957  29.101  36.253  1.00  0.00     0.131 A 
ATOM     96  C   UNL A   1      45.531  27.097  38.120  1.00  0.00     0.055 A 
ATOM     97  C   UNL A   1      47.049  28.493  36.878  1.00  0.00     0.041 A 
ATOM     98  F   UNL A   1      46.206  30.098  35.389  1.00  0.00    -0.206 F 
ATOM     99  C   UNL A   1      46.838  27.501  37.831  1.00  0.00     0.022 A 
BRANCH  96 100
ATOM    100  S   UNL A   1      45.291  25.904  39.468  1.00  0.00     0.124 S 
ATOM    101  O   UNL A   1      44.242  26.547  40.257  1.00  0.00    -0.237 OA
ATOM    102  O   UNL A   1      44.881  24.704  38.745  1.00  0.00    -0.237 OA
ATOM    103  O   UNL A   1      46.598  25.834  40.112  1.00  0.00    -0.744 OA
ENDBRANCH  96 100
ENDBRANCH  70  93
ENDBRANCH  44  45
ENDBRANCH  36  39
ENDBRANCH  34  35
ENDBRANCH  33  34
ENDBRANCH  32  33
ENDBRANCH  31  32
ENDBRANCH   1  31
TORSDOF 21
ENDMDL
MODEL 2
REMARK VINA RESULT:     -10.6      3.108      8.087
REMARK SMILES CC(C)CCN1C(=O)/C(=C2/SC(=S)N(CCC(=O)NCCCCCCNC(=O)c3ccc(-c4c5nc(c(-c6cc(S(=O)(=O)[O-])ccc6F)c6ccc([nH]6)c(-c6cc(S(=O)(=O)[O-])ccc6F)c6nc(c(-c7cc(S(=O)(=O)[O-])ccc7F)c7ccc4[nH]7)C=C6)C=C5)cc3)C2=O)c2ccccc21
REMARK SMILES IDX 21 1 20 2 19 3 17 4 18 5 16 7 15 8 14 9 6 10 7 11 99 12 8 13
REMARK SMILES IDX 9 14 94 15 98 16 10 17 95 18 97 19 11 20 92 21 96 22 12 23
REMARK SMILES IDX 93 24 13 25 5 26 4 27 2 28 1 29 3 30 22 31 23 32 24 33 25 34
REMARK SMILES IDX 26 35 27 36 28 38 29 39 30 40 91 41 31 42 90 43 32 44 33 45
REMARK SMILES IDX 34 46 84 47 35 48 89 49 83 50 85 51 36 52 88 53 82 54 81 55
REMARK SMILES IDX 37 57 69 58 49 59 68 60 50 61 53 62 67 63 86 64 51 65 52 66
REMARK SMILES IDX 66 68 87 69 54 70 38 71 39 72 47 73 40 74 46 75 48 76 45 77
REMARK SMILES IDX 41 78 42 79 43 80 44 81 70 82 71 83 79 84 72 85 78 86 80 87
REMARK SMILES IDX 77 88 73 89 74 90 75 91 76 92 55 93 56 94 64 95 57 96 63 97
REMARK SMILES IDX 65 98 62 99 58 100 59 101 60 102 61 103
REMARK H PARENT 19 6 26 37 85 56 53 67
REMARK Flexibility Score: inf
ROOT
ATOM      1  C   UNL A   1      31.831  30.513  26.813  1.00  0.00     0.021 C 
ENDROOT
BRANCH   1   2
ATOM      2  C   UNL A   1      32.258  29.924  25.466  1.00  0.00     0.116 C 
BRANCH   2   3
ATOM      3  N   UNL A   1      31.193  30.077  24.488  1.00  0.00    -0.356 N 
ATOM      4  C   UNL A   1      30.414  29.138  23.880  1.00  0.00     0.221 C 
ATOM      5  O   UNL A   1      29.730  29.485  22.914  1.00  0.00    -0.275 OA
ATOM      6  H   UNL A   1      31.005  31.006  24.223  1.00  0.00     0.163 HD
BRANCH   4   7
ATOM      7  C   UNL A   1      30.342  27.720  24.408  1.00  0.00     0.122 C 
BRANCH   7   8
ATOM      8  C   UNL A   1      31.652  27.203  25.014  1.00  0.00     0.137 C 
BRANCH   8   9
ATOM      9  N   UNL A   1      32.310  26.142  24.237  1.00  0.00    -0.292 N 
ATOM     10  N   UNL A   1      33.335  20.524  25.083  1.00  0.00    -0.308 N 
ATOM     11  C   UNL A   1      32.510  21.639  24.894  1.00  0.00     0.260 C 
ATOM     12  C   UNL A   1      34.658  20.829  24.773  1.00  0.00     0.052 A 
ATOM     13  O   UNL A   1      31.314  21.734  25.079  1.00  0.00    -0.269 OA
ATOM     14  C   UNL A   1      33.391  22.663  24.198  1.00  0.00     0.069 C 
ATOM     15  C   UNL A   1      34.727  22.053  24.103  1.00  0.00     0.012 A 
ATOM     16  C   UNL A   1      35.773  20.114  25.168  1.00  0.00     0.027 A 
ATOM     17  C   UNL A   1      33.061  23.919  23.854  1.00  0.00     0.093 C 
ATOM     18  C   UNL A   1      35.953  22.543  23.732  1.00  0.00     0.011 A 
ATOM     19  C   UNL A   1      36.998  20.688  24.929  1.00  0.00     0.002 A 
ATOM     20  S   UNL A   1      33.831  24.865  22.623  1.00  0.00    -0.053 SA
ATOM     21  C   UNL A   1      32.153  24.811  24.640  1.00  0.00     0.267 C 
ATOM     22  C   UNL A   1      37.071  21.860  24.191  1.00  0.00     0.001 A 
ATOM     23  C   UNL A   1      33.079  26.364  23.118  1.00  0.00     0.148 C 
ATOM     24  O   UNL A   1      31.504  24.473  25.617  1.00  0.00    -0.268 OA
ATOM     25  S   UNL A   1      33.359  27.795  22.306  1.00  0.00    -0.052 S 
BRANCH  10  26
ATOM     26  C   UNL A   1      32.944  19.161  25.419  1.00  0.00     0.126 C 
BRANCH  26  27
ATOM     27  C   UNL A   1      32.513  18.325  24.214  1.00  0.00     0.025 C 
BRANCH  27  28
ATOM     28  C   UNL A   1      33.114  16.905  24.118  1.00  0.00    -0.016 C 
ATOM     29  C   UNL A   1      34.332  16.814  23.197  1.00  0.00     0.007 C 
ATOM     30  C   UNL A   1      33.476  16.431  25.526  1.00  0.00     0.007 C 
ENDBRANCH  27  28
ENDBRANCH  26  27
ENDBRANCH  10  26
ENDBRANCH   8   9
ENDBRANCH   7   8
ENDBRANCH   4   7
ENDBRANCH   2   3
ENDBRANCH   1   2
BRANCH   1  31
ATOM     31  C   UNL A   1      32.319  31.937  27.120  1.00  0.00     0.002 C 
BRANCH  31  32
ATOM     32  C   UNL A   1      33.594  32.046  27.972  1.00  0.00     0.002 C 
BRANCH  32  33
ATOM     33  C   UNL A   1      34.174  33.459  28.141  1.00  0.00     0.021 C 
BRANCH  33  34
ATOM     34  C   UNL A   1      33.202  34.585  28.565  1.00  0.00     0.116 C 
BRANCH  34  35
ATOM     35  N   UNL A   1      33.145  34.794  30.014  1.00  0.00    -0.352 N 
ATOM     36  C   UNL A   1      33.858  34.400  31.127  1.00  0.00     0.251 C 
ATOM     37  H   UNL A   1      32.389  35.375  30.261  1.00  0.00     0.163 HD
ATOM     38  O   UNL A   1      33.429  34.794  32.215  1.00  0.00    -0.269 OA
BRANCH  36  39
ATOM     39  C   UNL A   1      35.037  33.483  31.148  1.00  0.00     0.039 A 
ATOM     40  C   UNL A   1      35.044  32.195  31.673  1.00  0.00     0.014 A 
ATOM     41  C   UNL A   1      36.213  33.930  30.521  1.00  0.00     0.014 A 
ATOM     42  C   UNL A   1      36.267  31.475  31.768  1.00  0.00     0.010 A 
ATOM     43  C   UNL A   1      37.403  33.170  30.539  1.00  0.00     0.010 A 
ATOM     44  C   UNL A   1      37.490  31.968  31.252  1.00  0.00    -0.014 A 
BRANCH  44  45
ATOM     45  C   UNL A   1      38.826  31.280  31.497  1.00  0.00     0.031 A 
ATOM     46  C   UNL A   1      39.777  31.690  32.629  1.00  0.00     0.074 A 
ATOM     47  C   UNL A   1      39.219  30.230  30.738  1.00  0.00     0.049 A 
ATOM     48  N   UNL A   1      40.875  31.094  33.047  1.00  0.00    -0.248 NA
ATOM     49  C   UNL A   1      39.450  32.886  33.421  1.00  0.00     0.031 C 
ATOM     50  C   UNL A   1      38.464  29.671  29.621  1.00  0.00     0.029 A 
ATOM     51  N   UNL A   1      40.360  29.448  30.783  1.00  0.00    -0.354 N 
ATOM     52  C   UNL A   1      41.319  31.801  34.166  1.00  0.00     0.074 A 
ATOM     53  C   UNL A   1      40.393  32.890  34.356  1.00  0.00     0.031 C 
ATOM     54  C   UNL A   1      39.135  28.632  29.107  1.00  0.00     0.029 A 
ATOM     55  C   UNL A   1      40.424  28.500  29.785  1.00  0.00     0.049 A 
ATOM     56  H   UNL A   1      41.061  29.560  31.464  1.00  0.00     0.167 HD
ATOM     57  C   UNL A   1      42.394  31.590  34.965  1.00  0.00     0.034 A 
ATOM     58  C   UNL A   1      41.404  27.649  29.402  1.00  0.00     0.034 A 
ATOM     59  C   UNL A   1      43.419  30.606  34.727  1.00  0.00     0.049 A 
ATOM     60  C   UNL A   1      42.698  27.574  30.176  1.00  0.00     0.074 A 
ATOM     61  C   UNL A   1      44.554  30.360  35.486  1.00  0.00     0.029 A 
ATOM     62  N   UNL A   1      43.482  29.758  33.636  1.00  0.00    -0.354 N 
ATOM     63  N   UNL A   1      43.025  28.182  31.289  1.00  0.00    -0.248 NA
ATOM     64  C   UNL A   1      43.757  26.701  29.644  1.00  0.00     0.031 C 
ATOM     65  C   UNL A   1      45.357  29.458  34.792  1.00  0.00     0.029 A 
ATOM     66  C   UNL A   1      44.672  29.045  33.663  1.00  0.00     0.049 A 
ATOM     67  H   UNL A   1      42.788  29.673  32.945  1.00  0.00     0.167 HD
ATOM     68  C   UNL A   1      44.311  27.743  31.605  1.00  0.00     0.074 A 
ATOM     69  C   UNL A   1      44.698  26.806  30.574  1.00  0.00     0.031 C 
ATOM     70  C   UNL A   1      45.087  28.094  32.661  1.00  0.00     0.034 A 
BRANCH  57  71
ATOM     71  C   UNL A   1      42.575  32.453  36.196  1.00  0.00     0.023 A 
ATOM     72  C   UNL A   1      41.873  32.155  37.381  1.00  0.00     0.031 A 
ATOM     73  C   UNL A   1      43.278  33.668  36.126  1.00  0.00     0.131 A 
ATOM     74  C   UNL A   1      41.847  33.086  38.429  1.00  0.00     0.055 A 
ATOM     75  C   UNL A   1      43.277  34.577  37.187  1.00  0.00     0.041 A 
ATOM     76  F   UNL A   1      43.958  33.997  35.014  1.00  0.00    -0.206 F 
ATOM     77  C   UNL A   1      42.547  34.294  38.338  1.00  0.00     0.022 A 
BRANCH  74  78
ATOM     78  S   UNL A   1      40.838  32.805  39.911  1.00  0.00     0.124 S 
ATOM     79  O   UNL A   1      41.635  31.812  40.628  1.00  0.00    -0.237 OA
ATOM     80  O   UNL A   1      40.804  34.133  40.515  1.00  0.00    -0.237 OA
ATOM     81  O   UNL A   1      39.569  32.316  39.382  1.00  0.00    -0.744 OA
ENDBRANCH  74  78
ENDBRANCH  57  71
BRANCH  58  82
ATOM     82  C   UNL A   1      41.185  26.801  28.188  1.00  0.00     0.023 A 
ATOM     83  C   UNL A   1      40.983  25.414  28.317  1.00  0.00     0.031 A 
ATOM     84  C   UNL A   1      41.277  27.336  26.893  1.00  0.00     0.131 A 
ATOM     85  C   UNL A   1      40.992  24.598  27.181  1.00  0.00     0.055 A 
ATOM     86  C   UNL A   1      41.190  26.527  25.757  1.00  0.00     0.041 A 
ATOM     87  F   UNL A   1      41.463  28.652  26.715  1.00  0.00    -0.206 F 
ATOM     88  C   UNL A   1      41.073  25.147  25.899  1.00  0.00     0.022 A 
BRANCH  85  89
ATOM     89  S   UNL A   1      41.068  22.792  27.344  1.00  0.00     0.124 S 
ATOM     90  O   UNL A   1      41.395  22.626  28.757  1.00  0.00    -0.237 OA
ATOM     91  O   UNL A   1      39.715  22.403  26.958  1.00  0.00    -0.237 OA
ATOM     92  O   UNL A   1      42.114  22.404  26.404  1.00  0.00    -0.744 OA
ENDBRANCH  85  89
ENDBRANCH  58  82
BRANCH  70  93
ATOM     93  C   UNL A   1      46.459  27.479  32.824  1.00  0.00     0.023 A 
ATOM     94  C   UNL A   1      47.541  27.975  32.068  1.00  0.00     0.031 A 
ATOM     95  C   UNL A   1      46.658  26.301  33.565  1.00  0.00     0.131 A 
ATOM     96  C   UNL A   1      48.745  27.261  32.014  1.00  0.00     0.055 A 
ATOM     97  C   UNL A   1      47.880  25.624  33.554  1.00  0.00     0.041 A 
ATOM     98  F   UNL A   1      45.660  25.777  34.293  1.00  0.00    -0.206 F 
ATOM     99  C   UNL A   1      48.924  26.092  32.760  1.00  0.00     0.022 A 
BRANCH  96 100
ATOM    100  S   UNL A   1      50.077  27.758  30.885  1.00  0.00     0.124 S 
ATOM    101  O   UNL A   1      51.206  27.913  31.798  1.00  0.00    -0.237 OA
ATOM    102  O   UNL A   1      50.157  26.613  29.982  1.00  0.00    -0.237 OA
ATOM    103  O   UNL A   1      49.588  28.996  30.287  1.00  0.00    -0.744 OA
ENDBRANCH  96 100
ENDBRANCH  70  93
ENDBRANCH  44  45
ENDBRANCH  36  39
ENDBRANCH  34  35
ENDBRANCH  33  34
ENDBRANCH  32  33
ENDBRANCH  31  32
ENDBRANCH   1  31
TORSDOF 21
ENDMDL
MODEL 3
REMARK VINA RESULT:     -10.5      1.707      7.557
REMARK SMILES CC(C)CCN1C(=O)/C(=C2/SC(=S)N(CCC(=O)NCCCCCCNC(=O)c3ccc(-c4c5nc(c(-c6cc(S(=O)(=O)[O-])ccc6F)c6ccc([nH]6)c(-c6cc(S(=O)(=O)[O-])ccc6F)c6nc(c(-c7cc(S(=O)(=O)[O-])ccc7F)c7ccc4[nH]7)C=C6)C=C5)cc3)C2=O)c2ccccc21
REMARK SMILES IDX 21 1 20 2 19 3 17 4 18 5 16 7 15 8 14 9 6 10 7 11 99 12 8 13
REMARK SMILES IDX 9 14 94 15 98 16 10 17 95 18 97 19 11 20 92 21 96 22 12 23
REMARK SMILES IDX 93 24 13 25 5 26 4 27 2 28 1 29 3 30 22 31 23 32 24 33 25 34
REMARK SMILES IDX 26 35 27 36 28 38 29 39 30 40 91 41 31 42 90 43 32 44 33 45
REMARK SMILES IDX 34 46 84 47 35 48 89 49 83 50 85 51 36 52 88 53 82 54 81 55
REMARK SMILES IDX 37 57 69 58 49 59 68 60 50 61 53 62 67 63 86 64 51 65 52 66
REMARK SMILES IDX 66 68 87 69 54 70 38 71 39 72 47 73 40 74 46 75 48 76 45 77
REMARK SMILES IDX 41 78 42 79 43 80 44 81 70 82 71 83 79 84 72 85 78 86 80 87
REMARK SMILES IDX 77 88 73 89 74 90 75 91 76 92 55 93 56 94 64 95 57 96 63 97
REMARK SMILES IDX 65 98 62 99 58 100 59 101 60 102 61 103
REMARK H PARENT 19 6 26 37 85 56 53 67
REMARK Flexibility Score: inf
ROOT
ATOM      1  C   UNL A   1      31.778  30.715  26.884  1.00  0.00     0.021 C 
ENDROOT
BRANCH   1   2
ATOM      2  C   UNL A   1      32.271  30.124  25.561  1.00  0.00     0.116 C 
BRANCH   2   3
ATOM      3  N   UNL A   1      31.200  30.124  24.578  1.00  0.00    -0.356 N 
ATOM      4  C   UNL A   1      30.477  29.089  24.063  1.00  0.00     0.221 C 
ATOM      5  O   UNL A   1      29.774  29.306  23.073  1.00  0.00    -0.275 OA
ATOM      6  H   UNL A   1      30.958  31.012  24.230  1.00  0.00     0.163 HD
BRANCH   4   7
ATOM      7  C   UNL A   1      30.487  27.724  24.720  1.00  0.00     0.122 C 
BRANCH   7   8
ATOM      8  C   UNL A   1      31.867  27.267  25.207  1.00  0.00     0.137 C 
BRANCH   8   9
ATOM      9  N   UNL A   1      32.484  26.207  24.396  1.00  0.00    -0.292 N 
ATOM     10  N   UNL A   1      33.384  20.548  25.105  1.00  0.00    -0.308 N 
ATOM     11  C   UNL A   1      32.584  21.687  24.955  1.00  0.00     0.260 C 
ATOM     12  C   UNL A   1      34.708  20.827  24.775  1.00  0.00     0.052 A 
ATOM     13  O   UNL A   1      31.395  21.808  25.166  1.00  0.00    -0.269 OA
ATOM     14  C   UNL A   1      33.476  22.704  24.263  1.00  0.00     0.069 C 
ATOM     15  C   UNL A   1      34.794  22.063  24.129  1.00  0.00     0.012 A 
ATOM     16  C   UNL A   1      35.813  20.077  25.133  1.00  0.00     0.027 A 
ATOM     17  C   UNL A   1      33.171  23.974  23.951  1.00  0.00     0.093 C 
ATOM     18  C   UNL A   1      36.025  22.531  23.744  1.00  0.00     0.011 A 
ATOM     19  C   UNL A   1      37.046  20.626  24.881  1.00  0.00     0.002 A 
ATOM     20  S   UNL A   1      33.941  24.928  22.725  1.00  0.00    -0.053 SA
ATOM     21  C   UNL A   1      32.301  24.872  24.774  1.00  0.00     0.267 C 
ATOM     22  C   UNL A   1      37.134  21.811  24.166  1.00  0.00     0.001 A 
ATOM     23  C   UNL A   1      33.236  26.434  23.266  1.00  0.00     0.148 C 
ATOM     24  O   UNL A   1      31.663  24.529  25.756  1.00  0.00    -0.268 OA
ATOM     25  S   UNL A   1      33.536  27.874  22.478  1.00  0.00    -0.052 S 
BRANCH  10  26
ATOM     26  C   UNL A   1      32.966  19.189  25.420  1.00  0.00     0.126 C 
BRANCH  26  27
ATOM     27  C   UNL A   1      32.532  18.376  24.201  1.00  0.00     0.025 C 
BRANCH  27  28
ATOM     28  C   UNL A   1      33.019  16.910  24.148  1.00  0.00    -0.016 C 
ATOM     29  C   UNL A   1      34.322  16.723  23.369  1.00  0.00     0.007 C 
ATOM     30  C   UNL A   1      33.177  16.396  25.579  1.00  0.00     0.007 C 
ENDBRANCH  27  28
ENDBRANCH  26  27
ENDBRANCH  10  26
ENDBRANCH   8   9
ENDBRANCH   7   8
ENDBRANCH   4   7
ENDBRANCH   2   3
ENDBRANCH   1   2
BRANCH   1  31
ATOM     31  C   UNL A   1      32.179  32.170  27.172  1.00  0.00     0.002 C 
BRANCH  31  32
ATOM     32  C   UNL A   1      33.454  32.368  28.007  1.00  0.00     0.002 C 
BRANCH  32  33
ATOM     33  C   UNL A   1      34.003  33.803  28.071  1.00  0.00     0.021 C 
BRANCH  33  34
ATOM     34  C   UNL A   1      32.984  34.949  28.269  1.00  0.00     0.116 C 
BRANCH  34  35
ATOM     35  N   UNL A   1      32.882  35.410  29.655  1.00  0.00    -0.352 N 
ATOM     36  C   UNL A   1      33.519  35.171  30.855  1.00  0.00     0.251 C 
ATOM     37  H   UNL A   1      32.160  36.072  29.759  1.00  0.00     0.163 HD
ATOM     38  O   UNL A   1      33.075  35.774  31.836  1.00  0.00    -0.269 OA
BRANCH  36  39
ATOM     39  C   UNL A   1      34.627  34.199  31.094  1.00  0.00     0.039 A 
ATOM     40  C   UNL A   1      34.491  32.965  31.723  1.00  0.00     0.014 A 
ATOM     41  C   UNL A   1      35.894  34.524  30.579  1.00  0.00     0.014 A 
ATOM     42  C   UNL A   1      35.648  32.193  32.024  1.00  0.00     0.010 A 
ATOM     43  C   UNL A   1      37.023  33.707  30.804  1.00  0.00     0.010 A 
ATOM     44  C   UNL A   1      36.951  32.572  31.620  1.00  0.00    -0.014 A 
BRANCH  44  45
ATOM     45  C   UNL A   1      38.203  31.838  32.080  1.00  0.00     0.031 A 
ATOM     46  C   UNL A   1      38.956  32.206  33.367  1.00  0.00     0.074 A 
ATOM     47  C   UNL A   1      38.691  30.785  31.384  1.00  0.00     0.049 A 
ATOM     48  N   UNL A   1      39.947  31.571  33.958  1.00  0.00    -0.248 NA
ATOM     49  C   UNL A   1      38.532  33.404  34.109  1.00  0.00     0.031 C 
ATOM     50  C   UNL A   1      38.124  30.262  30.145  1.00  0.00     0.029 A 
ATOM     51  N   UNL A   1      39.782  29.966  31.613  1.00  0.00    -0.354 N 
ATOM     52  C   UNL A   1      40.211  32.251  35.148  1.00  0.00     0.074 A 
ATOM     53  C   UNL A   1      39.299  33.367  35.193  1.00  0.00     0.031 C 
ATOM     54  C   UNL A   1      38.843  29.208  29.738  1.00  0.00     0.029 A 
ATOM     55  C   UNL A   1      39.991  29.027  30.626  1.00  0.00     0.049 A 
ATOM     56  H   UNL A   1      40.359  30.049  32.407  1.00  0.00     0.167 HD
ATOM     57  C   UNL A   1      41.125  31.998  36.117  1.00  0.00     0.034 A 
ATOM     58  C   UNL A   1      40.997  28.149  30.405  1.00  0.00     0.034 A 
ATOM     59  C   UNL A   1      42.146  30.984  36.044  1.00  0.00     0.049 A 
ATOM     60  C   UNL A   1      42.134  28.026  31.388  1.00  0.00     0.074 A 
ATOM     61  C   UNL A   1      43.124  30.694  36.983  1.00  0.00     0.029 A 
ATOM     62  N   UNL A   1      42.372  30.146  34.967  1.00  0.00    -0.354 N 
ATOM     63  N   UNL A   1      42.281  28.611  32.551  1.00  0.00    -0.248 NA
ATOM     64  C   UNL A   1      43.243  27.124  31.034  1.00  0.00     0.031 C 
ATOM     65  C   UNL A   1      44.008  29.774  36.424  1.00  0.00     0.029 A 
ATOM     66  C   UNL A   1      43.518  29.395  35.187  1.00  0.00     0.049 A 
ATOM     67  H   UNL A   1      41.805  30.090  34.165  1.00  0.00     0.167 HD
ATOM     68  C   UNL A   1      43.480  28.128  33.077  1.00  0.00     0.074 A 
ATOM     69  C   UNL A   1      44.012  27.190  32.114  1.00  0.00     0.031 C 
ATOM     70  C   UNL A   1      44.071  28.442  34.257  1.00  0.00     0.034 A 
BRANCH  57  71
ATOM     71  C   UNL A   1      41.115  32.841  37.375  1.00  0.00     0.023 A 
ATOM     72  C   UNL A   1      40.161  32.601  38.383  1.00  0.00     0.031 A 
ATOM     73  C   UNL A   1      41.914  33.994  37.474  1.00  0.00     0.131 A 
ATOM     74  C   UNL A   1      39.994  33.530  39.420  1.00  0.00     0.055 A 
ATOM     75  C   UNL A   1      41.766  34.899  38.528  1.00  0.00     0.041 A 
ATOM     76  F   UNL A   1      42.833  34.267  36.532  1.00  0.00    -0.206 F 
ATOM     77  C   UNL A   1      40.792  34.675  39.498  1.00  0.00     0.022 A 
BRANCH  74  78
ATOM     78  S   UNL A   1      38.680  33.331  40.656  1.00  0.00     0.124 S 
ATOM     79  O   UNL A   1      39.222  32.266  41.497  1.00  0.00    -0.237 OA
ATOM     80  O   UNL A   1      38.637  34.653  41.273  1.00  0.00    -0.237 OA
ATOM     81  O   UNL A   1      37.510  32.961  39.866  1.00  0.00    -0.744 OA
ENDBRANCH  74  78
ENDBRANCH  57  71
BRANCH  58  82
ATOM     82  C   UNL A   1      40.966  27.322  29.158  1.00  0.00     0.023 A 
ATOM     83  C   UNL A   1      41.886  27.567  28.120  1.00  0.00     0.031 A 
ATOM     84  C   UNL A   1      39.967  26.359  28.939  1.00  0.00     0.131 A 
ATOM     85  C   UNL A   1      41.721  26.942  26.879  1.00  0.00     0.055 A 
ATOM     86  C   UNL A   1      39.866  25.669  27.729  1.00  0.00     0.041 A 
ATOM     87  F   UNL A   1      39.070  26.084  29.898  1.00  0.00    -0.206 F 
ATOM     88  C   UNL A   1      40.730  25.979  26.682  1.00  0.00     0.022 A 
BRANCH  85  89
ATOM     89  S   UNL A   1      42.683  27.487  25.439  1.00  0.00     0.124 S 
ATOM     90  O   UNL A   1      42.672  26.296  24.596  1.00  0.00    -0.237 OA
ATOM     91  O   UNL A   1      41.883  28.611  24.958  1.00  0.00    -0.237 OA
ATOM     92  O   UNL A   1      43.978  27.849  26.006  1.00  0.00    -0.744 OA
ENDBRANCH  85  89
ENDBRANCH  58  82
BRANCH  70  93
ATOM     93  C   UNL A   1      45.375  27.782  34.645  1.00  0.00     0.023 A 
ATOM     94  C   UNL A   1      45.357  26.585  35.391  1.00  0.00     0.031 A 
ATOM     95  C   UNL A   1      46.613  28.420  34.454  1.00  0.00     0.131 A 
ATOM     96  C   UNL A   1      46.536  26.104  35.975  1.00  0.00     0.055 A 
ATOM     97  C   UNL A   1      47.796  27.904  34.988  1.00  0.00     0.041 A 
ATOM     98  F   UNL A   1      46.688  29.568  33.762  1.00  0.00    -0.206 F 
ATOM     99  C   UNL A   1      47.758  26.752  35.770  1.00  0.00     0.022 A 
BRANCH  96 100
ATOM    100  S   UNL A   1      46.506  24.690  37.113  1.00  0.00     0.124 S 
ATOM    101  O   UNL A   1      45.384  25.028  37.986  1.00  0.00    -0.237 OA
ATOM    102  O   UNL A   1      46.275  23.570  36.206  1.00  0.00    -0.237 OA
ATOM    103  O   UNL A   1      47.819  24.723  37.749  1.00  0.00    -0.744 OA
ENDBRANCH  96 100
ENDBRANCH  70  93
ENDBRANCH  44  45
ENDBRANCH  36  39
ENDBRANCH  34  35
ENDBRANCH  33  34
ENDBRANCH  32  33
ENDBRANCH  31  32
ENDBRANCH   1  31
TORSDOF 21
ENDMDL
