MODEL 1
REMARK VINA RESULT:     -11.8      0.000      0.000
REMARK SMILES C[C@@H](C(=O)NCCCCCCNC(=O)c1ccc(-c2c3nc(c(-c4cc(S(=O)(=O)[O-])ccc4F)c4ccc([nH]4)c(-c4cc(S(=O)(=O)[O-])ccc4F)c4nc(c(-c5cc(S(=O)(=O)[O-])ccc5F)c5ccc2[nH]5)C=C4)C=C3)cc1)c1ccc(C[C@H]2CCC[C@@H]2O)cc1F
REMARK SMILES IDX 8 1 7 2 6 3 5 4 3 5 4 6 2 8 1 9 78 10 79 11 90 12 80 13
REMARK SMILES IDX 89 14 91 15 81 16 82 17 83 18 84 19 87 20 85 21 86 22 88 23
REMARK SMILES IDX 9 25 10 26 11 27 12 28 13 29 14 31 15 32 16 33 77 34 17 35
REMARK SMILES IDX 76 36 18 37 19 38 20 39 70 40 21 41 75 42 69 43 71 44 22 45
REMARK SMILES IDX 74 46 68 47 67 48 23 50 55 51 35 52 54 53 36 54 39 55 53 56
REMARK SMILES IDX 72 57 37 58 38 59 52 61 73 62 40 63 24 64 25 65 33 66 26 67
REMARK SMILES IDX 32 68 34 69 31 70 27 71 28 72 29 73 30 74 56 75 57 76 65 77
REMARK SMILES IDX 58 78 64 79 66 80 63 81 59 82 60 83 61 84 62 85 41 86 42 87
REMARK SMILES IDX 50 88 43 89 49 90 51 91 48 92 44 93 45 94 46 95 47 96
REMARK H PARENT 5 7 88 24 12 30 71 49 39 60
REMARK Flexibility Score: inf
ROOT
ATOM      1  C   UNL A   1      33.419  26.957  25.596  1.00  0.00     0.002 C 
ENDROOT
BRANCH   1   2
ATOM      2  C   UNL A   1      34.501  25.892  25.361  1.00  0.00     0.021 C 
BRANCH   2   3
ATOM      3  C   UNL A   1      33.940  24.480  25.176  1.00  0.00     0.116 C 
BRANCH   3   4
ATOM      4  N   UNL A   1      33.129  24.116  26.319  1.00  0.00    -0.356 N 
ATOM      5  C   UNL A   1      31.816  23.756  26.374  1.00  0.00     0.227 C 
ATOM      6  O   UNL A   1      31.306  23.685  27.495  1.00  0.00    -0.274 OA
ATOM      7  H   UNL A   1      33.596  24.131  27.185  1.00  0.00     0.163 HD
BRANCH   5   8
ATOM      8  C   UNL A   1      31.050  23.424  25.078  1.00  0.00     0.108 C 
ATOM      9  C   UNL A   1      31.822  22.455  24.173  1.00  0.00     0.023 C 
BRANCH   8  10
ATOM     10  C   UNL A   1      30.690  24.705  24.336  1.00  0.00    -0.000 A 
ATOM     11  C   UNL A   1      31.272  25.036  23.106  1.00  0.00     0.008 A 
ATOM     12  C   UNL A   1      29.820  25.631  24.922  1.00  0.00     0.127 A 
ATOM     13  C   UNL A   1      30.991  26.253  22.489  1.00  0.00     0.004 A 
ATOM     14  C   UNL A   1      29.567  26.867  24.328  1.00  0.00     0.043 A 
ATOM     15  F   UNL A   1      29.235  25.348  26.096  1.00  0.00    -0.207 F 
ATOM     16  C   UNL A   1      30.184  27.205  23.118  1.00  0.00    -0.045 A 
BRANCH  16  17
ATOM     17  C   UNL A   1      30.038  28.585  22.526  1.00  0.00     0.041 C 
BRANCH  17  18
ATOM     18  C   UNL A   1      29.119  29.549  23.302  1.00  0.00     0.022 C 
ATOM     19  C   UNL A   1      29.705  30.937  23.605  1.00  0.00     0.007 C 
ATOM     20  C   UNL A   1      27.758  29.845  22.664  1.00  0.00     0.117 C 
ATOM     21  C   UNL A   1      28.537  31.925  23.505  1.00  0.00     0.003 C 
ATOM     22  C   UNL A   1      27.283  31.069  23.431  1.00  0.00     0.032 C 
BRANCH  20  23
ATOM     23  O   UNL A   1      26.870  28.754  22.814  1.00  0.00    -0.393 OA
ATOM     24  H   UNL A   1      27.379  27.941  22.956  1.00  0.00     0.210 HD
ENDBRANCH  20  23
ENDBRANCH  17  18
ENDBRANCH  16  17
ENDBRANCH   8  10
ENDBRANCH   5   8
ENDBRANCH   3   4
ENDBRANCH   2   3
ENDBRANCH   1   2
BRANCH   1  25
ATOM     25  C   UNL A   1      33.636  28.268  24.833  1.00  0.00     0.002 C 
BRANCH  25  26
ATOM     26  C   UNL A   1      32.516  29.297  25.005  1.00  0.00     0.021 C 
BRANCH  26  27
ATOM     27  C   UNL A   1      32.307  29.759  26.442  1.00  0.00     0.116 C 
BRANCH  27  28
ATOM     28  N   UNL A   1      32.270  31.210  26.540  1.00  0.00    -0.352 N 
ATOM     29  C   UNL A   1      33.088  32.049  27.255  1.00  0.00     0.251 C 
ATOM     30  H   UNL A   1      31.559  31.651  26.022  1.00  0.00     0.163 HD
ATOM     31  O   UNL A   1      32.769  33.226  27.415  1.00  0.00    -0.269 OA
BRANCH  29  32
ATOM     32  C   UNL A   1      34.337  31.524  27.844  1.00  0.00     0.039 A 
ATOM     33  C   UNL A   1      35.389  32.404  28.105  1.00  0.00     0.014 A 
ATOM     34  C   UNL A   1      34.463  30.164  28.149  1.00  0.00     0.014 A 
ATOM     35  C   UNL A   1      36.542  31.932  28.735  1.00  0.00     0.010 A 
ATOM     36  C   UNL A   1      35.581  29.712  28.844  1.00  0.00     0.010 A 
ATOM     37  C   UNL A   1      36.632  30.591  29.145  1.00  0.00    -0.014 A 
BRANCH  37  38
ATOM     38  C   UNL A   1      37.812  30.091  29.900  1.00  0.00     0.031 A 
ATOM     39  C   UNL A   1      38.022  30.506  31.331  1.00  0.00     0.074 A 
ATOM     40  C   UNL A   1      38.725  29.321  29.276  1.00  0.00     0.049 A 
ATOM     41  N   UNL A   1      39.028  30.249  32.127  1.00  0.00    -0.248 NA
ATOM     42  C   UNL A   1      36.975  31.342  31.937  1.00  0.00     0.031 C 
ATOM     43  C   UNL A   1      38.646  28.881  27.881  1.00  0.00     0.029 A 
ATOM     44  N   UNL A   1      39.904  28.779  29.725  1.00  0.00    -0.354 N 
ATOM     45  C   UNL A   1      38.742  30.901  33.323  1.00  0.00     0.074 A 
ATOM     46  C   UNL A   1      37.498  31.612  33.123  1.00  0.00     0.031 C 
ATOM     47  C   UNL A   1      39.714  28.120  27.598  1.00  0.00     0.029 A 
ATOM     48  C   UNL A   1      40.586  28.062  28.767  1.00  0.00     0.049 A 
ATOM     49  H   UNL A   1      40.231  28.892  30.647  1.00  0.00     0.167 HD
ATOM     50  C   UNL A   1      39.443  30.888  34.483  1.00  0.00     0.034 A 
ATOM     51  C   UNL A   1      41.784  27.447  28.818  1.00  0.00     0.034 A 
ATOM     52  C   UNL A   1      40.679  30.166  34.664  1.00  0.00     0.049 A 
ATOM     53  C   UNL A   1      42.568  27.488  30.106  1.00  0.00     0.074 A 
ATOM     54  C   UNL A   1      41.439  30.037  35.814  1.00  0.00     0.029 A 
ATOM     55  N   UNL A   1      41.345  29.462  33.667  1.00  0.00    -0.354 N 
ATOM     56  N   UNL A   1      42.256  28.062  31.245  1.00  0.00    -0.248 NA
ATOM     57  C   UNL A   1      43.861  26.792  30.119  1.00  0.00     0.031 C 
ATOM     58  C   UNL A   1      42.602  29.330  35.493  1.00  0.00     0.029 A 
ATOM     59  C   UNL A   1      42.528  28.937  34.166  1.00  0.00     0.049 A 
ATOM     60  H   UNL A   1      41.025  29.353  32.744  1.00  0.00     0.167 HD
ATOM     61  C   UNL A   1      43.300  27.768  32.118  1.00  0.00     0.074 A 
ATOM     62  C   UNL A   1      44.241  26.953  31.378  1.00  0.00     0.031 C 
ATOM     63  C   UNL A   1      43.465  28.133  33.415  1.00  0.00     0.034 A 
BRANCH  50  64
ATOM     64  C   UNL A   1      38.904  31.705  35.634  1.00  0.00     0.023 A 
ATOM     65  C   UNL A   1      38.299  31.104  36.751  1.00  0.00     0.031 A 
ATOM     66  C   UNL A   1      38.986  33.110  35.609  1.00  0.00     0.131 A 
ATOM     67  C   UNL A   1      37.734  31.902  37.757  1.00  0.00     0.055 A 
ATOM     68  C   UNL A   1      38.498  33.895  36.655  1.00  0.00     0.041 A 
ATOM     69  F   UNL A   1      39.531  33.744  34.559  1.00  0.00    -0.206 F 
ATOM     70  C   UNL A   1      37.854  33.293  37.731  1.00  0.00     0.022 A 
BRANCH  67  71
ATOM     71  S   UNL A   1      36.710  31.103  39.023  1.00  0.00     0.124 S 
ATOM     72  O   UNL A   1      35.517  31.948  39.013  1.00  0.00    -0.237 OA
ATOM     73  O   UNL A   1      36.544  29.756  38.491  1.00  0.00    -0.237 OA
ATOM     74  O   UNL A   1      37.523  31.201  40.233  1.00  0.00    -0.744 OA
ENDBRANCH  67  71
ENDBRANCH  50  64
BRANCH  51  75
ATOM     75  C   UNL A   1      42.335  26.762  27.611  1.00  0.00     0.023 A 
ATOM     76  C   UNL A   1      42.115  25.393  27.391  1.00  0.00     0.031 A 
ATOM     77  C   UNL A   1      43.136  27.456  26.686  1.00  0.00     0.131 A 
ATOM     78  C   UNL A   1      42.732  24.751  26.307  1.00  0.00     0.055 A 
ATOM     79  C   UNL A   1      43.695  26.826  25.573  1.00  0.00     0.041 A 
ATOM     80  F   UNL A   1      43.380  28.767  26.846  1.00  0.00    -0.206 F 
ATOM     81  C   UNL A   1      43.506  25.461  25.386  1.00  0.00     0.022 A 
BRANCH  78  82
ATOM     82  S   UNL A   1      42.592  22.947  26.173  1.00  0.00     0.124 S 
ATOM     83  O   UNL A   1      41.204  22.729  26.565  1.00  0.00    -0.237 OA
ATOM     84  O   UNL A   1      42.906  22.722  24.767  1.00  0.00    -0.237 OA
ATOM     85  O   UNL A   1      43.592  22.457  27.120  1.00  0.00    -0.744 OA
ENDBRANCH  78  82
ENDBRANCH  51  75
BRANCH  63  86
ATOM     86  C   UNL A   1      44.690  27.614  34.130  1.00  0.00     0.023 A 
ATOM     87  C   UNL A   1      44.687  26.383  34.809  1.00  0.00     0.031 A 
ATOM     88  C   UNL A   1      45.879  28.364  34.127  1.00  0.00     0.131 A 
ATOM     89  C   UNL A   1      45.834  25.964  35.499  1.00  0.00     0.055 A 
ATOM     90  C   UNL A   1      47.037  27.910  34.759  1.00  0.00     0.041 A 
ATOM     91  F   UNL A   1      45.938  29.549  33.499  1.00  0.00    -0.206 F 
ATOM     92  C   UNL A   1      47.015  26.709  35.462  1.00  0.00     0.022 A 
BRANCH  89  93
ATOM     93  S   UNL A   1      45.737  24.471  36.526  1.00  0.00     0.124 S 
ATOM     94  O   UNL A   1      44.324  24.123  36.421  1.00  0.00    -0.237 OA
ATOM     95  O   UNL A   1      46.667  23.569  35.856  1.00  0.00    -0.237 OA
ATOM     96  O   UNL A   1      46.166  24.933  37.844  1.00  0.00    -0.744 OA
ENDBRANCH  89  93
ENDBRANCH  63  86
ENDBRANCH  37  38
ENDBRANCH  29  32
ENDBRANCH  27  28
ENDBRANCH  26  27
ENDBRANCH  25  26
ENDBRANCH   1  25
TORSDOF 20
ENDMDL
MODEL 2
REMARK VINA RESULT:     -11.6      2.925      8.859
REMARK SMILES C[C@@H](C(=O)NCCCCCCNC(=O)c1ccc(-c2c3nc(c(-c4cc(S(=O)(=O)[O-])ccc4F)c4ccc([nH]4)c(-c4cc(S(=O)(=O)[O-])ccc4F)c4nc(c(-c5cc(S(=O)(=O)[O-])ccc5F)c5ccc2[nH]5)C=C4)C=C3)cc1)c1ccc(C[C@H]2CCC[C@@H]2O)cc1F
REMARK SMILES IDX 8 1 7 2 6 3 5 4 3 5 4 6 2 8 1 9 78 10 79 11 90 12 80 13
REMARK SMILES IDX 89 14 91 15 81 16 82 17 83 18 84 19 87 20 85 21 86 22 88 23
REMARK SMILES IDX 9 25 10 26 11 27 12 28 13 29 14 31 15 32 16 33 77 34 17 35
REMARK SMILES IDX 76 36 18 37 19 38 20 39 70 40 21 41 75 42 69 43 71 44 22 45
REMARK SMILES IDX 74 46 68 47 67 48 23 50 55 51 35 52 54 53 36 54 39 55 53 56
REMARK SMILES IDX 72 57 37 58 38 59 52 61 73 62 40 63 24 64 25 65 33 66 26 67
REMARK SMILES IDX 32 68 34 69 31 70 27 71 28 72 29 73 30 74 56 75 57 76 65 77
REMARK SMILES IDX 58 78 64 79 66 80 63 81 59 82 60 83 61 84 62 85 41 86 42 87
REMARK SMILES IDX 50 88 43 89 49 90 51 91 48 92 44 93 45 94 46 95 47 96
REMARK H PARENT 5 7 88 24 12 30 71 49 39 60
REMARK Flexibility Score: inf
ROOT
ATOM      1  C   UNL A   1      32.896  29.752  26.890  1.00  0.00     0.002 C 
ENDROOT
BRANCH   1   2
ATOM      2  C   UNL A   1      32.907  28.244  26.597  1.00  0.00     0.021 C 
BRANCH   2   3
ATOM      3  C   UNL A   1      31.512  27.654  26.373  1.00  0.00     0.116 C 
BRANCH   3   4
ATOM      4  N   UNL A   1      31.421  26.349  26.994  1.00  0.00    -0.356 N 
ATOM      5  C   UNL A   1      31.427  25.113  26.421  1.00  0.00     0.227 C 
ATOM      6  O   UNL A   1      31.138  24.161  27.152  1.00  0.00    -0.274 OA
ATOM      7  H   UNL A   1      31.344  26.357  27.975  1.00  0.00     0.163 HD
BRANCH   5   8
ATOM      8  C   UNL A   1      31.819  24.948  24.939  1.00  0.00     0.108 C 
ATOM      9  C   UNL A   1      30.613  25.065  23.997  1.00  0.00     0.023 C 
BRANCH   8  10
ATOM     10  C   UNL A   1      32.555  23.630  24.733  1.00  0.00    -0.000 A 
ATOM     11  C   UNL A   1      31.933  22.518  24.149  1.00  0.00     0.008 A 
ATOM     12  C   UNL A   1      33.861  23.476  25.210  1.00  0.00     0.127 A 
ATOM     13  C   UNL A   1      32.599  21.299  24.049  1.00  0.00     0.004 A 
ATOM     14  C   UNL A   1      34.517  22.248  25.149  1.00  0.00     0.043 A 
ATOM     15  F   UNL A   1      34.495  24.518  25.769  1.00  0.00    -0.207 F 
ATOM     16  C   UNL A   1      33.873  21.133  24.599  1.00  0.00    -0.045 A 
BRANCH  16  17
ATOM     17  C   UNL A   1      34.504  19.763  24.646  1.00  0.00     0.041 C 
BRANCH  17  18
ATOM     18  C   UNL A   1      33.533  18.577  24.479  1.00  0.00     0.022 C 
ATOM     19  C   UNL A   1      33.847  17.610  23.326  1.00  0.00     0.007 C 
ATOM     20  C   UNL A   1      33.362  17.666  25.699  1.00  0.00     0.117 C 
ATOM     21  C   UNL A   1      33.462  16.213  23.824  1.00  0.00     0.003 C 
ATOM     22  C   UNL A   1      32.687  16.437  25.113  1.00  0.00     0.032 C 
BRANCH  20  23
ATOM     23  O   UNL A   1      32.565  18.280  26.693  1.00  0.00    -0.393 OA
ATOM     24  H   UNL A   1      33.135  18.761  27.314  1.00  0.00     0.210 HD
ENDBRANCH  20  23
ENDBRANCH  17  18
ENDBRANCH  16  17
ENDBRANCH   8  10
ENDBRANCH   5   8
ENDBRANCH   3   4
ENDBRANCH   2   3
ENDBRANCH   1   2
BRANCH   1  25
ATOM     25  C   UNL A   1      31.502  30.387  26.928  1.00  0.00     0.002 C 
BRANCH  25  26
ATOM     26  C   UNL A   1      31.484  31.900  26.698  1.00  0.00     0.021 C 
BRANCH  26  27
ATOM     27  C   UNL A   1      32.821  32.586  26.956  1.00  0.00     0.116 C 
BRANCH  27  28
ATOM     28  N   UNL A   1      32.644  33.896  27.563  1.00  0.00    -0.352 N 
ATOM     29  C   UNL A   1      33.264  34.428  28.666  1.00  0.00     0.251 C 
ATOM     30  H   UNL A   1      31.988  34.483  27.122  1.00  0.00     0.163 HD
ATOM     31  O   UNL A   1      32.824  35.454  29.181  1.00  0.00    -0.269 OA
BRANCH  29  32
ATOM     32  C   UNL A   1      34.445  33.748  29.238  1.00  0.00     0.039 A 
ATOM     33  C   UNL A   1      35.721  34.218  28.920  1.00  0.00     0.014 A 
ATOM     34  C   UNL A   1      34.290  32.656  30.098  1.00  0.00     0.014 A 
ATOM     35  C   UNL A   1      36.839  33.633  29.518  1.00  0.00     0.010 A 
ATOM     36  C   UNL A   1      35.400  32.126  30.750  1.00  0.00     0.010 A 
ATOM     37  C   UNL A   1      36.686  32.609  30.468  1.00  0.00    -0.014 A 
BRANCH  37  38
ATOM     38  C   UNL A   1      37.858  32.039  31.184  1.00  0.00     0.031 A 
ATOM     39  C   UNL A   1      38.648  30.919  30.564  1.00  0.00     0.074 A 
ATOM     40  C   UNL A   1      38.167  32.484  32.418  1.00  0.00     0.049 A 
ATOM     41  N   UNL A   1      39.643  30.232  31.065  1.00  0.00    -0.248 NA
ATOM     42  C   UNL A   1      38.247  30.497  29.213  1.00  0.00     0.031 C 
ATOM     43  C   UNL A   1      37.453  33.544  33.136  1.00  0.00     0.029 A 
ATOM     44  N   UNL A   1      39.151  32.099  33.294  1.00  0.00    -0.354 N 
ATOM     45  C   UNL A   1      39.979  29.291  30.096  1.00  0.00     0.074 A 
ATOM     46  C   UNL A   1      39.042  29.458  29.007  1.00  0.00     0.031 C 
ATOM     47  C   UNL A   1      38.038  33.738  34.328  1.00  0.00     0.029 A 
ATOM     48  C   UNL A   1      39.129  32.782  34.489  1.00  0.00     0.049 A 
ATOM     49  H   UNL A   1      39.812  31.399  33.087  1.00  0.00     0.167 HD
ATOM     50  C   UNL A   1      40.990  28.387  30.110  1.00  0.00     0.034 A 
ATOM     51  C   UNL A   1      39.886  32.642  35.595  1.00  0.00     0.034 A 
ATOM     52  C   UNL A   1      41.920  28.240  31.204  1.00  0.00     0.049 A 
ATOM     53  C   UNL A   1      40.974  31.596  35.603  1.00  0.00     0.074 A 
ATOM     54  C   UNL A   1      43.015  27.399  31.295  1.00  0.00     0.029 A 
ATOM     55  N   UNL A   1      41.857  28.941  32.403  1.00  0.00    -0.354 N 
ATOM     56  N   UNL A   1      41.314  30.751  34.658  1.00  0.00    -0.248 NA
ATOM     57  C   UNL A   1      41.783  31.489  36.824  1.00  0.00     0.031 C 
ATOM     58  C   UNL A   1      43.561  27.528  32.575  1.00  0.00     0.029 A 
ATOM     59  C   UNL A   1      42.867  28.517  33.254  1.00  0.00     0.049 A 
ATOM     60  H   UNL A   1      41.194  29.636  32.616  1.00  0.00     0.167 HD
ATOM     61  C   UNL A   1      42.398  30.036  35.160  1.00  0.00     0.074 A 
ATOM     62  C   UNL A   1      42.663  30.559  36.484  1.00  0.00     0.031 C 
ATOM     63  C   UNL A   1      43.115  29.040  34.578  1.00  0.00     0.034 A 
BRANCH  50  64
ATOM     64  C   UNL A   1      41.120  27.466  28.919  1.00  0.00     0.023 A 
ATOM     65  C   UNL A   1      42.133  27.632  27.959  1.00  0.00     0.031 A 
ATOM     66  C   UNL A   1      40.207  26.411  28.732  1.00  0.00     0.131 A 
ATOM     67  C   UNL A   1      42.166  26.810  26.823  1.00  0.00     0.055 A 
ATOM     68  C   UNL A   1      40.298  25.542  27.643  1.00  0.00     0.041 A 
ATOM     69  F   UNL A   1      39.203  26.215  29.601  1.00  0.00    -0.206 F 
ATOM     70  C   UNL A   1      41.272  25.748  26.672  1.00  0.00     0.022 A 
BRANCH  67  71
ATOM     71  S   UNL A   1      43.298  27.242  25.474  1.00  0.00     0.124 S 
ATOM     72  O   UNL A   1      42.440  28.059  24.619  1.00  0.00    -0.237 OA
ATOM     73  O   UNL A   1      44.365  27.951  26.172  1.00  0.00    -0.237 OA
ATOM     74  O   UNL A   1      43.673  25.947  24.912  1.00  0.00    -0.744 OA
ENDBRANCH  67  71
ENDBRANCH  50  64
BRANCH  51  75
ATOM     75  C   UNL A   1      39.634  33.488  36.799  1.00  0.00     0.023 A 
ATOM     76  C   UNL A   1      40.431  34.611  37.076  1.00  0.00     0.031 A 
ATOM     77  C   UNL A   1      38.623  33.157  37.719  1.00  0.00     0.131 A 
ATOM     78  C   UNL A   1      40.241  35.327  38.267  1.00  0.00     0.055 A 
ATOM     79  C   UNL A   1      38.397  33.912  38.871  1.00  0.00     0.041 A 
ATOM     80  F   UNL A   1      37.831  32.095  37.506  1.00  0.00    -0.206 F 
ATOM     81  C   UNL A   1      39.218  34.997  39.158  1.00  0.00     0.022 A 
BRANCH  78  82
ATOM     82  S   UNL A   1      41.420  36.641  38.686  1.00  0.00     0.124 S 
ATOM     83  O   UNL A   1      42.216  36.001  39.728  1.00  0.00    -0.237 OA
ATOM     84  O   UNL A   1      42.090  36.865  37.410  1.00  0.00    -0.237 OA
ATOM     85  O   UNL A   1      40.563  37.735  39.139  1.00  0.00    -0.744 OA
ENDBRANCH  78  82
ENDBRANCH  51  75
BRANCH  63  86
ATOM     86  C   UNL A   1      44.283  28.483  35.356  1.00  0.00     0.023 A 
ATOM     87  C   UNL A   1      44.123  27.459  36.305  1.00  0.00     0.031 A 
ATOM     88  C   UNL A   1      45.579  28.986  35.139  1.00  0.00     0.131 A 
ATOM     89  C   UNL A   1      45.231  27.006  37.038  1.00  0.00     0.055 A 
ATOM     90  C   UNL A   1      46.687  28.486  35.823  1.00  0.00     0.041 A 
ATOM     91  F   UNL A   1      45.790  29.969  34.248  1.00  0.00    -0.206 F 
ATOM     92  C   UNL A   1      46.514  27.498  36.789  1.00  0.00     0.022 A 
BRANCH  89  93
ATOM     93  S   UNL A   1      44.959  25.827  38.389  1.00  0.00     0.124 S 
ATOM     94  O   UNL A   1      44.006  24.898  37.793  1.00  0.00    -0.237 OA
ATOM     95  O   UNL A   1      46.301  25.302  38.620  1.00  0.00    -0.237 OA
ATOM     96  O   UNL A   1      44.427  26.657  39.467  1.00  0.00    -0.744 OA
ENDBRANCH  89  93
ENDBRANCH  63  86
ENDBRANCH  37  38
ENDBRANCH  29  32
ENDBRANCH  27  28
ENDBRANCH  26  27
ENDBRANCH  25  26
ENDBRANCH   1  25
TORSDOF 20
ENDMDL
MODEL 3
REMARK VINA RESULT:     -11.6      0.762      7.398
REMARK SMILES C[C@@H](C(=O)NCCCCCCNC(=O)c1ccc(-c2c3nc(c(-c4cc(S(=O)(=O)[O-])ccc4F)c4ccc([nH]4)c(-c4cc(S(=O)(=O)[O-])ccc4F)c4nc(c(-c5cc(S(=O)(=O)[O-])ccc5F)c5ccc2[nH]5)C=C4)C=C3)cc1)c1ccc(C[C@H]2CCC[C@@H]2O)cc1F
REMARK SMILES IDX 8 1 7 2 6 3 5 4 3 5 4 6 2 8 1 9 78 10 79 11 90 12 80 13
REMARK SMILES IDX 89 14 91 15 81 16 82 17 83 18 84 19 87 20 85 21 86 22 88 23
REMARK SMILES IDX 9 25 10 26 11 27 12 28 13 29 14 31 15 32 16 33 77 34 17 35
REMARK SMILES IDX 76 36 18 37 19 38 20 39 70 40 21 41 75 42 69 43 71 44 22 45
REMARK SMILES IDX 74 46 68 47 67 48 23 50 55 51 35 52 54 53 36 54 39 55 53 56
REMARK SMILES IDX 72 57 37 58 38 59 52 61 73 62 40 63 24 64 25 65 33 66 26 67
REMARK SMILES IDX 32 68 34 69 31 70 27 71 28 72 29 73 30 74 56 75 57 76 65 77
REMARK SMILES IDX 58 78 64 79 66 80 63 81 59 82 60 83 61 84 62 85 41 86 42 87
REMARK SMILES IDX 50 88 43 89 49 90 51 91 48 92 44 93 45 94 46 95 47 96
REMARK H PARENT 5 7 88 24 12 30 71 49 39 60
REMARK Flexibility Score: inf
ROOT
ATOM      1  C   UNL A   1      33.467  26.376  25.832  1.00  0.00     0.002 C 
ENDROOT
BRANCH   1   2
ATOM      2  C   UNL A   1      34.491  25.388  25.252  1.00  0.00     0.021 C 
BRANCH   2   3
ATOM      3  C   UNL A   1      33.991  23.942  25.212  1.00  0.00     0.116 C 
BRANCH   3   4
ATOM      4  N   UNL A   1      33.195  23.661  26.389  1.00  0.00    -0.356 N 
ATOM      5  C   UNL A   1      31.862  23.401  26.493  1.00  0.00     0.227 C 
ATOM      6  O   UNL A   1      31.386  23.389  27.632  1.00  0.00    -0.274 OA
ATOM      7  H   UNL A   1      33.691  23.658  27.239  1.00  0.00     0.163 HD
BRANCH   5   8
ATOM      8  C   UNL A   1      31.030  23.102  25.230  1.00  0.00     0.108 C 
ATOM      9  C   UNL A   1      31.718  22.092  24.301  1.00  0.00     0.023 C 
BRANCH   8  10
ATOM     10  C   UNL A   1      30.705  24.397  24.496  1.00  0.00    -0.000 A 
ATOM     11  C   UNL A   1      31.271  24.703  23.251  1.00  0.00     0.008 A 
ATOM     12  C   UNL A   1      29.890  25.358  25.101  1.00  0.00     0.127 A 
ATOM     13  C   UNL A   1      31.026  25.930  22.639  1.00  0.00     0.004 A 
ATOM     14  C   UNL A   1      29.673  26.603  24.511  1.00  0.00     0.043 A 
ATOM     15  F   UNL A   1      29.321  25.100  26.289  1.00  0.00    -0.207 F 
ATOM     16  C   UNL A   1      30.274  26.915  23.286  1.00  0.00    -0.045 A 
BRANCH  16  17
ATOM     17  C   UNL A   1      30.171  28.299  22.695  1.00  0.00     0.041 C 
BRANCH  17  18
ATOM     18  C   UNL A   1      29.211  29.263  23.421  1.00  0.00     0.022 C 
ATOM     19  C   UNL A   1      29.761  30.670  23.706  1.00  0.00     0.007 C 
ATOM     20  C   UNL A   1      27.863  29.516  22.737  1.00  0.00     0.117 C 
ATOM     21  C   UNL A   1      28.577  31.631  23.548  1.00  0.00     0.003 C 
ATOM     22  C   UNL A   1      27.342  30.748  23.460  1.00  0.00     0.032 C 
BRANCH  20  23
ATOM     23  O   UNL A   1      26.993  28.411  22.888  1.00  0.00    -0.393 OA
ATOM     24  H   UNL A   1      26.143  28.608  22.464  1.00  0.00     0.210 HD
ENDBRANCH  20  23
ENDBRANCH  17  18
ENDBRANCH  16  17
ENDBRANCH   8  10
ENDBRANCH   5   8
ENDBRANCH   3   4
ENDBRANCH   2   3
ENDBRANCH   1   2
BRANCH   1  25
ATOM     25  C   UNL A   1      33.578  27.805  25.289  1.00  0.00     0.002 C 
BRANCH  25  26
ATOM     26  C   UNL A   1      32.399  28.714  25.644  1.00  0.00     0.021 C 
BRANCH  26  27
ATOM     27  C   UNL A   1      32.530  29.407  26.995  1.00  0.00     0.116 C 
BRANCH  27  28
ATOM     28  N   UNL A   1      32.479  30.855  26.864  1.00  0.00    -0.352 N 
ATOM     29  C   UNL A   1      33.346  31.798  27.358  1.00  0.00     0.251 C 
ATOM     30  H   UNL A   1      31.717  31.207  26.350  1.00  0.00     0.163 HD
ATOM     31  O   UNL A   1      33.024  32.984  27.357  1.00  0.00    -0.269 OA
BRANCH  29  32
ATOM     32  C   UNL A   1      34.651  31.374  27.906  1.00  0.00     0.039 A 
ATOM     33  C   UNL A   1      35.672  32.317  28.036  1.00  0.00     0.014 A 
ATOM     34  C   UNL A   1      34.859  30.049  28.302  1.00  0.00     0.014 A 
ATOM     35  C   UNL A   1      36.882  31.945  28.627  1.00  0.00     0.010 A 
ATOM     36  C   UNL A   1      36.036  29.700  28.958  1.00  0.00     0.010 A 
ATOM     37  C   UNL A   1      37.059  30.644  29.129  1.00  0.00    -0.014 A 
BRANCH  37  38
ATOM     38  C   UNL A   1      38.304  30.256  29.844  1.00  0.00     0.031 A 
ATOM     39  C   UNL A   1      39.236  29.242  29.239  1.00  0.00     0.074 A 
ATOM     40  C   UNL A   1      38.558  30.767  31.065  1.00  0.00     0.049 A 
ATOM     41  N   UNL A   1      40.320  28.710  29.743  1.00  0.00    -0.248 NA
ATOM     42  C   UNL A   1      38.887  28.740  27.902  1.00  0.00     0.031 C 
ATOM     43  C   UNL A   1      37.711  31.733  31.769  1.00  0.00     0.029 A 
ATOM     44  N   UNL A   1      39.593  30.540  31.938  1.00  0.00    -0.354 N 
ATOM     45  C   UNL A   1      40.776  27.803  28.791  1.00  0.00     0.074 A 
ATOM     46  C   UNL A   1      39.816  27.816  27.709  1.00  0.00     0.031 C 
ATOM     47  C   UNL A   1      38.273  32.032  32.950  1.00  0.00     0.029 A 
ATOM     48  C   UNL A   1      39.487  31.240  33.119  1.00  0.00     0.049 A 
ATOM     49  H   UNL A   1      40.343  29.933  31.739  1.00  0.00     0.167 HD
ATOM     50  C   UNL A   1      41.901  27.047  28.812  1.00  0.00     0.034 A 
ATOM     51  C   UNL A   1      40.264  31.229  34.220  1.00  0.00     0.034 A 
ATOM     52  C   UNL A   1      42.850  27.054  29.899  1.00  0.00     0.049 A 
ATOM     53  C   UNL A   1      41.486  30.343  34.238  1.00  0.00     0.074 A 
ATOM     54  C   UNL A   1      44.052  26.373  29.996  1.00  0.00     0.029 A 
ATOM     55  N   UNL A   1      42.701  27.766  31.084  1.00  0.00    -0.354 N 
ATOM     56  N   UNL A   1      41.932  29.533  33.307  1.00  0.00    -0.248 NA
ATOM     57  C   UNL A   1      42.311  30.375  35.452  1.00  0.00     0.031 C 
ATOM     58  C   UNL A   1      44.585  26.605  31.267  1.00  0.00     0.029 A 
ATOM     59  C   UNL A   1      43.767  27.504  31.932  1.00  0.00     0.049 A 
ATOM     60  H   UNL A   1      41.951  28.367  31.290  1.00  0.00     0.167 HD
ATOM     61  C   UNL A   1      43.108  28.985  33.812  1.00  0.00     0.074 A 
ATOM     62  C   UNL A   1      43.308  29.568  35.122  1.00  0.00     0.031 C 
ATOM     63  C   UNL A   1      43.950  28.084  33.243  1.00  0.00     0.034 A 
BRANCH  50  64
ATOM     64  C   UNL A   1      42.147  26.127  27.639  1.00  0.00     0.023 A 
ATOM     65  C   UNL A   1      41.691  24.798  27.631  1.00  0.00     0.031 A 
ATOM     66  C   UNL A   1      42.861  26.583  26.515  1.00  0.00     0.131 A 
ATOM     67  C   UNL A   1      42.016  23.951  26.561  1.00  0.00     0.055 A 
ATOM     68  C   UNL A   1      43.106  25.759  25.415  1.00  0.00     0.041 A 
ATOM     69  F   UNL A   1      43.344  27.835  26.473  1.00  0.00    -0.206 F 
ATOM     70  C   UNL A   1      42.696  24.430  25.439  1.00  0.00     0.022 A 
BRANCH  67  71
ATOM     71  S   UNL A   1      41.667  22.179  26.722  1.00  0.00     0.124 S 
ATOM     72  O   UNL A   1      40.536  22.017  25.810  1.00  0.00    -0.237 OA
ATOM     73  O   UNL A   1      42.922  21.570  26.297  1.00  0.00    -0.237 OA
ATOM     74  O   UNL A   1      41.343  22.020  28.137  1.00  0.00    -0.744 OA
ENDBRANCH  67  71
ENDBRANCH  50  64
BRANCH  51  75
ATOM     75  C   UNL A   1      39.907  32.059  35.408  1.00  0.00     0.023 A 
ATOM     76  C   UNL A   1      39.037  31.572  36.397  1.00  0.00     0.031 A 
ATOM     77  C   UNL A   1      40.389  33.373  35.547  1.00  0.00     0.131 A 
ATOM     78  C   UNL A   1      38.634  32.409  37.449  1.00  0.00     0.055 A 
ATOM     79  C   UNL A   1      40.035  34.180  36.629  1.00  0.00     0.041 A 
ATOM     80  F   UNL A   1      41.223  33.892  34.632  1.00  0.00    -0.206 F 
ATOM     81  C   UNL A   1      39.140  33.704  37.582  1.00  0.00     0.022 A 
BRANCH  78  82
ATOM     82  S   UNL A   1      37.354  31.814  38.589  1.00  0.00     0.124 S 
ATOM     83  O   UNL A   1      36.256  32.730  38.304  1.00  0.00    -0.237 OA
ATOM     84  O   UNL A   1      37.172  30.435  38.147  1.00  0.00    -0.237 OA
ATOM     85  O   UNL A   1      37.972  31.969  39.904  1.00  0.00    -0.744 OA
ENDBRANCH  78  82
ENDBRANCH  51  75
BRANCH  63  86
ATOM     86  C   UNL A   1      45.190  27.711  34.019  1.00  0.00     0.023 A 
ATOM     87  C   UNL A   1      45.213  26.616  34.901  1.00  0.00     0.031 A 
ATOM     88  C   UNL A   1      46.369  28.463  33.870  1.00  0.00     0.131 A 
ATOM     89  C   UNL A   1      46.374  26.336  35.637  1.00  0.00     0.055 A 
ATOM     90  C   UNL A   1      47.541  28.139  34.554  1.00  0.00     0.041 A 
ATOM     91  F   UNL A   1      46.404  29.522  33.045  1.00  0.00    -0.206 F 
ATOM     92  C   UNL A   1      47.544  27.077  35.455  1.00  0.00     0.022 A 
BRANCH  89  93
ATOM     93  S   UNL A   1      46.310  25.043  36.908  1.00  0.00     0.124 S 
ATOM     94  O   UNL A   1      47.395  24.160  36.495  1.00  0.00    -0.237 OA
ATOM     95  O   UNL A   1      46.536  25.799  38.135  1.00  0.00    -0.237 OA
ATOM     96  O   UNL A   1      44.967  24.486  36.764  1.00  0.00    -0.744 OA
ENDBRANCH  89  93
ENDBRANCH  63  86
ENDBRANCH  37  38
ENDBRANCH  29  32
ENDBRANCH  27  28
ENDBRANCH  26  27
ENDBRANCH  25  26
ENDBRANCH   1  25
TORSDOF 20
ENDMDL
