MODEL 1
REMARK VINA RESULT:     -11.9      0.000      0.000
REMARK SMILES CC(C)Cc1cc2c(cc1Cl)C=C(C(=O)NCCCCCCNC(=O)c1ccc(-c3c4nc(c(-c5cc(S(=O)(=O)[O-])ccc5F)c5ccc([nH]5)c(-c5cc(S(=O)(=O)[O-])ccc5F)c5nc(c(-c6cc(S(=O)(=O)[O-])ccc6F)c6ccc3[nH]6)C=C5)C=C4)cc1)[C@@H](C(F)(F)F)O2
REMARK SMILES IDX 20 1 19 2 18 3 17 4 16 5 14 6 15 7 13 9 5 10 6 11 10 12 7 13
REMARK SMILES IDX 9 14 11 15 8 16 94 17 12 18 89 19 4 20 2 21 1 22 3 23 90 24
REMARK SMILES IDX 91 25 92 26 93 27 21 28 22 29 23 30 24 31 25 33 26 34 27 35
REMARK SMILES IDX 88 36 28 37 87 38 29 39 30 40 31 41 81 42 32 43 86 44 80 45
REMARK SMILES IDX 82 46 33 47 85 48 79 49 78 50 34 52 66 53 46 54 65 55 47 56
REMARK SMILES IDX 50 57 64 58 83 59 48 60 49 61 63 63 84 64 51 65 35 66 36 67
REMARK SMILES IDX 44 68 37 69 43 70 45 71 42 72 38 73 39 74 40 75 41 76 67 77
REMARK SMILES IDX 68 78 76 79 69 80 75 81 77 82 74 83 70 84 71 85 72 86 73 87
REMARK SMILES IDX 52 88 53 89 61 90 54 91 60 92 62 93 59 94 55 95 56 96 57 97
REMARK SMILES IDX 58 98
REMARK H PARENT 16 8 23 32 82 51 50 62
REMARK Flexibility Score: inf
ROOT
ATOM      1  C   UNL A   1      31.177  31.038  25.992  1.00  0.00     0.002 C 
ENDROOT
BRANCH   1   2
ATOM      2  C   UNL A   1      32.266  30.079  26.489  1.00  0.00     0.002 C 
BRANCH   2   3
ATOM      3  C   UNL A   1      31.777  28.880  27.307  1.00  0.00     0.021 C 
BRANCH   3   4
ATOM      4  C   UNL A   1      31.805  27.548  26.563  1.00  0.00     0.116 C 
BRANCH   4   5
ATOM      5  N   UNL A   1      32.666  27.587  25.393  1.00  0.00    -0.352 N 
ATOM      6  C   UNL A   1      33.157  26.698  24.497  1.00  0.00     0.251 C 
ATOM      7  O   UNL A   1      33.848  27.187  23.596  1.00  0.00    -0.270 OA
ATOM      8  H   UNL A   1      32.973  28.503  25.201  1.00  0.00     0.163 HD
BRANCH   6   9
ATOM      9  C   UNL A   1      32.939  25.219  24.533  1.00  0.00     0.067 C 
ATOM     10  C   UNL A   1      33.708  20.236  24.970  1.00  0.00    -0.025 A 
ATOM     11  C   UNL A   1      32.580  21.068  24.928  1.00  0.00     0.052 A 
ATOM     12  C   UNL A   1      34.966  20.819  24.758  1.00  0.00     0.045 A 
ATOM     13  C   UNL A   1      32.709  22.443  24.763  1.00  0.00     0.128 A 
ATOM     14  C   UNL A   1      35.088  22.202  24.555  1.00  0.00     0.032 A 
ATOM     15  Cl  UNL A   1      36.417  19.883  24.770  1.00  0.00    -0.084 Cl
ATOM     16  C   UNL A   1      33.958  23.024  24.586  1.00  0.00     0.019 A 
ATOM     17  O   UNL A   1      31.553  23.147  24.864  1.00  0.00    -0.475 OA
ATOM     18  C   UNL A   1      34.062  24.475  24.513  1.00  0.00     0.025 C 
ATOM     19  C   UNL A   1      31.583  24.564  24.562  1.00  0.00     0.314 C 
BRANCH  10  20
ATOM     20  C   UNL A   1      33.491  18.781  25.323  1.00  0.00     0.040 C 
BRANCH  20  21
ATOM     21  C   UNL A   1      33.924  17.810  24.200  1.00  0.00    -0.013 C 
ATOM     22  C   UNL A   1      34.207  16.389  24.705  1.00  0.00     0.008 C 
ATOM     23  C   UNL A   1      32.834  17.746  23.127  1.00  0.00     0.008 C 
ENDBRANCH  20  21
ENDBRANCH  10  20
BRANCH  19  24
ATOM     24  C   UNL A   1      30.783  24.778  23.268  1.00  0.00     0.429 C 
ATOM     25  F   UNL A   1      29.827  25.721  23.451  1.00  0.00    -0.167 F 
ATOM     26  F   UNL A   1      31.551  25.206  22.240  1.00  0.00    -0.167 F 
ATOM     27  F   UNL A   1      30.167  23.645  22.857  1.00  0.00    -0.167 F 
ENDBRANCH  19  24
ENDBRANCH   6   9
ENDBRANCH   4   5
ENDBRANCH   3   4
ENDBRANCH   2   3
ENDBRANCH   1   2
BRANCH   1  28
ATOM     28  C   UNL A   1      31.263  32.477  26.507  1.00  0.00     0.021 C 
BRANCH  28  29
ATOM     29  C   UNL A   1      32.639  32.907  27.002  1.00  0.00     0.116 C 
BRANCH  29  30
ATOM     30  N   UNL A   1      32.598  34.139  27.771  1.00  0.00    -0.352 N 
ATOM     31  C   UNL A   1      33.394  34.528  28.824  1.00  0.00     0.251 C 
ATOM     32  H   UNL A   1      31.906  34.785  27.502  1.00  0.00     0.163 HD
ATOM     33  O   UNL A   1      33.127  35.545  29.456  1.00  0.00    -0.269 OA
BRANCH  31  34
ATOM     34  C   UNL A   1      34.546  33.685  29.209  1.00  0.00     0.039 A 
ATOM     35  C   UNL A   1      34.371  32.594  30.066  1.00  0.00     0.014 A 
ATOM     36  C   UNL A   1      35.820  34.020  28.746  1.00  0.00     0.014 A 
ATOM     37  C   UNL A   1      35.484  31.942  30.585  1.00  0.00     0.010 A 
ATOM     38  C   UNL A   1      36.933  33.315  29.212  1.00  0.00     0.010 A 
ATOM     39  C   UNL A   1      36.779  32.303  30.173  1.00  0.00    -0.014 A 
BRANCH  39  40
ATOM     40  C   UNL A   1      37.958  31.617  30.762  1.00  0.00     0.031 A 
ATOM     41  C   UNL A   1      38.407  31.930  32.163  1.00  0.00     0.074 A 
ATOM     42  C   UNL A   1      38.600  30.678  30.040  1.00  0.00     0.049 A 
ATOM     43  N   UNL A   1      39.410  31.427  32.837  1.00  0.00    -0.248 NA
ATOM     44  C   UNL A   1      37.632  32.937  32.908  1.00  0.00     0.031 C 
ATOM     45  C   UNL A   1      38.238  30.284  28.678  1.00  0.00     0.029 A 
ATOM     46  N   UNL A   1      39.670  29.877  30.347  1.00  0.00    -0.354 N 
ATOM     47  C   UNL A   1      39.398  32.064  34.073  1.00  0.00     0.074 A 
ATOM     48  C   UNL A   1      38.307  33.012  34.048  1.00  0.00     0.031 C 
ATOM     49  C   UNL A   1      39.042  29.287  28.284  1.00  0.00     0.029 A 
ATOM     50  C   UNL A   1      40.023  29.017  29.332  1.00  0.00     0.049 A 
ATOM     51  H   UNL A   1      40.143  29.913  31.210  1.00  0.00     0.167 HD
ATOM     52  C   UNL A   1      40.215  31.862  35.134  1.00  0.00     0.034 A 
ATOM     53  C   UNL A   1      41.030  28.124  29.243  1.00  0.00     0.034 A 
ATOM     54  C   UNL A   1      41.285  30.897  35.150  1.00  0.00     0.049 A 
ATOM     55  C   UNL A   1      41.952  27.951  30.421  1.00  0.00     0.074 A 
ATOM     56  C   UNL A   1      42.149  30.599  36.190  1.00  0.00     0.029 A 
ATOM     57  N   UNL A   1      41.638  30.076  34.089  1.00  0.00    -0.354 N 
ATOM     58  N   UNL A   1      41.904  28.534  31.595  1.00  0.00    -0.248 NA
ATOM     59  C   UNL A   1      43.068  27.007  30.268  1.00  0.00     0.031 C 
ATOM     60  C   UNL A   1      43.056  29.639  35.741  1.00  0.00     0.029 A 
ATOM     61  C   UNL A   1      42.722  29.290  34.442  1.00  0.00     0.049 A 
ATOM     62  H   UNL A   1      41.185  30.054  33.216  1.00  0.00     0.167 HD
ATOM     63  C   UNL A   1      42.972  28.019  32.325  1.00  0.00     0.074 A 
ATOM     64  C   UNL A   1      43.633  27.056  31.468  1.00  0.00     0.031 C 
ATOM     65  C   UNL A   1      43.369  28.323  33.585  1.00  0.00     0.034 A 
BRANCH  52  66
ATOM     66  C   UNL A   1      39.995  32.678  36.384  1.00  0.00     0.023 A 
ATOM     67  C   UNL A   1      39.063  32.252  37.348  1.00  0.00     0.031 A 
ATOM     68  C   UNL A   1      40.605  33.934  36.554  1.00  0.00     0.131 A 
ATOM     69  C   UNL A   1      38.744  33.089  38.425  1.00  0.00     0.055 A 
ATOM     70  C   UNL A   1      40.308  34.749  37.647  1.00  0.00     0.041 A 
ATOM     71  F   UNL A   1      41.501  34.384  35.661  1.00  0.00    -0.206 F 
ATOM     72  C   UNL A   1      39.365  34.332  38.583  1.00  0.00     0.022 A 
BRANCH  69  73
ATOM     73  S   UNL A   1      37.471  32.625  39.631  1.00  0.00     0.124 S 
ATOM     74  O   UNL A   1      37.608  33.681  40.632  1.00  0.00    -0.237 OA
ATOM     75  O   UNL A   1      36.253  32.682  38.827  1.00  0.00    -0.237 OA
ATOM     76  O   UNL A   1      37.874  31.295  40.073  1.00  0.00    -0.744 OA
ENDBRANCH  69  73
ENDBRANCH  52  66
BRANCH  53  77
ATOM     77  C   UNL A   1      41.169  27.312  27.999  1.00  0.00     0.023 A 
ATOM     78  C   UNL A   1      40.821  25.947  27.985  1.00  0.00     0.031 A 
ATOM     79  C   UNL A   1      41.766  27.853  26.850  1.00  0.00     0.131 A 
ATOM     80  C   UNL A   1      41.153  25.155  26.878  1.00  0.00     0.055 A 
ATOM     81  C   UNL A   1      42.026  27.076  25.720  1.00  0.00     0.041 A 
ATOM     82  F   UNL A   1      42.124  29.146  26.820  1.00  0.00    -0.206 F 
ATOM     83  C   UNL A   1      41.738  25.714  25.738  1.00  0.00     0.022 A 
BRANCH  80  84
ATOM     84  S   UNL A   1      40.975  23.350  26.943  1.00  0.00     0.124 S 
ATOM     85  O   UNL A   1      41.437  23.048  28.293  1.00  0.00    -0.237 OA
ATOM     86  O   UNL A   1      39.541  23.183  26.713  1.00  0.00    -0.237 OA
ATOM     87  O   UNL A   1      41.834  22.881  25.861  1.00  0.00    -0.744 OA
ENDBRANCH  80  84
ENDBRANCH  53  77
BRANCH  65  88
ATOM     88  C   UNL A   1      44.579  27.623  34.149  1.00  0.00     0.023 A 
ATOM     89  C   UNL A   1      44.418  26.512  35.000  1.00  0.00     0.031 A 
ATOM     90  C   UNL A   1      45.870  28.156  33.985  1.00  0.00     0.131 A 
ATOM     91  C   UNL A   1      45.522  26.001  35.693  1.00  0.00     0.055 A 
ATOM     92  C   UNL A   1      46.973  27.614  34.643  1.00  0.00     0.041 A 
ATOM     93  F   UNL A   1      46.070  29.220  33.191  1.00  0.00    -0.206 F 
ATOM     94  C   UNL A   1      46.800  26.542  35.514  1.00  0.00     0.022 A 
BRANCH  91  95
ATOM     95  S   UNL A   1      45.327  24.675  36.915  1.00  0.00     0.124 S 
ATOM     96  O   UNL A   1      45.547  23.480  36.105  1.00  0.00    -0.237 OA
ATOM     97  O   UNL A   1      46.386  24.982  37.873  1.00  0.00    -0.237 OA
ATOM     98  O   UNL A   1      43.965  24.849  37.409  1.00  0.00    -0.744 OA
ENDBRANCH  91  95
ENDBRANCH  65  88
ENDBRANCH  39  40
ENDBRANCH  31  34
ENDBRANCH  29  30
ENDBRANCH  28  29
ENDBRANCH   1  28
TORSDOF 19
ENDMDL
MODEL 2
REMARK VINA RESULT:     -11.8      1.759      2.292
REMARK SMILES CC(C)Cc1cc2c(cc1Cl)C=C(C(=O)NCCCCCCNC(=O)c1ccc(-c3c4nc(c(-c5cc(S(=O)(=O)[O-])ccc5F)c5ccc([nH]5)c(-c5cc(S(=O)(=O)[O-])ccc5F)c5nc(c(-c6cc(S(=O)(=O)[O-])ccc6F)c6ccc3[nH]6)C=C5)C=C4)cc1)[C@@H](C(F)(F)F)O2
REMARK SMILES IDX 20 1 19 2 18 3 17 4 16 5 14 6 15 7 13 9 5 10 6 11 10 12 7 13
REMARK SMILES IDX 9 14 11 15 8 16 94 17 12 18 89 19 4 20 2 21 1 22 3 23 90 24
REMARK SMILES IDX 91 25 92 26 93 27 21 28 22 29 23 30 24 31 25 33 26 34 27 35
REMARK SMILES IDX 88 36 28 37 87 38 29 39 30 40 31 41 81 42 32 43 86 44 80 45
REMARK SMILES IDX 82 46 33 47 85 48 79 49 78 50 34 52 66 53 46 54 65 55 47 56
REMARK SMILES IDX 50 57 64 58 83 59 48 60 49 61 63 63 84 64 51 65 35 66 36 67
REMARK SMILES IDX 44 68 37 69 43 70 45 71 42 72 38 73 39 74 40 75 41 76 67 77
REMARK SMILES IDX 68 78 76 79 69 80 75 81 77 82 74 83 70 84 71 85 72 86 73 87
REMARK SMILES IDX 52 88 53 89 61 90 54 91 60 92 62 93 59 94 55 95 56 96 57 97
REMARK SMILES IDX 58 98
REMARK H PARENT 16 8 23 32 82 51 50 62
REMARK Flexibility Score: inf
ROOT
ATOM      1  C   UNL A   1      30.540  29.536  24.462  1.00  0.00     0.002 C 
ENDROOT
BRANCH   1   2
ATOM      2  C   UNL A   1      30.114  28.591  23.331  1.00  0.00     0.002 C 
BRANCH   2   3
ATOM      3  C   UNL A   1      29.710  27.176  23.759  1.00  0.00     0.021 C 
BRANCH   3   4
ATOM      4  C   UNL A   1      30.526  26.059  23.116  1.00  0.00     0.116 C 
BRANCH   4   5
ATOM      5  N   UNL A   1      31.952  26.205  23.361  1.00  0.00    -0.352 N 
ATOM      6  C   UNL A   1      32.968  25.417  23.784  1.00  0.00     0.251 C 
ATOM      7  O   UNL A   1      34.079  25.959  23.809  1.00  0.00    -0.270 OA
ATOM      8  H   UNL A   1      32.259  27.121  23.169  1.00  0.00     0.163 HD
BRANCH   6   9
ATOM      9  C   UNL A   1      32.837  23.992  24.219  1.00  0.00     0.067 C 
ATOM     10  C   UNL A   1      32.521  18.942  24.177  1.00  0.00    -0.025 A 
ATOM     11  C   UNL A   1      32.729  19.916  25.163  1.00  0.00     0.052 A 
ATOM     12  C   UNL A   1      32.231  19.372  22.875  1.00  0.00     0.045 A 
ATOM     13  C   UNL A   1      32.730  21.270  24.844  1.00  0.00     0.128 A 
ATOM     14  C   UNL A   1      32.196  20.740  22.565  1.00  0.00     0.032 A 
ATOM     15  Cl  UNL A   1      31.939  18.255  21.589  1.00  0.00    -0.084 Cl
ATOM     16  C   UNL A   1      32.475  21.695  23.547  1.00  0.00     0.019 A 
ATOM     17  O   UNL A   1      33.066  22.102  25.862  1.00  0.00    -0.475 OA
ATOM     18  C   UNL A   1      32.580  23.113  23.231  1.00  0.00     0.025 C 
ATOM     19  C   UNL A   1      32.950  23.531  25.648  1.00  0.00     0.314 C 
BRANCH  10  20
ATOM     20  C   UNL A   1      32.705  17.494  24.575  1.00  0.00     0.040 C 
BRANCH  20  21
ATOM     21  C   UNL A   1      34.164  17.002  24.434  1.00  0.00    -0.013 C 
ATOM     22  C   UNL A   1      34.501  15.832  25.367  1.00  0.00     0.008 C 
ATOM     23  C   UNL A   1      34.425  16.574  22.988  1.00  0.00     0.008 C 
ENDBRANCH  20  21
ENDBRANCH  10  20
BRANCH  19  24
ATOM     24  C   UNL A   1      31.806  24.040  26.538  1.00  0.00     0.429 C 
ATOM     25  F   UNL A   1      31.942  25.368  26.774  1.00  0.00    -0.167 F 
ATOM     26  F   UNL A   1      30.588  23.874  25.974  1.00  0.00    -0.167 F 
ATOM     27  F   UNL A   1      31.775  23.413  27.737  1.00  0.00    -0.167 F 
ENDBRANCH  19  24
ENDBRANCH   6   9
ENDBRANCH   4   5
ENDBRANCH   3   4
ENDBRANCH   2   3
ENDBRANCH   1   2
BRANCH   1  28
ATOM     28  C   UNL A   1      31.546  28.970  25.467  1.00  0.00     0.021 C 
BRANCH  28  29
ATOM     29  C   UNL A   1      32.776  29.836  25.711  1.00  0.00     0.116 C 
BRANCH  29  30
ATOM     30  N   UNL A   1      32.443  31.147  26.241  1.00  0.00    -0.352 N 
ATOM     31  C   UNL A   1      33.106  31.891  27.190  1.00  0.00     0.251 C 
ATOM     32  H   UNL A   1      31.630  31.561  25.870  1.00  0.00     0.163 HD
ATOM     33  O   UNL A   1      32.603  32.920  27.628  1.00  0.00    -0.269 OA
BRANCH  31  34
ATOM     34  C   UNL A   1      34.407  31.413  27.703  1.00  0.00     0.039 A 
ATOM     35  C   UNL A   1      34.598  30.060  28.001  1.00  0.00     0.014 A 
ATOM     36  C   UNL A   1      35.429  32.336  27.933  1.00  0.00     0.014 A 
ATOM     37  C   UNL A   1      35.746  29.661  28.676  1.00  0.00     0.010 A 
ATOM     38  C   UNL A   1      36.614  31.918  28.544  1.00  0.00     0.010 A 
ATOM     39  C   UNL A   1      36.762  30.587  28.966  1.00  0.00    -0.014 A 
BRANCH  39  40
ATOM     40  C   UNL A   1      37.968  30.149  29.716  1.00  0.00     0.031 A 
ATOM     41  C   UNL A   1      38.215  30.630  31.120  1.00  0.00     0.074 A 
ATOM     42  C   UNL A   1      38.821  29.281  29.139  1.00  0.00     0.049 A 
ATOM     43  N   UNL A   1      39.210  30.349  31.922  1.00  0.00    -0.248 NA
ATOM     44  C   UNL A   1      37.219  31.545  31.702  1.00  0.00     0.031 C 
ATOM     45  C   UNL A   1      38.669  28.737  27.789  1.00  0.00     0.029 A 
ATOM     46  N   UNL A   1      39.967  28.691  29.609  1.00  0.00    -0.354 N 
ATOM     47  C   UNL A   1      38.970  31.060  33.093  1.00  0.00     0.074 A 
ATOM     48  C   UNL A   1      37.752  31.811  32.887  1.00  0.00     0.031 C 
ATOM     49  C   UNL A   1      39.656  27.862  27.556  1.00  0.00     0.029 A 
ATOM     50  C   UNL A   1      40.554  27.832  28.708  1.00  0.00     0.049 A 
ATOM     51  H   UNL A   1      40.336  28.866  30.505  1.00  0.00     0.167 HD
ATOM     52  C   UNL A   1      39.695  31.072  34.237  1.00  0.00     0.034 A 
ATOM     53  C   UNL A   1      41.693  27.114  28.789  1.00  0.00     0.034 A 
ATOM     54  C   UNL A   1      40.897  30.301  34.433  1.00  0.00     0.049 A 
ATOM     55  C   UNL A   1      42.505  27.180  30.055  1.00  0.00     0.074 A 
ATOM     56  C   UNL A   1      41.685  30.224  35.568  1.00  0.00     0.029 A 
ATOM     57  N   UNL A   1      41.482  29.477  33.483  1.00  0.00    -0.354 N 
ATOM     58  N   UNL A   1      42.244  27.829  31.165  1.00  0.00    -0.248 NA
ATOM     59  C   UNL A   1      43.765  26.425  30.086  1.00  0.00     0.031 C 
ATOM     60  C   UNL A   1      42.774  29.398  35.287  1.00  0.00     0.029 A 
ATOM     61  C   UNL A   1      42.635  28.908  33.999  1.00  0.00     0.049 A 
ATOM     62  H   UNL A   1      41.130  29.319  32.578  1.00  0.00     0.167 HD
ATOM     63  C   UNL A   1      43.299  27.550  32.030  1.00  0.00     0.074 A 
ATOM     64  C   UNL A   1      44.188  26.652  31.323  1.00  0.00     0.031 C 
ATOM     65  C   UNL A   1      43.510  28.004  33.290  1.00  0.00     0.034 A 
BRANCH  52  66
ATOM     66  C   UNL A   1      39.222  31.926  35.386  1.00  0.00     0.023 A 
ATOM     67  C   UNL A   1      38.557  31.335  36.477  1.00  0.00     0.031 A 
ATOM     68  C   UNL A   1      39.307  33.329  35.339  1.00  0.00     0.131 A 
ATOM     69  C   UNL A   1      37.978  32.145  37.462  1.00  0.00     0.055 A 
ATOM     70  C   UNL A   1      38.758  34.131  36.341  1.00  0.00     0.041 A 
ATOM     71  F   UNL A   1      39.931  33.940  34.319  1.00  0.00    -0.206 F 
ATOM     72  C   UNL A   1      38.080  33.538  37.404  1.00  0.00     0.022 A 
BRANCH  69  73
ATOM     73  S   UNL A   1      37.022  31.427  38.827  1.00  0.00     0.124 S 
ATOM     74  O   UNL A   1      36.832  30.053  38.368  1.00  0.00    -0.237 OA
ATOM     75  O   UNL A   1      37.935  31.587  39.956  1.00  0.00    -0.237 OA
ATOM     76  O   UNL A   1      35.812  32.240  38.873  1.00  0.00    -0.744 OA
ENDBRANCH  69  73
ENDBRANCH  52  66
BRANCH  53  77
ATOM     77  C   UNL A   1      42.086  26.250  27.637  1.00  0.00     0.023 A 
ATOM     78  C   UNL A   1      41.637  24.919  27.546  1.00  0.00     0.031 A 
ATOM     79  C   UNL A   1      43.012  26.702  26.683  1.00  0.00     0.131 A 
ATOM     80  C   UNL A   1      42.180  24.065  26.578  1.00  0.00     0.055 A 
ATOM     81  C   UNL A   1      43.494  25.867  25.673  1.00  0.00     0.041 A 
ATOM     82  F   UNL A   1      43.477  27.959  26.734  1.00  0.00    -0.206 F 
ATOM     83  C   UNL A   1      43.093  24.534  25.631  1.00  0.00     0.022 A 
BRANCH  80  84
ATOM     84  S   UNL A   1      41.835  22.283  26.615  1.00  0.00     0.124 S 
ATOM     85  O   UNL A   1      40.377  22.257  26.630  1.00  0.00    -0.237 OA
ATOM     86  O   UNL A   1      42.464  21.832  25.375  1.00  0.00    -0.237 OA
ATOM     87  O   UNL A   1      42.488  21.831  27.839  1.00  0.00    -0.744 OA
ENDBRANCH  80  84
ENDBRANCH  53  77
BRANCH  65  88
ATOM     88  C   UNL A   1      44.752  27.555  34.020  1.00  0.00     0.023 A 
ATOM     89  C   UNL A   1      44.710  26.416  34.848  1.00  0.00     0.031 A 
ATOM     90  C   UNL A   1      45.914  28.346  34.031  1.00  0.00     0.131 A 
ATOM     91  C   UNL A   1      45.791  26.128  35.688  1.00  0.00     0.055 A 
ATOM     92  C   UNL A   1      47.006  28.028  34.838  1.00  0.00     0.041 A 
ATOM     93  F   UNL A   1      45.996  29.446  33.266  1.00  0.00    -0.206 F 
ATOM     94  C   UNL A   1      46.942  26.924  35.684  1.00  0.00     0.022 A 
BRANCH  91  95
ATOM     95  S   UNL A   1      45.711  24.763  36.881  1.00  0.00     0.124 S 
ATOM     96  O   UNL A   1      45.703  25.475  38.156  1.00  0.00    -0.237 OA
ATOM     97  O   UNL A   1      44.454  24.114  36.522  1.00  0.00    -0.237 OA
ATOM     98  O   UNL A   1      46.918  23.988  36.610  1.00  0.00    -0.744 OA
ENDBRANCH  91  95
ENDBRANCH  65  88
ENDBRANCH  39  40
ENDBRANCH  31  34
ENDBRANCH  29  30
ENDBRANCH  28  29
ENDBRANCH   1  28
TORSDOF 19
ENDMDL
MODEL 3
REMARK VINA RESULT:     -11.5      5.047     10.096
REMARK SMILES CC(C)Cc1cc2c(cc1Cl)C=C(C(=O)NCCCCCCNC(=O)c1ccc(-c3c4nc(c(-c5cc(S(=O)(=O)[O-])ccc5F)c5ccc([nH]5)c(-c5cc(S(=O)(=O)[O-])ccc5F)c5nc(c(-c6cc(S(=O)(=O)[O-])ccc6F)c6ccc3[nH]6)C=C5)C=C4)cc1)[C@@H](C(F)(F)F)O2
REMARK SMILES IDX 20 1 19 2 18 3 17 4 16 5 14 6 15 7 13 9 5 10 6 11 10 12 7 13
REMARK SMILES IDX 9 14 11 15 8 16 94 17 12 18 89 19 4 20 2 21 1 22 3 23 90 24
REMARK SMILES IDX 91 25 92 26 93 27 21 28 22 29 23 30 24 31 25 33 26 34 27 35
REMARK SMILES IDX 88 36 28 37 87 38 29 39 30 40 31 41 81 42 32 43 86 44 80 45
REMARK SMILES IDX 82 46 33 47 85 48 79 49 78 50 34 52 66 53 46 54 65 55 47 56
REMARK SMILES IDX 50 57 64 58 83 59 48 60 49 61 63 63 84 64 51 65 35 66 36 67
REMARK SMILES IDX 44 68 37 69 43 70 45 71 42 72 38 73 39 74 40 75 41 76 67 77
REMARK SMILES IDX 68 78 76 79 69 80 75 81 77 82 74 83 70 84 71 85 72 86 73 87
REMARK SMILES IDX 52 88 53 89 61 90 54 91 60 92 62 93 59 94 55 95 56 96 57 97
REMARK SMILES IDX 58 98
REMARK H PARENT 16 8 23 32 82 51 50 62
REMARK Flexibility Score: inf
ROOT
ATOM      1  C   UNL A   1      35.874  22.167  23.884  1.00  0.00     0.002 C 
ENDROOT
BRANCH   1   2
ATOM      2  C   UNL A   1      34.698  21.424  24.530  1.00  0.00     0.002 C 
BRANCH   2   3
ATOM      3  C   UNL A   1      33.378  21.457  23.752  1.00  0.00     0.021 C 
BRANCH   3   4
ATOM      4  C   UNL A   1      32.296  22.336  24.373  1.00  0.00     0.116 C 
BRANCH   4   5
ATOM      5  N   UNL A   1      32.838  23.294  25.321  1.00  0.00    -0.352 N 
ATOM      6  C   UNL A   1      32.767  24.630  25.527  1.00  0.00     0.251 C 
ATOM      7  O   UNL A   1      33.378  25.043  26.520  1.00  0.00    -0.270 OA
ATOM      8  H   UNL A   1      33.410  22.854  25.992  1.00  0.00     0.163 HD
BRANCH   6   9
ATOM      9  C   UNL A   1      32.038  25.604  24.657  1.00  0.00     0.067 C 
ATOM     10  C   UNL A   1      28.456  28.618  22.736  1.00  0.00    -0.025 A 
ATOM     11  C   UNL A   1      29.836  28.470  22.546  1.00  0.00     0.052 A 
ATOM     12  C   UNL A   1      27.801  27.699  23.569  1.00  0.00     0.045 A 
ATOM     13  C   UNL A   1      30.553  27.493  23.228  1.00  0.00     0.128 A 
ATOM     14  C   UNL A   1      28.523  26.691  24.227  1.00  0.00     0.032 A 
ATOM     15  Cl  UNL A   1      26.100  27.779  23.856  1.00  0.00    -0.084 Cl
ATOM     16  C   UNL A   1      29.910  26.603  24.079  1.00  0.00     0.019 A 
ATOM     17  O   UNL A   1      31.898  27.535  23.052  1.00  0.00    -0.475 OA
ATOM     18  C   UNL A   1      30.705  25.656  24.849  1.00  0.00     0.025 C 
ATOM     19  C   UNL A   1      32.698  26.464  23.612  1.00  0.00     0.314 C 
BRANCH  10  20
ATOM     20  C   UNL A   1      27.784  29.810  22.090  1.00  0.00     0.040 C 
BRANCH  20  21
ATOM     21  C   UNL A   1      28.598  31.118  22.227  1.00  0.00    -0.013 C 
ATOM     22  C   UNL A   1      28.277  32.148  21.136  1.00  0.00     0.008 C 
ATOM     23  C   UNL A   1      28.331  31.748  23.596  1.00  0.00     0.008 C 
ENDBRANCH  20  21
ENDBRANCH  10  20
BRANCH  19  24
ATOM     24  C   UNL A   1      33.272  25.653  22.440  1.00  0.00     0.429 C 
ATOM     25  F   UNL A   1      32.374  24.732  22.015  1.00  0.00    -0.167 F 
ATOM     26  F   UNL A   1      33.572  26.420  21.367  1.00  0.00    -0.167 F 
ATOM     27  F   UNL A   1      34.404  24.994  22.784  1.00  0.00    -0.167 F 
ENDBRANCH  19  24
ENDBRANCH   6   9
ENDBRANCH   4   5
ENDBRANCH   3   4
ENDBRANCH   2   3
ENDBRANCH   1   2
BRANCH   1  28
ATOM     28  C   UNL A   1      36.428  23.359  24.669  1.00  0.00     0.021 C 
BRANCH  28  29
ATOM     29  C   UNL A   1      36.835  23.056  26.106  1.00  0.00     0.116 C 
BRANCH  29  30
ATOM     30  N   UNL A   1      38.063  22.285  26.191  1.00  0.00    -0.352 N 
ATOM     31  C   UNL A   1      39.333  22.713  26.504  1.00  0.00     0.251 C 
ATOM     32  H   UNL A   1      37.975  21.324  25.998  1.00  0.00     0.163 HD
ATOM     33  O   UNL A   1      40.287  21.951  26.388  1.00  0.00    -0.269 OA
BRANCH  31  34
ATOM     34  C   UNL A   1      39.537  24.110  26.942  1.00  0.00     0.039 A 
ATOM     35  C   UNL A   1      40.029  25.068  26.050  1.00  0.00     0.014 A 
ATOM     36  C   UNL A   1      39.279  24.452  28.271  1.00  0.00     0.014 A 
ATOM     37  C   UNL A   1      40.414  26.317  26.525  1.00  0.00     0.010 A 
ATOM     38  C   UNL A   1      39.598  25.734  28.730  1.00  0.00     0.010 A 
ATOM     39  C   UNL A   1      40.214  26.660  27.873  1.00  0.00    -0.014 A 
BRANCH  39  40
ATOM     40  C   UNL A   1      40.659  27.987  28.371  1.00  0.00     0.031 A 
ATOM     41  C   UNL A   1      42.119  28.353  28.377  1.00  0.00     0.074 A 
ATOM     42  C   UNL A   1      39.737  28.879  28.780  1.00  0.00     0.049 A 
ATOM     43  N   UNL A   1      42.686  29.464  28.773  1.00  0.00    -0.248 NA
ATOM     44  C   UNL A   1      43.067  27.344  27.878  1.00  0.00     0.031 C 
ATOM     45  C   UNL A   1      38.294  28.635  28.799  1.00  0.00     0.029 A 
ATOM     46  N   UNL A   1      39.864  30.166  29.238  1.00  0.00    -0.354 N 
ATOM     47  C   UNL A   1      44.052  29.284  28.584  1.00  0.00     0.074 A 
ATOM     48  C   UNL A   1      44.234  27.946  28.069  1.00  0.00     0.031 C 
ATOM     49  C   UNL A   1      37.668  29.749  29.203  1.00  0.00     0.029 A 
ATOM     50  C   UNL A   1      38.662  30.764  29.541  1.00  0.00     0.049 A 
ATOM     51  H   UNL A   1      40.732  30.619  29.343  1.00  0.00     0.167 HD
ATOM     52  C   UNL A   1      45.058  30.163  28.810  1.00  0.00     0.034 A 
ATOM     53  C   UNL A   1      38.388  31.983  30.050  1.00  0.00     0.034 A 
ATOM     54  C   UNL A   1      44.858  31.502  29.304  1.00  0.00     0.049 A 
ATOM     55  C   UNL A   1      39.528  32.924  30.334  1.00  0.00     0.074 A 
ATOM     56  C   UNL A   1      45.812  32.477  29.537  1.00  0.00     0.029 A 
ATOM     57  N   UNL A   1      43.631  32.056  29.639  1.00  0.00    -0.354 N 
ATOM     58  N   UNL A   1      40.810  32.752  30.116  1.00  0.00    -0.248 NA
ATOM     59  C   UNL A   1      39.193  34.223  30.935  1.00  0.00     0.031 C 
ATOM     60  C   UNL A   1      45.171  33.599  30.062  1.00  0.00     0.029 A 
ATOM     61  C   UNL A   1      43.808  33.350  30.100  1.00  0.00     0.049 A 
ATOM     62  H   UNL A   1      42.763  31.598  29.561  1.00  0.00     0.167 HD
ATOM     63  C   UNL A   1      41.433  33.922  30.539  1.00  0.00     0.074 A 
ATOM     64  C   UNL A   1      40.383  34.806  31.002  1.00  0.00     0.031 C 
ATOM     65  C   UNL A   1      42.754  34.229  30.549  1.00  0.00     0.034 A 
BRANCH  52  66
ATOM     66  C   UNL A   1      46.474  29.735  28.517  1.00  0.00     0.023 A 
ATOM     67  C   UNL A   1      47.246  29.119  29.520  1.00  0.00     0.031 A 
ATOM     68  C   UNL A   1      47.097  30.053  27.297  1.00  0.00     0.131 A 
ATOM     69  C   UNL A   1      48.606  28.869  29.296  1.00  0.00     0.055 A 
ATOM     70  C   UNL A   1      48.445  29.771  27.067  1.00  0.00     0.041 A 
ATOM     71  F   UNL A   1      46.402  30.641  26.309  1.00  0.00    -0.206 F 
ATOM     72  C   UNL A   1      49.208  29.186  28.074  1.00  0.00     0.022 A 
BRANCH  69  73
ATOM     73  S   UNL A   1      49.661  28.177  30.600  1.00  0.00     0.124 S 
ATOM     74  O   UNL A   1      48.993  28.653  31.809  1.00  0.00    -0.237 OA
ATOM     75  O   UNL A   1      49.552  26.742  30.351  1.00  0.00    -0.237 OA
ATOM     76  O   UNL A   1      50.970  28.765  30.341  1.00  0.00    -0.744 OA
ENDBRANCH  69  73
ENDBRANCH  52  66
BRANCH  53  77
ATOM     77  C   UNL A   1      36.964  32.368  30.274  1.00  0.00     0.023 A 
ATOM     78  C   UNL A   1      36.226  33.024  29.270  1.00  0.00     0.031 A 
ATOM     79  C   UNL A   1      36.364  32.201  31.532  1.00  0.00     0.131 A 
ATOM     80  C   UNL A   1      34.968  33.562  29.569  1.00  0.00     0.055 A 
ATOM     81  C   UNL A   1      35.078  32.674  31.803  1.00  0.00     0.041 A 
ATOM     82  F   UNL A   1      37.031  31.592  32.525  1.00  0.00    -0.206 F 
ATOM     83  C   UNL A   1      34.382  33.377  30.824  1.00  0.00     0.022 A 
BRANCH  80  84
ATOM     84  S   UNL A   1      34.120  34.650  28.388  1.00  0.00     0.124 S 
ATOM     85  O   UNL A   1      32.779  34.078  28.358  1.00  0.00    -0.237 OA
ATOM     86  O   UNL A   1      34.239  35.951  29.043  1.00  0.00    -0.237 OA
ATOM     87  O   UNL A   1      34.899  34.501  27.164  1.00  0.00    -0.744 OA
ENDBRANCH  80  84
ENDBRANCH  53  77
BRANCH  65  88
ATOM     88  C   UNL A   1      43.177  35.578  31.076  1.00  0.00     0.023 A 
ATOM     89  C   UNL A   1      43.472  36.624  30.179  1.00  0.00     0.031 A 
ATOM     90  C   UNL A   1      43.453  35.771  32.440  1.00  0.00     0.131 A 
ATOM     91  C   UNL A   1      44.069  37.797  30.652  1.00  0.00     0.055 A 
ATOM     92  C   UNL A   1      44.008  36.960  32.913  1.00  0.00     0.041 A 
ATOM     93  F   UNL A   1      43.199  34.799  33.331  1.00  0.00    -0.206 F 
ATOM     94  C   UNL A   1      44.334  37.974  32.015  1.00  0.00     0.022 A 
BRANCH  91  95
ATOM     95  S   UNL A   1      44.607  39.100  29.511  1.00  0.00     0.124 S 
ATOM     96  O   UNL A   1      45.246  38.328  28.448  1.00  0.00    -0.237 OA
ATOM     97  O   UNL A   1      43.341  39.732  29.148  1.00  0.00    -0.237 OA
ATOM     98  O   UNL A   1      45.510  39.919  30.312  1.00  0.00    -0.744 OA
ENDBRANCH  91  95
ENDBRANCH  65  88
ENDBRANCH  39  40
ENDBRANCH  31  34
ENDBRANCH  29  30
ENDBRANCH  28  29
ENDBRANCH   1  28
TORSDOF 19
ENDMDL
