MODEL 1
REMARK VINA RESULT:     -11.6      0.000      0.000
REMARK SMILES C[C@H]1CN(C(=O)N2CC[NH+]([C@@H](C)C(=O)NCCCCCCNC(=O)c3ccc(-c4c5nc(c(-c6cc(S(=O)(=O)[O-])ccc6F)c6ccc([nH]6)c(-c6cc(S(=O)(=O)[O-])ccc6F)c6nc(c(-c7cc(S(=O)(=O)[O-])ccc7F)c7ccc4[nH]7)C=C6)C=C5)cc3)CC2)C[C@@H]1C
REMARK SMILES IDX 19 1 18 2 17 3 16 4 15 5 13 6 14 7 11 9 12 10 10 11 1 12
REMARK SMILES IDX 2 13 3 14 91 15 4 16 90 17 92 18 5 19 6 20 7 21 8 22 89 23
REMARK SMILES IDX 9 24 88 25 20 27 21 28 22 29 23 30 24 32 25 33 26 34 87 35
REMARK SMILES IDX 27 36 86 37 28 38 29 39 30 40 80 41 31 42 85 43 79 44 81 45
REMARK SMILES IDX 32 46 84 47 78 48 77 49 33 51 65 52 45 53 64 54 46 55 49 56
REMARK SMILES IDX 63 57 82 58 47 59 48 60 62 62 83 63 50 64 34 65 35 66 43 67
REMARK SMILES IDX 36 68 42 69 44 70 41 71 37 72 38 73 39 74 40 75 66 76 67 77
REMARK SMILES IDX 75 78 68 79 74 80 76 81 73 82 69 83 70 84 71 85 72 86 51 87
REMARK SMILES IDX 52 88 60 89 53 90 59 91 61 92 58 93 54 94 55 95 56 96 57 97
REMARK H PARENT 15 8 10 26 22 31 81 50 49 61
REMARK Flexibility Score: inf
ROOT
ATOM      1  C   UNL A   1      34.437  31.314  27.826  1.00  0.00     0.002 C 
ENDROOT
BRANCH   1   2
ATOM      2  C   UNL A   1      34.119  30.073  26.987  1.00  0.00     0.002 C 
BRANCH   2   3
ATOM      3  C   UNL A   1      32.635  29.720  26.912  1.00  0.00     0.021 C 
BRANCH   3   4
ATOM      4  C   UNL A   1      32.017  29.894  25.517  1.00  0.00     0.116 C 
BRANCH   4   5
ATOM      5  N   UNL A   1      33.014  29.686  24.485  1.00  0.00    -0.351 N 
ATOM      6  C   UNL A   1      33.076  28.842  23.417  1.00  0.00     0.278 C 
ATOM      7  O   UNL A   1      34.158  28.815  22.815  1.00  0.00    -0.268 OA
ATOM      8  H   UNL A   1      33.802  30.270  24.571  1.00  0.00     0.163 HD
BRANCH   6   9
ATOM      9  C   UNL A   1      31.882  27.984  22.909  1.00  0.00     0.271 C 
ATOM     10  C   UNL A   1      30.685  28.815  22.453  1.00  0.00     0.086 C 
BRANCH   9  11
ATOM     11  N   UNL A   1      31.673  26.738  23.684  1.00  0.00    -0.322 N 
ATOM     12  C   UNL A   1      34.041  21.589  27.492  1.00  0.00     0.010 C 
ATOM     13  C   UNL A   1      33.177  21.344  26.253  1.00  0.00     0.010 C 
ATOM     14  C   UNL A   1      33.067  22.609  25.412  1.00  0.00     0.125 C 
ATOM     15  C   UNL A   1      33.827  20.345  25.274  1.00  0.00     0.010 C 
ATOM     16  N   UNL A   1      34.184  22.540  24.484  1.00  0.00    -0.324 N 
ATOM     17  C   UNL A   1      34.805  21.226  24.482  1.00  0.00     0.125 C 
ATOM     18  C   UNL A   1      32.788  19.717  24.337  1.00  0.00     0.010 C 
ATOM     19  C   UNL A   1      34.456  23.480  23.519  1.00  0.00     0.320 C 
ATOM     20  O   UNL A   1      35.274  23.326  22.618  1.00  0.00    -0.248 OA
ATOM     21  N   UNL A   1      33.614  24.564  23.568  1.00  0.00    -0.313 N 
ATOM     22  C   UNL A   1      32.739  24.802  22.444  1.00  0.00     0.183 C 
ATOM     23  C   UNL A   1      33.929  25.723  24.390  1.00  0.00     0.183 C 
ATOM     24  C   UNL A   1      31.462  25.488  22.947  1.00  0.00     0.284 C 
ATOM     25  C   UNL A   1      32.656  26.516  24.769  1.00  0.00     0.284 C 
ATOM     26  H   UNL A   1      30.763  26.960  24.088  1.00  0.00     0.348 HD
ENDBRANCH   9  11
ENDBRANCH   6   9
ENDBRANCH   4   5
ENDBRANCH   3   4
ENDBRANCH   2   3
ENDBRANCH   1   2
BRANCH   1  27
ATOM     27  C   UNL A   1      33.285  32.312  27.991  1.00  0.00     0.021 C 
BRANCH  27  28
ATOM     28  C   UNL A   1      33.655  33.773  27.747  1.00  0.00     0.116 C 
BRANCH  28  29
ATOM     29  N   UNL A   1      33.131  34.644  28.787  1.00  0.00    -0.352 N 
ATOM     30  C   UNL A   1      33.431  34.689  30.125  1.00  0.00     0.251 C 
ATOM     31  H   UNL A   1      32.461  35.300  28.485  1.00  0.00     0.163 HD
ATOM     32  O   UNL A   1      32.703  35.314  30.889  1.00  0.00    -0.269 OA
BRANCH  30  33
ATOM     33  C   UNL A   1      34.621  33.978  30.640  1.00  0.00     0.039 A 
ATOM     34  C   UNL A   1      34.445  32.886  31.494  1.00  0.00     0.014 A 
ATOM     35  C   UNL A   1      35.910  34.406  30.304  1.00  0.00     0.014 A 
ATOM     36  C   UNL A   1      35.559  32.192  31.970  1.00  0.00     0.010 A 
ATOM     37  C   UNL A   1      37.015  33.670  30.721  1.00  0.00     0.010 A 
ATOM     38  C   UNL A   1      36.853  32.560  31.564  1.00  0.00    -0.014 A 
BRANCH  38  39
ATOM     39  C   UNL A   1      38.049  31.813  32.031  1.00  0.00     0.031 A 
ATOM     40  C   UNL A   1      38.684  32.158  33.351  1.00  0.00     0.074 A 
ATOM     41  C   UNL A   1      38.593  30.864  31.245  1.00  0.00     0.049 A 
ATOM     42  N   UNL A   1      39.767  31.673  33.903  1.00  0.00    -0.248 NA
ATOM     43  C   UNL A   1      38.027  33.212  34.136  1.00  0.00     0.031 C 
ATOM     44  C   UNL A   1      38.084  30.462  29.931  1.00  0.00     0.029 A 
ATOM     45  N   UNL A   1      39.695  30.068  31.432  1.00  0.00    -0.354 N 
ATOM     46  C   UNL A   1      39.926  32.369  35.098  1.00  0.00     0.074 A 
ATOM     47  C   UNL A   1      38.871  33.359  35.147  1.00  0.00     0.031 C 
ATOM     48  C   UNL A   1      38.851  29.473  29.448  1.00  0.00     0.029 A 
ATOM     49  C   UNL A   1      39.933  29.202  30.390  1.00  0.00     0.049 A 
ATOM     50  H   UNL A   1      40.261  30.113  32.235  1.00  0.00     0.167 HD
ATOM     51  C   UNL A   1      40.849  32.181  36.075  1.00  0.00     0.034 A 
ATOM     52  C   UNL A   1      40.916  28.297  30.214  1.00  0.00     0.034 A 
ATOM     53  C   UNL A   1      41.895  31.189  36.007  1.00  0.00     0.049 A 
ATOM     54  C   UNL A   1      41.963  28.141  31.287  1.00  0.00     0.074 A 
ATOM     55  C   UNL A   1      42.861  30.884  36.950  1.00  0.00     0.029 A 
ATOM     56  N   UNL A   1      42.119  30.343  34.926  1.00  0.00    -0.354 N 
ATOM     57  N   UNL A   1      42.078  28.778  32.430  1.00  0.00    -0.248 NA
ATOM     58  C   UNL A   1      43.007  27.138  31.048  1.00  0.00     0.031 C 
ATOM     59  C   UNL A   1      43.706  29.906  36.414  1.00  0.00     0.029 A 
ATOM     60  C   UNL A   1      43.224  29.541  35.167  1.00  0.00     0.049 A 
ATOM     61  H   UNL A   1      41.572  30.318  34.109  1.00  0.00     0.167 HD
ATOM     62  C   UNL A   1      43.188  28.223  33.063  1.00  0.00     0.074 A 
ATOM     63  C   UNL A   1      43.698  27.195  32.176  1.00  0.00     0.031 C 
ATOM     64  C   UNL A   1      43.731  28.528  34.269  1.00  0.00     0.034 A 
BRANCH  51  65
ATOM     65  C   UNL A   1      40.771  33.093  37.280  1.00  0.00     0.023 A 
ATOM     66  C   UNL A   1      40.147  32.684  38.473  1.00  0.00     0.031 A 
ATOM     67  C   UNL A   1      41.271  34.406  37.221  1.00  0.00     0.131 A 
ATOM     68  C   UNL A   1      39.947  33.603  39.513  1.00  0.00     0.055 A 
ATOM     69  C   UNL A   1      41.155  35.288  38.298  1.00  0.00     0.041 A 
ATOM     70  F   UNL A   1      41.860  34.864  36.105  1.00  0.00    -0.206 F 
ATOM     71  C   UNL A   1      40.470  34.896  39.444  1.00  0.00     0.022 A 
BRANCH  68  72
ATOM     72  S   UNL A   1      38.835  33.143  40.871  1.00  0.00     0.124 S 
ATOM     73  O   UNL A   1      39.282  34.040  41.934  1.00  0.00    -0.237 OA
ATOM     74  O   UNL A   1      37.519  33.421  40.308  1.00  0.00    -0.237 OA
ATOM     75  O   UNL A   1      39.134  31.729  41.094  1.00  0.00    -0.744 OA
ENDBRANCH  68  72
ENDBRANCH  51  65
BRANCH  52  76
ATOM     76  C   UNL A   1      40.960  27.460  28.981  1.00  0.00     0.023 A 
ATOM     77  C   UNL A   1      41.933  27.685  27.996  1.00  0.00     0.031 A 
ATOM     78  C   UNL A   1      40.012  26.447  28.753  1.00  0.00     0.131 A 
ATOM     79  C   UNL A   1      41.911  26.940  26.807  1.00  0.00     0.055 A 
ATOM     80  C   UNL A   1      40.026  25.672  27.592  1.00  0.00     0.041 A 
ATOM     81  F   UNL A   1      39.062  26.187  29.666  1.00  0.00    -0.206 F 
ATOM     82  C   UNL A   1      40.973  25.926  26.604  1.00  0.00     0.022 A 
BRANCH  79  83
ATOM     83  S   UNL A   1      43.085  27.370  25.493  1.00  0.00     0.124 S 
ATOM     84  O   UNL A   1      43.459  26.054  24.987  1.00  0.00    -0.237 OA
ATOM     85  O   UNL A   1      42.265  28.190  24.608  1.00  0.00    -0.237 OA
ATOM     86  O   UNL A   1      44.141  28.089  26.204  1.00  0.00    -0.744 OA
ENDBRANCH  79  83
ENDBRANCH  52  76
BRANCH  64  87
ATOM     87  C   UNL A   1      44.910  27.700  34.716  1.00  0.00     0.023 A 
ATOM     88  C   UNL A   1      44.749  26.442  35.325  1.00  0.00     0.031 A 
ATOM     89  C   UNL A   1      46.219  28.188  34.546  1.00  0.00     0.131 A 
ATOM     90  C   UNL A   1      45.871  25.744  35.795  1.00  0.00     0.055 A 
ATOM     91  C   UNL A   1      47.336  27.459  34.959  1.00  0.00     0.041 A 
ATOM     92  F   UNL A   1      46.433  29.384  33.974  1.00  0.00    -0.206 F 
ATOM     93  C   UNL A   1      47.164  26.236  35.600  1.00  0.00     0.022 A 
BRANCH  90  94
ATOM     94  S   UNL A   1      45.614  24.223  36.751  1.00  0.00     0.124 S 
ATOM     95  O   UNL A   1      45.403  24.744  38.097  1.00  0.00    -0.237 OA
ATOM     96  O   UNL A   1      44.444  23.640  36.102  1.00  0.00    -0.237 OA
ATOM     97  O   UNL A   1      46.861  23.482  36.559  1.00  0.00    -0.744 OA
ENDBRANCH  90  94
ENDBRANCH  64  87
ENDBRANCH  38  39
ENDBRANCH  30  33
ENDBRANCH  28  29
ENDBRANCH  27  28
ENDBRANCH   1  27
TORSDOF 17
ENDMDL
MODEL 2
REMARK VINA RESULT:     -11.3      6.036     11.267
REMARK SMILES C[C@H]1CN(C(=O)N2CC[NH+]([C@@H](C)C(=O)NCCCCCCNC(=O)c3ccc(-c4c5nc(c(-c6cc(S(=O)(=O)[O-])ccc6F)c6ccc([nH]6)c(-c6cc(S(=O)(=O)[O-])ccc6F)c6nc(c(-c7cc(S(=O)(=O)[O-])ccc7F)c7ccc4[nH]7)C=C6)C=C5)cc3)CC2)C[C@@H]1C
REMARK SMILES IDX 19 1 18 2 17 3 16 4 15 5 13 6 14 7 11 9 12 10 10 11 1 12
REMARK SMILES IDX 2 13 3 14 91 15 4 16 90 17 92 18 5 19 6 20 7 21 8 22 89 23
REMARK SMILES IDX 9 24 88 25 20 27 21 28 22 29 23 30 24 32 25 33 26 34 87 35
REMARK SMILES IDX 27 36 86 37 28 38 29 39 30 40 80 41 31 42 85 43 79 44 81 45
REMARK SMILES IDX 32 46 84 47 78 48 77 49 33 51 65 52 45 53 64 54 46 55 49 56
REMARK SMILES IDX 63 57 82 58 47 59 48 60 62 62 83 63 50 64 34 65 35 66 43 67
REMARK SMILES IDX 36 68 42 69 44 70 41 71 37 72 38 73 39 74 40 75 66 76 67 77
REMARK SMILES IDX 75 78 68 79 74 80 76 81 73 82 69 83 70 84 71 85 72 86 51 87
REMARK SMILES IDX 52 88 60 89 53 90 59 91 61 92 58 93 54 94 55 95 56 96 57 97
REMARK H PARENT 15 8 10 26 22 31 81 50 49 61
REMARK Flexibility Score: inf
ROOT
ATOM      1  C   UNL A   1      37.452  20.894  24.416  1.00  0.00     0.002 C 
ENDROOT
BRANCH   1   2
ATOM      2  C   UNL A   1      37.605  22.226  25.157  1.00  0.00     0.002 C 
BRANCH   2   3
ATOM      3  C   UNL A   1      36.412  22.608  26.031  1.00  0.00     0.021 C 
BRANCH   3   4
ATOM      4  C   UNL A   1      35.454  21.446  26.331  1.00  0.00     0.116 C 
BRANCH   4   5
ATOM      5  N   UNL A   1      34.412  21.864  27.249  1.00  0.00    -0.351 N 
ATOM      6  C   UNL A   1      33.073  22.067  27.097  1.00  0.00     0.278 C 
ATOM      7  O   UNL A   1      32.494  22.580  28.064  1.00  0.00    -0.268 OA
ATOM      8  H   UNL A   1      34.735  22.036  28.163  1.00  0.00     0.163 HD
BRANCH   6   9
ATOM      9  C   UNL A   1      32.262  21.651  25.837  1.00  0.00     0.271 C 
ATOM     10  C   UNL A   1      32.536  20.220  25.380  1.00  0.00     0.086 C 
BRANCH   9  11
ATOM     11  N   UNL A   1      32.117  22.737  24.838  1.00  0.00    -0.322 N 
ATOM     12  C   UNL A   1      33.344  29.105  22.702  1.00  0.00     0.010 C 
ATOM     13  C   UNL A   1      31.925  28.534  22.761  1.00  0.00     0.010 C 
ATOM     14  C   UNL A   1      31.895  27.245  23.572  1.00  0.00     0.125 C 
ATOM     15  C   UNL A   1      30.960  29.447  23.543  1.00  0.00     0.010 C 
ATOM     16  N   UNL A   1      31.640  27.670  24.939  1.00  0.00    -0.324 N 
ATOM     17  C   UNL A   1      31.232  29.064  25.006  1.00  0.00     0.125 C 
ATOM     18  C   UNL A   1      29.497  29.166  23.177  1.00  0.00     0.010 C 
ATOM     19  C   UNL A   1      31.513  26.817  26.010  1.00  0.00     0.320 C 
ATOM     20  O   UNL A   1      31.107  27.157  27.117  1.00  0.00    -0.248 OA
ATOM     21  N   UNL A   1      31.746  25.504  25.685  1.00  0.00    -0.313 N 
ATOM     22  C   UNL A   1      30.655  24.565  25.809  1.00  0.00     0.183 C 
ATOM     23  C   UNL A   1      33.085  24.939  25.751  1.00  0.00     0.183 C 
ATOM     24  C   UNL A   1      30.838  23.452  24.768  1.00  0.00     0.284 C 
ATOM     25  C   UNL A   1      33.234  23.711  24.822  1.00  0.00     0.284 C 
ATOM     26  H   UNL A   1      32.146  22.171  23.990  1.00  0.00     0.348 HD
ENDBRANCH   9  11
ENDBRANCH   6   9
ENDBRANCH   4   5
ENDBRANCH   3   4
ENDBRANCH   2   3
ENDBRANCH   1   2
BRANCH   1  27
ATOM     27  C   UNL A   1      38.334  19.750  24.927  1.00  0.00     0.021 C 
BRANCH  27  28
ATOM     28  C   UNL A   1      39.235  20.104  26.107  1.00  0.00     0.116 C 
BRANCH  28  29
ATOM     29  N   UNL A   1      40.440  19.290  26.131  1.00  0.00    -0.352 N 
ATOM     30  C   UNL A   1      41.757  19.676  26.148  1.00  0.00     0.251 C 
ATOM     31  H   UNL A   1      40.288  18.317  26.136  1.00  0.00     0.163 HD
ATOM     32  O   UNL A   1      42.633  18.851  25.907  1.00  0.00    -0.269 OA
BRANCH  30  33
ATOM     33  C   UNL A   1      42.113  21.080  26.445  1.00  0.00     0.039 A 
ATOM     34  C   UNL A   1      42.243  21.986  25.390  1.00  0.00     0.014 A 
ATOM     35  C   UNL A   1      42.346  21.494  27.760  1.00  0.00     0.014 A 
ATOM     36  C   UNL A   1      42.557  23.320  25.658  1.00  0.00     0.010 A 
ATOM     37  C   UNL A   1      42.588  22.838  28.031  1.00  0.00     0.010 A 
ATOM     38  C   UNL A   1      42.704  23.764  26.983  1.00  0.00    -0.014 A 
BRANCH  38  39
ATOM     39  C   UNL A   1      43.002  25.186  27.291  1.00  0.00     0.031 A 
ATOM     40  C   UNL A   1      44.378  25.740  27.032  1.00  0.00     0.074 A 
ATOM     41  C   UNL A   1      42.055  25.963  27.851  1.00  0.00     0.049 A 
ATOM     42  N   UNL A   1      44.858  26.928  27.294  1.00  0.00    -0.248 NA
ATOM     43  C   UNL A   1      45.350  24.818  26.427  1.00  0.00     0.031 C 
ATOM     44  C   UNL A   1      40.694  25.531  28.176  1.00  0.00     0.029 A 
ATOM     45  N   UNL A   1      42.091  27.274  28.251  1.00  0.00    -0.354 N 
ATOM     46  C   UNL A   1      46.190  26.895  26.893  1.00  0.00     0.074 A 
ATOM     47  C   UNL A   1      46.456  25.545  26.444  1.00  0.00     0.031 C 
ATOM     48  C   UNL A   1      40.016  26.568  28.692  1.00  0.00     0.029 A 
ATOM     49  C   UNL A   1      40.904  27.723  28.782  1.00  0.00     0.049 A 
ATOM     50  H   UNL A   1      42.891  27.841  28.166  1.00  0.00     0.167 HD
ATOM     51  C   UNL A   1      47.098  27.904  26.875  1.00  0.00     0.034 A 
ATOM     52  C   UNL A   1      40.573  28.927  29.287  1.00  0.00     0.034 A 
ATOM     53  C   UNL A   1      46.814  29.244  27.329  1.00  0.00     0.049 A 
ATOM     54  C   UNL A   1      41.612  30.019  29.308  1.00  0.00     0.074 A 
ATOM     55  C   UNL A   1      47.641  30.354  27.324  1.00  0.00     0.029 A 
ATOM     56  N   UNL A   1      45.606  29.657  27.881  1.00  0.00    -0.354 N 
ATOM     57  N   UNL A   1      42.856  29.986  28.888  1.00  0.00    -0.248 NA
ATOM     58  C   UNL A   1      41.197  31.312  29.863  1.00  0.00     0.031 C 
ATOM     59  C   UNL A   1      46.960  31.414  27.932  1.00  0.00     0.029 A 
ATOM     60  C   UNL A   1      45.678  30.992  28.247  1.00  0.00     0.049 A 
ATOM     61  H   UNL A   1      44.814  29.084  27.994  1.00  0.00     0.167 HD
ATOM     62  C   UNL A   1      43.360  31.268  29.095  1.00  0.00     0.074 A 
ATOM     63  C   UNL A   1      42.281  32.048  29.668  1.00  0.00     0.031 C 
ATOM     64  C   UNL A   1      44.598  31.757  28.829  1.00  0.00     0.034 A 
BRANCH  51  65
ATOM     65  C   UNL A   1      48.486  27.572  26.371  1.00  0.00     0.023 A 
ATOM     66  C   UNL A   1      48.863  27.818  25.039  1.00  0.00     0.031 A 
ATOM     67  C   UNL A   1      49.425  26.948  27.211  1.00  0.00     0.131 A 
ATOM     68  C   UNL A   1      50.096  27.353  24.559  1.00  0.00     0.055 A 
ATOM     69  C   UNL A   1      50.690  26.575  26.753  1.00  0.00     0.041 A 
ATOM     70  F   UNL A   1      49.121  26.668  28.488  1.00  0.00    -0.206 F 
ATOM     71  C   UNL A   1      51.024  26.757  25.414  1.00  0.00     0.022 A 
BRANCH  68  72
ATOM     72  S   UNL A   1      50.390  27.373  22.769  1.00  0.00     0.124 S 
ATOM     73  O   UNL A   1      51.685  26.702  22.676  1.00  0.00    -0.237 OA
ATOM     74  O   UNL A   1      49.246  26.631  22.254  1.00  0.00    -0.237 OA
ATOM     75  O   UNL A   1      50.411  28.797  22.440  1.00  0.00    -0.744 OA
ENDBRANCH  68  72
ENDBRANCH  51  65
BRANCH  52  76
ATOM     76  C   UNL A   1      39.198  29.175  29.809  1.00  0.00     0.023 A 
ATOM     77  C   UNL A   1      38.269  29.911  29.057  1.00  0.00     0.031 A 
ATOM     78  C   UNL A   1      38.804  28.712  31.076  1.00  0.00     0.131 A 
ATOM     79  C   UNL A   1      37.006  30.202  29.598  1.00  0.00     0.055 A 
ATOM     80  C   UNL A   1      37.529  28.959  31.587  1.00  0.00     0.041 A 
ATOM     81  F   UNL A   1      39.654  27.999  31.833  1.00  0.00    -0.206 F 
ATOM     82  C   UNL A   1      36.625  29.719  30.851  1.00  0.00     0.022 A 
BRANCH  79  83
ATOM     83  S   UNL A   1      35.894  31.289  28.664  1.00  0.00     0.124 S 
ATOM     84  O   UNL A   1      34.780  31.441  29.592  1.00  0.00    -0.237 OA
ATOM     85  O   UNL A   1      36.726  32.469  28.458  1.00  0.00    -0.237 OA
ATOM     86  O   UNL A   1      35.602  30.518  27.457  1.00  0.00    -0.744 OA
ENDBRANCH  79  83
ENDBRANCH  52  76
BRANCH  64  87
ATOM     87  C   UNL A   1      44.828  33.221  29.111  1.00  0.00     0.023 A 
ATOM     88  C   UNL A   1      44.378  34.227  28.237  1.00  0.00     0.031 A 
ATOM     89  C   UNL A   1      45.528  33.615  30.267  1.00  0.00     0.131 A 
ATOM     90  C   UNL A   1      44.684  35.571  28.500  1.00  0.00     0.055 A 
ATOM     91  C   UNL A   1      45.774  34.958  30.556  1.00  0.00     0.041 A 
ATOM     92  F   UNL A   1      45.983  32.698  31.135  1.00  0.00    -0.206 F 
ATOM     93  C   UNL A   1      45.363  35.944  29.664  1.00  0.00     0.022 A 
BRANCH  90  94
ATOM     94  S   UNL A   1      44.264  36.821  27.255  1.00  0.00     0.124 S 
ATOM     95  O   UNL A   1      43.799  37.929  28.083  1.00  0.00    -0.237 OA
ATOM     96  O   UNL A   1      45.539  37.025  26.575  1.00  0.00    -0.237 OA
ATOM     97  O   UNL A   1      43.230  36.171  26.450  1.00  0.00    -0.744 OA
ENDBRANCH  90  94
ENDBRANCH  64  87
ENDBRANCH  38  39
ENDBRANCH  30  33
ENDBRANCH  28  29
ENDBRANCH  27  28
ENDBRANCH   1  27
TORSDOF 17
ENDMDL
MODEL 3
REMARK VINA RESULT:     -11.3      0.546      7.650
REMARK SMILES C[C@H]1CN(C(=O)N2CC[NH+]([C@@H](C)C(=O)NCCCCCCNC(=O)c3ccc(-c4c5nc(c(-c6cc(S(=O)(=O)[O-])ccc6F)c6ccc([nH]6)c(-c6cc(S(=O)(=O)[O-])ccc6F)c6nc(c(-c7cc(S(=O)(=O)[O-])ccc7F)c7ccc4[nH]7)C=C6)C=C5)cc3)CC2)C[C@@H]1C
REMARK SMILES IDX 19 1 18 2 17 3 16 4 15 5 13 6 14 7 11 9 12 10 10 11 1 12
REMARK SMILES IDX 2 13 3 14 91 15 4 16 90 17 92 18 5 19 6 20 7 21 8 22 89 23
REMARK SMILES IDX 9 24 88 25 20 27 21 28 22 29 23 30 24 32 25 33 26 34 87 35
REMARK SMILES IDX 27 36 86 37 28 38 29 39 30 40 80 41 31 42 85 43 79 44 81 45
REMARK SMILES IDX 32 46 84 47 78 48 77 49 33 51 65 52 45 53 64 54 46 55 49 56
REMARK SMILES IDX 63 57 82 58 47 59 48 60 62 62 83 63 50 64 34 65 35 66 43 67
REMARK SMILES IDX 36 68 42 69 44 70 41 71 37 72 38 73 39 74 40 75 66 76 67 77
REMARK SMILES IDX 75 78 68 79 74 80 76 81 73 82 69 83 70 84 71 85 72 86 51 87
REMARK SMILES IDX 52 88 60 89 53 90 59 91 61 92 58 93 54 94 55 95 56 96 57 97
REMARK H PARENT 15 8 10 26 22 31 81 50 49 61
REMARK Flexibility Score: inf
ROOT
ATOM      1  C   UNL A   1      34.444  31.123  27.620  1.00  0.00     0.002 C 
ENDROOT
BRANCH   1   2
ATOM      2  C   UNL A   1      33.982  29.750  27.125  1.00  0.00     0.002 C 
BRANCH   2   3
ATOM      3  C   UNL A   1      32.468  29.600  26.986  1.00  0.00     0.021 C 
BRANCH   3   4
ATOM      4  C   UNL A   1      31.932  29.907  25.580  1.00  0.00     0.116 C 
BRANCH   4   5
ATOM      5  N   UNL A   1      32.971  29.725  24.584  1.00  0.00    -0.351 N 
ATOM      6  C   UNL A   1      33.093  28.882  23.521  1.00  0.00     0.278 C 
ATOM      7  O   UNL A   1      34.196  28.884  22.958  1.00  0.00    -0.268 OA
ATOM      8  H   UNL A   1      33.739  30.329  24.698  1.00  0.00     0.163 HD
BRANCH   6   9
ATOM      9  C   UNL A   1      31.941  27.994  22.970  1.00  0.00     0.271 C 
ATOM     10  C   UNL A   1      30.742  28.793  22.466  1.00  0.00     0.086 C 
BRANCH   9  11
ATOM     11  N   UNL A   1      31.733  26.745  23.742  1.00  0.00    -0.322 N 
ATOM     12  C   UNL A   1      34.111  21.573  27.512  1.00  0.00     0.010 C 
ATOM     13  C   UNL A   1      33.236  21.336  26.279  1.00  0.00     0.010 C 
ATOM     14  C   UNL A   1      33.125  22.605  25.443  1.00  0.00     0.125 C 
ATOM     15  C   UNL A   1      33.876  20.339  25.291  1.00  0.00     0.010 C 
ATOM     16  N   UNL A   1      34.235  22.535  24.508  1.00  0.00    -0.324 N 
ATOM     17  C   UNL A   1      34.852  21.219  24.496  1.00  0.00     0.125 C 
ATOM     18  C   UNL A   1      32.829  19.718  24.359  1.00  0.00     0.010 C 
ATOM     19  C   UNL A   1      34.503  23.478  23.544  1.00  0.00     0.320 C 
ATOM     20  O   UNL A   1      35.314  23.325  22.637  1.00  0.00    -0.248 OA
ATOM     21  N   UNL A   1      33.666  24.565  23.604  1.00  0.00    -0.313 N 
ATOM     22  C   UNL A   1      32.784  24.811  22.487  1.00  0.00     0.183 C 
ATOM     23  C   UNL A   1      33.991  25.720  24.428  1.00  0.00     0.183 C 
ATOM     24  C   UNL A   1      31.512  25.499  23.001  1.00  0.00     0.284 C 
ATOM     25  C   UNL A   1      32.723  26.516  24.819  1.00  0.00     0.284 C 
ATOM     26  H   UNL A   1      30.827  26.969  24.153  1.00  0.00     0.348 HD
ENDBRANCH   9  11
ENDBRANCH   6   9
ENDBRANCH   4   5
ENDBRANCH   3   4
ENDBRANCH   2   3
ENDBRANCH   1   2
BRANCH   1  27
ATOM     27  C   UNL A   1      33.325  32.113  27.960  1.00  0.00     0.021 C 
BRANCH  27  28
ATOM     28  C   UNL A   1      33.578  33.552  27.519  1.00  0.00     0.116 C 
BRANCH  28  29
ATOM     29  N   UNL A   1      33.093  34.512  28.498  1.00  0.00    -0.352 N 
ATOM     30  C   UNL A   1      33.430  34.660  29.820  1.00  0.00     0.251 C 
ATOM     31  H   UNL A   1      32.422  35.150  28.163  1.00  0.00     0.163 HD
ATOM     32  O   UNL A   1      32.730  35.355  30.550  1.00  0.00    -0.269 OA
BRANCH  30  33
ATOM     33  C   UNL A   1      34.626  33.977  30.360  1.00  0.00     0.039 A 
ATOM     34  C   UNL A   1      35.891  34.372  29.920  1.00  0.00     0.014 A 
ATOM     35  C   UNL A   1      34.496  32.929  31.277  1.00  0.00     0.014 A 
ATOM     36  C   UNL A   1      37.029  33.750  30.438  1.00  0.00     0.010 A 
ATOM     37  C   UNL A   1      35.632  32.360  31.846  1.00  0.00     0.010 A 
ATOM     38  C   UNL A   1      36.911  32.759  31.427  1.00  0.00    -0.014 A 
BRANCH  38  39
ATOM     39  C   UNL A   1      38.111  32.111  32.016  1.00  0.00     0.031 A 
ATOM     40  C   UNL A   1      38.825  31.022  31.262  1.00  0.00     0.074 A 
ATOM     41  C   UNL A   1      38.524  32.463  33.248  1.00  0.00     0.049 A 
ATOM     42  N   UNL A   1      39.843  30.288  31.630  1.00  0.00    -0.248 NA
ATOM     43  C   UNL A   1      38.298  30.697  29.929  1.00  0.00     0.031 C 
ATOM     44  C   UNL A   1      37.895  33.485  34.089  1.00  0.00     0.029 A 
ATOM     45  N   UNL A   1      39.566  32.001  34.012  1.00  0.00    -0.354 N 
ATOM     46  C   UNL A   1      40.075  29.408  30.577  1.00  0.00     0.074 A 
ATOM     47  C   UNL A   1      39.042  29.654  29.594  1.00  0.00     0.031 C 
ATOM     48  C   UNL A   1      38.585  33.596  35.235  1.00  0.00     0.029 A 
ATOM     49  C   UNL A   1      39.672  32.623  35.234  1.00  0.00     0.049 A 
ATOM     50  H   UNL A   1      40.178  31.293  33.713  1.00  0.00     0.167 HD
ATOM     51  C   UNL A   1      41.074  28.500  30.431  1.00  0.00     0.034 A 
ATOM     52  C   UNL A   1      40.546  32.425  36.241  1.00  0.00     0.034 A 
ATOM     53  C   UNL A   1      42.096  28.269  31.424  1.00  0.00     0.049 A 
ATOM     54  C   UNL A   1      41.615  31.374  36.082  1.00  0.00     0.074 A 
ATOM     55  C   UNL A   1      43.176  27.405  31.370  1.00  0.00     0.029 A 
ATOM     56  N   UNL A   1      42.160  28.902  32.660  1.00  0.00    -0.354 N 
ATOM     57  N   UNL A   1      41.848  30.578  35.064  1.00  0.00    -0.248 NA
ATOM     58  C   UNL A   1      42.544  31.204  37.205  1.00  0.00     0.031 C 
ATOM     59  C   UNL A   1      43.849  27.464  32.595  1.00  0.00     0.029 A 
ATOM     60  C   UNL A   1      43.240  28.424  33.387  1.00  0.00     0.049 A 
ATOM     61  H   UNL A   1      41.530  29.590  32.973  1.00  0.00     0.167 HD
ATOM     62  C   UNL A   1      42.975  29.838  35.412  1.00  0.00     0.074 A 
ATOM     63  C   UNL A   1      43.377  30.292  36.729  1.00  0.00     0.031 C 
ATOM     64  C   UNL A   1      43.624  28.877  34.706  1.00  0.00     0.034 A 
BRANCH  51  65
ATOM     65  C   UNL A   1      41.078  27.680  29.160  1.00  0.00     0.023 A 
ATOM     66  C   UNL A   1      42.080  27.838  28.185  1.00  0.00     0.031 A 
ATOM     67  C   UNL A   1      40.040  26.772  28.887  1.00  0.00     0.131 A 
ATOM     68  C   UNL A   1      41.970  27.184  26.950  1.00  0.00     0.055 A 
ATOM     69  C   UNL A   1      39.987  26.049  27.693  1.00  0.00     0.041 A 
ATOM     70  F   UNL A   1      39.043  26.589  29.767  1.00  0.00    -0.206 F 
ATOM     71  C   UNL A   1      40.944  26.269  26.707  1.00  0.00     0.022 A 
BRANCH  68  72
ATOM     72  S   UNL A   1      43.078  27.687  25.604  1.00  0.00     0.124 S 
ATOM     73  O   UNL A   1      43.799  26.444  25.337  1.00  0.00    -0.237 OA
ATOM     74  O   UNL A   1      42.143  28.119  24.571  1.00  0.00    -0.237 OA
ATOM     75  O   UNL A   1      43.885  28.749  26.202  1.00  0.00    -0.744 OA
ENDBRANCH  68  72
ENDBRANCH  51  65
BRANCH  52  76
ATOM     76  C   UNL A   1      40.459  33.239  37.487  1.00  0.00     0.023 A 
ATOM     77  C   UNL A   1      39.705  32.793  38.584  1.00  0.00     0.031 A 
ATOM     78  C   UNL A   1      41.098  34.488  37.590  1.00  0.00     0.131 A 
ATOM     79  C   UNL A   1      39.571  33.608  39.718  1.00  0.00     0.055 A 
ATOM     80  C   UNL A   1      41.005  35.271  38.741  1.00  0.00     0.041 A 
ATOM     81  F   UNL A   1      41.836  34.958  36.571  1.00  0.00    -0.206 F 
ATOM     82  C   UNL A   1      40.227  34.837  39.810  1.00  0.00     0.022 A 
BRANCH  79  83
ATOM     83  S   UNL A   1      38.460  33.068  41.046  1.00  0.00     0.124 S 
ATOM     84  O   UNL A   1      38.692  34.089  42.062  1.00  0.00    -0.237 OA
ATOM     85  O   UNL A   1      37.159  33.102  40.386  1.00  0.00    -0.237 OA
ATOM     86  O   UNL A   1      38.953  31.733  41.378  1.00  0.00    -0.744 OA
ENDBRANCH  79  83
ENDBRANCH  52  76
BRANCH  64  87
ATOM     87  C   UNL A   1      44.867  28.292  35.329  1.00  0.00     0.023 A 
ATOM     88  C   UNL A   1      44.825  27.136  36.129  1.00  0.00     0.031 A 
ATOM     89  C   UNL A   1      46.114  28.915  35.135  1.00  0.00     0.131 A 
ATOM     90  C   UNL A   1      45.994  26.673  36.752  1.00  0.00     0.055 A 
ATOM     91  C   UNL A   1      47.284  28.414  35.706  1.00  0.00     0.041 A 
ATOM     92  F   UNL A   1      46.213  30.024  34.383  1.00  0.00    -0.206 F 
ATOM     93  C   UNL A   1      47.226  27.295  36.531  1.00  0.00     0.022 A 
BRANCH  90  94
ATOM     94  S   UNL A   1      45.869  25.302  37.932  1.00  0.00     0.124 S 
ATOM     95  O   UNL A   1      44.996  25.863  38.958  1.00  0.00    -0.237 OA
ATOM     96  O   UNL A   1      45.292  24.238  37.115  1.00  0.00    -0.237 OA
ATOM     97  O   UNL A   1      47.253  25.080  38.349  1.00  0.00    -0.744 OA
ENDBRANCH  90  94
ENDBRANCH  64  87
ENDBRANCH  38  39
ENDBRANCH  30  33
ENDBRANCH  28  29
ENDBRANCH  27  28
ENDBRANCH   1  27
TORSDOF 17
ENDMDL
