MODEL 1
REMARK VINA RESULT:     -10.3      0.000      0.000
REMARK SMILES COCC[C@H](NC(=O)N1CC[C@H](C(=O)OC)C1)C(=O)NCCCCCCNC(=O)c1ccc(-c2c3nc(c(-c4cc(S(=O)(=O)[O-])ccc4F)c4ccc([nH]4)c(-c4cc(S(=O)(=O)[O-])ccc4F)c4nc(c(-c5cc(S(=O)(=O)[O-])ccc5F)c5ccc2[nH]5)C=C4)C=C3)cc1
REMARK SMILES IDX 23 1 22 2 21 3 20 4 18 5 19 6 5 8 4 9 3 10 2 11 1 12 6 13
REMARK SMILES IDX 7 14 8 16 9 17 10 18 17 19 11 20 12 21 13 22 14 23 15 24
REMARK SMILES IDX 16 25 24 26 25 27 26 28 27 29 28 30 29 32 30 33 31 34 92 35
REMARK SMILES IDX 32 36 91 37 33 38 34 39 35 40 85 41 36 42 90 43 84 44 86 45
REMARK SMILES IDX 37 46 89 47 83 48 82 49 38 51 70 52 50 53 69 54 51 55 54 56
REMARK SMILES IDX 68 57 87 58 52 59 53 60 67 62 88 63 55 64 39 65 40 66 48 67
REMARK SMILES IDX 41 68 47 69 49 70 46 71 42 72 43 73 44 74 45 75 71 76 72 77
REMARK SMILES IDX 80 78 73 79 79 80 81 81 78 82 74 83 75 84 76 85 77 86 56 87
REMARK SMILES IDX 57 88 65 89 58 90 64 91 66 92 63 93 59 94 60 95 61 96 62 97
REMARK H PARENT 20 7 6 15 27 31 86 50 54 61
REMARK Flexibility Score: inf
ROOT
ATOM      1  C   UNL A   1      32.073  29.753  27.017  1.00  0.00     0.002 C 
ENDROOT
BRANCH   1   2
ATOM      2  C   UNL A   1      31.797  28.283  26.678  1.00  0.00     0.021 C 
BRANCH   2   3
ATOM      3  C   UNL A   1      31.930  27.956  25.195  1.00  0.00     0.116 C 
BRANCH   3   4
ATOM      4  N   UNL A   1      30.672  27.451  24.689  1.00  0.00    -0.354 N 
ATOM      5  C   UNL A   1      30.320  26.201  24.303  1.00  0.00     0.242 C 
ATOM      6  O   UNL A   1      29.262  26.078  23.677  1.00  0.00    -0.273 OA
ATOM      7  H   UNL A   1      29.957  28.124  24.612  1.00  0.00     0.163 HD
BRANCH   5   8
ATOM      8  C   UNL A   1      31.203  24.988  24.619  1.00  0.00     0.175 C 
BRANCH   8   9
ATOM      9  C   UNL A   1      31.047  23.809  23.642  1.00  0.00     0.063 C 
BRANCH   9  10
ATOM     10  C   UNL A   1      32.291  23.457  22.824  1.00  0.00     0.162 C 
BRANCH  10  11
ATOM     11  O   UNL A   1      32.581  22.062  22.827  1.00  0.00    -0.385 OA
ATOM     12  C   UNL A   1      32.112  21.361  23.971  1.00  0.00     0.194 C 
ENDBRANCH  10  11
ENDBRANCH   9  10
ENDBRANCH   8   9
BRANCH   8  13
ATOM     13  N   UNL A   1      31.005  24.603  26.021  1.00  0.00    -0.326 N 
ATOM     14  C   UNL A   1      31.801  23.830  26.795  1.00  0.00     0.318 C 
ATOM     15  H   UNL A   1      30.191  24.953  26.452  1.00  0.00     0.166 HD
ATOM     16  O   UNL A   1      31.273  23.134  27.661  1.00  0.00    -0.249 OA
BRANCH  14  17
ATOM     17  N   UNL A   1      33.128  23.777  26.524  1.00  0.00    -0.324 N 
ATOM     18  C   UNL A   1      33.969  24.821  25.977  1.00  0.00     0.122 C 
ATOM     19  C   UNL A   1      33.957  22.694  27.023  1.00  0.00     0.136 C 
ATOM     20  C   UNL A   1      35.071  24.022  25.313  1.00  0.00     0.039 C 
ATOM     21  C   UNL A   1      35.309  22.898  26.333  1.00  0.00     0.120 C 
BRANCH  21  22
ATOM     22  C   UNL A   1      35.847  21.645  25.695  1.00  0.00     0.310 C 
ATOM     23  O   UNL A   1      35.135  20.694  25.392  1.00  0.00    -0.252 OA
BRANCH  22  24
ATOM     24  O   UNL A   1      37.197  21.685  25.545  1.00  0.00    -0.469 OA
ATOM     25  C   UNL A   1      37.747  20.533  24.904  1.00  0.00     0.282 C 
ENDBRANCH  22  24
ENDBRANCH  21  22
ENDBRANCH  14  17
ENDBRANCH   8  13
ENDBRANCH   5   8
ENDBRANCH   3   4
ENDBRANCH   2   3
ENDBRANCH   1   2
BRANCH   1  26
ATOM     26  C   UNL A   1      31.478  30.759  26.029  1.00  0.00     0.002 C 
BRANCH  26  27
ATOM     27  C   UNL A   1      31.397  32.194  26.555  1.00  0.00     0.021 C 
BRANCH  27  28
ATOM     28  C   UNL A   1      32.682  32.695  27.201  1.00  0.00     0.116 C 
BRANCH  28  29
ATOM     29  N   UNL A   1      32.538  34.045  27.717  1.00  0.00    -0.352 N 
ATOM     30  C   UNL A   1      33.221  34.645  28.741  1.00  0.00     0.251 C 
ATOM     31  H   UNL A   1      31.861  34.602  27.270  1.00  0.00     0.163 HD
ATOM     32  O   UNL A   1      32.830  35.723  29.187  1.00  0.00    -0.269 OA
BRANCH  30  33
ATOM     33  C   UNL A   1      34.406  33.978  29.316  1.00  0.00     0.039 A 
ATOM     34  C   UNL A   1      34.221  32.984  30.279  1.00  0.00     0.014 A 
ATOM     35  C   UNL A   1      35.697  34.330  28.906  1.00  0.00     0.014 A 
ATOM     36  C   UNL A   1      35.330  32.321  30.805  1.00  0.00     0.010 A 
ATOM     37  C   UNL A   1      36.792  33.608  29.367  1.00  0.00     0.010 A 
ATOM     38  C   UNL A   1      36.622  32.611  30.339  1.00  0.00    -0.014 A 
BRANCH  38  39
ATOM     39  C   UNL A   1      37.807  31.909  30.895  1.00  0.00     0.031 A 
ATOM     40  C   UNL A   1      38.299  32.246  32.278  1.00  0.00     0.074 A 
ATOM     41  C   UNL A   1      38.454  30.992  30.148  1.00  0.00     0.049 A 
ATOM     42  N   UNL A   1      39.325  31.765  32.933  1.00  0.00    -0.248 NA
ATOM     43  C   UNL A   1      37.555  33.283  33.010  1.00  0.00     0.031 C 
ATOM     44  C   UNL A   1      38.095  30.613  28.779  1.00  0.00     0.029 A 
ATOM     45  N   UNL A   1      39.545  30.211  30.431  1.00  0.00    -0.354 N 
ATOM     46  C   UNL A   1      39.353  32.446  34.146  1.00  0.00     0.074 A 
ATOM     47  C   UNL A   1      38.289  33.425  34.101  1.00  0.00     0.031 C 
ATOM     48  C   UNL A   1      38.925  29.646  28.359  1.00  0.00     0.029 A 
ATOM     49  C   UNL A   1      39.904  29.368  29.405  1.00  0.00     0.049 A 
ATOM     50  H   UNL A   1      40.026  30.249  31.289  1.00  0.00     0.167 HD
ATOM     51  C   UNL A   1      40.171  32.253  35.210  1.00  0.00     0.034 A 
ATOM     52  C   UNL A   1      40.912  28.477  29.316  1.00  0.00     0.034 A 
ATOM     53  C   UNL A   1      41.222  31.264  35.238  1.00  0.00     0.049 A 
ATOM     54  C   UNL A   1      41.824  28.296  30.503  1.00  0.00     0.074 A 
ATOM     55  C   UNL A   1      42.083  30.950  36.276  1.00  0.00     0.029 A 
ATOM     56  N   UNL A   1      41.561  30.432  34.177  1.00  0.00    -0.354 N 
ATOM     57  N   UNL A   1      41.806  28.912  31.664  1.00  0.00    -0.248 NA
ATOM     58  C   UNL A   1      42.882  27.286  30.374  1.00  0.00     0.031 C 
ATOM     59  C   UNL A   1      42.988  29.987  35.818  1.00  0.00     0.029 A 
ATOM     60  C   UNL A   1      42.637  29.629  34.527  1.00  0.00     0.049 A 
ATOM     61  H   UNL A   1      41.105  30.415  33.306  1.00  0.00     0.167 HD
ATOM     62  C   UNL A   1      42.827  28.334  32.416  1.00  0.00     0.074 A 
ATOM     63  C   UNL A   1      43.425  27.311  31.582  1.00  0.00     0.031 C 
ATOM     64  C   UNL A   1      43.230  28.618  33.681  1.00  0.00     0.034 A 
BRANCH  51  65
ATOM     65  C   UNL A   1      39.972  33.147  36.412  1.00  0.00     0.023 A 
ATOM     66  C   UNL A   1      39.299  32.701  37.564  1.00  0.00     0.031 A 
ATOM     67  C   UNL A   1      40.434  34.475  36.397  1.00  0.00     0.131 A 
ATOM     68  C   UNL A   1      39.034  33.594  38.613  1.00  0.00     0.055 A 
ATOM     69  C   UNL A   1      40.247  35.334  37.483  1.00  0.00     0.041 A 
ATOM     70  F   UNL A   1      41.063  34.969  35.319  1.00  0.00    -0.206 F 
ATOM     71  C   UNL A   1      39.528  34.899  38.593  1.00  0.00     0.022 A 
BRANCH  68  72
ATOM     72  S   UNL A   1      37.900  33.072  39.929  1.00  0.00     0.124 S 
ATOM     73  O   UNL A   1      38.534  31.840  40.394  1.00  0.00    -0.237 OA
ATOM     74  O   UNL A   1      37.946  34.201  40.852  1.00  0.00    -0.237 OA
ATOM     75  O   UNL A   1      36.629  32.886  39.232  1.00  0.00    -0.744 OA
ENDBRANCH  68  72
ENDBRANCH  51  65
BRANCH  52  76
ATOM     76  C   UNL A   1      41.116  27.687  28.067  1.00  0.00     0.023 A 
ATOM     77  C   UNL A   1      40.816  26.316  28.017  1.00  0.00     0.031 A 
ATOM     78  C   UNL A   1      41.665  28.282  26.917  1.00  0.00     0.131 A 
ATOM     79  C   UNL A   1      41.115  25.574  26.864  1.00  0.00     0.055 A 
ATOM     80  C   UNL A   1      41.904  27.552  25.751  1.00  0.00     0.041 A 
ATOM     81  F   UNL A   1      41.967  29.590  26.906  1.00  0.00    -0.206 F 
ATOM     82  C   UNL A   1      41.643  26.186  25.725  1.00  0.00     0.022 A 
BRANCH  79  83
ATOM     83  S   UNL A   1      40.894  23.774  26.907  1.00  0.00     0.124 S 
ATOM     84  O   UNL A   1      41.870  23.333  25.916  1.00  0.00    -0.237 OA
ATOM     85  O   UNL A   1      41.207  23.464  28.297  1.00  0.00    -0.237 OA
ATOM     86  O   UNL A   1      39.494  23.595  26.529  1.00  0.00    -0.744 OA
ENDBRANCH  79  83
ENDBRANCH  52  76
BRANCH  64  87
ATOM     87  C   UNL A   1      44.337  27.765  34.257  1.00  0.00     0.023 A 
ATOM     88  C   UNL A   1      44.072  26.573  34.954  1.00  0.00     0.031 A 
ATOM     89  C   UNL A   1      45.678  28.168  34.124  1.00  0.00     0.131 A 
ATOM     90  C   UNL A   1      45.125  25.866  35.554  1.00  0.00     0.055 A 
ATOM     91  C   UNL A   1      46.728  27.420  34.658  1.00  0.00     0.041 A 
ATOM     92  F   UNL A   1      45.992  29.299  33.472  1.00  0.00    -0.206 F 
ATOM     93  C   UNL A   1      46.453  26.271  35.393  1.00  0.00     0.022 A 
BRANCH  90  94
ATOM     94  S   UNL A   1      44.726  24.478  36.651  1.00  0.00     0.124 S 
ATOM     95  O   UNL A   1      46.046  24.073  37.120  1.00  0.00    -0.237 OA
ATOM     96  O   UNL A   1      43.859  25.103  37.643  1.00  0.00    -0.237 OA
ATOM     97  O   UNL A   1      44.063  23.521  35.765  1.00  0.00    -0.744 OA
ENDBRANCH  90  94
ENDBRANCH  64  87
ENDBRANCH  38  39
ENDBRANCH  30  33
ENDBRANCH  28  29
ENDBRANCH  27  28
ENDBRANCH  26  27
ENDBRANCH   1  26
TORSDOF 23
ENDMDL
MODEL 2
REMARK VINA RESULT:     -10.1      2.808      4.475
REMARK SMILES COCC[C@H](NC(=O)N1CC[C@H](C(=O)OC)C1)C(=O)NCCCCCCNC(=O)c1ccc(-c2c3nc(c(-c4cc(S(=O)(=O)[O-])ccc4F)c4ccc([nH]4)c(-c4cc(S(=O)(=O)[O-])ccc4F)c4nc(c(-c5cc(S(=O)(=O)[O-])ccc5F)c5ccc2[nH]5)C=C4)C=C3)cc1
REMARK SMILES IDX 23 1 22 2 21 3 20 4 18 5 19 6 5 8 4 9 3 10 2 11 1 12 6 13
REMARK SMILES IDX 7 14 8 16 9 17 10 18 17 19 11 20 12 21 13 22 14 23 15 24
REMARK SMILES IDX 16 25 24 26 25 27 26 28 27 29 28 30 29 32 30 33 31 34 92 35
REMARK SMILES IDX 32 36 91 37 33 38 34 39 35 40 85 41 36 42 90 43 84 44 86 45
REMARK SMILES IDX 37 46 89 47 83 48 82 49 38 51 70 52 50 53 69 54 51 55 54 56
REMARK SMILES IDX 68 57 87 58 52 59 53 60 67 62 88 63 55 64 39 65 40 66 48 67
REMARK SMILES IDX 41 68 47 69 49 70 46 71 42 72 43 73 44 74 45 75 71 76 72 77
REMARK SMILES IDX 80 78 73 79 79 80 81 81 78 82 74 83 75 84 76 85 77 86 56 87
REMARK SMILES IDX 57 88 65 89 58 90 64 91 66 92 63 93 59 94 60 95 61 96 62 97
REMARK H PARENT 20 7 6 15 27 31 86 50 54 61
REMARK Flexibility Score: inf
ROOT
ATOM      1  C   UNL A   1      33.284  25.131  26.130  1.00  0.00     0.002 C 
ENDROOT
BRANCH   1   2
ATOM      2  C   UNL A   1      32.684  23.856  26.734  1.00  0.00     0.021 C 
BRANCH   2   3
ATOM      3  C   UNL A   1      33.724  22.835  27.181  1.00  0.00     0.116 C 
BRANCH   3   4
ATOM      4  N   UNL A   1      34.584  22.490  26.068  1.00  0.00    -0.354 N 
ATOM      5  C   UNL A   1      34.437  21.547  25.107  1.00  0.00     0.242 C 
ATOM      6  O   UNL A   1      35.426  21.286  24.414  1.00  0.00    -0.273 OA
ATOM      7  H   UNL A   1      35.406  23.027  25.999  1.00  0.00     0.163 HD
BRANCH   5   8
ATOM      8  C   UNL A   1      33.102  20.824  24.893  1.00  0.00     0.175 C 
BRANCH   8   9
ATOM      9  C   UNL A   1      32.912  19.562  25.753  1.00  0.00     0.063 C 
BRANCH   9  10
ATOM     10  C   UNL A   1      32.630  18.271  24.983  1.00  0.00     0.162 C 
BRANCH  10  11
ATOM     11  O   UNL A   1      33.655  17.944  24.051  1.00  0.00    -0.385 OA
ATOM     12  C   UNL A   1      34.692  17.124  24.573  1.00  0.00     0.194 C 
ENDBRANCH  10  11
ENDBRANCH   9  10
ENDBRANCH   8   9
BRANCH   8  13
ATOM     13  N   UNL A   1      32.917  20.576  23.458  1.00  0.00    -0.326 N 
ATOM     14  C   UNL A   1      32.284  21.356  22.551  1.00  0.00     0.318 C 
ATOM     15  H   UNL A   1      33.303  19.738  23.113  1.00  0.00     0.166 HD
ATOM     16  O   UNL A   1      31.706  20.808  21.615  1.00  0.00    -0.249 OA
BRANCH  14  17
ATOM     17  N   UNL A   1      32.228  22.694  22.763  1.00  0.00    -0.324 N 
ATOM     18  C   UNL A   1      31.233  23.439  23.506  1.00  0.00     0.122 C 
ATOM     19  C   UNL A   1      33.364  23.551  22.474  1.00  0.00     0.136 C 
ATOM     20  C   UNL A   1      31.311  24.804  22.856  1.00  0.00     0.039 C 
ATOM     21  C   UNL A   1      32.824  24.973  22.651  1.00  0.00     0.120 C 
BRANCH  21  22
ATOM     22  C   UNL A   1      33.151  25.882  21.495  1.00  0.00     0.310 C 
ATOM     23  O   UNL A   1      32.944  25.575  20.327  1.00  0.00    -0.252 OA
BRANCH  22  24
ATOM     24  O   UNL A   1      33.735  27.040  21.903  1.00  0.00    -0.469 OA
ATOM     25  C   UNL A   1      32.855  27.920  22.605  1.00  0.00     0.282 C 
ENDBRANCH  22  24
ENDBRANCH  21  22
ENDBRANCH  14  17
ENDBRANCH   8  13
ENDBRANCH   5   8
ENDBRANCH   3   4
ENDBRANCH   2   3
ENDBRANCH   1   2
BRANCH   1  26
ATOM     26  C   UNL A   1      32.409  26.379  26.273  1.00  0.00     0.002 C 
BRANCH  26  27
ATOM     27  C   UNL A   1      33.179  27.701  26.256  1.00  0.00     0.021 C 
BRANCH  27  28
ATOM     28  C   UNL A   1      33.216  28.419  27.598  1.00  0.00     0.116 C 
BRANCH  28  29
ATOM     29  N   UNL A   1      33.256  29.862  27.440  1.00  0.00    -0.352 N 
ATOM     30  C   UNL A   1      34.241  30.736  27.817  1.00  0.00     0.251 C 
ATOM     31  H   UNL A   1      32.470  30.265  27.004  1.00  0.00     0.163 HD
ATOM     32  O   UNL A   1      34.022  31.947  27.800  1.00  0.00    -0.269 OA
BRANCH  30  33
ATOM     33  C   UNL A   1      35.547  30.212  28.264  1.00  0.00     0.039 A 
ATOM     34  C   UNL A   1      36.620  30.224  27.372  1.00  0.00     0.014 A 
ATOM     35  C   UNL A   1      35.713  29.713  29.561  1.00  0.00     0.014 A 
ATOM     36  C   UNL A   1      37.869  29.765  27.793  1.00  0.00     0.010 A 
ATOM     37  C   UNL A   1      36.977  29.339  30.003  1.00  0.00     0.010 A 
ATOM     38  C   UNL A   1      38.064  29.339  29.117  1.00  0.00    -0.014 A 
BRANCH  38  39
ATOM     39  C   UNL A   1      39.390  28.849  29.571  1.00  0.00     0.031 A 
ATOM     40  C   UNL A   1      40.119  29.568  30.676  1.00  0.00     0.074 A 
ATOM     41  C   UNL A   1      39.949  27.777  28.974  1.00  0.00     0.049 A 
ATOM     42  N   UNL A   1      41.291  29.314  31.199  1.00  0.00    -0.248 NA
ATOM     43  C   UNL A   1      39.451  30.749  31.247  1.00  0.00     0.031 C 
ATOM     44  C   UNL A   1      39.357  27.024  27.865  1.00  0.00     0.029 A 
ATOM     45  N   UNL A   1      41.136  27.133  29.214  1.00  0.00    -0.354 N 
ATOM     46  C   UNL A   1      41.504  30.304  32.151  1.00  0.00     0.074 A 
ATOM     47  C   UNL A   1      40.374  31.206  32.078  1.00  0.00     0.031 C 
ATOM     48  C   UNL A   1      40.164  26.000  27.549  1.00  0.00     0.029 A 
ATOM     49  C   UNL A   1      41.352  26.048  28.396  1.00  0.00     0.049 A 
ATOM     50  H   UNL A   1      41.773  27.419  29.906  1.00  0.00     0.167 HD
ATOM     51  C   UNL A   1      42.531  30.435  33.027  1.00  0.00     0.034 A 
ATOM     52  C   UNL A   1      42.392  25.192  28.333  1.00  0.00     0.034 A 
ATOM     53  C   UNL A   1      43.645  29.520  33.091  1.00  0.00     0.049 A 
ATOM     54  C   UNL A   1      43.535  25.370  29.301  1.00  0.00     0.074 A 
ATOM     55  C   UNL A   1      44.718  29.528  33.964  1.00  0.00     0.029 A 
ATOM     56  N   UNL A   1      43.833  28.435  32.242  1.00  0.00    -0.354 N 
ATOM     57  N   UNL A   1      43.698  26.284  30.232  1.00  0.00    -0.248 NA
ATOM     58  C   UNL A   1      44.626  24.391  29.221  1.00  0.00     0.031 C 
ATOM     59  C   UNL A   1      45.591  28.498  33.596  1.00  0.00     0.029 A 
ATOM     60  C   UNL A   1      45.020  27.788  32.553  1.00  0.00     0.049 A 
ATOM     61  H   UNL A   1      43.215  28.165  31.526  1.00  0.00     0.167 HD
ATOM     62  C   UNL A   1      44.892  25.963  30.872  1.00  0.00     0.074 A 
ATOM     63  C   UNL A   1      45.394  24.764  30.232  1.00  0.00     0.031 C 
ATOM     64  C   UNL A   1      45.515  26.597  31.900  1.00  0.00     0.034 A 
BRANCH  51  65
ATOM     65  C   UNL A   1      42.502  31.622  33.962  1.00  0.00     0.023 A 
ATOM     66  C   UNL A   1      41.578  31.711  35.019  1.00  0.00     0.031 A 
ATOM     67  C   UNL A   1      43.390  32.697  33.778  1.00  0.00     0.131 A 
ATOM     68  C   UNL A   1      41.507  32.878  35.794  1.00  0.00     0.055 A 
ATOM     69  C   UNL A   1      43.375  33.818  34.611  1.00  0.00     0.041 A 
ATOM     70  F   UNL A   1      44.281  32.684  32.774  1.00  0.00    -0.206 F 
ATOM     71  C   UNL A   1      42.418  33.921  35.616  1.00  0.00     0.022 A 
BRANCH  68  72
ATOM     72  S   UNL A   1      40.106  33.080  36.930  1.00  0.00     0.124 S 
ATOM     73  O   UNL A   1      39.845  31.697  37.323  1.00  0.00    -0.237 OA
ATOM     74  O   UNL A   1      40.662  33.943  37.966  1.00  0.00    -0.237 OA
ATOM     75  O   UNL A   1      39.074  33.689  36.095  1.00  0.00    -0.744 OA
ENDBRANCH  68  72
ENDBRANCH  51  65
BRANCH  52  76
ATOM     76  C   UNL A   1      42.408  24.092  27.325  1.00  0.00     0.023 A 
ATOM     77  C   UNL A   1      41.790  22.859  27.586  1.00  0.00     0.031 A 
ATOM     78  C   UNL A   1      43.089  24.241  26.103  1.00  0.00     0.131 A 
ATOM     79  C   UNL A   1      41.908  21.806  26.665  1.00  0.00     0.055 A 
ATOM     80  C   UNL A   1      43.152  23.210  25.164  1.00  0.00     0.041 A 
ATOM     81  F   UNL A   1      43.694  25.400  25.798  1.00  0.00    -0.206 F 
ATOM     82  C   UNL A   1      42.573  21.979  25.449  1.00  0.00     0.022 A 
BRANCH  79  83
ATOM     83  S   UNL A   1      41.265  20.174  27.124  1.00  0.00     0.124 S 
ATOM     84  O   UNL A   1      40.660  20.448  28.423  1.00  0.00    -0.237 OA
ATOM     85  O   UNL A   1      40.340  19.895  26.032  1.00  0.00    -0.237 OA
ATOM     86  O   UNL A   1      42.461  19.334  27.156  1.00  0.00    -0.744 OA
ENDBRANCH  79  83
ENDBRANCH  52  76
BRANCH  64  87
ATOM     87  C   UNL A   1      46.782  25.965  32.429  1.00  0.00     0.023 A 
ATOM     88  C   UNL A   1      46.764  25.032  33.481  1.00  0.00     0.031 A 
ATOM     89  C   UNL A   1      48.028  26.324  31.886  1.00  0.00     0.131 A 
ATOM     90  C   UNL A   1      47.972  24.546  34.004  1.00  0.00     0.055 A 
ATOM     91  C   UNL A   1      49.223  25.780  32.361  1.00  0.00     0.041 A 
ATOM     92  F   UNL A   1      48.108  27.213  30.883  1.00  0.00    -0.206 F 
ATOM     93  C   UNL A   1      49.200  24.899  33.437  1.00  0.00     0.022 A 
BRANCH  90  94
ATOM     94  S   UNL A   1      47.924  23.542  35.514  1.00  0.00     0.124 S 
ATOM     95  O   UNL A   1      49.342  23.371  35.809  1.00  0.00    -0.237 OA
ATOM     96  O   UNL A   1      47.180  24.396  36.433  1.00  0.00    -0.237 OA
ATOM     97  O   UNL A   1      47.227  22.327  35.095  1.00  0.00    -0.744 OA
ENDBRANCH  90  94
ENDBRANCH  64  87
ENDBRANCH  38  39
ENDBRANCH  30  33
ENDBRANCH  28  29
ENDBRANCH  27  28
ENDBRANCH  26  27
ENDBRANCH   1  26
TORSDOF 23
ENDMDL
MODEL 3
REMARK VINA RESULT:      -9.9      1.517      8.133
REMARK SMILES COCC[C@H](NC(=O)N1CC[C@H](C(=O)OC)C1)C(=O)NCCCCCCNC(=O)c1ccc(-c2c3nc(c(-c4cc(S(=O)(=O)[O-])ccc4F)c4ccc([nH]4)c(-c4cc(S(=O)(=O)[O-])ccc4F)c4nc(c(-c5cc(S(=O)(=O)[O-])ccc5F)c5ccc2[nH]5)C=C4)C=C3)cc1
REMARK SMILES IDX 23 1 22 2 21 3 20 4 18 5 19 6 5 8 4 9 3 10 2 11 1 12 6 13
REMARK SMILES IDX 7 14 8 16 9 17 10 18 17 19 11 20 12 21 13 22 14 23 15 24
REMARK SMILES IDX 16 25 24 26 25 27 26 28 27 29 28 30 29 32 30 33 31 34 92 35
REMARK SMILES IDX 32 36 91 37 33 38 34 39 35 40 85 41 36 42 90 43 84 44 86 45
REMARK SMILES IDX 37 46 89 47 83 48 82 49 38 51 70 52 50 53 69 54 51 55 54 56
REMARK SMILES IDX 68 57 87 58 52 59 53 60 67 62 88 63 55 64 39 65 40 66 48 67
REMARK SMILES IDX 41 68 47 69 49 70 46 71 42 72 43 73 44 74 45 75 71 76 72 77
REMARK SMILES IDX 80 78 73 79 79 80 81 81 78 82 74 83 75 84 76 85 77 86 56 87
REMARK SMILES IDX 57 88 65 89 58 90 64 91 66 92 63 93 59 94 60 95 61 96 62 97
REMARK H PARENT 20 7 6 15 27 31 86 50 54 61
REMARK Flexibility Score: inf
ROOT
ATOM      1  C   UNL A   1      33.154  29.679  26.733  1.00  0.00     0.002 C 
ENDROOT
BRANCH   1   2
ATOM      2  C   UNL A   1      33.026  28.611  25.640  1.00  0.00     0.021 C 
BRANCH   2   3
ATOM      3  C   UNL A   1      32.629  27.235  26.165  1.00  0.00     0.116 C 
BRANCH   3   4
ATOM      4  N   UNL A   1      33.677  26.279  25.876  1.00  0.00    -0.354 N 
ATOM      5  C   UNL A   1      33.633  25.113  25.186  1.00  0.00     0.242 C 
ATOM      6  O   UNL A   1      34.604  24.357  25.290  1.00  0.00    -0.273 OA
ATOM      7  H   UNL A   1      34.561  26.512  26.238  1.00  0.00     0.163 HD
BRANCH   5   8
ATOM      8  C   UNL A   1      32.423  24.740  24.322  1.00  0.00     0.175 C 
BRANCH   8   9
ATOM      9  C   UNL A   1      32.013  23.258  24.398  1.00  0.00     0.063 C 
BRANCH   9  10
ATOM     10  C   UNL A   1      32.845  22.296  23.550  1.00  0.00     0.162 C 
BRANCH  10  11
ATOM     11  O   UNL A   1      32.316  20.973  23.529  1.00  0.00    -0.385 OA
ATOM     12  C   UNL A   1      33.096  20.012  24.229  1.00  0.00     0.194 C 
ENDBRANCH  10  11
ENDBRANCH   9  10
ENDBRANCH   8   9
BRANCH   8  13
ATOM     13  N   UNL A   1      32.656  25.202  22.948  1.00  0.00    -0.326 N 
ATOM     14  C   UNL A   1      31.844  25.959  22.174  1.00  0.00     0.318 C 
ATOM     15  H   UNL A   1      33.510  24.930  22.541  1.00  0.00     0.166 HD
ATOM     16  O   UNL A   1      31.859  25.773  20.959  1.00  0.00    -0.249 OA
BRANCH  14  17
ATOM     17  N   UNL A   1      30.980  26.816  22.771  1.00  0.00    -0.324 N 
ATOM     18  C   UNL A   1      29.927  26.507  23.716  1.00  0.00     0.122 C 
ATOM     19  C   UNL A   1      31.193  28.252  22.731  1.00  0.00     0.136 C 
ATOM     20  C   UNL A   1      28.961  27.652  23.496  1.00  0.00     0.039 C 
ATOM     21  C   UNL A   1      29.913  28.845  23.327  1.00  0.00     0.120 C 
BRANCH  21  22
ATOM     22  C   UNL A   1      29.319  29.944  22.486  1.00  0.00     0.310 C 
ATOM     23  O   UNL A   1      29.146  29.838  21.278  1.00  0.00    -0.252 OA
BRANCH  22  24
ATOM     24  O   UNL A   1      29.048  31.058  23.216  1.00  0.00    -0.469 OA
ATOM     25  C   UNL A   1      27.660  31.251  23.493  1.00  0.00     0.282 C 
ENDBRANCH  22  24
ENDBRANCH  21  22
ENDBRANCH  14  17
ENDBRANCH   8  13
ENDBRANCH   5   8
ENDBRANCH   3   4
ENDBRANCH   2   3
ENDBRANCH   1   2
BRANCH   1  26
ATOM     26  C   UNL A   1      31.822  30.239  27.238  1.00  0.00     0.002 C 
BRANCH  26  27
ATOM     27  C   UNL A   1      31.530  31.676  26.803  1.00  0.00     0.021 C 
BRANCH  27  28
ATOM     28  C   UNL A   1      32.768  32.555  26.681  1.00  0.00     0.116 C 
BRANCH  28  29
ATOM     29  N   UNL A   1      32.558  33.871  27.258  1.00  0.00    -0.352 N 
ATOM     30  C   UNL A   1      33.129  34.413  28.379  1.00  0.00     0.251 C 
ATOM     31  H   UNL A   1      31.921  34.449  26.780  1.00  0.00     0.163 HD
ATOM     32  O   UNL A   1      32.682  35.460  28.846  1.00  0.00    -0.269 OA
BRANCH  30  33
ATOM     33  C   UNL A   1      34.259  33.720  29.029  1.00  0.00     0.039 A 
ATOM     34  C   UNL A   1      35.555  34.188  28.808  1.00  0.00     0.014 A 
ATOM     35  C   UNL A   1      34.040  32.613  29.857  1.00  0.00     0.014 A 
ATOM     36  C   UNL A   1      36.629  33.565  29.444  1.00  0.00     0.010 A 
ATOM     37  C   UNL A   1      35.102  32.050  30.556  1.00  0.00     0.010 A 
ATOM     38  C   UNL A   1      36.411  32.505  30.340  1.00  0.00    -0.014 A 
BRANCH  38  39
ATOM     39  C   UNL A   1      37.549  31.836  31.020  1.00  0.00     0.031 A 
ATOM     40  C   UNL A   1      38.376  30.820  30.277  1.00  0.00     0.074 A 
ATOM     41  C   UNL A   1      37.821  32.123  32.309  1.00  0.00     0.049 A 
ATOM     42  N   UNL A   1      39.392  30.111  30.698  1.00  0.00    -0.248 NA
ATOM     43  C   UNL A   1      37.987  30.542  28.885  1.00  0.00     0.031 C 
ATOM     44  C   UNL A   1      37.064  33.060  33.143  1.00  0.00     0.029 A 
ATOM     45  N   UNL A   1      38.807  31.660  33.143  1.00  0.00    -0.354 N 
ATOM     46  C   UNL A   1      39.758  29.301  29.628  1.00  0.00     0.074 A 
ATOM     47  C   UNL A   1      38.805  29.551  28.568  1.00  0.00     0.031 C 
ATOM     48  C   UNL A   1      37.637  33.130  34.355  1.00  0.00     0.029 A 
ATOM     49  C   UNL A   1      38.770  32.212  34.403  1.00  0.00     0.049 A 
ATOM     50  H   UNL A   1      39.478  30.996  32.866  1.00  0.00     0.167 HD
ATOM     51  C   UNL A   1      40.808  28.448  29.527  1.00  0.00     0.034 A 
ATOM     52  C   UNL A   1      39.557  31.997  35.476  1.00  0.00     0.034 A 
ATOM     53  C   UNL A   1      41.753  28.218  30.593  1.00  0.00     0.049 A 
ATOM     54  C   UNL A   1      40.705  31.027  35.348  1.00  0.00     0.074 A 
ATOM     55  C   UNL A   1      42.878  27.412  30.589  1.00  0.00     0.029 A 
ATOM     56  N   UNL A   1      41.680  28.790  31.858  1.00  0.00    -0.354 N 
ATOM     57  N   UNL A   1      41.069  30.305  34.312  1.00  0.00    -0.248 NA
ATOM     58  C   UNL A   1      41.559  30.855  36.530  1.00  0.00     0.031 C 
ATOM     59  C   UNL A   1      43.439  27.436  31.871  1.00  0.00     0.029 A 
ATOM     60  C   UNL A   1      42.722  28.329  32.650  1.00  0.00     0.049 A 
ATOM     61  H   UNL A   1      40.991  29.429  32.150  1.00  0.00     0.167 HD
ATOM     62  C   UNL A   1      42.217  29.624  34.709  1.00  0.00     0.074 A 
ATOM     63  C   UNL A   1      42.492  30.037  36.070  1.00  0.00     0.031 C 
ATOM     64  C   UNL A   1      42.980  28.743  34.011  1.00  0.00     0.034 A 
BRANCH  51  65
ATOM     65  C   UNL A   1      40.966  27.689  28.230  1.00  0.00     0.023 A 
ATOM     66  C   UNL A   1      40.612  26.333  28.116  1.00  0.00     0.031 A 
ATOM     67  C   UNL A   1      41.508  28.320  27.095  1.00  0.00     0.131 A 
ATOM     68  C   UNL A   1      40.879  25.634  26.930  1.00  0.00     0.055 A 
ATOM     69  C   UNL A   1      41.687  27.642  25.888  1.00  0.00     0.041 A 
ATOM     70  F   UNL A   1      41.888  29.607  27.145  1.00  0.00    -0.206 F 
ATOM     71  C   UNL A   1      41.387  26.285  25.806  1.00  0.00     0.022 A 
BRANCH  68  72
ATOM     72  S   UNL A   1      40.701  23.827  26.931  1.00  0.00     0.124 S 
ATOM     73  O   UNL A   1      41.040  23.498  28.313  1.00  0.00    -0.237 OA
ATOM     74  O   UNL A   1      39.302  23.648  26.557  1.00  0.00    -0.237 OA
ATOM     75  O   UNL A   1      41.675  23.387  25.935  1.00  0.00    -0.744 OA
ENDBRANCH  68  72
ENDBRANCH  51  65
BRANCH  52  76
ATOM     76  C   UNL A   1      39.296  32.708  36.762  1.00  0.00     0.023 A 
ATOM     77  C   UNL A   1      38.432  32.168  37.727  1.00  0.00     0.031 A 
ATOM     78  C   UNL A   1      39.869  33.966  37.022  1.00  0.00     0.131 A 
ATOM     79  C   UNL A   1      38.123  32.904  38.882  1.00  0.00     0.055 A 
ATOM     80  C   UNL A   1      39.606  34.667  38.200  1.00  0.00     0.041 A 
ATOM     81  F   UNL A   1      40.707  34.528  36.136  1.00  0.00    -0.206 F 
ATOM     82  C   UNL A   1      38.716  34.144  39.131  1.00  0.00     0.022 A 
BRANCH  79  83
ATOM     83  S   UNL A   1      36.855  32.261  40.008  1.00  0.00     0.124 S 
ATOM     84  O   UNL A   1      35.646  32.401  39.205  1.00  0.00    -0.237 OA
ATOM     85  O   UNL A   1      37.318  30.897  40.238  1.00  0.00    -0.237 OA
ATOM     86  O   UNL A   1      36.945  33.151  41.164  1.00  0.00    -0.744 OA
ENDBRANCH  79  83
ENDBRANCH  52  76
BRANCH  64  87
ATOM     87  C   UNL A   1      44.218  28.213  34.696  1.00  0.00     0.023 A 
ATOM     88  C   UNL A   1      44.193  27.045  35.478  1.00  0.00     0.031 A 
ATOM     89  C   UNL A   1      45.437  28.904  34.582  1.00  0.00     0.131 A 
ATOM     90  C   UNL A   1      45.344  26.644  36.173  1.00  0.00     0.055 A 
ATOM     91  C   UNL A   1      46.598  28.460  35.216  1.00  0.00     0.041 A 
ATOM     92  F   UNL A   1      45.522  30.028  33.852  1.00  0.00    -0.206 F 
ATOM     93  C   UNL A   1      46.552  27.334  36.031  1.00  0.00     0.022 A 
BRANCH  90  94
ATOM     94  S   UNL A   1      45.211  25.283  37.364  1.00  0.00     0.124 S 
ATOM     95  O   UNL A   1      46.595  25.119  37.794  1.00  0.00    -0.237 OA
ATOM     96  O   UNL A   1      44.293  25.827  38.359  1.00  0.00    -0.237 OA
ATOM     97  O   UNL A   1      44.676  24.180  36.565  1.00  0.00    -0.744 OA
ENDBRANCH  90  94
ENDBRANCH  64  87
ENDBRANCH  38  39
ENDBRANCH  30  33
ENDBRANCH  28  29
ENDBRANCH  27  28
ENDBRANCH  26  27
ENDBRANCH   1  26
TORSDOF 23
ENDMDL
