MODEL 1
REMARK VINA RESULT:     -12.2      0.000      0.000
REMARK SMILES Cc1cc(Nc2ccc(C(=O)NCCCCCCNC(=O)c3ccc(-c4c5nc(c(-c6cc(S(=O)(=O)[O-])ccc6F)c6ccc([nH]6)c(-c6cc(S(=O)(=O)[O-])ccc6F)c6nc(c(-c7cc(S(=O)(=O)[O-])ccc7F)c7ccc4[nH]7)C=C6)C=C5)cc3)cc2)nc(-n2nc(C)cc2C)n1
REMARK SMILES IDX 15 1 14 2 13 3 12 4 10 5 11 6 9 8 6 9 7 10 86 11 8 12 85 13
REMARK SMILES IDX 5 14 4 16 1 17 2 18 3 19 96 20 88 21 87 22 89 23 90 24 94 25
REMARK SMILES IDX 91 26 93 27 95 28 92 29 16 30 17 31 18 32 19 33 20 34 21 36
REMARK SMILES IDX 22 37 23 38 84 39 24 40 83 41 25 42 26 43 27 44 77 45 28 46
REMARK SMILES IDX 82 47 76 48 78 49 29 50 81 51 75 52 74 53 30 55 62 56 42 57
REMARK SMILES IDX 61 58 43 59 46 60 60 61 79 62 44 63 45 64 59 66 80 67 47 68
REMARK SMILES IDX 31 69 32 70 40 71 33 72 39 73 41 74 38 75 34 76 35 77 36 78
REMARK SMILES IDX 37 79 63 80 64 81 72 82 65 83 71 84 73 85 70 86 66 87 67 88
REMARK SMILES IDX 68 89 69 90 48 91 49 92 57 93 50 94 56 95 58 96 55 97 51 98
REMARK SMILES IDX 52 99 53 100 54 101
REMARK H PARENT 12 7 5 15 19 35 78 54 46 65
REMARK Flexibility Score: inf
ROOT
ATOM      1  C   UNL A   1      35.286  21.205  24.975  1.00  0.00     0.002 C 
ENDROOT
BRANCH   1   2
ATOM      2  C   UNL A   1      34.529  19.874  24.848  1.00  0.00     0.021 C 
BRANCH   2   3
ATOM      3  C   UNL A   1      33.010  20.033  24.948  1.00  0.00     0.116 C 
BRANCH   3   4
ATOM      4  N   UNL A   1      32.442  20.149  23.616  1.00  0.00    -0.352 N 
ATOM      5  C   UNL A   1      32.137  21.226  22.824  1.00  0.00     0.251 C 
ATOM      6  O   UNL A   1      31.631  21.003  21.723  1.00  0.00    -0.269 OA
ATOM      7  H   UNL A   1      32.234  19.282  23.199  1.00  0.00     0.163 HD
BRANCH   5   8
ATOM      8  C   UNL A   1      32.457  22.629  23.198  1.00  0.00     0.039 A 
ATOM      9  C   UNL A   1      33.371  25.198  23.910  1.00  0.00     0.040 A 
ATOM     10  C   UNL A   1      33.917  24.542  22.810  1.00  0.00     0.027 A 
ATOM     11  C   UNL A   1      32.277  24.618  24.565  1.00  0.00     0.027 A 
ATOM     12  C   UNL A   1      33.481  23.258  22.472  1.00  0.00     0.016 A 
ATOM     13  C   UNL A   1      31.807  23.353  24.197  1.00  0.00     0.016 A 
BRANCH   9  14
ATOM     14  N   UNL A   1      33.850  26.465  24.284  1.00  0.00    -0.340 N 
ATOM     15  H   UNL A   1      34.825  26.609  24.287  1.00  0.00     0.168 HD
BRANCH  14  16
ATOM     16  C   UNL A   1      33.022  27.541  24.656  1.00  0.00     0.136 A 
ATOM     17  C   UNL A   1      32.811  30.268  27.221  1.00  0.00     0.067 C 
ATOM     18  C   UNL A   1      32.565  29.409  26.018  1.00  0.00     0.045 A 
ATOM     19  C   UNL A   1      33.358  28.310  25.752  1.00  0.00     0.070 A 
ATOM     20  N   UNL A   1      31.502  29.729  25.256  1.00  0.00    -0.216 NA
ATOM     21  C   UNL A   1      31.176  28.865  24.268  1.00  0.00     0.252 A 
ATOM     22  N   UNL A   1      31.898  27.771  23.959  1.00  0.00    -0.194 NA
BRANCH  21  23
ATOM     23  N   UNL A   1      29.967  29.114  23.529  1.00  0.00    -0.203 N 
ATOM     24  N   UNL A   1      29.701  30.340  22.984  1.00  0.00    -0.170 NA
ATOM     25  C   UNL A   1      28.970  28.200  23.212  1.00  0.00     0.045 A 
ATOM     26  C   UNL A   1      28.647  30.138  22.188  1.00  0.00     0.060 A 
ATOM     27  C   UNL A   1      28.132  28.834  22.321  1.00  0.00     0.049 A 
ATOM     28  C   UNL A   1      28.865  26.855  23.830  1.00  0.00     0.067 C 
ATOM     29  C   UNL A   1      28.150  31.224  21.310  1.00  0.00     0.069 C 
ENDBRANCH  21  23
ENDBRANCH  14  16
ENDBRANCH   9  14
ENDBRANCH   5   8
ENDBRANCH   3   4
ENDBRANCH   2   3
ENDBRANCH   1   2
BRANCH   1  30
ATOM     30  C   UNL A   1      34.934  22.031  26.218  1.00  0.00     0.002 C 
BRANCH  30  31
ATOM     31  C   UNL A   1      35.470  23.466  26.216  1.00  0.00     0.021 C 
BRANCH  31  32
ATOM     32  C   UNL A   1      36.844  23.628  25.571  1.00  0.00     0.116 C 
BRANCH  32  33
ATOM     33  N   UNL A   1      37.797  22.658  26.085  1.00  0.00    -0.352 N 
ATOM     34  C   UNL A   1      39.028  22.866  26.659  1.00  0.00     0.251 C 
ATOM     35  H   UNL A   1      37.521  21.717  26.011  1.00  0.00     0.163 HD
ATOM     36  O   UNL A   1      39.792  21.918  26.811  1.00  0.00    -0.269 OA
BRANCH  34  37
ATOM     37  C   UNL A   1      39.432  24.227  27.075  1.00  0.00     0.039 A 
ATOM     38  C   UNL A   1      39.152  24.646  28.378  1.00  0.00     0.014 A 
ATOM     39  C   UNL A   1      40.060  25.097  26.178  1.00  0.00     0.014 A 
ATOM     40  C   UNL A   1      39.545  25.919  28.796  1.00  0.00     0.010 A 
ATOM     41  C   UNL A   1      40.514  26.339  26.618  1.00  0.00     0.010 A 
ATOM     42  C   UNL A   1      40.255  26.767  27.928  1.00  0.00    -0.014 A 
BRANCH  42  43
ATOM     43  C   UNL A   1      40.723  28.102  28.381  1.00  0.00     0.031 A 
ATOM     44  C   UNL A   1      42.193  28.402  28.474  1.00  0.00     0.074 A 
ATOM     45  C   UNL A   1      39.819  29.029  28.754  1.00  0.00     0.049 A 
ATOM     46  N   UNL A   1      42.794  29.499  28.860  1.00  0.00    -0.248 NA
ATOM     47  C   UNL A   1      43.109  27.310  28.117  1.00  0.00     0.031 C 
ATOM     48  C   UNL A   1      38.367  28.840  28.751  1.00  0.00     0.029 A 
ATOM     49  N   UNL A   1      39.985  30.313  29.204  1.00  0.00    -0.354 N 
ATOM     50  C   UNL A   1      44.157  29.226  28.804  1.00  0.00     0.074 A 
ATOM     51  C   UNL A   1      44.287  27.837  28.413  1.00  0.00     0.031 C 
ATOM     52  C   UNL A   1      37.775  29.980  29.138  1.00  0.00     0.029 A 
ATOM     53  C   UNL A   1      38.802  30.968  29.455  1.00  0.00     0.049 A 
ATOM     54  H   UNL A   1      40.868  30.727  29.336  1.00  0.00     0.167 HD
ATOM     55  C   UNL A   1      45.203  30.063  29.033  1.00  0.00     0.034 A 
ATOM     56  C   UNL A   1      38.571  32.223  29.886  1.00  0.00     0.034 A 
ATOM     57  C   UNL A   1      45.050  31.447  29.415  1.00  0.00     0.049 A 
ATOM     58  C   UNL A   1      39.745  33.127  30.156  1.00  0.00     0.074 A 
ATOM     59  C   UNL A   1      46.033  32.404  29.602  1.00  0.00     0.029 A 
ATOM     60  N   UNL A   1      43.837  32.070  29.684  1.00  0.00    -0.354 N 
ATOM     61  N   UNL A   1      41.028  32.878  30.034  1.00  0.00    -0.248 NA
ATOM     62  C   UNL A   1      39.433  34.487  30.613  1.00  0.00     0.031 C 
ATOM     63  C   UNL A   1      45.421  33.580  30.055  1.00  0.00     0.029 A 
ATOM     64  C   UNL A   1      44.049  33.385  30.076  1.00  0.00     0.049 A 
ATOM     65  H   UNL A   1      42.955  31.640  29.607  1.00  0.00     0.167 HD
ATOM     66  C   UNL A   1      41.677  34.061  30.374  1.00  0.00     0.074 A 
ATOM     67  C   UNL A   1      40.641  35.026  30.687  1.00  0.00     0.031 C 
ATOM     68  C   UNL A   1      43.009  34.329  30.416  1.00  0.00     0.034 A 
BRANCH  55  69
ATOM     69  C   UNL A   1      46.594  29.478  28.908  1.00  0.00     0.023 A 
ATOM     70  C   UNL A   1      47.211  29.296  27.657  1.00  0.00     0.031 A 
ATOM     71  C   UNL A   1      47.289  29.041  30.049  1.00  0.00     0.131 A 
ATOM     72  C   UNL A   1      48.428  28.603  27.569  1.00  0.00     0.055 A 
ATOM     73  C   UNL A   1      48.545  28.437  29.962  1.00  0.00     0.041 A 
ATOM     74  F   UNL A   1      46.748  29.169  31.271  1.00  0.00    -0.206 F 
ATOM     75  C   UNL A   1      49.112  28.195  28.714  1.00  0.00     0.022 A 
BRANCH  72  76
ATOM     76  S   UNL A   1      49.006  28.079  25.930  1.00  0.00     0.124 S 
ATOM     77  O   UNL A   1      50.148  28.965  25.722  1.00  0.00    -0.237 OA
ATOM     78  O   UNL A   1      49.318  26.671  26.142  1.00  0.00    -0.237 OA
ATOM     79  O   UNL A   1      47.859  28.342  25.062  1.00  0.00    -0.744 OA
ENDBRANCH  72  76
ENDBRANCH  55  69
BRANCH  56  80
ATOM     80  C   UNL A   1      37.175  32.708  30.069  1.00  0.00     0.023 A 
ATOM     81  C   UNL A   1      36.659  32.936  31.355  1.00  0.00     0.031 A 
ATOM     82  C   UNL A   1      36.330  32.931  28.968  1.00  0.00     0.131 A 
ATOM     83  C   UNL A   1      35.325  33.339  31.511  1.00  0.00     0.055 A 
ATOM     84  C   UNL A   1      35.017  33.376  29.126  1.00  0.00     0.041 A 
ATOM     85  F   UNL A   1      36.779  32.735  27.717  1.00  0.00    -0.206 F 
ATOM     86  C   UNL A   1      34.504  33.573  30.405  1.00  0.00     0.022 A 
BRANCH  83  87
ATOM     87  S   UNL A   1      34.657  33.499  33.189  1.00  0.00     0.124 S 
ATOM     88  O   UNL A   1      34.719  34.941  33.398  1.00  0.00    -0.237 OA
ATOM     89  O   UNL A   1      33.323  32.927  33.040  1.00  0.00    -0.237 OA
ATOM     90  O   UNL A   1      35.582  32.710  34.000  1.00  0.00    -0.744 OA
ENDBRANCH  83  87
ENDBRANCH  56  80
BRANCH  68  91
ATOM     91  C   UNL A   1      43.404  35.738  30.792  1.00  0.00     0.023 A 
ATOM     92  C   UNL A   1      43.463  36.155  32.134  1.00  0.00     0.031 A 
ATOM     93  C   UNL A   1      43.684  36.687  29.793  1.00  0.00     0.131 A 
ATOM     94  C   UNL A   1      43.724  37.500  32.438  1.00  0.00     0.055 A 
ATOM     95  C   UNL A   1      44.010  38.008  30.104  1.00  0.00     0.041 A 
ATOM     96  F   UNL A   1      43.639  36.347  28.495  1.00  0.00    -0.206 F 
ATOM     97  C   UNL A   1      44.014  38.425  31.431  1.00  0.00     0.022 A 
BRANCH  94  98
ATOM     98  S   UNL A   1      43.562  38.050  34.159  1.00  0.00     0.124 S 
ATOM     99  O   UNL A   1      44.951  38.059  34.607  1.00  0.00    -0.237 OA
ATOM    100  O   UNL A   1      42.931  39.357  34.010  1.00  0.00    -0.237 OA
ATOM    101  O   UNL A   1      42.721  37.022  34.770  1.00  0.00    -0.744 OA
ENDBRANCH  94  98
ENDBRANCH  68  91
ENDBRANCH  42  43
ENDBRANCH  34  37
ENDBRANCH  32  33
ENDBRANCH  31  32
ENDBRANCH  30  31
ENDBRANCH   1  30
TORSDOF 19
ENDMDL
MODEL 2
REMARK VINA RESULT:     -12.2      1.808      2.111
REMARK SMILES Cc1cc(Nc2ccc(C(=O)NCCCCCCNC(=O)c3ccc(-c4c5nc(c(-c6cc(S(=O)(=O)[O-])ccc6F)c6ccc([nH]6)c(-c6cc(S(=O)(=O)[O-])ccc6F)c6nc(c(-c7cc(S(=O)(=O)[O-])ccc7F)c7ccc4[nH]7)C=C6)C=C5)cc3)cc2)nc(-n2nc(C)cc2C)n1
REMARK SMILES IDX 15 1 14 2 13 3 12 4 10 5 11 6 9 8 6 9 7 10 86 11 8 12 85 13
REMARK SMILES IDX 5 14 4 16 1 17 2 18 3 19 96 20 88 21 87 22 89 23 90 24 94 25
REMARK SMILES IDX 91 26 93 27 95 28 92 29 16 30 17 31 18 32 19 33 20 34 21 36
REMARK SMILES IDX 22 37 23 38 84 39 24 40 83 41 25 42 26 43 27 44 77 45 28 46
REMARK SMILES IDX 82 47 76 48 78 49 29 50 81 51 75 52 74 53 30 55 62 56 42 57
REMARK SMILES IDX 61 58 43 59 46 60 60 61 79 62 44 63 45 64 59 66 80 67 47 68
REMARK SMILES IDX 31 69 32 70 40 71 33 72 39 73 41 74 38 75 34 76 35 77 36 78
REMARK SMILES IDX 37 79 63 80 64 81 72 82 65 83 71 84 73 85 70 86 66 87 67 88
REMARK SMILES IDX 68 89 69 90 48 91 49 92 57 93 50 94 56 95 58 96 55 97 51 98
REMARK SMILES IDX 52 99 53 100 54 101
REMARK H PARENT 12 7 5 15 19 35 78 54 46 65
REMARK Flexibility Score: inf
ROOT
ATOM      1  C   UNL A   1      35.062  20.950  25.032  1.00  0.00     0.002 C 
ENDROOT
BRANCH   1   2
ATOM      2  C   UNL A   1      34.202  19.678  24.989  1.00  0.00     0.021 C 
BRANCH   2   3
ATOM      3  C   UNL A   1      32.702  19.967  24.885  1.00  0.00     0.116 C 
BRANCH   3   4
ATOM      4  N   UNL A   1      32.313  20.036  23.488  1.00  0.00    -0.352 N 
ATOM      5  C   UNL A   1      32.145  21.083  22.619  1.00  0.00     0.251 C 
ATOM      6  O   UNL A   1      31.776  20.823  21.472  1.00  0.00    -0.269 OA
ATOM      7  H   UNL A   1      32.133  19.157  23.084  1.00  0.00     0.163 HD
BRANCH   5   8
ATOM      8  C   UNL A   1      32.457  22.494  22.972  1.00  0.00     0.039 A 
ATOM      9  C   UNL A   1      33.348  25.067  23.694  1.00  0.00     0.040 A 
ATOM     10  C   UNL A   1      34.025  24.342  22.716  1.00  0.00     0.027 A 
ATOM     11  C   UNL A   1      32.151  24.553  24.207  1.00  0.00     0.027 A 
ATOM     12  C   UNL A   1      33.597  23.056  22.376  1.00  0.00     0.016 A 
ATOM     13  C   UNL A   1      31.695  23.285  23.831  1.00  0.00     0.016 A 
BRANCH   9  14
ATOM     14  N   UNL A   1      33.813  26.337  24.077  1.00  0.00    -0.340 N 
ATOM     15  H   UNL A   1      34.782  26.509  24.031  1.00  0.00     0.168 HD
BRANCH  14  16
ATOM     16  C   UNL A   1      32.978  27.379  24.522  1.00  0.00     0.136 A 
ATOM     17  C   UNL A   1      32.772  29.949  27.245  1.00  0.00     0.067 C 
ATOM     18  C   UNL A   1      32.519  29.159  25.997  1.00  0.00     0.045 A 
ATOM     19  C   UNL A   1      33.321  28.087  25.657  1.00  0.00     0.070 A 
ATOM     20  N   UNL A   1      31.442  29.509  25.270  1.00  0.00    -0.216 NA
ATOM     21  C   UNL A   1      31.111  28.700  24.237  1.00  0.00     0.252 A 
ATOM     22  N   UNL A   1      31.842  27.635  23.855  1.00  0.00    -0.194 NA
BRANCH  21  23
ATOM     23  N   UNL A   1      29.889  28.977  23.530  1.00  0.00    -0.203 N 
ATOM     24  N   UNL A   1      29.640  30.207  22.986  1.00  0.00    -0.170 NA
ATOM     25  C   UNL A   1      28.860  28.088  23.247  1.00  0.00     0.045 A 
ATOM     26  C   UNL A   1      28.559  30.028  22.221  1.00  0.00     0.060 A 
ATOM     27  C   UNL A   1      28.014  28.739  22.376  1.00  0.00     0.049 A 
ATOM     28  C   UNL A   1      28.738  26.749  23.876  1.00  0.00     0.067 C 
ATOM     29  C   UNL A   1      28.066  31.123  21.350  1.00  0.00     0.069 C 
ENDBRANCH  21  23
ENDBRANCH  14  16
ENDBRANCH   9  14
ENDBRANCH   5   8
ENDBRANCH   3   4
ENDBRANCH   2   3
ENDBRANCH   1   2
BRANCH   1  30
ATOM     30  C   UNL A   1      34.925  21.776  26.317  1.00  0.00     0.002 C 
BRANCH  30  31
ATOM     31  C   UNL A   1      35.155  23.281  26.147  1.00  0.00     0.021 C 
BRANCH  31  32
ATOM     32  C   UNL A   1      36.582  23.664  25.764  1.00  0.00     0.116 C 
BRANCH  32  33
ATOM     33  N   UNL A   1      37.532  22.623  26.120  1.00  0.00    -0.352 N 
ATOM     34  C   UNL A   1      38.827  22.739  26.563  1.00  0.00     0.251 C 
ATOM     35  H   UNL A   1      37.200  21.701  26.030  1.00  0.00     0.163 HD
ATOM     36  O   UNL A   1      39.551  21.749  26.583  1.00  0.00    -0.269 OA
BRANCH  34  37
ATOM     37  C   UNL A   1      39.346  24.054  27.000  1.00  0.00     0.039 A 
ATOM     38  C   UNL A   1      39.943  24.892  26.055  1.00  0.00     0.014 A 
ATOM     39  C   UNL A   1      39.271  24.450  28.339  1.00  0.00     0.014 A 
ATOM     40  C   UNL A   1      40.420  26.146  26.443  1.00  0.00     0.010 A 
ATOM     41  C   UNL A   1      39.682  25.729  28.710  1.00  0.00     0.010 A 
ATOM     42  C   UNL A   1      40.268  26.587  27.769  1.00  0.00    -0.014 A 
BRANCH  42  43
ATOM     43  C   UNL A   1      40.725  27.939  28.180  1.00  0.00     0.031 A 
ATOM     44  C   UNL A   1      42.176  28.318  28.074  1.00  0.00     0.074 A 
ATOM     45  C   UNL A   1      39.835  28.810  28.695  1.00  0.00     0.049 A 
ATOM     46  N   UNL A   1      42.768  29.440  28.395  1.00  0.00    -0.248 NA
ATOM     47  C   UNL A   1      43.088  27.282  27.569  1.00  0.00     0.031 C 
ATOM     48  C   UNL A   1      38.409  28.543  28.891  1.00  0.00     0.029 A 
ATOM     49  N   UNL A   1      39.997  30.096  29.145  1.00  0.00    -0.354 N 
ATOM     50  C   UNL A   1      44.122  29.243  28.143  1.00  0.00     0.074 A 
ATOM     51  C   UNL A   1      44.267  27.869  27.709  1.00  0.00     0.031 C 
ATOM     52  C   UNL A   1      37.819  29.644  29.381  1.00  0.00     0.029 A 
ATOM     53  C   UNL A   1      38.827  30.681  29.572  1.00  0.00     0.049 A 
ATOM     54  H   UNL A   1      40.866  30.555  29.160  1.00  0.00     0.167 HD
ATOM     55  C   UNL A   1      45.144  30.132  28.242  1.00  0.00     0.034 A 
ATOM     56  C   UNL A   1      38.595  31.916  30.057  1.00  0.00     0.034 A 
ATOM     57  C   UNL A   1      44.975  31.500  28.670  1.00  0.00     0.049 A 
ATOM     58  C   UNL A   1      39.746  32.879  30.180  1.00  0.00     0.074 A 
ATOM     59  C   UNL A   1      45.923  32.507  28.738  1.00  0.00     0.029 A 
ATOM     60  N   UNL A   1      43.781  32.053  29.119  1.00  0.00    -0.354 N 
ATOM     61  N   UNL A   1      41.011  32.701  29.875  1.00  0.00    -0.248 NA
ATOM     62  C   UNL A   1      39.432  34.213  30.705  1.00  0.00     0.031 C 
ATOM     63  C   UNL A   1      45.321  33.642  29.297  1.00  0.00     0.029 A 
ATOM     64  C   UNL A   1      43.977  33.372  29.505  1.00  0.00     0.049 A 
ATOM     65  H   UNL A   1      42.920  31.577  29.157  1.00  0.00     0.167 HD
ATOM     66  C   UNL A   1      41.639  33.914  30.145  1.00  0.00     0.074 A 
ATOM     67  C   UNL A   1      40.608  34.816  30.620  1.00  0.00     0.031 C 
ATOM     68  C   UNL A   1      42.948  34.253  30.007  1.00  0.00     0.034 A 
BRANCH  55  69
ATOM     69  C   UNL A   1      46.532  29.626  27.912  1.00  0.00     0.023 A 
ATOM     70  C   UNL A   1      46.874  29.192  26.617  1.00  0.00     0.031 A 
ATOM     71  C   UNL A   1      47.510  29.519  28.916  1.00  0.00     0.131 A 
ATOM     72  C   UNL A   1      48.115  28.578  26.387  1.00  0.00     0.055 A 
ATOM     73  C   UNL A   1      48.779  28.993  28.658  1.00  0.00     0.041 A 
ATOM     74  F   UNL A   1      47.242  29.898  30.175  1.00  0.00    -0.206 F 
ATOM     75  C   UNL A   1      49.080  28.499  27.392  1.00  0.00     0.022 A 
BRANCH  72  76
ATOM     76  S   UNL A   1      48.373  27.718  24.810  1.00  0.00     0.124 S 
ATOM     77  O   UNL A   1      49.732  28.128  24.469  1.00  0.00    -0.237 OA
ATOM     78  O   UNL A   1      48.201  26.319  25.183  1.00  0.00    -0.237 OA
ATOM     79  O   UNL A   1      47.330  28.268  23.945  1.00  0.00    -0.744 OA
ENDBRANCH  72  76
ENDBRANCH  55  69
BRANCH  56  80
ATOM     80  C   UNL A   1      37.215  32.322  30.444  1.00  0.00     0.023 A 
ATOM     81  C   UNL A   1      36.355  32.918  29.508  1.00  0.00     0.031 A 
ATOM     82  C   UNL A   1      36.743  32.141  31.756  1.00  0.00     0.131 A 
ATOM     83  C   UNL A   1      35.079  33.345  29.905  1.00  0.00     0.055 A 
ATOM     84  C   UNL A   1      35.456  32.526  32.135  1.00  0.00     0.041 A 
ATOM     85  F   UNL A   1      37.525  31.568  32.686  1.00  0.00    -0.206 F 
ATOM     86  C   UNL A   1      34.619  33.142  31.208  1.00  0.00     0.022 A 
BRANCH  83  87
ATOM     87  S   UNL A   1      34.046  34.226  28.703  1.00  0.00     0.124 S 
ATOM     88  O   UNL A   1      33.927  33.240  27.635  1.00  0.00    -0.237 OA
ATOM     89  O   UNL A   1      32.836  34.486  29.476  1.00  0.00    -0.237 OA
ATOM     90  O   UNL A   1      34.839  35.410  28.376  1.00  0.00    -0.744 OA
ENDBRANCH  83  87
ENDBRANCH  56  80
BRANCH  68  91
ATOM     91  C   UNL A   1      43.318  35.676  30.354  1.00  0.00     0.023 A 
ATOM     92  C   UNL A   1      43.340  36.692  29.381  1.00  0.00     0.031 A 
ATOM     93  C   UNL A   1      43.697  36.011  31.666  1.00  0.00     0.131 A 
ATOM     94  C   UNL A   1      43.798  37.974  29.719  1.00  0.00     0.055 A 
ATOM     95  C   UNL A   1      44.087  37.306  32.011  1.00  0.00     0.041 A 
ATOM     96  F   UNL A   1      43.700  35.082  32.635  1.00  0.00    -0.206 F 
ATOM     97  C   UNL A   1      44.156  38.292  31.032  1.00  0.00     0.022 A 
BRANCH  94  98
ATOM     98  S   UNL A   1      44.033  39.191  28.393  1.00  0.00     0.124 S 
ATOM     99  O   UNL A   1      45.468  39.094  28.144  1.00  0.00    -0.237 OA
ATOM    100  O   UNL A   1      43.166  38.674  27.339  1.00  0.00    -0.237 OA
ATOM    101  O   UNL A   1      43.593  40.447  28.998  1.00  0.00    -0.744 OA
ENDBRANCH  94  98
ENDBRANCH  68  91
ENDBRANCH  42  43
ENDBRANCH  34  37
ENDBRANCH  32  33
ENDBRANCH  31  32
ENDBRANCH  30  31
ENDBRANCH   1  30
TORSDOF 19
ENDMDL
MODEL 3
REMARK VINA RESULT:     -11.4      2.483      2.965
REMARK SMILES Cc1cc(Nc2ccc(C(=O)NCCCCCCNC(=O)c3ccc(-c4c5nc(c(-c6cc(S(=O)(=O)[O-])ccc6F)c6ccc([nH]6)c(-c6cc(S(=O)(=O)[O-])ccc6F)c6nc(c(-c7cc(S(=O)(=O)[O-])ccc7F)c7ccc4[nH]7)C=C6)C=C5)cc3)cc2)nc(-n2nc(C)cc2C)n1
REMARK SMILES IDX 15 1 14 2 13 3 12 4 10 5 11 6 9 8 6 9 7 10 86 11 8 12 85 13
REMARK SMILES IDX 5 14 4 16 1 17 2 18 3 19 96 20 88 21 87 22 89 23 90 24 94 25
REMARK SMILES IDX 91 26 93 27 95 28 92 29 16 30 17 31 18 32 19 33 20 34 21 36
REMARK SMILES IDX 22 37 23 38 84 39 24 40 83 41 25 42 26 43 27 44 77 45 28 46
REMARK SMILES IDX 82 47 76 48 78 49 29 50 81 51 75 52 74 53 30 55 62 56 42 57
REMARK SMILES IDX 61 58 43 59 46 60 60 61 79 62 44 63 45 64 59 66 80 67 47 68
REMARK SMILES IDX 31 69 32 70 40 71 33 72 39 73 41 74 38 75 34 76 35 77 36 78
REMARK SMILES IDX 37 79 63 80 64 81 72 82 65 83 71 84 73 85 70 86 66 87 67 88
REMARK SMILES IDX 68 89 69 90 48 91 49 92 57 93 50 94 56 95 58 96 55 97 51 98
REMARK SMILES IDX 52 99 53 100 54 101
REMARK H PARENT 12 7 5 15 19 35 78 54 46 65
REMARK Flexibility Score: inf
ROOT
ATOM      1  C   UNL A   1      35.879  23.418  26.403  1.00  0.00     0.002 C 
ENDROOT
BRANCH   1   2
ATOM      2  C   UNL A   1      34.520  22.774  26.086  1.00  0.00     0.021 C 
BRANCH   2   3
ATOM      3  C   UNL A   1      34.024  21.837  27.191  1.00  0.00     0.116 C 
BRANCH   3   4
ATOM      4  N   UNL A   1      33.405  20.665  26.597  1.00  0.00    -0.352 N 
ATOM      5  C   UNL A   1      32.605  20.490  25.498  1.00  0.00     0.251 C 
ATOM      6  O   UNL A   1      32.207  19.350  25.254  1.00  0.00    -0.269 OA
ATOM      7  H   UNL A   1      33.598  19.829  27.081  1.00  0.00     0.163 HD
BRANCH   5   8
ATOM      8  C   UNL A   1      32.264  21.588  24.555  1.00  0.00     0.039 A 
ATOM      9  C   UNL A   1      31.933  23.717  22.739  1.00  0.00     0.040 A 
ATOM     10  C   UNL A   1      32.773  22.652  22.422  1.00  0.00     0.027 A 
ATOM     11  C   UNL A   1      31.161  23.642  23.905  1.00  0.00     0.027 A 
ATOM     12  C   UNL A   1      32.956  21.609  23.334  1.00  0.00     0.016 A 
ATOM     13  C   UNL A   1      31.307  22.574  24.796  1.00  0.00     0.016 A 
BRANCH   9  14
ATOM     14  N   UNL A   1      31.794  24.795  21.847  1.00  0.00    -0.340 N 
ATOM     15  H   UNL A   1      31.651  24.590  20.894  1.00  0.00     0.168 HD
BRANCH  14  16
ATOM     16  C   UNL A   1      31.847  26.147  22.233  1.00  0.00     0.136 A 
ATOM     17  C   UNL A   1      34.238  28.641  23.691  1.00  0.00     0.067 C 
ATOM     18  C   UNL A   1      33.042  28.009  23.046  1.00  0.00     0.045 A 
ATOM     19  C   UNL A   1      33.012  26.655  22.772  1.00  0.00     0.070 A 
ATOM     20  N   UNL A   1      31.989  28.813  22.810  1.00  0.00    -0.216 NA
ATOM     21  C   UNL A   1      30.850  28.220  22.384  1.00  0.00     0.252 A 
ATOM     22  N   UNL A   1      30.747  26.906  22.106  1.00  0.00    -0.194 NA
BRANCH  21  23
ATOM     23  N   UNL A   1      29.673  29.037  22.255  1.00  0.00    -0.203 N 
ATOM     24  N   UNL A   1      29.697  30.224  21.575  1.00  0.00    -0.170 NA
ATOM     25  C   UNL A   1      28.393  28.749  22.711  1.00  0.00     0.045 A 
ATOM     26  C   UNL A   1      28.413  30.573  21.454  1.00  0.00     0.060 A 
ATOM     27  C   UNL A   1      27.565  29.709  22.174  1.00  0.00     0.049 A 
ATOM     28  C   UNL A   1      28.089  27.648  23.658  1.00  0.00     0.067 C 
ATOM     29  C   UNL A   1      28.029  31.753  20.641  1.00  0.00     0.069 C 
ENDBRANCH  21  23
ENDBRANCH  14  16
ENDBRANCH   9  14
ENDBRANCH   5   8
ENDBRANCH   3   4
ENDBRANCH   2   3
ENDBRANCH   1   2
BRANCH   1  30
ATOM     30  C   UNL A   1      36.864  23.454  25.229  1.00  0.00     0.002 C 
BRANCH  30  31
ATOM     31  C   UNL A   1      37.940  22.364  25.252  1.00  0.00     0.021 C 
BRANCH  31  32
ATOM     32  C   UNL A   1      38.936  22.482  26.404  1.00  0.00     0.116 C 
BRANCH  32  33
ATOM     33  N   UNL A   1      40.239  21.947  26.044  1.00  0.00    -0.352 N 
ATOM     34  C   UNL A   1      41.452  22.587  25.964  1.00  0.00     0.251 C 
ATOM     35  H   UNL A   1      40.255  20.988  25.825  1.00  0.00     0.163 HD
ATOM     36  O   UNL A   1      42.395  22.030  25.412  1.00  0.00    -0.269 OA
BRANCH  34  37
ATOM     37  C   UNL A   1      41.612  23.946  26.527  1.00  0.00     0.039 A 
ATOM     38  C   UNL A   1      41.905  24.083  27.886  1.00  0.00     0.014 A 
ATOM     39  C   UNL A   1      41.447  25.081  25.728  1.00  0.00     0.014 A 
ATOM     40  C   UNL A   1      42.081  25.357  28.432  1.00  0.00     0.010 A 
ATOM     41  C   UNL A   1      41.693  26.347  26.258  1.00  0.00     0.010 A 
ATOM     42  C   UNL A   1      42.004  26.498  27.617  1.00  0.00    -0.014 A 
BRANCH  42  43
ATOM     43  C   UNL A   1      42.241  27.853  28.178  1.00  0.00     0.031 A 
ATOM     44  C   UNL A   1      43.633  28.420  28.238  1.00  0.00     0.074 A 
ATOM     45  C   UNL A   1      41.205  28.553  28.678  1.00  0.00     0.049 A 
ATOM     46  N   UNL A   1      44.042  29.573  28.703  1.00  0.00    -0.248 NA
ATOM     47  C   UNL A   1      44.713  27.559  27.736  1.00  0.00     0.031 C 
ATOM     48  C   UNL A   1      39.816  28.091  28.719  1.00  0.00     0.029 A 
ATOM     49  N   UNL A   1      41.156  29.801  29.245  1.00  0.00    -0.354 N 
ATOM     50  C   UNL A   1      45.425  29.572  28.562  1.00  0.00     0.074 A 
ATOM     51  C   UNL A   1      45.788  28.274  28.032  1.00  0.00     0.031 C 
ATOM     52  C   UNL A   1      39.047  29.059  29.241  1.00  0.00     0.029 A 
ATOM     53  C   UNL A   1      39.888  30.192  29.609  1.00  0.00     0.049 A 
ATOM     54  H   UNL A   1      41.952  30.363  29.379  1.00  0.00     0.167 HD
ATOM     55  C   UNL A   1      46.309  30.569  28.828  1.00  0.00     0.034 A 
ATOM     56  C   UNL A   1      39.455  31.337  30.170  1.00  0.00     0.034 A 
ATOM     57  C   UNL A   1      45.924  31.860  29.350  1.00  0.00     0.049 A 
ATOM     58  C   UNL A   1      40.453  32.421  30.478  1.00  0.00     0.074 A 
ATOM     59  C   UNL A   1      46.721  32.967  29.588  1.00  0.00     0.029 A 
ATOM     60  N   UNL A   1      44.635  32.213  29.730  1.00  0.00    -0.354 N 
ATOM     61  N   UNL A   1      41.751  32.434  30.277  1.00  0.00    -0.248 NA
ATOM     62  C   UNL A   1      39.922  33.651  31.079  1.00  0.00     0.031 C 
ATOM     63  C   UNL A   1      45.929  33.959  30.180  1.00  0.00     0.029 A 
ATOM     64  C   UNL A   1      44.621  33.504  30.240  1.00  0.00     0.049 A 
ATOM     65  H   UNL A   1      43.845  31.631  29.649  1.00  0.00     0.167 HD
ATOM     66  C   UNL A   1      42.187  33.686  30.704  1.00  0.00     0.074 A 
ATOM     67  C   UNL A   1      41.010  34.402  31.154  1.00  0.00     0.031 C 
ATOM     68  C   UNL A   1      43.446  34.198  30.715  1.00  0.00     0.034 A 
BRANCH  55  69
ATOM     69  C   UNL A   1      47.774  30.275  28.587  1.00  0.00     0.023 A 
ATOM     70  C   UNL A   1      48.557  29.587  29.532  1.00  0.00     0.031 A 
ATOM     71  C   UNL A   1      48.413  30.739  27.424  1.00  0.00     0.131 A 
ATOM     72  C   UNL A   1      49.943  29.477  29.350  1.00  0.00     0.055 A 
ATOM     73  C   UNL A   1      49.779  30.542  27.203  1.00  0.00     0.041 A 
ATOM     74  F   UNL A   1      47.728  31.418  26.491  1.00  0.00    -0.206 F 
ATOM     75  C   UNL A   1      50.556  29.927  28.179  1.00  0.00     0.022 A 
BRANCH  72  76
ATOM     76  S   UNL A   1      50.956  28.909  30.745  1.00  0.00     0.124 S 
ATOM     77  O   UNL A   1      52.303  29.230  30.282  1.00  0.00    -0.237 OA
ATOM     78  O   UNL A   1      50.449  29.715  31.850  1.00  0.00    -0.237 OA
ATOM     79  O   UNL A   1      50.658  27.480  30.825  1.00  0.00    -0.744 OA
ENDBRANCH  72  76
ENDBRANCH  55  69
BRANCH  56  80
ATOM     80  C   UNL A   1      38.006  31.529  30.460  1.00  0.00     0.023 A 
ATOM     81  C   UNL A   1      37.128  31.969  29.458  1.00  0.00     0.031 A 
ATOM     82  C   UNL A   1      37.483  31.296  31.744  1.00  0.00     0.131 A 
ATOM     83  C   UNL A   1      35.778  32.197  29.764  1.00  0.00     0.055 A 
ATOM     84  C   UNL A   1      36.130  31.480  32.032  1.00  0.00     0.041 A 
ATOM     85  F   UNL A   1      38.281  30.866  32.735  1.00  0.00    -0.206 F 
ATOM     86  C   UNL A   1      35.270  31.944  31.040  1.00  0.00     0.022 A 
BRANCH  83  87
ATOM     87  S   UNL A   1      34.701  32.889  28.478  1.00  0.00     0.124 S 
ATOM     88  O   UNL A   1      35.674  33.398  27.518  1.00  0.00    -0.237 OA
ATOM     89  O   UNL A   1      33.938  31.717  28.060  1.00  0.00    -0.237 OA
ATOM     90  O   UNL A   1      33.933  33.908  29.190  1.00  0.00    -0.744 OA
ENDBRANCH  83  87
ENDBRANCH  56  80
BRANCH  68  91
ATOM     91  C   UNL A   1      43.594  35.618  31.211  1.00  0.00     0.023 A 
ATOM     92  C   UNL A   1      43.631  36.709  30.324  1.00  0.00     0.031 A 
ATOM     93  C   UNL A   1      43.744  35.878  32.584  1.00  0.00     0.131 A 
ATOM     94  C   UNL A   1      43.883  38.000  30.814  1.00  0.00     0.055 A 
ATOM     95  C   UNL A   1      43.926  37.173  33.072  1.00  0.00     0.041 A 
ATOM     96  F   UNL A   1      43.721  34.875  33.477  1.00  0.00    -0.206 F 
ATOM     97  C   UNL A   1      44.014  38.240  32.184  1.00  0.00     0.022 A 
BRANCH  94  98
ATOM     98  S   UNL A   1      44.155  39.343  29.624  1.00  0.00     0.124 S 
ATOM     99  O   UNL A   1      42.933  39.297  28.829  1.00  0.00    -0.237 OA
ATOM    100  O   UNL A   1      44.307  40.504  30.495  1.00  0.00    -0.237 OA
ATOM    101  O   UNL A   1      45.369  38.935  28.919  1.00  0.00    -0.744 OA
ENDBRANCH  94  98
ENDBRANCH  68  91
ENDBRANCH  42  43
ENDBRANCH  34  37
ENDBRANCH  32  33
ENDBRANCH  31  32
ENDBRANCH  30  31
ENDBRANCH   1  30
TORSDOF 19
ENDMDL
