MODEL 1
REMARK VINA RESULT:     -11.0      0.000      0.000
REMARK SMILES O=C(NCCCCCCNC(=O)[C@H]1CC[C@H](CNS(=O)(=O)C[C@H]2CCCO2)O1)c1ccc(-c2c3nc(c(-c4cc(S(=O)(=O)[O-])ccc4F)c4ccc([nH]4)c(-c4cc(S(=O)(=O)[O-])ccc4F)c4nc(c(-c5cc(S(=O)(=O)[O-])ccc5F)c5ccc2[nH]5)C=C4)C=C3)cc1
REMARK SMILES IDX 7 1 6 2 5 3 4 4 3 5 1 6 2 7 29 9 30 10 91 11 31 12 90 13
REMARK SMILES IDX 32 14 33 15 34 16 84 17 35 18 89 19 83 20 85 21 36 22 88 23
REMARK SMILES IDX 82 24 81 25 37 27 69 28 49 29 68 30 50 31 53 32 67 33 86 34
REMARK SMILES IDX 51 35 52 36 66 38 87 39 54 40 38 41 39 42 47 43 40 44 46 45
REMARK SMILES IDX 48 46 45 47 41 48 42 49 43 50 44 51 70 52 71 53 79 54 72 55
REMARK SMILES IDX 78 56 80 57 77 58 73 59 74 60 75 61 76 62 55 63 56 64 64 65
REMARK SMILES IDX 57 66 63 67 65 68 62 69 58 70 59 71 60 72 61 73 8 74 9 75
REMARK SMILES IDX 10 76 11 77 12 79 13 80 14 81 28 82 15 83 16 84 17 85 18 86
REMARK SMILES IDX 19 88 20 89 21 90 22 91 23 92 24 93 27 94 25 95 26 96
REMARK H PARENT 3 8 85 26 53 37 10 78 18 87
REMARK Flexibility Score: inf
ROOT
ATOM      1  C   UNL A   1      35.270  20.347  24.745  1.00  0.00     0.002 C 
ENDROOT
BRANCH   1   2
ATOM      2  C   UNL A   1      36.509  20.996  25.377  1.00  0.00     0.002 C 
BRANCH   2   3
ATOM      3  C   UNL A   1      37.839  20.354  24.974  1.00  0.00     0.021 C 
BRANCH   3   4
ATOM      4  C   UNL A   1      38.998  20.748  25.877  1.00  0.00     0.116 C 
BRANCH   4   5
ATOM      5  N   UNL A   1      39.920  19.639  26.056  1.00  0.00    -0.352 N 
ATOM      6  O   UNL A   1      41.948  18.653  26.015  1.00  0.00    -0.269 OA
ATOM      7  C   UNL A   1      41.288  19.679  26.138  1.00  0.00     0.251 C 
ATOM      8  H   UNL A   1      39.511  18.746  26.127  1.00  0.00     0.163 HD
BRANCH   7   9
ATOM      9  C   UNL A   1      41.947  20.976  26.386  1.00  0.00     0.039 A 
ATOM     10  C   UNL A   1      42.259  21.810  25.307  1.00  0.00     0.014 A 
ATOM     11  C   UNL A   1      42.236  21.369  27.694  1.00  0.00     0.014 A 
ATOM     12  C   UNL A   1      42.945  22.995  25.527  1.00  0.00     0.010 A 
ATOM     13  C   UNL A   1      42.842  22.607  27.920  1.00  0.00     0.010 A 
ATOM     14  C   UNL A   1      43.195  23.429  26.837  1.00  0.00    -0.014 A 
BRANCH  14  15
ATOM     15  C   UNL A   1      43.672  24.817  27.050  1.00  0.00     0.031 A 
ATOM     16  C   UNL A   1      45.096  25.204  26.786  1.00  0.00     0.074 A 
ATOM     17  C   UNL A   1      42.777  25.722  27.496  1.00  0.00     0.049 A 
ATOM     18  N   UNL A   1      45.671  26.364  26.961  1.00  0.00    -0.248 NA
ATOM     19  C   UNL A   1      45.993  24.160  26.268  1.00  0.00     0.031 C 
ATOM     20  C   UNL A   1      41.366  25.435  27.785  1.00  0.00     0.029 A 
ATOM     21  N   UNL A   1      42.904  27.054  27.785  1.00  0.00    -0.354 N 
ATOM     22  C   UNL A   1      47.002  26.192  26.595  1.00  0.00     0.074 A 
ATOM     23  C   UNL A   1      47.150  24.808  26.199  1.00  0.00     0.031 C 
ATOM     24  C   UNL A   1      40.757  26.560  28.178  1.00  0.00     0.029 A 
ATOM     25  C   UNL A   1      41.746  27.625  28.262  1.00  0.00     0.049 A 
ATOM     26  H   UNL A   1      43.741  27.556  27.662  1.00  0.00     0.167 HD
ATOM     27  C   UNL A   1      47.996  27.112  26.601  1.00  0.00     0.034 A 
ATOM     28  C   UNL A   1      41.514  28.853  28.763  1.00  0.00     0.034 A 
ATOM     29  C   UNL A   1      47.812  28.488  26.999  1.00  0.00     0.049 A 
ATOM     30  C   UNL A   1      42.660  29.828  28.812  1.00  0.00     0.074 A 
ATOM     31  C   UNL A   1      48.735  29.519  26.972  1.00  0.00     0.029 A 
ATOM     32  N   UNL A   1      46.639  29.021  27.520  1.00  0.00    -0.354 N 
ATOM     33  N   UNL A   1      43.896  29.665  28.399  1.00  0.00    -0.248 NA
ATOM     34  C   UNL A   1      42.385  31.145  29.395  1.00  0.00     0.031 C 
ATOM     35  C   UNL A   1      48.153  30.645  27.561  1.00  0.00     0.029 A 
ATOM     36  C   UNL A   1      46.836  30.347  27.874  1.00  0.00     0.049 A 
ATOM     37  H   UNL A   1      45.792  28.529  27.622  1.00  0.00     0.167 HD
ATOM     38  C   UNL A   1      44.540  30.869  28.661  1.00  0.00     0.074 A 
ATOM     39  C   UNL A   1      43.548  31.756  29.231  1.00  0.00     0.031 C 
ATOM     40  C   UNL A   1      45.838  31.210  28.458  1.00  0.00     0.034 A 
BRANCH  27  41
ATOM     41  C   UNL A   1      49.386  26.668  26.223  1.00  0.00     0.023 A 
ATOM     42  C   UNL A   1      49.996  27.057  25.018  1.00  0.00     0.031 A 
ATOM     43  C   UNL A   1      50.137  25.885  27.119  1.00  0.00     0.131 A 
ATOM     44  C   UNL A   1      51.306  26.639  24.733  1.00  0.00     0.055 A 
ATOM     45  C   UNL A   1      51.460  25.527  26.859  1.00  0.00     0.041 A 
ATOM     46  F   UNL A   1      49.597  25.465  28.275  1.00  0.00    -0.206 F 
ATOM     47  C   UNL A   1      52.050  25.900  25.656  1.00  0.00     0.022 A 
BRANCH  44  48
ATOM     48  S   UNL A   1      51.998  27.001  23.095  1.00  0.00     0.124 S 
ATOM     49  O   UNL A   1      52.367  28.408  23.233  1.00  0.00    -0.237 OA
ATOM     50  O   UNL A   1      53.105  26.057  23.004  1.00  0.00    -0.237 OA
ATOM     51  O   UNL A   1      50.883  26.744  22.187  1.00  0.00    -0.744 OA
ENDBRANCH  44  48
ENDBRANCH  27  41
BRANCH  28  52
ATOM     52  C   UNL A   1      40.179  29.205  29.327  1.00  0.00     0.023 A 
ATOM     53  C   UNL A   1      39.967  29.241  30.713  1.00  0.00     0.031 A 
ATOM     54  C   UNL A   1      39.074  29.437  28.486  1.00  0.00     0.131 A 
ATOM     55  C   UNL A   1      38.669  29.428  31.215  1.00  0.00     0.055 A 
ATOM     56  C   UNL A   1      37.801  29.703  28.992  1.00  0.00     0.041 A 
ATOM     57  F   UNL A   1      39.216  29.411  27.151  1.00  0.00    -0.206 F 
ATOM     58  C   UNL A   1      37.589  29.677  30.366  1.00  0.00     0.022 A 
BRANCH  55  59
ATOM     59  S   UNL A   1      38.393  29.192  32.992  1.00  0.00     0.124 S 
ATOM     60  O   UNL A   1      37.413  28.111  32.997  1.00  0.00    -0.237 OA
ATOM     61  O   UNL A   1      39.731  28.846  33.461  1.00  0.00    -0.237 OA
ATOM     62  O   UNL A   1      37.893  30.492  33.433  1.00  0.00    -0.744 OA
ENDBRANCH  55  59
ENDBRANCH  28  52
BRANCH  40  63
ATOM     63  C   UNL A   1      46.239  32.612  28.842  1.00  0.00     0.023 A 
ATOM     64  C   UNL A   1      45.966  33.708  28.005  1.00  0.00     0.031 A 
ATOM     65  C   UNL A   1      46.912  32.853  30.053  1.00  0.00     0.131 A 
ATOM     66  C   UNL A   1      46.413  34.987  28.364  1.00  0.00     0.055 A 
ATOM     67  C   UNL A   1      47.294  34.138  30.436  1.00  0.00     0.041 A 
ATOM     68  F   UNL A   1      47.205  31.841  30.886  1.00  0.00    -0.206 F 
ATOM     69  C   UNL A   1      47.056  35.213  29.583  1.00  0.00     0.022 A 
BRANCH  66  70
ATOM     70  S   UNL A   1      46.224  36.339  27.171  1.00  0.00     0.124 S 
ATOM     71  O   UNL A   1      46.424  37.514  28.012  1.00  0.00    -0.237 OA
ATOM     72  O   UNL A   1      47.284  36.058  26.208  1.00  0.00    -0.237 OA
ATOM     73  O   UNL A   1      44.864  36.163  26.665  1.00  0.00    -0.744 OA
ENDBRANCH  66  70
ENDBRANCH  40  63
ENDBRANCH  14  15
ENDBRANCH   7   9
ENDBRANCH   4   5
ENDBRANCH   3   4
ENDBRANCH   2   3
ENDBRANCH   1   2
BRANCH   1  74
ATOM     74  C   UNL A   1      33.975  20.540  25.542  1.00  0.00     0.021 C 
BRANCH  74  75
ATOM     75  C   UNL A   1      34.100  21.612  26.617  1.00  0.00     0.116 C 
BRANCH  75  76
ATOM     76  N   UNL A   1      32.795  22.028  27.089  1.00  0.00    -0.354 N 
ATOM     77  C   UNL A   1      32.003  23.106  26.872  1.00  0.00     0.249 C 
ATOM     78  H   UNL A   1      32.391  21.378  27.710  1.00  0.00     0.163 HD
ATOM     79  O   UNL A   1      30.989  23.160  27.585  1.00  0.00    -0.272 OA
BRANCH  77  80
ATOM     80  C   UNL A   1      32.238  24.200  25.805  1.00  0.00     0.207 C 
ATOM     81  C   UNL A   1      32.460  23.860  24.351  1.00  0.00     0.045 C 
ATOM     82  O   UNL A   1      31.075  25.067  25.810  1.00  0.00    -0.364 OA
ATOM     83  C   UNL A   1      31.040  23.765  23.841  1.00  0.00     0.037 C 
ATOM     84  C   UNL A   1      30.382  24.938  24.550  1.00  0.00     0.134 C 
BRANCH  84  85
ATOM     85  C   UNL A   1      30.531  26.252  23.778  1.00  0.00     0.130 C 
BRANCH  85  86
ATOM     86  N   UNL A   1      30.959  27.347  24.652  1.00  0.00    -0.213 NA
ATOM     87  H   UNL A   1      31.692  26.979  25.258  1.00  0.00     0.141 HD
BRANCH  86  88
ATOM     88  S   UNL A   1      31.551  28.740  23.955  1.00  0.00     0.214 S 
ATOM     89  O   UNL A   1      32.458  29.334  24.920  1.00  0.00    -0.212 OA
ATOM     90  O   UNL A   1      32.020  28.388  22.638  1.00  0.00    -0.212 OA
BRANCH  88  91
ATOM     91  C   UNL A   1      30.130  29.798  23.833  1.00  0.00     0.185 C 
BRANCH  91  92
ATOM     92  C   UNL A   1      29.066  29.469  22.789  1.00  0.00     0.134 C 
ATOM     93  C   UNL A   1      27.700  30.066  23.092  1.00  0.00     0.035 C 
ATOM     94  O   UNL A   1      29.373  29.880  21.455  1.00  0.00    -0.377 OA
ATOM     95  C   UNL A   1      27.723  31.360  22.325  1.00  0.00     0.031 C 
ATOM     96  C   UNL A   1      28.551  31.006  21.105  1.00  0.00     0.160 C 
ENDBRANCH  91  92
ENDBRANCH  88  91
ENDBRANCH  86  88
ENDBRANCH  85  86
ENDBRANCH  84  85
ENDBRANCH  77  80
ENDBRANCH  75  76
ENDBRANCH  74  75
ENDBRANCH   1  74
TORSDOF 21
ENDMDL
MODEL 2
REMARK VINA RESULT:     -10.8      1.342      7.805
REMARK SMILES O=C(NCCCCCCNC(=O)[C@H]1CC[C@H](CNS(=O)(=O)C[C@H]2CCCO2)O1)c1ccc(-c2c3nc(c(-c4cc(S(=O)(=O)[O-])ccc4F)c4ccc([nH]4)c(-c4cc(S(=O)(=O)[O-])ccc4F)c4nc(c(-c5cc(S(=O)(=O)[O-])ccc5F)c5ccc2[nH]5)C=C4)C=C3)cc1
REMARK SMILES IDX 7 1 6 2 5 3 4 4 3 5 1 6 2 7 29 9 30 10 91 11 31 12 90 13
REMARK SMILES IDX 32 14 33 15 34 16 84 17 35 18 89 19 83 20 85 21 36 22 88 23
REMARK SMILES IDX 82 24 81 25 37 27 69 28 49 29 68 30 50 31 53 32 67 33 86 34
REMARK SMILES IDX 51 35 52 36 66 38 87 39 54 40 38 41 39 42 47 43 40 44 46 45
REMARK SMILES IDX 48 46 45 47 41 48 42 49 43 50 44 51 70 52 71 53 79 54 72 55
REMARK SMILES IDX 78 56 80 57 77 58 73 59 74 60 75 61 76 62 55 63 56 64 64 65
REMARK SMILES IDX 57 66 63 67 65 68 62 69 58 70 59 71 60 72 61 73 8 74 9 75
REMARK SMILES IDX 10 76 11 77 12 79 13 80 14 81 28 82 15 83 16 84 17 85 18 86
REMARK SMILES IDX 19 88 20 89 21 90 22 91 23 92 24 93 27 94 25 95 26 96
REMARK H PARENT 3 8 85 26 53 37 10 78 18 87
REMARK Flexibility Score: inf
ROOT
ATOM      1  C   UNL A   1      35.250  20.382  24.848  1.00  0.00     0.002 C 
ENDROOT
BRANCH   1   2
ATOM      2  C   UNL A   1      36.480  21.083  25.443  1.00  0.00     0.002 C 
BRANCH   2   3
ATOM      3  C   UNL A   1      37.823  20.495  25.002  1.00  0.00     0.021 C 
BRANCH   3   4
ATOM      4  C   UNL A   1      38.971  20.845  25.935  1.00  0.00     0.116 C 
BRANCH   4   5
ATOM      5  N   UNL A   1      39.921  19.749  26.027  1.00  0.00    -0.352 N 
ATOM      6  O   UNL A   1      41.971  18.818  25.902  1.00  0.00    -0.269 OA
ATOM      7  C   UNL A   1      41.288  19.816  26.103  1.00  0.00     0.251 C 
ATOM      8  H   UNL A   1      39.534  18.843  26.038  1.00  0.00     0.163 HD
BRANCH   7   9
ATOM      9  C   UNL A   1      41.918  21.108  26.438  1.00  0.00     0.039 A 
ATOM     10  C   UNL A   1      42.178  22.034  25.422  1.00  0.00     0.014 A 
ATOM     11  C   UNL A   1      42.233  21.404  27.765  1.00  0.00     0.014 A 
ATOM     12  C   UNL A   1      42.838  23.217  25.719  1.00  0.00     0.010 A 
ATOM     13  C   UNL A   1      42.811  22.636  28.075  1.00  0.00     0.010 A 
ATOM     14  C   UNL A   1      43.112  23.552  27.054  1.00  0.00    -0.014 A 
BRANCH  14  15
ATOM     15  C   UNL A   1      43.557  24.932  27.365  1.00  0.00     0.031 A 
ATOM     16  C   UNL A   1      42.611  25.952  27.924  1.00  0.00     0.074 A 
ATOM     17  C   UNL A   1      44.847  25.240  27.120  1.00  0.00     0.049 A 
ATOM     18  N   UNL A   1      42.841  27.206  28.210  1.00  0.00    -0.248 NA
ATOM     19  C   UNL A   1      41.232  25.517  28.191  1.00  0.00     0.031 C 
ATOM     20  C   UNL A   1      45.843  24.311  26.571  1.00  0.00     0.029 A 
ATOM     21  N   UNL A   1      45.549  26.402  27.296  1.00  0.00    -0.354 N 
ATOM     22  C   UNL A   1      41.635  27.721  28.672  1.00  0.00     0.074 A 
ATOM     23  C   UNL A   1      40.671  26.643  28.617  1.00  0.00     0.031 C 
ATOM     24  C   UNL A   1      47.026  24.930  26.486  1.00  0.00     0.029 A 
ATOM     25  C   UNL A   1      46.858  26.321  26.880  1.00  0.00     0.049 A 
ATOM     26  H   UNL A   1      45.156  27.218  27.683  1.00  0.00     0.167 HD
ATOM     27  C   UNL A   1      41.372  28.981  29.094  1.00  0.00     0.034 A 
ATOM     28  C   UNL A   1      47.807  27.271  26.776  1.00  0.00     0.034 A 
ATOM     29  C   UNL A   1      42.359  30.034  29.141  1.00  0.00     0.049 A 
ATOM     30  C   UNL A   1      47.457  28.673  27.195  1.00  0.00     0.074 A 
ATOM     31  C   UNL A   1      42.215  31.324  29.621  1.00  0.00     0.029 A 
ATOM     32  N   UNL A   1      43.663  29.930  28.670  1.00  0.00    -0.354 N 
ATOM     33  N   UNL A   1      46.328  29.126  27.693  1.00  0.00    -0.248 NA
ATOM     34  C   UNL A   1      48.501  29.692  27.037  1.00  0.00     0.031 C 
ATOM     35  C   UNL A   1      43.395  32.026  29.354  1.00  0.00     0.029 A 
ATOM     36  C   UNL A   1      44.310  31.150  28.792  1.00  0.00     0.049 A 
ATOM     37  H   UNL A   1      44.067  29.110  28.304  1.00  0.00     0.167 HD
ATOM     38  C   UNL A   1      46.536  30.481  27.919  1.00  0.00     0.074 A 
ATOM     39  C   UNL A   1      47.905  30.762  27.541  1.00  0.00     0.031 C 
ATOM     40  C   UNL A   1      45.671  31.415  28.391  1.00  0.00     0.034 A 
BRANCH  27  41
ATOM     41  C   UNL A   1      39.957  29.324  29.489  1.00  0.00     0.023 A 
ATOM     42  C   UNL A   1      39.562  29.443  30.832  1.00  0.00     0.031 A 
ATOM     43  C   UNL A   1      39.001  29.595  28.493  1.00  0.00     0.131 A 
ATOM     44  C   UNL A   1      38.237  29.796  31.140  1.00  0.00     0.055 A 
ATOM     45  C   UNL A   1      37.706  30.008  28.805  1.00  0.00     0.041 A 
ATOM     46  F   UNL A   1      39.318  29.475  27.193  1.00  0.00    -0.206 F 
ATOM     47  C   UNL A   1      37.316  30.106  30.137  1.00  0.00     0.022 A 
BRANCH  44  48
ATOM     48  S   UNL A   1      37.709  29.762  32.875  1.00  0.00     0.124 S 
ATOM     49  O   UNL A   1      37.342  28.358  33.047  1.00  0.00    -0.237 OA
ATOM     50  O   UNL A   1      38.908  30.199  33.579  1.00  0.00    -0.237 OA
ATOM     51  O   UNL A   1      36.588  30.699  32.911  1.00  0.00    -0.744 OA
ENDBRANCH  44  48
ENDBRANCH  27  41
BRANCH  28  52
ATOM     52  C   UNL A   1      49.140  26.954  26.185  1.00  0.00     0.023 A 
ATOM     53  C   UNL A   1      49.498  27.429  24.915  1.00  0.00     0.031 A 
ATOM     54  C   UNL A   1      50.046  26.106  26.850  1.00  0.00     0.131 A 
ATOM     55  C   UNL A   1      50.693  26.995  24.320  1.00  0.00     0.055 A 
ATOM     56  C   UNL A   1      51.269  25.743  26.287  1.00  0.00     0.041 A 
ATOM     57  F   UNL A   1      49.754  25.618  28.066  1.00  0.00    -0.206 F 
ATOM     58  C   UNL A   1      51.589  26.171  25.003  1.00  0.00     0.022 A 
BRANCH  55  59
ATOM     59  S   UNL A   1      50.985  27.407  22.578  1.00  0.00     0.124 S 
ATOM     60  O   UNL A   1      50.897  28.863  22.600  1.00  0.00    -0.237 OA
ATOM     61  O   UNL A   1      52.315  26.849  22.356  1.00  0.00    -0.237 OA
ATOM     62  O   UNL A   1      49.897  26.724  21.881  1.00  0.00    -0.744 OA
ENDBRANCH  55  59
ENDBRANCH  28  52
BRANCH  40  63
ATOM     63  C   UNL A   1      46.201  32.819  28.536  1.00  0.00     0.023 A 
ATOM     64  C   UNL A   1      46.801  33.257  29.729  1.00  0.00     0.031 A 
ATOM     65  C   UNL A   1      46.092  33.733  27.473  1.00  0.00     0.131 A 
ATOM     66  C   UNL A   1      47.221  34.588  29.850  1.00  0.00     0.055 A 
ATOM     67  C   UNL A   1      46.575  35.037  27.576  1.00  0.00     0.041 A 
ATOM     68  F   UNL A   1      45.520  33.370  26.313  1.00  0.00    -0.206 F 
ATOM     69  C   UNL A   1      47.131  35.475  28.775  1.00  0.00     0.022 A 
BRANCH  66  70
ATOM     70  S   UNL A   1      47.804  35.172  31.465  1.00  0.00     0.124 S 
ATOM     71  O   UNL A   1      49.119  34.548  31.555  1.00  0.00    -0.237 OA
ATOM     72  O   UNL A   1      47.797  36.622  31.294  1.00  0.00    -0.237 OA
ATOM     73  O   UNL A   1      46.805  34.654  32.397  1.00  0.00    -0.744 OA
ENDBRANCH  66  70
ENDBRANCH  40  63
ENDBRANCH  14  15
ENDBRANCH   7   9
ENDBRANCH   4   5
ENDBRANCH   3   4
ENDBRANCH   2   3
ENDBRANCH   1   2
BRANCH   1  74
ATOM     74  C   UNL A   1      33.995  20.447  25.725  1.00  0.00     0.021 C 
BRANCH  74  75
ATOM     75  C   UNL A   1      34.183  21.325  26.957  1.00  0.00     0.116 C 
BRANCH  75  76
ATOM     76  N   UNL A   1      32.969  22.052  27.266  1.00  0.00    -0.354 N 
ATOM     77  C   UNL A   1      32.490  23.281  26.954  1.00  0.00     0.249 C 
ATOM     78  H   UNL A   1      32.349  21.535  27.831  1.00  0.00     0.163 HD
ATOM     79  O   UNL A   1      31.441  23.595  27.537  1.00  0.00    -0.272 OA
BRANCH  77  80
ATOM     80  C   UNL A   1      33.107  24.258  25.926  1.00  0.00     0.207 C 
ATOM     81  C   UNL A   1      33.669  23.778  24.609  1.00  0.00     0.045 C 
ATOM     82  O   UNL A   1      32.076  25.212  25.564  1.00  0.00    -0.364 OA
ATOM     83  C   UNL A   1      32.430  23.755  23.741  1.00  0.00     0.037 C 
ATOM     84  C   UNL A   1      31.731  25.033  24.174  1.00  0.00     0.134 C 
BRANCH  84  85
ATOM     85  C   UNL A   1      32.209  26.260  23.393  1.00  0.00     0.130 C 
BRANCH  85  86
ATOM     86  N   UNL A   1      32.292  27.447  24.248  1.00  0.00    -0.213 NA
ATOM     87  H   UNL A   1      33.279  27.596  24.459  1.00  0.00     0.141 HD
BRANCH  86  88
ATOM     88  S   UNL A   1      31.690  28.889  23.671  1.00  0.00     0.214 S 
ATOM     89  O   UNL A   1      31.787  29.845  24.760  1.00  0.00    -0.212 OA
ATOM     90  O   UNL A   1      32.346  29.151  22.414  1.00  0.00    -0.212 OA
BRANCH  88  91
ATOM     91  C   UNL A   1      29.966  28.559  23.401  1.00  0.00     0.185 C 
BRANCH  91  92
ATOM     92  C   UNL A   1      29.193  29.464  22.446  1.00  0.00     0.134 C 
ATOM     93  C   UNL A   1      27.683  29.394  22.618  1.00  0.00     0.035 C 
ATOM     94  O   UNL A   1      29.520  30.853  22.523  1.00  0.00    -0.377 OA
ATOM     95  C   UNL A   1      27.400  30.533  23.558  1.00  0.00     0.031 C 
ATOM     96  C   UNL A   1      28.440  31.560  23.157  1.00  0.00     0.160 C 
ENDBRANCH  91  92
ENDBRANCH  88  91
ENDBRANCH  86  88
ENDBRANCH  85  86
ENDBRANCH  84  85
ENDBRANCH  77  80
ENDBRANCH  75  76
ENDBRANCH  74  75
ENDBRANCH   1  74
TORSDOF 21
ENDMDL
MODEL 3
REMARK VINA RESULT:     -10.6      1.158      7.809
REMARK SMILES O=C(NCCCCCCNC(=O)[C@H]1CC[C@H](CNS(=O)(=O)C[C@H]2CCCO2)O1)c1ccc(-c2c3nc(c(-c4cc(S(=O)(=O)[O-])ccc4F)c4ccc([nH]4)c(-c4cc(S(=O)(=O)[O-])ccc4F)c4nc(c(-c5cc(S(=O)(=O)[O-])ccc5F)c5ccc2[nH]5)C=C4)C=C3)cc1
REMARK SMILES IDX 7 1 6 2 5 3 4 4 3 5 1 6 2 7 29 9 30 10 91 11 31 12 90 13
REMARK SMILES IDX 32 14 33 15 34 16 84 17 35 18 89 19 83 20 85 21 36 22 88 23
REMARK SMILES IDX 82 24 81 25 37 27 69 28 49 29 68 30 50 31 53 32 67 33 86 34
REMARK SMILES IDX 51 35 52 36 66 38 87 39 54 40 38 41 39 42 47 43 40 44 46 45
REMARK SMILES IDX 48 46 45 47 41 48 42 49 43 50 44 51 70 52 71 53 79 54 72 55
REMARK SMILES IDX 78 56 80 57 77 58 73 59 74 60 75 61 76 62 55 63 56 64 64 65
REMARK SMILES IDX 57 66 63 67 65 68 62 69 58 70 59 71 60 72 61 73 8 74 9 75
REMARK SMILES IDX 10 76 11 77 12 79 13 80 14 81 28 82 15 83 16 84 17 85 18 86
REMARK SMILES IDX 19 88 20 89 21 90 22 91 23 92 24 93 27 94 25 95 26 96
REMARK H PARENT 3 8 85 26 53 37 10 78 18 87
REMARK Flexibility Score: inf
ROOT
ATOM      1  C   UNL A   1      38.784  22.831  26.132  1.00  0.00     0.002 C 
ENDROOT
BRANCH   1   2
ATOM      2  C   UNL A   1      39.786  21.887  26.812  1.00  0.00     0.002 C 
BRANCH   2   3
ATOM      3  C   UNL A   1      39.969  20.540  26.109  1.00  0.00     0.021 C 
BRANCH   3   4
ATOM      4  C   UNL A   1      40.803  19.550  26.908  1.00  0.00     0.116 C 
BRANCH   4   5
ATOM      5  N   UNL A   1      41.938  19.079  26.132  1.00  0.00    -0.352 N 
ATOM      6  O   UNL A   1      43.660  19.319  24.695  1.00  0.00    -0.269 OA
ATOM      7  C   UNL A   1      42.926  19.822  25.539  1.00  0.00     0.251 C 
ATOM      8  H   UNL A   1      42.005  18.104  26.017  1.00  0.00     0.163 HD
BRANCH   7   9
ATOM      9  C   UNL A   1      43.095  21.232  25.944  1.00  0.00     0.039 A 
ATOM     10  C   UNL A   1      43.368  21.539  27.280  1.00  0.00     0.014 A 
ATOM     11  C   UNL A   1      42.999  22.244  24.987  1.00  0.00     0.014 A 
ATOM     12  C   UNL A   1      43.451  22.864  27.681  1.00  0.00     0.010 A 
ATOM     13  C   UNL A   1      43.179  23.573  25.376  1.00  0.00     0.010 A 
ATOM     14  C   UNL A   1      43.411  23.890  26.724  1.00  0.00    -0.014 A 
BRANCH  14  15
ATOM     15  C   UNL A   1      43.782  25.264  27.138  1.00  0.00     0.031 A 
ATOM     16  C   UNL A   1      42.769  26.211  27.709  1.00  0.00     0.074 A 
ATOM     17  C   UNL A   1      45.068  25.638  26.975  1.00  0.00     0.049 A 
ATOM     18  N   UNL A   1      42.932  27.453  28.080  1.00  0.00    -0.248 NA
ATOM     19  C   UNL A   1      41.399  25.706  27.882  1.00  0.00     0.031 C 
ATOM     20  C   UNL A   1      46.127  24.785  26.422  1.00  0.00     0.029 A 
ATOM     21  N   UNL A   1      45.711  26.815  27.254  1.00  0.00    -0.354 N 
ATOM     22  C   UNL A   1      41.685  27.891  28.512  1.00  0.00     0.074 A 
ATOM     23  C   UNL A   1      40.771  26.781  28.346  1.00  0.00     0.031 C 
ATOM     24  C   UNL A   1      47.286  25.454  26.431  1.00  0.00     0.029 A 
ATOM     25  C   UNL A   1      47.041  26.811  26.899  1.00  0.00     0.049 A 
ATOM     26  H   UNL A   1      45.266  27.589  27.668  1.00  0.00     0.167 HD
ATOM     27  C   UNL A   1      41.349  29.111  28.994  1.00  0.00     0.034 A 
ATOM     28  C   UNL A   1      47.952  27.802  26.897  1.00  0.00     0.034 A 
ATOM     29  C   UNL A   1      42.287  30.198  29.151  1.00  0.00     0.049 A 
ATOM     30  C   UNL A   1      47.524  29.161  27.380  1.00  0.00     0.074 A 
ATOM     31  C   UNL A   1      42.067  31.450  29.698  1.00  0.00     0.029 A 
ATOM     32  N   UNL A   1      43.615  30.175  28.739  1.00  0.00    -0.354 N 
ATOM     33  N   UNL A   1      46.355  29.537  27.848  1.00  0.00    -0.248 NA
ATOM     34  C   UNL A   1      48.529  30.229  27.334  1.00  0.00     0.031 C 
ATOM     35  C   UNL A   1      43.226  32.212  29.532  1.00  0.00     0.029 A 
ATOM     36  C   UNL A   1      44.203  31.410  28.964  1.00  0.00     0.049 A 
ATOM     37  H   UNL A   1      44.070  29.395  28.346  1.00  0.00     0.167 HD
ATOM     38  C   UNL A   1      46.493  30.884  28.164  1.00  0.00     0.074 A 
ATOM     39  C   UNL A   1      47.866  31.241  27.870  1.00  0.00     0.031 C 
ATOM     40  C   UNL A   1      45.568  31.752  28.647  1.00  0.00     0.034 A 
BRANCH  27  41
ATOM     41  C   UNL A   1      39.904  29.374  29.338  1.00  0.00     0.023 A 
ATOM     42  C   UNL A   1      39.455  29.462  30.666  1.00  0.00     0.031 A 
ATOM     43  C   UNL A   1      38.971  29.597  28.309  1.00  0.00     0.131 A 
ATOM     44  C   UNL A   1      38.102  29.740  30.928  1.00  0.00     0.055 A 
ATOM     45  C   UNL A   1      37.644  29.936  28.576  1.00  0.00     0.041 A 
ATOM     46  F   UNL A   1      39.340  29.502  27.021  1.00  0.00    -0.206 F 
ATOM     47  C   UNL A   1      37.202  30.004  29.892  1.00  0.00     0.022 A 
BRANCH  44  48
ATOM     48  S   UNL A   1      37.514  29.667  32.643  1.00  0.00     0.124 S 
ATOM     49  O   UNL A   1      37.509  28.228  32.893  1.00  0.00    -0.237 OA
ATOM     50  O   UNL A   1      38.527  30.435  33.356  1.00  0.00    -0.237 OA
ATOM     51  O   UNL A   1      36.192  30.285  32.578  1.00  0.00    -0.744 OA
ENDBRANCH  44  48
ENDBRANCH  27  41
BRANCH  28  52
ATOM     52  C   UNL A   1      49.323  27.575  26.354  1.00  0.00     0.023 A 
ATOM     53  C   UNL A   1      49.625  27.855  25.014  1.00  0.00     0.031 A 
ATOM     54  C   UNL A   1      50.333  27.000  27.150  1.00  0.00     0.131 A 
ATOM     55  C   UNL A   1      50.876  27.495  24.490  1.00  0.00     0.055 A 
ATOM     56  C   UNL A   1      51.602  26.718  26.645  1.00  0.00     0.041 A 
ATOM     57  F   UNL A   1      50.100  26.706  28.439  1.00  0.00    -0.206 F 
ATOM     58  C   UNL A   1      51.872  26.945  25.300  1.00  0.00     0.022 A 
BRANCH  55  59
ATOM     59  S   UNL A   1      51.127  27.618  22.699  1.00  0.00     0.124 S 
ATOM     60  O   UNL A   1      49.956  26.914  22.188  1.00  0.00    -0.237 OA
ATOM     61  O   UNL A   1      51.146  29.063  22.496  1.00  0.00    -0.237 OA
ATOM     62  O   UNL A   1      52.405  26.942  22.488  1.00  0.00    -0.744 OA
ENDBRANCH  55  59
ENDBRANCH  28  52
BRANCH  40  63
ATOM     63  C   UNL A   1      46.031  33.164  28.900  1.00  0.00     0.023 A 
ATOM     64  C   UNL A   1      45.936  34.156  27.909  1.00  0.00     0.031 A 
ATOM     65  C   UNL A   1      46.585  33.519  30.143  1.00  0.00     0.131 A 
ATOM     66  C   UNL A   1      46.437  35.441  28.157  1.00  0.00     0.055 A 
ATOM     67  C   UNL A   1      47.020  34.818  30.407  1.00  0.00     0.041 A 
ATOM     68  F   UNL A   1      46.708  32.609  31.122  1.00  0.00    -0.206 F 
ATOM     69  C   UNL A   1      46.959  35.784  29.406  1.00  0.00     0.022 A 
BRANCH  66  70
ATOM     70  S   UNL A   1      46.482  36.635  26.793  1.00  0.00     0.124 S 
ATOM     71  O   UNL A   1      46.495  35.760  25.626  1.00  0.00    -0.237 OA
ATOM     72  O   UNL A   1      45.256  37.397  27.004  1.00  0.00    -0.237 OA
ATOM     73  O   UNL A   1      47.720  37.376  27.027  1.00  0.00    -0.744 OA
ENDBRANCH  66  70
ENDBRANCH  40  63
ENDBRANCH  14  15
ENDBRANCH   7   9
ENDBRANCH   4   5
ENDBRANCH   3   4
ENDBRANCH   2   3
ENDBRANCH   1   2
BRANCH   1  74
ATOM     74  C   UNL A   1      37.683  22.123  25.336  1.00  0.00     0.021 C 
BRANCH  74  75
ATOM     75  C   UNL A   1      36.462  23.006  25.106  1.00  0.00     0.116 C 
BRANCH  75  76
ATOM     76  N   UNL A   1      35.460  22.782  26.128  1.00  0.00    -0.354 N 
ATOM     77  C   UNL A   1      34.217  23.268  26.365  1.00  0.00     0.249 C 
ATOM     78  H   UNL A   1      35.747  22.125  26.804  1.00  0.00     0.163 HD
ATOM     79  O   UNL A   1      33.720  22.921  27.448  1.00  0.00    -0.272 OA
BRANCH  77  80
ATOM     80  C   UNL A   1      33.391  24.147  25.399  1.00  0.00     0.207 C 
ATOM     81  C   UNL A   1      32.151  23.626  24.711  1.00  0.00     0.045 C 
ATOM     82  O   UNL A   1      32.940  25.306  26.146  1.00  0.00    -0.364 OA
ATOM     83  C   UNL A   1      31.089  23.895  25.754  1.00  0.00     0.037 C 
ATOM     84  C   UNL A   1      31.502  25.266  26.263  1.00  0.00     0.134 C 
BRANCH  84  85
ATOM     85  C   UNL A   1      30.915  26.406  25.427  1.00  0.00     0.130 C 
BRANCH  85  86
ATOM     86  N   UNL A   1      31.950  27.349  24.995  1.00  0.00    -0.213 NA
ATOM     87  H   UNL A   1      32.837  26.846  25.009  1.00  0.00     0.141 HD
BRANCH  86  88
ATOM     88  S   UNL A   1      31.809  28.056  23.493  1.00  0.00     0.214 S 
ATOM     89  O   UNL A   1      32.925  28.974  23.360  1.00  0.00    -0.212 OA
ATOM     90  O   UNL A   1      31.626  26.991  22.539  1.00  0.00    -0.212 OA
BRANCH  88  91
ATOM     91  C   UNL A   1      30.327  29.027  23.612  1.00  0.00     0.185 C 
BRANCH  91  92
ATOM     92  C   UNL A   1      29.288  28.907  22.500  1.00  0.00     0.134 C 
ATOM     93  C   UNL A   1      27.856  29.103  22.972  1.00  0.00     0.035 C 
ATOM     94  O   UNL A   1      29.455  29.815  21.409  1.00  0.00    -0.377 OA
ATOM     95  C   UNL A   1      27.617  30.566  22.722  1.00  0.00     0.031 C 
ATOM     96  C   UNL A   1      28.434  30.826  21.473  1.00  0.00     0.160 C 
ENDBRANCH  91  92
ENDBRANCH  88  91
ENDBRANCH  86  88
ENDBRANCH  85  86
ENDBRANCH  84  85
ENDBRANCH  77  80
ENDBRANCH  75  76
ENDBRANCH  74  75
ENDBRANCH   1  74
TORSDOF 21
ENDMDL
