MODEL 1
REMARK VINA RESULT:     -10.4      0.000      0.000
REMARK SMILES CC(C)n1ccc(C#CC(=O)NCCCCCCNC(=O)c2ccc(-c3c4nc(c(-c5cc(S(=O)(=O)[O-])ccc5F)c5ccc([nH]5)c(-c5cc(S(=O)(=O)[O-])ccc5F)c5nc(c(-c6cc(S(=O)(=O)[O-])ccc6F)c6ccc3[nH]6)C=C5)C=C4)cc2)n1
REMARK SMILES IDX 16 1 15 2 14 3 13 4 12 5 10 6 11 7 9 9 8 10 7 11 4 12 5 13
REMARK SMILES IDX 85 14 6 15 2 16 1 17 3 18 17 19 18 20 19 21 20 22 21 24
REMARK SMILES IDX 22 25 23 26 84 27 24 28 83 29 25 30 26 31 27 32 77 33 28 34
REMARK SMILES IDX 82 35 76 36 78 37 29 38 81 39 75 40 74 41 30 43 62 44 42 45
REMARK SMILES IDX 61 46 43 47 46 48 60 49 79 50 44 51 45 52 59 54 80 55 47 56
REMARK SMILES IDX 31 57 32 58 40 59 33 60 39 61 41 62 38 63 34 64 35 65 36 66
REMARK SMILES IDX 37 67 63 68 64 69 72 70 65 71 71 72 73 73 70 74 66 75 67 76
REMARK SMILES IDX 68 77 69 78 48 79 49 80 57 81 50 82 56 83 58 84 55 85 51 86
REMARK SMILES IDX 52 87 53 88 54 89
REMARK H PARENT 12 8 19 23 78 42 46 53
REMARK Flexibility Score: inf
ROOT
ATOM      1  C   UNL A   1      41.022  21.726  27.653  1.00  0.00     0.002 C 
ENDROOT
BRANCH   1   2
ATOM      2  C   UNL A   1      40.010  21.943  26.517  1.00  0.00     0.002 C 
BRANCH   2   3
ATOM      3  C   UNL A   1      39.205  23.247  26.581  1.00  0.00     0.021 C 
BRANCH   3   4
ATOM      4  C   UNL A   1      37.747  23.114  26.147  1.00  0.00     0.117 C 
BRANCH   4   5
ATOM      5  N   UNL A   1      37.563  23.495  24.759  1.00  0.00    -0.345 N 
ATOM      6  C   UNL A   1      36.700  22.953  23.847  1.00  0.00     0.296 C 
ATOM      7  O   UNL A   1      36.650  23.370  22.698  1.00  0.00    -0.260 OA
ATOM      8  H   UNL A   1      38.127  24.234  24.434  1.00  0.00     0.164 HD
BRANCH   6   9
ATOM      9  C   UNL A   1      35.816  21.892  24.267  1.00  0.00     0.002 C 
ATOM     10  C   UNL A   1      35.105  20.982  24.566  1.00  0.00    -0.034 C 
BRANCH  10  11
ATOM     11  C   UNL A   1      34.276  19.861  24.860  1.00  0.00     0.135 A 
ATOM     12  N   UNL A   1      33.717  17.831  24.982  1.00  0.00    -0.269 N 
ATOM     13  C   UNL A   1      32.636  18.529  25.457  1.00  0.00     0.110 A 
ATOM     14  N   UNL A   1      34.717  18.638  24.571  1.00  0.00    -0.164 NA
ATOM     15  C   UNL A   1      32.987  19.858  25.415  1.00  0.00     0.059 A 
BRANCH  12  16
ATOM     16  C   UNL A   1      33.817  16.379  24.837  1.00  0.00     0.101 C 
ATOM     17  C   UNL A   1      35.184  15.813  25.240  1.00  0.00     0.033 C 
ATOM     18  C   UNL A   1      32.717  15.660  25.625  1.00  0.00     0.033 C 
ENDBRANCH  12  16
ENDBRANCH  10  11
ENDBRANCH   6   9
ENDBRANCH   4   5
ENDBRANCH   3   4
ENDBRANCH   2   3
ENDBRANCH   1   2
BRANCH   1  19
ATOM     19  C   UNL A   1      41.963  20.522  27.506  1.00  0.00     0.021 C 
BRANCH  19  20
ATOM     20  C   UNL A   1      42.079  20.002  26.080  1.00  0.00     0.116 C 
BRANCH  20  21
ATOM     21  N   UNL A   1      43.469  19.794  25.656  1.00  0.00    -0.352 N 
ATOM     22  C   UNL A   1      44.369  20.733  25.167  1.00  0.00     0.251 C 
ATOM     23  H   UNL A   1      43.807  18.871  25.726  1.00  0.00     0.163 HD
ATOM     24  O   UNL A   1      45.310  20.386  24.463  1.00  0.00    -0.269 OA
BRANCH  22  25
ATOM     25  C   UNL A   1      44.197  22.149  25.557  1.00  0.00     0.039 A 
ATOM     26  C   UNL A   1      43.291  23.033  24.959  1.00  0.00     0.014 A 
ATOM     27  C   UNL A   1      44.977  22.580  26.615  1.00  0.00     0.014 A 
ATOM     28  C   UNL A   1      43.222  24.351  25.438  1.00  0.00     0.010 A 
ATOM     29  C   UNL A   1      44.603  23.704  27.285  1.00  0.00     0.010 A 
ATOM     30  C   UNL A   1      43.929  24.691  26.602  1.00  0.00    -0.014 A 
BRANCH  30  31
ATOM     31  C   UNL A   1      43.798  25.948  27.340  1.00  0.00     0.031 A 
ATOM     32  C   UNL A   1      44.864  26.892  26.915  1.00  0.00     0.074 A 
ATOM     33  C   UNL A   1      42.695  26.289  28.063  1.00  0.00     0.049 A 
ATOM     34  N   UNL A   1      45.992  27.092  27.515  1.00  0.00    -0.248 NA
ATOM     35  C   UNL A   1      44.848  27.416  25.531  1.00  0.00     0.031 C 
ATOM     36  C   UNL A   1      41.483  25.499  28.325  1.00  0.00     0.029 A 
ATOM     37  N   UNL A   1      42.388  27.468  28.694  1.00  0.00    -0.354 N 
ATOM     38  C   UNL A   1      46.622  28.071  26.758  1.00  0.00     0.074 A 
ATOM     39  C   UNL A   1      46.072  27.942  25.442  1.00  0.00     0.031 C 
ATOM     40  C   UNL A   1      40.513  26.279  28.871  1.00  0.00     0.029 A 
ATOM     41  C   UNL A   1      41.051  27.605  29.130  1.00  0.00     0.049 A 
ATOM     42  H   UNL A   1      43.059  28.175  28.835  1.00  0.00     0.167 HD
ATOM     43  C   UNL A   1      47.184  29.148  27.377  1.00  0.00     0.034 A 
ATOM     44  C   UNL A   1      40.456  28.718  29.682  1.00  0.00     0.034 A 
ATOM     45  C   UNL A   1      47.320  28.884  28.799  1.00  0.00     0.049 A 
ATOM     46  C   UNL A   1      41.570  29.548  30.212  1.00  0.00     0.074 A 
ATOM     47  C   UNL A   1      47.924  27.895  29.552  1.00  0.00     0.029 A 
ATOM     48  N   UNL A   1      46.393  29.473  29.632  1.00  0.00    -0.354 N 
ATOM     49  N   UNL A   1      42.324  29.152  31.202  1.00  0.00    -0.248 NA
ATOM     50  C   UNL A   1      42.193  30.482  29.286  1.00  0.00     0.031 C 
ATOM     51  C   UNL A   1      46.997  27.617  30.603  1.00  0.00     0.029 A 
ATOM     52  C   UNL A   1      45.950  28.538  30.533  1.00  0.00     0.049 A 
ATOM     53  H   UNL A   1      46.097  30.411  29.588  1.00  0.00     0.167 HD
ATOM     54  C   UNL A   1      43.621  29.398  30.777  1.00  0.00     0.074 A 
ATOM     55  C   UNL A   1      43.474  30.265  29.602  1.00  0.00     0.031 C 
ATOM     56  C   UNL A   1      44.660  28.613  31.196  1.00  0.00     0.034 A 
BRANCH  43  57
ATOM     57  C   UNL A   1      47.153  30.571  26.841  1.00  0.00     0.023 A 
ATOM     58  C   UNL A   1      48.376  31.267  26.864  1.00  0.00     0.031 A 
ATOM     59  C   UNL A   1      46.007  31.367  26.603  1.00  0.00     0.131 A 
ATOM     60  C   UNL A   1      48.415  32.670  26.808  1.00  0.00     0.055 A 
ATOM     61  C   UNL A   1      46.058  32.759  26.486  1.00  0.00     0.041 A 
ATOM     62  F   UNL A   1      44.766  30.877  26.547  1.00  0.00    -0.206 F 
ATOM     63  C   UNL A   1      47.261  33.424  26.624  1.00  0.00     0.022 A 
BRANCH  60  64
ATOM     64  S   UNL A   1      49.983  33.492  27.171  1.00  0.00     0.124 S 
ATOM     65  O   UNL A   1      50.688  32.452  27.911  1.00  0.00    -0.237 OA
ATOM     66  O   UNL A   1      50.483  33.785  25.832  1.00  0.00    -0.237 OA
ATOM     67  O   UNL A   1      49.578  34.658  27.954  1.00  0.00    -0.744 OA
ENDBRANCH  60  64
ENDBRANCH  43  57
BRANCH  44  68
ATOM     68  C   UNL A   1      39.078  29.302  29.442  1.00  0.00     0.023 A 
ATOM     69  C   UNL A   1      38.275  29.958  30.426  1.00  0.00     0.031 A 
ATOM     70  C   UNL A   1      38.653  29.464  28.106  1.00  0.00     0.131 A 
ATOM     71  C   UNL A   1      37.127  30.719  30.046  1.00  0.00     0.055 A 
ATOM     72  C   UNL A   1      37.538  30.228  27.740  1.00  0.00     0.041 A 
ATOM     73  F   UNL A   1      39.365  28.953  27.090  1.00  0.00    -0.206 F 
ATOM     74  C   UNL A   1      36.778  30.866  28.704  1.00  0.00     0.022 A 
BRANCH  71  75
ATOM     75  S   UNL A   1      36.069  31.594  31.270  1.00  0.00     0.124 S 
ATOM     76  O   UNL A   1      35.827  30.564  32.274  1.00  0.00    -0.237 OA
ATOM     77  O   UNL A   1      36.907  32.716  31.677  1.00  0.00    -0.237 OA
ATOM     78  O   UNL A   1      34.885  31.973  30.495  1.00  0.00    -0.744 OA
ENDBRANCH  71  75
ENDBRANCH  44  68
BRANCH  56  79
ATOM     79  C   UNL A   1      44.426  27.660  32.356  1.00  0.00     0.023 A 
ATOM     80  C   UNL A   1      44.331  28.010  33.725  1.00  0.00     0.031 A 
ATOM     81  C   UNL A   1      44.183  26.320  32.009  1.00  0.00     0.131 A 
ATOM     82  C   UNL A   1      44.015  27.020  34.683  1.00  0.00     0.055 A 
ATOM     83  C   UNL A   1      43.842  25.355  32.951  1.00  0.00     0.041 A 
ATOM     84  F   UNL A   1      44.239  25.931  30.725  1.00  0.00    -0.206 F 
ATOM     85  C   UNL A   1      43.763  25.699  34.294  1.00  0.00     0.022 A 
BRANCH  82  86
ATOM     86  S   UNL A   1      43.963  27.407  36.467  1.00  0.00     0.124 S 
ATOM     87  O   UNL A   1      44.379  26.160  37.097  1.00  0.00    -0.237 OA
ATOM     88  O   UNL A   1      44.901  28.521  36.578  1.00  0.00    -0.237 OA
ATOM     89  O   UNL A   1      42.563  27.769  36.697  1.00  0.00    -0.744 OA
ENDBRANCH  82  86
ENDBRANCH  56  79
ENDBRANCH  30  31
ENDBRANCH  22  25
ENDBRANCH  20  21
ENDBRANCH  19  20
ENDBRANCH   1  19
TORSDOF 18
ENDMDL
MODEL 2
REMARK VINA RESULT:     -10.3      4.576     10.739
REMARK SMILES CC(C)n1ccc(C#CC(=O)NCCCCCCNC(=O)c2ccc(-c3c4nc(c(-c5cc(S(=O)(=O)[O-])ccc5F)c5ccc([nH]5)c(-c5cc(S(=O)(=O)[O-])ccc5F)c5nc(c(-c6cc(S(=O)(=O)[O-])ccc6F)c6ccc3[nH]6)C=C5)C=C4)cc2)n1
REMARK SMILES IDX 16 1 15 2 14 3 13 4 12 5 10 6 11 7 9 9 8 10 7 11 4 12 5 13
REMARK SMILES IDX 85 14 6 15 2 16 1 17 3 18 17 19 18 20 19 21 20 22 21 24
REMARK SMILES IDX 22 25 23 26 84 27 24 28 83 29 25 30 26 31 27 32 77 33 28 34
REMARK SMILES IDX 82 35 76 36 78 37 29 38 81 39 75 40 74 41 30 43 62 44 42 45
REMARK SMILES IDX 61 46 43 47 46 48 60 49 79 50 44 51 45 52 59 54 80 55 47 56
REMARK SMILES IDX 31 57 32 58 40 59 33 60 39 61 41 62 38 63 34 64 35 65 36 66
REMARK SMILES IDX 37 67 63 68 64 69 72 70 65 71 71 72 73 73 70 74 66 75 67 76
REMARK SMILES IDX 68 77 69 78 48 79 49 80 57 81 50 82 56 83 58 84 55 85 51 86
REMARK SMILES IDX 52 87 53 88 54 89
REMARK H PARENT 12 8 19 23 78 42 46 53
REMARK Flexibility Score: inf
ROOT
ATOM      1  C   UNL A   1      35.312  32.698  32.572  1.00  0.00     0.002 C 
ENDROOT
BRANCH   1   2
ATOM      2  C   UNL A   1      34.374  33.523  33.466  1.00  0.00     0.002 C 
BRANCH   2   3
ATOM      3  C   UNL A   1      33.596  34.643  32.764  1.00  0.00     0.021 C 
BRANCH   3   4
ATOM      4  C   UNL A   1      34.400  35.418  31.723  1.00  0.00     0.117 C 
BRANCH   4   5
ATOM      5  N   UNL A   1      33.538  36.125  30.795  1.00  0.00    -0.345 N 
ATOM      6  C   UNL A   1      33.108  35.708  29.566  1.00  0.00     0.296 C 
ATOM      7  O   UNL A   1      32.381  36.413  28.878  1.00  0.00    -0.260 OA
ATOM      8  H   UNL A   1      33.225  37.012  31.085  1.00  0.00     0.164 HD
BRANCH   6   9
ATOM      9  C   UNL A   1      33.497  34.400  29.095  1.00  0.00     0.002 C 
ATOM     10  C   UNL A   1      33.795  33.334  28.652  1.00  0.00    -0.034 C 
BRANCH  10  11
ATOM     11  C   UNL A   1      34.114  32.077  28.060  1.00  0.00     0.135 A 
ATOM     12  N   UNL A   1      33.770  30.254  27.056  1.00  0.00    -0.269 N 
ATOM     13  C   UNL A   1      35.112  30.259  27.342  1.00  0.00     0.110 A 
ATOM     14  N   UNL A   1      33.135  31.347  27.529  1.00  0.00    -0.164 NA
ATOM     15  C   UNL A   1      35.368  31.453  27.973  1.00  0.00     0.059 A 
BRANCH  12  16
ATOM     16  C   UNL A   1      33.029  29.187  26.384  1.00  0.00     0.101 C 
ATOM     17  C   UNL A   1      33.922  28.219  25.598  1.00  0.00     0.033 C 
ATOM     18  C   UNL A   1      32.166  28.396  27.372  1.00  0.00     0.033 C 
ENDBRANCH  12  16
ENDBRANCH  10  11
ENDBRANCH   6   9
ENDBRANCH   4   5
ENDBRANCH   3   4
ENDBRANCH   2   3
ENDBRANCH   1   2
BRANCH   1  19
ATOM     19  C   UNL A   1      36.792  32.670  32.981  1.00  0.00     0.021 C 
BRANCH  19  20
ATOM     20  C   UNL A   1      37.649  33.703  32.264  1.00  0.00     0.116 C 
BRANCH  20  21
ATOM     21  N   UNL A   1      37.382  33.769  30.821  1.00  0.00    -0.352 N 
ATOM     22  C   UNL A   1      38.102  33.184  29.786  1.00  0.00     0.251 C 
ATOM     23  H   UNL A   1      36.594  34.295  30.553  1.00  0.00     0.163 HD
ATOM     24  O   UNL A   1      38.049  33.647  28.653  1.00  0.00    -0.269 OA
BRANCH  22  25
ATOM     25  C   UNL A   1      38.887  31.963  30.070  1.00  0.00     0.039 A 
ATOM     26  C   UNL A   1      38.415  30.657  29.895  1.00  0.00     0.014 A 
ATOM     27  C   UNL A   1      40.186  32.171  30.500  1.00  0.00     0.014 A 
ATOM     28  C   UNL A   1      39.274  29.587  30.193  1.00  0.00     0.010 A 
ATOM     29  C   UNL A   1      41.078  31.150  30.392  1.00  0.00     0.010 A 
ATOM     30  C   UNL A   1      40.620  29.854  30.486  1.00  0.00    -0.014 A 
BRANCH  30  31
ATOM     31  C   UNL A   1      41.679  28.852  30.610  1.00  0.00     0.031 A 
ATOM     32  C   UNL A   1      41.933  28.567  32.045  1.00  0.00     0.074 A 
ATOM     33  C   UNL A   1      42.127  28.093  29.571  1.00  0.00     0.049 A 
ATOM     34  N   UNL A   1      42.862  29.093  32.777  1.00  0.00    -0.248 NA
ATOM     35  C   UNL A   1      40.876  27.908  32.844  1.00  0.00     0.031 C 
ATOM     36  C   UNL A   1      41.739  28.147  28.153  1.00  0.00     0.029 A 
ATOM     37  N   UNL A   1      43.013  27.045  29.567  1.00  0.00    -0.354 N 
ATOM     38  C   UNL A   1      42.707  28.496  34.020  1.00  0.00     0.074 A 
ATOM     39  C   UNL A   1      41.330  28.108  34.084  1.00  0.00     0.031 C 
ATOM     40  C   UNL A   1      42.220  27.066  27.485  1.00  0.00     0.029 A 
ATOM     41  C   UNL A   1      43.067  26.287  28.375  1.00  0.00     0.049 A 
ATOM     42  H   UNL A   1      43.578  26.835  30.346  1.00  0.00     0.167 HD
ATOM     43  C   UNL A   1      43.796  27.993  34.670  1.00  0.00     0.034 A 
ATOM     44  C   UNL A   1      43.777  25.129  28.146  1.00  0.00     0.034 A 
ATOM     45  C   UNL A   1      45.012  28.504  34.063  1.00  0.00     0.049 A 
ATOM     46  C   UNL A   1      44.858  25.113  29.167  1.00  0.00     0.074 A 
ATOM     47  C   UNL A   1      45.513  29.765  33.799  1.00  0.00     0.029 A 
ATOM     48  N   UNL A   1      45.696  27.649  33.224  1.00  0.00    -0.354 N 
ATOM     49  N   UNL A   1      45.820  25.996  29.178  1.00  0.00    -0.248 NA
ATOM     50  C   UNL A   1      44.535  24.522  30.457  1.00  0.00     0.031 C 
ATOM     51  C   UNL A   1      46.088  29.666  32.495  1.00  0.00     0.029 A 
ATOM     52  C   UNL A   1      46.047  28.331  32.087  1.00  0.00     0.049 A 
ATOM     53  H   UNL A   1      45.898  26.704  33.411  1.00  0.00     0.167 HD
ATOM     54  C   UNL A   1      45.897  26.415  30.498  1.00  0.00     0.074 A 
ATOM     55  C   UNL A   1      45.109  25.433  31.251  1.00  0.00     0.031 C 
ATOM     56  C   UNL A   1      46.296  27.686  30.810  1.00  0.00     0.034 A 
BRANCH  43  57
ATOM     57  C   UNL A   1      43.803  26.709  35.485  1.00  0.00     0.023 A 
ATOM     58  C   UNL A   1      44.175  26.836  36.836  1.00  0.00     0.031 A 
ATOM     59  C   UNL A   1      43.773  25.384  34.987  1.00  0.00     0.131 A 
ATOM     60  C   UNL A   1      44.628  25.730  37.573  1.00  0.00     0.055 A 
ATOM     61  C   UNL A   1      44.166  24.277  35.745  1.00  0.00     0.041 A 
ATOM     62  F   UNL A   1      43.442  25.074  33.731  1.00  0.00    -0.206 F 
ATOM     63  C   UNL A   1      44.632  24.448  37.035  1.00  0.00     0.022 A 
BRANCH  60  64
ATOM     64  S   UNL A   1      45.390  26.035  39.184  1.00  0.00     0.124 S 
ATOM     65  O   UNL A   1      45.504  24.679  39.709  1.00  0.00    -0.237 OA
ATOM     66  O   UNL A   1      46.637  26.690  38.804  1.00  0.00    -0.237 OA
ATOM     67  O   UNL A   1      44.417  26.891  39.859  1.00  0.00    -0.744 OA
ENDBRANCH  60  64
ENDBRANCH  43  57
BRANCH  44  68
ATOM     68  C   UNL A   1      43.372  23.873  27.401  1.00  0.00     0.023 A 
ATOM     69  C   UNL A   1      44.146  23.226  26.389  1.00  0.00     0.031 A 
ATOM     70  C   UNL A   1      42.291  23.123  27.911  1.00  0.00     0.131 A 
ATOM     71  C   UNL A   1      43.820  21.906  25.949  1.00  0.00     0.055 A 
ATOM     72  C   UNL A   1      41.990  21.822  27.489  1.00  0.00     0.041 A 
ATOM     73  F   UNL A   1      41.533  23.598  28.911  1.00  0.00    -0.206 F 
ATOM     74  C   UNL A   1      42.756  21.205  26.516  1.00  0.00     0.022 A 
BRANCH  71  75
ATOM     75  S   UNL A   1      44.793  21.022  24.662  1.00  0.00     0.124 S 
ATOM     76  O   UNL A   1      46.118  20.943  25.265  1.00  0.00    -0.237 OA
ATOM     77  O   UNL A   1      44.068  19.765  24.516  1.00  0.00    -0.237 OA
ATOM     78  O   UNL A   1      44.710  21.907  23.497  1.00  0.00    -0.744 OA
ENDBRANCH  71  75
ENDBRANCH  44  68
BRANCH  56  79
ATOM     79  C   UNL A   1      46.932  28.534  29.723  1.00  0.00     0.023 A 
ATOM     80  C   UNL A   1      46.250  29.258  28.714  1.00  0.00     0.031 A 
ATOM     81  C   UNL A   1      48.327  28.686  29.800  1.00  0.00     0.131 A 
ATOM     82  C   UNL A   1      46.979  30.081  27.825  1.00  0.00     0.055 A 
ATOM     83  C   UNL A   1      49.036  29.522  28.944  1.00  0.00     0.041 A 
ATOM     84  F   UNL A   1      49.027  28.041  30.748  1.00  0.00    -0.206 F 
ATOM     85  C   UNL A   1      48.366  30.218  27.948  1.00  0.00     0.022 A 
BRANCH  82  86
ATOM     86  S   UNL A   1      46.152  30.967  26.458  1.00  0.00     0.124 S 
ATOM     87  O   UNL A   1      46.889  32.221  26.372  1.00  0.00    -0.237 OA
ATOM     88  O   UNL A   1      46.322  30.048  25.336  1.00  0.00    -0.237 OA
ATOM     89  O   UNL A   1      44.770  31.102  26.926  1.00  0.00    -0.744 OA
ENDBRANCH  82  86
ENDBRANCH  56  79
ENDBRANCH  30  31
ENDBRANCH  22  25
ENDBRANCH  20  21
ENDBRANCH  19  20
ENDBRANCH   1  19
TORSDOF 18
ENDMDL
MODEL 3
REMARK VINA RESULT:     -10.3      3.540      9.299
REMARK SMILES CC(C)n1ccc(C#CC(=O)NCCCCCCNC(=O)c2ccc(-c3c4nc(c(-c5cc(S(=O)(=O)[O-])ccc5F)c5ccc([nH]5)c(-c5cc(S(=O)(=O)[O-])ccc5F)c5nc(c(-c6cc(S(=O)(=O)[O-])ccc6F)c6ccc3[nH]6)C=C5)C=C4)cc2)n1
REMARK SMILES IDX 16 1 15 2 14 3 13 4 12 5 10 6 11 7 9 9 8 10 7 11 4 12 5 13
REMARK SMILES IDX 85 14 6 15 2 16 1 17 3 18 17 19 18 20 19 21 20 22 21 24
REMARK SMILES IDX 22 25 23 26 84 27 24 28 83 29 25 30 26 31 27 32 77 33 28 34
REMARK SMILES IDX 82 35 76 36 78 37 29 38 81 39 75 40 74 41 30 43 62 44 42 45
REMARK SMILES IDX 61 46 43 47 46 48 60 49 79 50 44 51 45 52 59 54 80 55 47 56
REMARK SMILES IDX 31 57 32 58 40 59 33 60 39 61 41 62 38 63 34 64 35 65 36 66
REMARK SMILES IDX 37 67 63 68 64 69 72 70 65 71 71 72 73 73 70 74 66 75 67 76
REMARK SMILES IDX 68 77 69 78 48 79 49 80 57 81 50 82 56 83 58 84 55 85 51 86
REMARK SMILES IDX 52 87 53 88 54 89
REMARK H PARENT 12 8 19 23 78 42 46 53
REMARK Flexibility Score: inf
ROOT
ATOM      1  C   UNL A   1      32.344  29.906  27.070  1.00  0.00     0.002 C 
ENDROOT
BRANCH   1   2
ATOM      2  C   UNL A   1      33.039  28.583  27.428  1.00  0.00     0.002 C 
BRANCH   2   3
ATOM      3  C   UNL A   1      33.492  27.725  26.240  1.00  0.00     0.021 C 
BRANCH   3   4
ATOM      4  C   UNL A   1      32.445  27.560  25.140  1.00  0.00     0.117 C 
BRANCH   4   5
ATOM      5  N   UNL A   1      31.190  27.058  25.665  1.00  0.00    -0.345 N 
ATOM      6  C   UNL A   1      30.914  25.798  26.118  1.00  0.00     0.296 C 
ATOM      7  O   UNL A   1      29.800  25.505  26.532  1.00  0.00    -0.260 OA
ATOM      8  H   UNL A   1      30.446  27.702  25.698  1.00  0.00     0.164 HD
BRANCH   6   9
ATOM      9  C   UNL A   1      31.969  24.814  26.133  1.00  0.00     0.002 C 
ATOM     10  C   UNL A   1      32.812  23.971  26.102  1.00  0.00    -0.034 C 
BRANCH  10  11
ATOM     11  C   UNL A   1      33.777  22.925  26.016  1.00  0.00     0.135 A 
ATOM     12  N   UNL A   1      35.692  22.045  25.931  1.00  0.00    -0.269 N 
ATOM     13  C   UNL A   1      34.811  20.998  25.832  1.00  0.00     0.110 A 
ATOM     14  N   UNL A   1      35.071  23.241  26.002  1.00  0.00    -0.164 NA
ATOM     15  C   UNL A   1      33.552  21.544  25.914  1.00  0.00     0.059 A 
BRANCH  12  16
ATOM     16  C   UNL A   1      37.152  21.958  25.894  1.00  0.00     0.101 C 
ATOM     17  C   UNL A   1      37.684  20.991  24.829  1.00  0.00     0.033 C 
ATOM     18  C   UNL A   1      37.791  23.335  25.695  1.00  0.00     0.033 C 
ENDBRANCH  12  16
ENDBRANCH  10  11
ENDBRANCH   6   9
ENDBRANCH   4   5
ENDBRANCH   3   4
ENDBRANCH   2   3
ENDBRANCH   1   2
BRANCH   1  19
ATOM     19  C   UNL A   1      33.183  31.181  27.235  1.00  0.00     0.021 C 
BRANCH  19  20
ATOM     20  C   UNL A   1      34.568  30.937  27.816  1.00  0.00     0.116 C 
BRANCH  20  21
ATOM     21  N   UNL A   1      35.435  32.120  27.752  1.00  0.00    -0.352 N 
ATOM     22  C   UNL A   1      36.689  32.299  28.324  1.00  0.00     0.251 C 
ATOM     23  H   UNL A   1      35.082  32.885  27.240  1.00  0.00     0.163 HD
ATOM     24  O   UNL A   1      37.107  33.425  28.567  1.00  0.00    -0.269 OA
BRANCH  22  25
ATOM     25  C   UNL A   1      37.527  31.108  28.581  1.00  0.00     0.039 A 
ATOM     26  C   UNL A   1      37.344  29.862  27.970  1.00  0.00     0.014 A 
ATOM     27  C   UNL A   1      38.576  31.290  29.465  1.00  0.00     0.014 A 
ATOM     28  C   UNL A   1      38.223  28.818  28.298  1.00  0.00     0.010 A 
ATOM     29  C   UNL A   1      39.605  30.401  29.446  1.00  0.00     0.010 A 
ATOM     30  C   UNL A   1      39.350  29.097  29.087  1.00  0.00    -0.014 A 
BRANCH  30  31
ATOM     31  C   UNL A   1      40.460  28.177  29.340  1.00  0.00     0.031 A 
ATOM     32  C   UNL A   1      40.759  28.143  30.795  1.00  0.00     0.074 A 
ATOM     33  C   UNL A   1      40.923  27.280  28.425  1.00  0.00     0.049 A 
ATOM     34  N   UNL A   1      41.676  28.823  31.403  1.00  0.00    -0.248 NA
ATOM     35  C   UNL A   1      39.754  27.576  31.721  1.00  0.00     0.031 C 
ATOM     36  C   UNL A   1      40.502  27.084  27.030  1.00  0.00     0.029 A 
ATOM     37  N   UNL A   1      41.859  26.287  28.565  1.00  0.00    -0.354 N 
ATOM     38  C   UNL A   1      41.579  28.430  32.731  1.00  0.00     0.074 A 
ATOM     39  C   UNL A   1      40.224  27.996  32.898  1.00  0.00     0.031 C 
ATOM     40  C   UNL A   1      41.021  25.931  26.532  1.00  0.00     0.029 A 
ATOM     41  C   UNL A   1      41.925  25.348  27.511  1.00  0.00     0.049 A 
ATOM     42  H   UNL A   1      42.451  26.233  29.351  1.00  0.00     0.167 HD
ATOM     43  C   UNL A   1      42.705  28.091  33.421  1.00  0.00     0.034 A 
ATOM     44  C   UNL A   1      42.686  24.201  27.452  1.00  0.00     0.034 A 
ATOM     45  C   UNL A   1      43.881  28.551  32.703  1.00  0.00     0.049 A 
ATOM     46  C   UNL A   1      43.789  24.401  28.429  1.00  0.00     0.074 A 
ATOM     47  C   UNL A   1      44.313  29.773  32.224  1.00  0.00     0.029 A 
ATOM     48  N   UNL A   1      44.588  27.602  31.995  1.00  0.00    -0.354 N 
ATOM     49  N   UNL A   1      44.706  25.317  28.268  1.00  0.00    -0.248 NA
ATOM     50  C   UNL A   1      43.524  24.015  29.808  1.00  0.00     0.031 C 
ATOM     51  C   UNL A   1      44.864  29.489  30.937  1.00  0.00     0.029 A 
ATOM     52  C   UNL A   1      44.880  28.104  30.752  1.00  0.00     0.049 A 
ATOM     53  H   UNL A   1      44.841  26.710  32.326  1.00  0.00     0.167 HD
ATOM     54  C   UNL A   1      44.791  25.950  29.500  1.00  0.00     0.074 A 
ATOM     55  C   UNL A   1      44.069  25.069  30.426  1.00  0.00     0.031 C 
ATOM     56  C   UNL A   1      45.132  27.271  29.590  1.00  0.00     0.034 A 
BRANCH  43  57
ATOM     57  C   UNL A   1      42.794  26.959  34.433  1.00  0.00     0.023 A 
ATOM     58  C   UNL A   1      43.578  25.852  34.056  1.00  0.00     0.031 A 
ATOM     59  C   UNL A   1      41.961  26.755  35.559  1.00  0.00     0.131 A 
ATOM     60  C   UNL A   1      43.412  24.601  34.671  1.00  0.00     0.055 A 
ATOM     61  C   UNL A   1      41.846  25.523  36.208  1.00  0.00     0.041 A 
ATOM     62  F   UNL A   1      41.152  27.693  36.059  1.00  0.00    -0.206 F 
ATOM     63  C   UNL A   1      42.546  24.425  35.744  1.00  0.00     0.022 A 
BRANCH  60  64
ATOM     64  S   UNL A   1      44.213  23.168  33.913  1.00  0.00     0.124 S 
ATOM     65  O   UNL A   1      44.435  22.315  35.075  1.00  0.00    -0.237 OA
ATOM     66  O   UNL A   1      43.194  22.722  32.968  1.00  0.00    -0.237 OA
ATOM     67  O   UNL A   1      45.416  23.736  33.310  1.00  0.00    -0.744 OA
ENDBRANCH  60  64
ENDBRANCH  43  57
BRANCH  44  68
ATOM     68  C   UNL A   1      42.327  22.823  26.933  1.00  0.00     0.023 A 
ATOM     69  C   UNL A   1      43.240  21.905  26.327  1.00  0.00     0.031 A 
ATOM     70  C   UNL A   1      41.079  22.282  27.306  1.00  0.00     0.131 A 
ATOM     71  C   UNL A   1      42.879  20.537  26.129  1.00  0.00     0.055 A 
ATOM     72  C   UNL A   1      40.741  20.935  27.127  1.00  0.00     0.041 A 
ATOM     73  F   UNL A   1      40.166  23.029  27.945  1.00  0.00    -0.206 F 
ATOM     74  C   UNL A   1      41.639  20.056  26.549  1.00  0.00     0.022 A 
BRANCH  71  75
ATOM     75  S   UNL A   1      44.020  19.310  25.369  1.00  0.00     0.124 S 
ATOM     76  O   UNL A   1      43.493  19.183  24.016  1.00  0.00    -0.237 OA
ATOM     77  O   UNL A   1      45.322  19.953  25.503  1.00  0.00    -0.237 OA
ATOM     78  O   UNL A   1      43.847  18.115  26.200  1.00  0.00    -0.744 OA
ENDBRANCH  71  75
ENDBRANCH  44  68
BRANCH  56  79
ATOM     79  C   UNL A   1      45.702  27.958  28.361  1.00  0.00     0.023 A 
ATOM     80  C   UNL A   1      47.021  27.829  27.861  1.00  0.00     0.031 A 
ATOM     81  C   UNL A   1      44.791  28.711  27.601  1.00  0.00     0.131 A 
ATOM     82  C   UNL A   1      47.378  28.459  26.648  1.00  0.00     0.055 A 
ATOM     83  C   UNL A   1      45.137  29.303  26.392  1.00  0.00     0.041 A 
ATOM     84  F   UNL A   1      43.520  28.853  28.013  1.00  0.00    -0.206 F 
ATOM     85  C   UNL A   1      46.435  29.186  25.912  1.00  0.00     0.022 A 
BRANCH  82  86
ATOM     86  S   UNL A   1      49.088  28.389  26.008  1.00  0.00     0.124 S 
ATOM     87  O   UNL A   1      49.647  29.678  26.397  1.00  0.00    -0.237 OA
ATOM     88  O   UNL A   1      49.636  27.223  26.694  1.00  0.00    -0.237 OA
ATOM     89  O   UNL A   1      48.905  28.214  24.565  1.00  0.00    -0.744 OA
ENDBRANCH  82  86
ENDBRANCH  56  79
ENDBRANCH  30  31
ENDBRANCH  22  25
ENDBRANCH  20  21
ENDBRANCH  19  20
ENDBRANCH   1  19
TORSDOF 18
ENDMDL
