MODEL 1
REMARK VINA RESULT:     -11.8      0.000      0.000
REMARK SMILES CC(C)CSc1cc2c(cc1Cl)C=C(C(=O)NCCCCCCNC(=O)c1ccc(-c3c4nc(c(-c5cc(S(=O)(=O)[O-])ccc5F)c5ccc([nH]5)c(-c5cc(S(=O)(=O)[O-])ccc5F)c5nc(c(-c6cc(S(=O)(=O)[O-])ccc6F)c6ccc3[nH]6)C=C5)C=C4)cc1)[C@H](C(F)(F)F)O2
REMARK SMILES IDX 20 1 19 2 18 3 17 4 15 5 16 6 14 8 6 9 7 10 11 11 8 12 10 13
REMARK SMILES IDX 12 14 9 15 95 16 13 17 90 18 5 19 4 20 2 21 1 22 3 23 91 24
REMARK SMILES IDX 92 25 93 26 94 27 21 28 22 29 23 30 24 31 25 32 26 34 27 35
REMARK SMILES IDX 28 36 89 37 29 38 88 39 30 40 31 41 32 42 82 43 33 44 87 45
REMARK SMILES IDX 81 46 83 47 34 48 86 49 80 50 79 51 35 53 67 54 47 55 66 56
REMARK SMILES IDX 48 57 51 58 65 59 84 60 49 61 50 62 64 64 85 65 52 66 36 67
REMARK SMILES IDX 37 68 45 69 38 70 44 71 46 72 43 73 39 74 40 75 41 76 42 77
REMARK SMILES IDX 68 78 69 79 77 80 70 81 76 82 78 83 75 84 71 85 72 86 73 87
REMARK SMILES IDX 74 88 53 89 54 90 62 91 55 92 61 93 63 94 60 95 56 96 57 97
REMARK SMILES IDX 58 98 59 99
REMARK H PARENT 17 7 24 33 83 52 51 63
REMARK Flexibility Score: inf
ROOT
ATOM      1  C   UNL A   1      31.605  28.968  26.014  1.00  0.00     0.002 C 
ENDROOT
BRANCH   1   2
ATOM      2  C   UNL A   1      32.401  29.147  24.718  1.00  0.00     0.021 C 
BRANCH   2   3
ATOM      3  C   UNL A   1      33.460  28.078  24.453  1.00  0.00     0.116 C 
BRANCH   3   4
ATOM      4  N   UNL A   1      33.477  27.664  23.061  1.00  0.00    -0.352 N 
ATOM      5  C   UNL A   1      33.315  26.521  22.356  1.00  0.00     0.251 C 
ATOM      6  O   UNL A   1      33.432  26.646  21.132  1.00  0.00    -0.270 OA
ATOM      7  H   UNL A   1      33.654  28.427  22.464  1.00  0.00     0.163 HD
BRANCH   5   8
ATOM      8  C   UNL A   1      33.005  25.173  22.925  1.00  0.00     0.067 C 
ATOM      9  C   UNL A   1      33.374  20.410  24.589  1.00  0.00     0.030 A 
ATOM     10  C   UNL A   1      32.318  21.221  24.146  1.00  0.00     0.063 A 
ATOM     11  C   UNL A   1      34.664  20.965  24.642  1.00  0.00     0.055 A 
ATOM     12  C   UNL A   1      32.556  22.523  23.710  1.00  0.00     0.129 A 
ATOM     13  C   UNL A   1      34.901  22.262  24.161  1.00  0.00     0.033 A 
ATOM     14  Cl  UNL A   1      36.023  20.139  25.322  1.00  0.00    -0.083 Cl
ATOM     15  C   UNL A   1      33.848  23.040  23.682  1.00  0.00     0.019 A 
ATOM     16  O   UNL A   1      31.476  23.236  23.277  1.00  0.00    -0.475 OA
ATOM     17  C   UNL A   1      34.068  24.369  23.126  1.00  0.00     0.025 C 
ATOM     18  C   UNL A   1      31.630  24.684  23.295  1.00  0.00     0.314 C 
BRANCH   9  19
ATOM     19  S   UNL A   1      32.910  18.745  25.052  1.00  0.00    -0.124 SA
BRANCH  19  20
ATOM     20  C   UNL A   1      33.906  17.691  23.932  1.00  0.00     0.078 C 
BRANCH  20  21
ATOM     21  C   UNL A   1      34.148  16.225  24.343  1.00  0.00    -0.007 C 
ATOM     22  C   UNL A   1      35.364  16.013  25.244  1.00  0.00     0.008 C 
ATOM     23  C   UNL A   1      32.901  15.720  25.084  1.00  0.00     0.008 C 
ENDBRANCH  20  21
ENDBRANCH  19  20
ENDBRANCH   9  19
BRANCH  18  24
ATOM     24  C   UNL A   1      31.159  25.243  24.650  1.00  0.00     0.429 C 
ATOM     25  F   UNL A   1      30.366  24.378  25.322  1.00  0.00    -0.167 F 
ATOM     26  F   UNL A   1      32.194  25.536  25.472  1.00  0.00    -0.167 F 
ATOM     27  F   UNL A   1      30.463  26.393  24.482  1.00  0.00    -0.167 F 
ENDBRANCH  18  24
ENDBRANCH   5   8
ENDBRANCH   3   4
ENDBRANCH   2   3
ENDBRANCH   1   2
BRANCH   1  28
ATOM     28  C   UNL A   1      31.889  29.984  27.125  1.00  0.00     0.002 C 
BRANCH  28  29
ATOM     29  C   UNL A   1      31.393  31.407  26.872  1.00  0.00     0.021 C 
BRANCH  29  30
ATOM     30  C   UNL A   1      32.479  32.431  26.565  1.00  0.00     0.116 C 
BRANCH  30  31
ATOM     31  N   UNL A   1      32.333  33.657  27.332  1.00  0.00    -0.352 N 
ATOM     32  C   UNL A   1      33.117  34.131  28.362  1.00  0.00     0.251 C 
ATOM     33  H   UNL A   1      31.571  34.227  27.081  1.00  0.00     0.163 HD
ATOM     34  O   UNL A   1      32.780  35.117  28.994  1.00  0.00    -0.269 OA
BRANCH  32  35
ATOM     35  C   UNL A   1      34.351  33.391  28.715  1.00  0.00     0.039 A 
ATOM     36  C   UNL A   1      34.277  32.074  29.171  1.00  0.00     0.014 A 
ATOM     37  C   UNL A   1      35.581  34.052  28.655  1.00  0.00     0.014 A 
ATOM     38  C   UNL A   1      35.402  31.480  29.733  1.00  0.00     0.010 A 
ATOM     39  C   UNL A   1      36.727  33.420  29.146  1.00  0.00     0.010 A 
ATOM     40  C   UNL A   1      36.637  32.151  29.741  1.00  0.00    -0.014 A 
BRANCH  40  41
ATOM     41  C   UNL A   1      37.817  31.514  30.383  1.00  0.00     0.031 A 
ATOM     42  C   UNL A   1      38.176  31.825  31.812  1.00  0.00     0.074 A 
ATOM     43  C   UNL A   1      38.533  30.610  29.689  1.00  0.00     0.049 A 
ATOM     44  N   UNL A   1      39.158  31.349  32.535  1.00  0.00    -0.248 NA
ATOM     45  C   UNL A   1      37.327  32.795  32.523  1.00  0.00     0.031 C 
ATOM     46  C   UNL A   1      38.263  30.220  28.305  1.00  0.00     0.029 A 
ATOM     47  N   UNL A   1      39.613  29.841  30.047  1.00  0.00    -0.354 N 
ATOM     48  C   UNL A   1      39.056  31.970  33.777  1.00  0.00     0.074 A 
ATOM     49  C   UNL A   1      37.936  32.880  33.699  1.00  0.00     0.031 C 
ATOM     50  C   UNL A   1      39.117  29.250  27.949  1.00  0.00     0.029 A 
ATOM     51  C   UNL A   1      40.043  28.998  29.050  1.00  0.00     0.049 A 
ATOM     52  H   UNL A   1      40.038  29.890  30.934  1.00  0.00     0.167 HD
ATOM     53  C   UNL A   1      39.819  31.782  34.880  1.00  0.00     0.034 A 
ATOM     54  C   UNL A   1      41.074  28.128  29.014  1.00  0.00     0.034 A 
ATOM     55  C   UNL A   1      40.921  30.856  34.946  1.00  0.00     0.049 A 
ATOM     56  C   UNL A   1      41.929  27.966  30.243  1.00  0.00     0.074 A 
ATOM     57  C   UNL A   1      41.744  30.586  36.024  1.00  0.00     0.029 A 
ATOM     58  N   UNL A   1      41.349  30.046  33.904  1.00  0.00    -0.354 N 
ATOM     59  N   UNL A   1      41.801  28.540  31.417  1.00  0.00    -0.248 NA
ATOM     60  C   UNL A   1      43.068  27.041  30.151  1.00  0.00     0.031 C 
ATOM     61  C   UNL A   1      42.703  29.656  35.619  1.00  0.00     0.029 A 
ATOM     62  C   UNL A   1      42.438  29.292  34.308  1.00  0.00     0.049 A 
ATOM     63  H   UNL A   1      40.939  30.012  33.009  1.00  0.00     0.167 HD
ATOM     64  C   UNL A   1      42.828  28.035  32.205  1.00  0.00     0.074 A 
ATOM     65  C   UNL A   1      43.554  27.087  31.385  1.00  0.00     0.031 C 
ATOM     66  C   UNL A   1      43.145  28.336  33.490  1.00  0.00     0.034 A 
BRANCH  53  67
ATOM     67  C   UNL A   1      39.500  32.574  36.125  1.00  0.00     0.023 A 
ATOM     68  C   UNL A   1      38.677  32.018  37.122  1.00  0.00     0.031 A 
ATOM     69  C   UNL A   1      39.895  33.916  36.260  1.00  0.00     0.131 A 
ATOM     70  C   UNL A   1      38.246  32.813  38.192  1.00  0.00     0.055 A 
ATOM     71  C   UNL A   1      39.493  34.694  37.347  1.00  0.00     0.041 A 
ATOM     72  F   UNL A   1      40.683  34.492  35.336  1.00  0.00    -0.206 F 
ATOM     73  C   UNL A   1      38.654  34.146  38.313  1.00  0.00     0.022 A 
BRANCH  70  74
ATOM     74  S   UNL A   1      37.091  32.171  39.436  1.00  0.00     0.124 S 
ATOM     75  O   UNL A   1      35.823  32.746  38.990  1.00  0.00    -0.237 OA
ATOM     76  O   UNL A   1      37.219  30.728  39.255  1.00  0.00    -0.237 OA
ATOM     77  O   UNL A   1      37.602  32.698  40.695  1.00  0.00    -0.744 OA
ENDBRANCH  70  74
ENDBRANCH  53  67
BRANCH  54  78
ATOM     78  C   UNL A   1      41.302  27.325  27.777  1.00  0.00     0.023 A 
ATOM     79  C   UNL A   1      41.012  25.948  27.746  1.00  0.00     0.031 A 
ATOM     80  C   UNL A   1      41.926  27.894  26.655  1.00  0.00     0.131 A 
ATOM     81  C   UNL A   1      41.421  25.174  26.653  1.00  0.00     0.055 A 
ATOM     82  C   UNL A   1      42.263  27.131  25.535  1.00  0.00     0.041 A 
ATOM     83  F   UNL A   1      42.234  29.200  26.641  1.00  0.00    -0.206 F 
ATOM     84  C   UNL A   1      42.030  25.759  25.540  1.00  0.00     0.022 A 
BRANCH  81  85
ATOM     85  S   UNL A   1      41.315  23.363  26.710  1.00  0.00     0.124 S 
ATOM     86  O   UNL A   1      41.610  23.086  28.113  1.00  0.00    -0.237 OA
ATOM     87  O   UNL A   1      39.933  23.130  26.297  1.00  0.00    -0.237 OA
ATOM     88  O   UNL A   1      42.327  22.928  25.754  1.00  0.00    -0.744 OA
ENDBRANCH  81  85
ENDBRANCH  54  78
BRANCH  66  89
ATOM     89  C   UNL A   1      44.326  27.642  34.125  1.00  0.00     0.023 A 
ATOM     90  C   UNL A   1      44.116  26.619  35.069  1.00  0.00     0.031 A 
ATOM     91  C   UNL A   1      45.638  28.100  33.920  1.00  0.00     0.131 A 
ATOM     92  C   UNL A   1      45.196  26.118  35.806  1.00  0.00     0.055 A 
ATOM     93  C   UNL A   1      46.718  27.566  34.624  1.00  0.00     0.041 A 
ATOM     94  F   UNL A   1      45.888  29.081  33.039  1.00  0.00    -0.206 F 
ATOM     95  C   UNL A   1      46.496  26.581  35.583  1.00  0.00     0.022 A 
BRANCH  92  96
ATOM     96  S   UNL A   1      44.941  24.917  37.141  1.00  0.00     0.124 S 
ATOM     97  O   UNL A   1      43.854  25.535  37.898  1.00  0.00    -0.237 OA
ATOM     98  O   UNL A   1      44.579  23.709  36.403  1.00  0.00    -0.237 OA
ATOM     99  O   UNL A   1      46.228  24.871  37.826  1.00  0.00    -0.744 OA
ENDBRANCH  92  96
ENDBRANCH  66  89
ENDBRANCH  40  41
ENDBRANCH  32  35
ENDBRANCH  30  31
ENDBRANCH  29  30
ENDBRANCH  28  29
ENDBRANCH   1  28
TORSDOF 20
ENDMDL
MODEL 2
REMARK VINA RESULT:     -11.6      1.822      2.284
REMARK SMILES CC(C)CSc1cc2c(cc1Cl)C=C(C(=O)NCCCCCCNC(=O)c1ccc(-c3c4nc(c(-c5cc(S(=O)(=O)[O-])ccc5F)c5ccc([nH]5)c(-c5cc(S(=O)(=O)[O-])ccc5F)c5nc(c(-c6cc(S(=O)(=O)[O-])ccc6F)c6ccc3[nH]6)C=C5)C=C4)cc1)[C@H](C(F)(F)F)O2
REMARK SMILES IDX 20 1 19 2 18 3 17 4 15 5 16 6 14 8 6 9 7 10 11 11 8 12 10 13
REMARK SMILES IDX 12 14 9 15 95 16 13 17 90 18 5 19 4 20 2 21 1 22 3 23 91 24
REMARK SMILES IDX 92 25 93 26 94 27 21 28 22 29 23 30 24 31 25 32 26 34 27 35
REMARK SMILES IDX 28 36 89 37 29 38 88 39 30 40 31 41 32 42 82 43 33 44 87 45
REMARK SMILES IDX 81 46 83 47 34 48 86 49 80 50 79 51 35 53 67 54 47 55 66 56
REMARK SMILES IDX 48 57 51 58 65 59 84 60 49 61 50 62 64 64 85 65 52 66 36 67
REMARK SMILES IDX 37 68 45 69 38 70 44 71 46 72 43 73 39 74 40 75 41 76 42 77
REMARK SMILES IDX 68 78 69 79 77 80 70 81 76 82 78 83 75 84 71 85 72 86 73 87
REMARK SMILES IDX 74 88 53 89 54 90 62 91 55 92 61 93 63 94 60 95 56 96 57 97
REMARK SMILES IDX 58 98 59 99
REMARK H PARENT 17 7 24 33 83 52 51 63
REMARK Flexibility Score: inf
ROOT
ATOM      1  C   UNL A   1      32.847  29.671  26.672  1.00  0.00     0.002 C 
ENDROOT
BRANCH   1   2
ATOM      2  C   UNL A   1      31.481  29.843  26.002  1.00  0.00     0.021 C 
BRANCH   2   3
ATOM      3  C   UNL A   1      31.357  29.221  24.612  1.00  0.00     0.116 C 
BRANCH   3   4
ATOM      4  N   UNL A   1      32.593  29.332  23.856  1.00  0.00    -0.352 N 
ATOM      5  C   UNL A   1      33.533  28.502  23.350  1.00  0.00     0.251 C 
ATOM      6  O   UNL A   1      34.461  29.068  22.760  1.00  0.00    -0.270 OA
ATOM      7  H   UNL A   1      32.803  30.273  23.653  1.00  0.00     0.163 HD
BRANCH   5   8
ATOM      8  C   UNL A   1      33.528  27.009  23.439  1.00  0.00     0.067 C 
ATOM      9  C   UNL A   1      33.836  22.250  25.126  1.00  0.00     0.030 A 
ATOM     10  C   UNL A   1      33.928  22.857  23.865  1.00  0.00     0.063 A 
ATOM     11  C   UNL A   1      33.576  23.066  26.241  1.00  0.00     0.055 A 
ATOM     12  C   UNL A   1      33.827  24.240  23.732  1.00  0.00     0.129 A 
ATOM     13  C   UNL A   1      33.518  24.462  26.104  1.00  0.00     0.033 A 
ATOM     14  Cl  UNL A   1      33.272  22.437  27.824  1.00  0.00    -0.083 Cl
ATOM     15  C   UNL A   1      33.657  25.053  24.850  1.00  0.00     0.019 A 
ATOM     16  O   UNL A   1      33.948  24.751  22.472  1.00  0.00    -0.475 OA
ATOM     17  C   UNL A   1      33.657  26.501  24.681  1.00  0.00     0.025 C 
ATOM     18  C   UNL A   1      33.373  26.073  22.270  1.00  0.00     0.314 C 
BRANCH   9  19
ATOM     19  S   UNL A   1      34.051  20.473  25.133  1.00  0.00    -0.124 SA
BRANCH  19  20
ATOM     20  C   UNL A   1      32.648  19.864  24.124  1.00  0.00     0.078 C 
BRANCH  20  21
ATOM     21  C   UNL A   1      32.420  18.342  24.046  1.00  0.00    -0.007 C 
ATOM     22  C   UNL A   1      32.909  17.695  22.751  1.00  0.00     0.008 C 
ATOM     23  C   UNL A   1      33.154  17.684  25.224  1.00  0.00     0.008 C 
ENDBRANCH  20  21
ENDBRANCH  19  20
ENDBRANCH   9  19
BRANCH  18  24
ATOM     24  C   UNL A   1      31.906  25.942  21.823  1.00  0.00     0.429 C 
ATOM     25  F   UNL A   1      31.145  26.988  22.219  1.00  0.00    -0.167 F 
ATOM     26  F   UNL A   1      31.785  25.864  20.477  1.00  0.00    -0.167 F 
ATOM     27  F   UNL A   1      31.347  24.815  22.326  1.00  0.00    -0.167 F 
ENDBRANCH  18  24
ENDBRANCH   5   8
ENDBRANCH   3   4
ENDBRANCH   2   3
ENDBRANCH   1   2
BRANCH   1  28
ATOM     28  C   UNL A   1      33.428  30.917  27.349  1.00  0.00     0.002 C 
BRANCH  28  29
ATOM     29  C   UNL A   1      32.492  32.123  27.443  1.00  0.00     0.021 C 
BRANCH  29  30
ATOM     30  C   UNL A   1      33.148  33.477  27.200  1.00  0.00     0.116 C 
BRANCH  30  31
ATOM     31  N   UNL A   1      32.812  34.458  28.219  1.00  0.00    -0.352 N 
ATOM     32  C   UNL A   1      33.374  34.636  29.466  1.00  0.00     0.251 C 
ATOM     33  H   UNL A   1      32.086  35.080  27.987  1.00  0.00     0.163 HD
ATOM     34  O   UNL A   1      32.885  35.424  30.258  1.00  0.00    -0.269 OA
BRANCH  32  35
ATOM     35  C   UNL A   1      34.551  33.819  29.839  1.00  0.00     0.039 A 
ATOM     36  C   UNL A   1      34.403  32.704  30.666  1.00  0.00     0.014 A 
ATOM     37  C   UNL A   1      35.820  34.221  29.414  1.00  0.00     0.014 A 
ATOM     38  C   UNL A   1      35.530  32.099  31.209  1.00  0.00     0.010 A 
ATOM     39  C   UNL A   1      36.951  33.558  29.900  1.00  0.00     0.010 A 
ATOM     40  C   UNL A   1      36.818  32.529  30.845  1.00  0.00    -0.014 A 
BRANCH  40  41
ATOM     41  C   UNL A   1      38.009  31.895  31.470  1.00  0.00     0.031 A 
ATOM     42  C   UNL A   1      38.455  32.293  32.852  1.00  0.00     0.074 A 
ATOM     43  C   UNL A   1      38.657  30.918  30.807  1.00  0.00     0.049 A 
ATOM     44  N   UNL A   1      39.458  31.833  33.556  1.00  0.00    -0.248 NA
ATOM     45  C   UNL A   1      37.678  33.341  33.534  1.00  0.00     0.031 C 
ATOM     46  C   UNL A   1      38.300  30.442  29.471  1.00  0.00     0.029 A 
ATOM     47  N   UNL A   1      39.728  30.138  31.164  1.00  0.00    -0.354 N 
ATOM     48  C   UNL A   1      39.444  32.543  34.753  1.00  0.00     0.074 A 
ATOM     49  C   UNL A   1      38.352  33.487  34.668  1.00  0.00     0.031 C 
ATOM     50  C   UNL A   1      39.100  29.418  29.143  1.00  0.00     0.029 A 
ATOM     51  C   UNL A   1      40.076  29.211  30.209  1.00  0.00     0.049 A 
ATOM     52  H   UNL A   1      40.202  30.233  32.022  1.00  0.00     0.167 HD
ATOM     53  C   UNL A   1      40.259  32.406  35.827  1.00  0.00     0.034 A 
ATOM     54  C   UNL A   1      41.073  28.303  30.183  1.00  0.00     0.034 A 
ATOM     55  C   UNL A   1      41.331  31.446  35.902  1.00  0.00     0.049 A 
ATOM     56  C   UNL A   1      41.988  28.197  31.376  1.00  0.00     0.074 A 
ATOM     57  C   UNL A   1      42.203  31.223  36.954  1.00  0.00     0.029 A 
ATOM     58  N   UNL A   1      41.676  30.550  34.902  1.00  0.00    -0.354 N 
ATOM     59  N   UNL A   1      41.943  28.857  32.510  1.00  0.00    -0.248 NA
ATOM     60  C   UNL A   1      43.089  27.227  31.292  1.00  0.00     0.031 C 
ATOM     61  C   UNL A   1      43.107  30.232  36.568  1.00  0.00     0.029 A 
ATOM     62  C   UNL A   1      42.759  29.786  35.303  1.00  0.00     0.049 A 
ATOM     63  H   UNL A   1      41.217  30.468  34.034  1.00  0.00     0.167 HD
ATOM     64  C   UNL A   1      42.994  28.371  33.279  1.00  0.00     0.074 A 
ATOM     65  C   UNL A   1      43.643  27.341  32.492  1.00  0.00     0.031 C 
ATOM     66  C   UNL A   1      43.389  28.750  34.520  1.00  0.00     0.034 A 
BRANCH  53  67
ATOM     67  C   UNL A   1      40.034  33.294  37.026  1.00  0.00     0.023 A 
ATOM     68  C   UNL A   1      39.264  32.834  38.110  1.00  0.00     0.031 A 
ATOM     69  C   UNL A   1      40.462  34.634  37.035  1.00  0.00     0.131 A 
ATOM     70  C   UNL A   1      38.917  33.716  39.142  1.00  0.00     0.055 A 
ATOM     71  C   UNL A   1      40.145  35.499  38.084  1.00  0.00     0.041 A 
ATOM     72  F   UNL A   1      41.202  35.121  36.024  1.00  0.00    -0.206 F 
ATOM     73  C   UNL A   1      39.358  35.043  39.137  1.00  0.00     0.022 A 
BRANCH  70  74
ATOM     74  S   UNL A   1      37.830  33.195  40.498  1.00  0.00     0.124 S 
ATOM     75  O   UNL A   1      36.629  32.780  39.776  1.00  0.00    -0.237 OA
ATOM     76  O   UNL A   1      38.598  32.111  41.106  1.00  0.00    -0.237 OA
ATOM     77  O   UNL A   1      37.682  34.397  41.311  1.00  0.00    -0.744 OA
ENDBRANCH  70  74
ENDBRANCH  53  67
BRANCH  54  78
ATOM     78  C   UNL A   1      41.208  27.407  28.998  1.00  0.00     0.023 A 
ATOM     79  C   UNL A   1      42.198  27.641  28.025  1.00  0.00     0.031 A 
ATOM     80  C   UNL A   1      40.275  26.385  28.759  1.00  0.00     0.131 A 
ATOM     81  C   UNL A   1      42.179  26.920  26.824  1.00  0.00     0.055 A 
ATOM     82  C   UNL A   1      40.308  25.617  27.593  1.00  0.00     0.041 A 
ATOM     83  F   UNL A   1      39.305  26.133  29.651  1.00  0.00    -0.206 F 
ATOM     84  C   UNL A   1      41.251  25.899  26.609  1.00  0.00     0.022 A 
BRANCH  81  85
ATOM     85  S   UNL A   1      43.260  27.391  25.444  1.00  0.00     0.124 S 
ATOM     86  O   UNL A   1      42.319  28.019  24.523  1.00  0.00    -0.237 OA
ATOM     87  O   UNL A   1      44.203  28.296  26.098  1.00  0.00    -0.237 OA
ATOM     88  O   UNL A   1      43.827  26.122  25.002  1.00  0.00    -0.744 OA
ENDBRANCH  81  85
ENDBRANCH  54  78
BRANCH  66  89
ATOM     89  C   UNL A   1      44.579  28.059  35.142  1.00  0.00     0.023 A 
ATOM     90  C   UNL A   1      44.385  26.956  35.994  1.00  0.00     0.031 A 
ATOM     91  C   UNL A   1      45.875  28.589  35.022  1.00  0.00     0.131 A 
ATOM     92  C   UNL A   1      45.462  26.445  36.729  1.00  0.00     0.055 A 
ATOM     93  C   UNL A   1      46.954  28.047  35.721  1.00  0.00     0.041 A 
ATOM     94  F   UNL A   1      46.108  29.647  34.230  1.00  0.00    -0.206 F 
ATOM     95  C   UNL A   1      46.746  26.980  36.592  1.00  0.00     0.022 A 
BRANCH  92  96
ATOM     96  S   UNL A   1      45.218  25.131  37.956  1.00  0.00     0.124 S 
ATOM     97  O   UNL A   1      46.449  25.218  38.738  1.00  0.00    -0.237 OA
ATOM     98  O   UNL A   1      44.009  25.575  38.645  1.00  0.00    -0.237 OA
ATOM     99  O   UNL A   1      45.075  23.921  37.155  1.00  0.00    -0.744 OA
ENDBRANCH  92  96
ENDBRANCH  66  89
ENDBRANCH  40  41
ENDBRANCH  32  35
ENDBRANCH  30  31
ENDBRANCH  29  30
ENDBRANCH  28  29
ENDBRANCH   1  28
TORSDOF 20
ENDMDL
MODEL 3
REMARK VINA RESULT:     -10.8      5.662      9.018
REMARK SMILES CC(C)CSc1cc2c(cc1Cl)C=C(C(=O)NCCCCCCNC(=O)c1ccc(-c3c4nc(c(-c5cc(S(=O)(=O)[O-])ccc5F)c5ccc([nH]5)c(-c5cc(S(=O)(=O)[O-])ccc5F)c5nc(c(-c6cc(S(=O)(=O)[O-])ccc6F)c6ccc3[nH]6)C=C5)C=C4)cc1)[C@H](C(F)(F)F)O2
REMARK SMILES IDX 20 1 19 2 18 3 17 4 15 5 16 6 14 8 6 9 7 10 11 11 8 12 10 13
REMARK SMILES IDX 12 14 9 15 95 16 13 17 90 18 5 19 4 20 2 21 1 22 3 23 91 24
REMARK SMILES IDX 92 25 93 26 94 27 21 28 22 29 23 30 24 31 25 32 26 34 27 35
REMARK SMILES IDX 28 36 89 37 29 38 88 39 30 40 31 41 32 42 82 43 33 44 87 45
REMARK SMILES IDX 81 46 83 47 34 48 86 49 80 50 79 51 35 53 67 54 47 55 66 56
REMARK SMILES IDX 48 57 51 58 65 59 84 60 49 61 50 62 64 64 85 65 52 66 36 67
REMARK SMILES IDX 37 68 45 69 38 70 44 71 46 72 43 73 39 74 40 75 41 76 42 77
REMARK SMILES IDX 68 78 69 79 77 80 70 81 76 82 78 83 75 84 71 85 72 86 73 87
REMARK SMILES IDX 74 88 53 89 54 90 62 91 55 92 61 93 63 94 60 95 56 96 57 97
REMARK SMILES IDX 58 98 59 99
REMARK H PARENT 17 7 24 33 83 52 51 63
REMARK Flexibility Score: inf
ROOT
ATOM      1  C   UNL A   1      34.138  22.776  23.493  1.00  0.00     0.002 C 
ENDROOT
BRANCH   1   2
ATOM      2  C   UNL A   1      33.000  23.714  23.083  1.00  0.00     0.021 C 
BRANCH   2   3
ATOM      3  C   UNL A   1      32.952  25.044  23.831  1.00  0.00     0.116 C 
BRANCH   3   4
ATOM      4  N   UNL A   1      32.034  25.001  24.957  1.00  0.00    -0.352 N 
ATOM      5  C   UNL A   1      31.631  25.827  25.949  1.00  0.00     0.251 C 
ATOM      6  O   UNL A   1      30.800  25.339  26.724  1.00  0.00    -0.270 OA
ATOM      7  H   UNL A   1      31.578  24.130  25.012  1.00  0.00     0.163 HD
BRANCH   5   8
ATOM      8  C   UNL A   1      32.088  27.235  26.163  1.00  0.00     0.067 C 
ATOM      9  C   UNL A   1      34.706  31.319  27.598  1.00  0.00     0.030 A 
ATOM     10  C   UNL A   1      33.380  31.086  27.203  1.00  0.00     0.063 A 
ATOM     11  C   UNL A   1      35.599  30.234  27.607  1.00  0.00     0.055 A 
ATOM     12  C   UNL A   1      32.947  29.799  26.890  1.00  0.00     0.129 A 
ATOM     13  C   UNL A   1      35.144  28.935  27.331  1.00  0.00     0.033 A 
ATOM     14  Cl  UNL A   1      37.294  30.405  27.908  1.00  0.00    -0.083 Cl
ATOM     15  C   UNL A   1      33.812  28.713  26.984  1.00  0.00     0.019 A 
ATOM     16  O   UNL A   1      31.636  29.658  26.535  1.00  0.00    -0.475 OA
ATOM     17  C   UNL A   1      33.295  27.371  26.746  1.00  0.00     0.025 C 
ATOM     18  C   UNL A   1      31.319  28.465  25.762  1.00  0.00     0.314 C 
BRANCH   9  19
ATOM     19  S   UNL A   1      35.084  33.014  28.028  1.00  0.00    -0.124 SA
BRANCH  19  20
ATOM     20  C   UNL A   1      33.437  33.805  28.160  1.00  0.00     0.078 C 
BRANCH  20  21
ATOM     21  C   UNL A   1      33.139  34.652  29.412  1.00  0.00    -0.007 C 
ATOM     22  C   UNL A   1      34.205  34.564  30.504  1.00  0.00     0.008 C 
ATOM     23  C   UNL A   1      33.007  36.120  28.982  1.00  0.00     0.008 C 
ENDBRANCH  20  21
ENDBRANCH  19  20
ENDBRANCH   9  19
BRANCH  18  24
ATOM     24  C   UNL A   1      31.449  28.768  24.258  1.00  0.00     0.429 C 
ATOM     25  F   UNL A   1      31.103  30.039  23.951  1.00  0.00    -0.167 F 
ATOM     26  F   UNL A   1      32.713  28.592  23.807  1.00  0.00    -0.167 F 
ATOM     27  F   UNL A   1      30.661  27.941  23.530  1.00  0.00    -0.167 F 
ENDBRANCH  18  24
ENDBRANCH   5   8
ENDBRANCH   3   4
ENDBRANCH   2   3
ENDBRANCH   1   2
BRANCH   1  28
ATOM     28  C   UNL A   1      34.708  22.983  24.900  1.00  0.00     0.002 C 
BRANCH  28  29
ATOM     29  C   UNL A   1      36.181  23.391  24.971  1.00  0.00     0.021 C 
BRANCH  29  30
ATOM     30  C   UNL A   1      36.866  23.125  26.305  1.00  0.00     0.116 C 
BRANCH  30  31
ATOM     31  N   UNL A   1      37.860  22.068  26.228  1.00  0.00    -0.352 N 
ATOM     32  C   UNL A   1      39.222  22.145  26.430  1.00  0.00     0.251 C 
ATOM     33  H   UNL A   1      37.514  21.174  26.003  1.00  0.00     0.163 HD
ATOM     34  O   UNL A   1      39.938  21.186  26.195  1.00  0.00    -0.269 OA
BRANCH  32  35
ATOM     35  C   UNL A   1      39.801  23.427  26.892  1.00  0.00     0.039 A 
ATOM     36  C   UNL A   1      39.559  24.606  26.183  1.00  0.00     0.014 A 
ATOM     37  C   UNL A   1      40.651  23.430  28.000  1.00  0.00     0.014 A 
ATOM     38  C   UNL A   1      40.302  25.745  26.474  1.00  0.00     0.010 A 
ATOM     39  C   UNL A   1      41.336  24.600  28.341  1.00  0.00     0.010 A 
ATOM     40  C   UNL A   1      41.210  25.751  27.547  1.00  0.00    -0.014 A 
BRANCH  40  41
ATOM     41  C   UNL A   1      42.024  26.967  27.814  1.00  0.00     0.031 A 
ATOM     42  C   UNL A   1      41.478  28.087  28.660  1.00  0.00     0.074 A 
ATOM     43  C   UNL A   1      43.280  27.034  27.335  1.00  0.00     0.049 A 
ATOM     44  N   UNL A   1      42.053  29.209  29.009  1.00  0.00    -0.248 NA
ATOM     45  C   UNL A   1      40.110  27.930  29.183  1.00  0.00     0.031 C 
ATOM     46  C   UNL A   1      43.916  25.999  26.519  1.00  0.00     0.029 A 
ATOM     47  N   UNL A   1      44.254  27.992  27.476  1.00  0.00    -0.354 N 
ATOM     48  C   UNL A   1      41.118  29.898  29.776  1.00  0.00     0.074 A 
ATOM     49  C   UNL A   1      39.926  29.082  29.815  1.00  0.00     0.031 C 
ATOM     50  C   UNL A   1      45.186  26.351  26.278  1.00  0.00     0.029 A 
ATOM     51  C   UNL A   1      45.437  27.669  26.855  1.00  0.00     0.049 A 
ATOM     52  H   UNL A   1      44.116  28.830  27.975  1.00  0.00     0.167 HD
ATOM     53  C   UNL A   1      41.253  31.093  30.400  1.00  0.00     0.034 A 
ATOM     54  C   UNL A   1      46.593  28.356  26.748  1.00  0.00     0.034 A 
ATOM     55  C   UNL A   1      42.456  31.885  30.365  1.00  0.00     0.049 A 
ATOM     56  C   UNL A   1      46.703  29.700  27.421  1.00  0.00     0.074 A 
ATOM     57  C   UNL A   1      42.693  33.103  30.978  1.00  0.00     0.029 A 
ATOM     58  N   UNL A   1      43.621  31.542  29.696  1.00  0.00    -0.354 N 
ATOM     59  N   UNL A   1      45.818  30.323  28.164  1.00  0.00    -0.248 NA
ATOM     60  C   UNL A   1      47.962  30.437  27.245  1.00  0.00     0.031 C 
ATOM     61  C   UNL A   1      43.979  33.522  30.634  1.00  0.00     0.029 A 
ATOM     62  C   UNL A   1      44.573  32.535  29.864  1.00  0.00     0.049 A 
ATOM     63  H   UNL A   1      43.753  30.714  29.179  1.00  0.00     0.167 HD
ATOM     64  C   UNL A   1      46.419  31.514  28.558  1.00  0.00     0.074 A 
ATOM     65  C   UNL A   1      47.752  31.513  27.993  1.00  0.00     0.031 C 
ATOM     66  C   UNL A   1      45.906  32.519  29.312  1.00  0.00     0.034 A 
BRANCH  53  67
ATOM     67  C   UNL A   1      40.086  31.633  31.191  1.00  0.00     0.023 A 
ATOM     68  C   UNL A   1      39.968  31.340  32.562  1.00  0.00     0.031 A 
ATOM     69  C   UNL A   1      39.030  32.317  30.563  1.00  0.00     0.131 A 
ATOM     70  C   UNL A   1      38.803  31.698  33.252  1.00  0.00     0.055 A 
ATOM     71  C   UNL A   1      37.886  32.704  31.264  1.00  0.00     0.041 A 
ATOM     72  F   UNL A   1      39.096  32.623  29.256  1.00  0.00    -0.206 F 
ATOM     73  C   UNL A   1      37.765  32.383  32.612  1.00  0.00     0.022 A 
BRANCH  70  74
ATOM     74  S   UNL A   1      38.560  31.236  34.990  1.00  0.00     0.124 S 
ATOM     75  O   UNL A   1      39.885  31.486  35.553  1.00  0.00    -0.237 OA
ATOM     76  O   UNL A   1      37.518  32.168  35.411  1.00  0.00    -0.237 OA
ATOM     77  O   UNL A   1      38.166  29.833  34.929  1.00  0.00    -0.744 OA
ENDBRANCH  70  74
ENDBRANCH  53  67
BRANCH  54  78
ATOM     78  C   UNL A   1      47.734  27.744  26.008  1.00  0.00     0.023 A 
ATOM     79  C   UNL A   1      47.925  27.998  24.636  1.00  0.00     0.031 A 
ATOM     80  C   UNL A   1      48.573  26.804  26.628  1.00  0.00     0.131 A 
ATOM     81  C   UNL A   1      48.872  27.259  23.915  1.00  0.00     0.055 A 
ATOM     82  C   UNL A   1      49.568  26.125  25.921  1.00  0.00     0.041 A 
ATOM     83  F   UNL A   1      48.423  26.519  27.930  1.00  0.00    -0.206 F 
ATOM     84  C   UNL A   1      49.706  26.337  24.552  1.00  0.00     0.022 A 
BRANCH  81  85
ATOM     85  S   UNL A   1      48.943  27.362  22.105  1.00  0.00     0.124 S 
ATOM     86  O   UNL A   1      48.498  26.030  21.708  1.00  0.00    -0.237 OA
ATOM     87  O   UNL A   1      48.006  28.449  21.829  1.00  0.00    -0.237 OA
ATOM     88  O   UNL A   1      50.343  27.668  21.831  1.00  0.00    -0.744 OA
ENDBRANCH  81  85
ENDBRANCH  54  78
BRANCH  66  89
ATOM     89  C   UNL A   1      46.773  33.722  29.597  1.00  0.00     0.023 A 
ATOM     90  C   UNL A   1      46.819  34.788  28.679  1.00  0.00     0.031 A 
ATOM     91  C   UNL A   1      47.664  33.738  30.683  1.00  0.00     0.131 A 
ATOM     92  C   UNL A   1      47.770  35.804  28.838  1.00  0.00     0.055 A 
ATOM     93  C   UNL A   1      48.579  34.776  30.863  1.00  0.00     0.041 A 
ATOM     94  F   UNL A   1      47.665  32.738  31.579  1.00  0.00    -0.206 F 
ATOM     95  C   UNL A   1      48.645  35.807  29.928  1.00  0.00     0.022 A 
BRANCH  92  96
ATOM     96  S   UNL A   1      47.967  37.105  27.590  1.00  0.00     0.124 S 
ATOM     97  O   UNL A   1      46.672  37.778  27.650  1.00  0.00    -0.237 OA
ATOM     98  O   UNL A   1      49.094  37.870  28.118  1.00  0.00    -0.237 OA
ATOM     99  O   UNL A   1      48.230  36.373  26.355  1.00  0.00    -0.744 OA
ENDBRANCH  92  96
ENDBRANCH  66  89
ENDBRANCH  40  41
ENDBRANCH  32  35
ENDBRANCH  30  31
ENDBRANCH  29  30
ENDBRANCH  28  29
ENDBRANCH   1  28
TORSDOF 20
ENDMDL
