MODEL 1
REMARK VINA RESULT:     -11.9      0.000      0.000
REMARK SMILES C[NH+]1CCC([NH+]2CCC(Oc3ccc4ccccc4c3)(C(=O)NCCCCCCNC(=O)c3ccc(-c4c5nc(c(-c6cc(S(=O)(=O)[O-])ccc6F)c6ccc([nH]6)c(-c6cc(S(=O)(=O)[O-])ccc6F)c6nc(c(-c7cc(S(=O)(=O)[O-])ccc7F)c7ccc4[nH]7)C=C6)C=C5)cc3)CC2)CC1
REMARK SMILES IDX 27 1 26 2 25 3 24 4 23 5 21 6 22 7 9 9 6 10 7 11 97 12 8 14
REMARK SMILES IDX 96 15 5 16 1 17 2 18 3 19 99 20 4 22 98 23 10 24 11 25 12 26
REMARK SMILES IDX 20 27 13 28 19 29 14 30 18 31 15 32 17 33 16 34 28 35 29 36
REMARK SMILES IDX 30 37 31 38 32 40 33 41 34 42 95 43 35 44 94 45 36 46 37 47
REMARK SMILES IDX 38 48 88 49 39 50 93 51 87 52 89 53 40 54 92 55 86 56 85 57
REMARK SMILES IDX 41 59 73 60 53 61 72 62 54 63 57 64 71 65 90 66 55 67 56 68
REMARK SMILES IDX 70 70 91 71 58 72 42 73 43 74 51 75 44 76 50 77 52 78 49 79
REMARK SMILES IDX 45 80 46 81 47 82 48 83 74 84 75 85 83 86 76 87 82 88 84 89
REMARK SMILES IDX 81 90 77 91 78 92 79 93 80 94 59 95 60 96 68 97 61 98 67 99
REMARK SMILES IDX 69 100 66 101 62 102 63 103 64 104 65 105
REMARK H PARENT 23 8 6 13 2 21 30 39 89 58 57 69
REMARK Flexibility Score: inf
ROOT
ATOM      1  C   UNL A   1      40.692  21.941  27.635  1.00  0.00     0.002 C 
ENDROOT
BRANCH   1   2
ATOM      2  C   UNL A   1      39.785  22.451  26.511  1.00  0.00     0.002 C 
BRANCH   2   3
ATOM      3  C   UNL A   1      39.232  23.866  26.720  1.00  0.00     0.021 C 
BRANCH   3   4
ATOM      4  C   UNL A   1      37.751  24.011  26.365  1.00  0.00     0.116 C 
BRANCH   4   5
ATOM      5  N   UNL A   1      37.519  23.653  24.979  1.00  0.00    -0.353 N 
ATOM      6  C   UNL A   1      36.352  23.487  24.290  1.00  0.00     0.264 C 
ATOM      7  O   UNL A   1      36.470  23.217  23.089  1.00  0.00    -0.270 OA
ATOM      8  H   UNL A   1      38.335  23.505  24.450  1.00  0.00     0.163 HD
BRANCH   6   9
ATOM      9  C   UNL A   1      34.966  23.643  24.982  1.00  0.00     0.197 C 
ATOM     10  N   UNL A   1      33.779  20.947  24.914  1.00  0.00    -0.332 N 
ATOM     11  C   UNL A   1      34.913  21.257  25.789  1.00  0.00     0.267 C 
ATOM     12  C   UNL A   1      33.816  21.757  23.684  1.00  0.00     0.267 C 
ATOM     13  H   UNL A   1      32.936  21.209  25.424  1.00  0.00     0.348 HD
ATOM     14  C   UNL A   1      34.833  22.718  26.198  1.00  0.00     0.120 C 
ATOM     15  C   UNL A   1      33.853  23.269  23.978  1.00  0.00     0.120 C 
BRANCH  10  16
ATOM     16  C   UNL A   1      33.620  19.495  24.645  1.00  0.00     0.195 C 
ATOM     17  C   UNL A   1      33.579  15.234  25.317  1.00  0.00     0.332 C 
ATOM     18  N   UNL A   1      33.747  16.680  25.434  1.00  0.00    -0.337 N 
ATOM     19  C   UNL A   1      32.449  17.363  25.381  1.00  0.00     0.268 C 
ATOM     20  C   UNL A   1      34.649  17.193  24.397  1.00  0.00     0.268 C 
ATOM     21  H   UNL A   1      34.170  16.873  26.342  1.00  0.00     0.347 HD
ATOM     22  C   UNL A   1      32.622  18.859  25.635  1.00  0.00     0.126 C 
ATOM     23  C   UNL A   1      34.926  18.682  24.613  1.00  0.00     0.126 C 
ENDBRANCH  10  16
BRANCH   9  24
ATOM     24  O   UNL A   1      34.987  25.062  25.284  1.00  0.00    -0.477 OA
BRANCH  24  25
ATOM     25  C   UNL A   1      33.855  25.801  25.126  1.00  0.00     0.121 A 
ATOM     26  C   UNL A   1      32.880  25.895  26.111  1.00  0.00     0.047 A 
ATOM     27  C   UNL A   1      33.781  26.616  23.996  1.00  0.00     0.055 A 
ATOM     28  C   UNL A   1      31.765  26.711  25.918  1.00  0.00     0.012 A 
ATOM     29  C   UNL A   1      32.687  27.474  23.803  1.00  0.00    -0.015 A 
ATOM     30  C   UNL A   1      31.651  27.500  24.766  1.00  0.00    -0.018 A 
ATOM     31  C   UNL A   1      32.600  28.317  22.685  1.00  0.00     0.009 A 
ATOM     32  C   UNL A   1      30.542  28.335  24.566  1.00  0.00     0.009 A 
ATOM     33  C   UNL A   1      31.498  29.156  22.508  1.00  0.00     0.001 A 
ATOM     34  C   UNL A   1      30.466  29.157  23.442  1.00  0.00     0.001 A 
ENDBRANCH  24  25
ENDBRANCH   9  24
ENDBRANCH   6   9
ENDBRANCH   4   5
ENDBRANCH   3   4
ENDBRANCH   2   3
ENDBRANCH   1   2
BRANCH   1  35
ATOM     35  C   UNL A   1      41.159  20.491  27.481  1.00  0.00     0.021 C 
BRANCH  35  36
ATOM     36  C   UNL A   1      40.935  19.901  26.094  1.00  0.00     0.116 C 
BRANCH  36  37
ATOM     37  N   UNL A   1      42.126  19.238  25.592  1.00  0.00    -0.352 N 
ATOM     38  C   UNL A   1      43.336  19.779  25.250  1.00  0.00     0.251 C 
ATOM     39  H   UNL A   1      42.053  18.263  25.483  1.00  0.00     0.163 HD
ATOM     40  O   UNL A   1      44.151  19.094  24.626  1.00  0.00    -0.269 OA
BRANCH  38  41
ATOM     41  C   UNL A   1      43.661  21.177  25.610  1.00  0.00     0.039 A 
ATOM     42  C   UNL A   1      43.316  22.200  24.724  1.00  0.00     0.014 A 
ATOM     43  C   UNL A   1      44.335  21.478  26.797  1.00  0.00     0.014 A 
ATOM     44  C   UNL A   1      43.626  23.525  25.039  1.00  0.00     0.010 A 
ATOM     45  C   UNL A   1      44.572  22.806  27.147  1.00  0.00     0.010 A 
ATOM     46  C   UNL A   1      44.245  23.842  26.259  1.00  0.00    -0.014 A 
BRANCH  46  47
ATOM     47  C   UNL A   1      44.609  25.244  26.589  1.00  0.00     0.031 A 
ATOM     48  C   UNL A   1      43.565  26.177  27.147  1.00  0.00     0.074 A 
ATOM     49  C   UNL A   1      45.861  25.686  26.362  1.00  0.00     0.049 A 
ATOM     50  N   UNL A   1      43.667  27.441  27.469  1.00  0.00    -0.248 NA
ATOM     51  C   UNL A   1      42.218  25.618  27.339  1.00  0.00     0.031 C 
ATOM     52  C   UNL A   1      46.946  24.889  25.785  1.00  0.00     0.029 A 
ATOM     53  N   UNL A   1      46.434  26.911  26.586  1.00  0.00    -0.354 N 
ATOM     54  C   UNL A   1      42.398  27.831  27.886  1.00  0.00     0.074 A 
ATOM     55  C   UNL A   1      41.530  26.687  27.707  1.00  0.00     0.031 C 
ATOM     56  C   UNL A   1      48.060  25.637  25.732  1.00  0.00     0.029 A 
ATOM     57  C   UNL A   1      47.762  26.975  26.233  1.00  0.00     0.049 A 
ATOM     58  H   UNL A   1      45.941  27.675  26.966  1.00  0.00     0.167 HD
ATOM     59  C   UNL A   1      41.999  29.022  28.400  1.00  0.00     0.034 A 
ATOM     60  C   UNL A   1      48.638  27.997  26.303  1.00  0.00     0.034 A 
ATOM     61  C   UNL A   1      42.884  30.148  28.586  1.00  0.00     0.049 A 
ATOM     62  C   UNL A   1      48.172  29.312  26.877  1.00  0.00     0.074 A 
ATOM     63  C   UNL A   1      42.601  31.387  29.132  1.00  0.00     0.029 A 
ATOM     64  N   UNL A   1      44.226  30.171  28.229  1.00  0.00    -0.354 N 
ATOM     65  N   UNL A   1      46.980  29.651  27.312  1.00  0.00    -0.248 NA
ATOM     66  C   UNL A   1      49.179  30.374  26.990  1.00  0.00     0.031 C 
ATOM     67  C   UNL A   1      43.752  32.180  29.046  1.00  0.00     0.029 A 
ATOM     68  C   UNL A   1      44.778  31.410  28.522  1.00  0.00     0.049 A 
ATOM     69  H   UNL A   1      44.716  29.418  27.825  1.00  0.00     0.167 HD
ATOM     70  C   UNL A   1      47.105  30.956  27.783  1.00  0.00     0.074 A 
ATOM     71  C   UNL A   1      48.493  31.329  27.598  1.00  0.00     0.031 C 
ATOM     72  C   UNL A   1      46.162  31.772  28.321  1.00  0.00     0.034 A 
BRANCH  59  73
ATOM     73  C   UNL A   1      40.540  29.164  28.769  1.00  0.00     0.023 A 
ATOM     74  C   UNL A   1      40.107  29.110  30.106  1.00  0.00     0.031 A 
ATOM     75  C   UNL A   1      39.561  29.314  27.770  1.00  0.00     0.131 A 
ATOM     76  C   UNL A   1      38.735  29.117  30.402  1.00  0.00     0.055 A 
ATOM     77  C   UNL A   1      38.202  29.411  28.077  1.00  0.00     0.041 A 
ATOM     78  F   UNL A   1      39.907  29.350  26.474  1.00  0.00    -0.206 F 
ATOM     79  C   UNL A   1      37.780  29.294  29.398  1.00  0.00     0.022 A 
BRANCH  76  80
ATOM     80  S   UNL A   1      38.212  28.729  32.095  1.00  0.00     0.124 S 
ATOM     81  O   UNL A   1      36.786  29.039  32.041  1.00  0.00    -0.237 OA
ATOM     82  O   UNL A   1      38.556  27.318  32.217  1.00  0.00    -0.237 OA
ATOM     83  O   UNL A   1      39.008  29.639  32.917  1.00  0.00    -0.744 OA
ENDBRANCH  76  80
ENDBRANCH  59  73
BRANCH  60  84
ATOM     84  C   UNL A   1      50.042  27.827  25.830  1.00  0.00     0.023 A 
ATOM     85  C   UNL A   1      50.351  27.830  24.460  1.00  0.00     0.031 A 
ATOM     86  C   UNL A   1      51.090  27.607  26.741  1.00  0.00     0.131 A 
ATOM     87  C   UNL A   1      51.662  27.562  24.037  1.00  0.00     0.055 A 
ATOM     88  C   UNL A   1      52.404  27.398  26.317  1.00  0.00     0.041 A 
ATOM     89  F   UNL A   1      50.853  27.601  28.062  1.00  0.00    -0.206 F 
ATOM     90  C   UNL A   1      52.693  27.359  24.957  1.00  0.00     0.022 A 
BRANCH  87  91
ATOM     91  S   UNL A   1      51.983  27.393  22.260  1.00  0.00     0.124 S 
ATOM     92  O   UNL A   1      50.650  27.109  21.743  1.00  0.00    -0.237 OA
ATOM     93  O   UNL A   1      52.536  28.701  21.927  1.00  0.00    -0.237 OA
ATOM     94  O   UNL A   1      52.930  26.282  22.190  1.00  0.00    -0.744 OA
ENDBRANCH  87  91
ENDBRANCH  60  84
BRANCH  72  95
ATOM     95  C   UNL A   1      46.627  33.131  28.793  1.00  0.00     0.023 A 
ATOM     96  C   UNL A   1      46.590  34.260  27.954  1.00  0.00     0.031 A 
ATOM     97  C   UNL A   1      47.153  33.289  30.087  1.00  0.00     0.131 A 
ATOM     98  C   UNL A   1      47.146  35.472  28.388  1.00  0.00     0.055 A 
ATOM     99  C   UNL A   1      47.637  34.517  30.541  1.00  0.00     0.041 A 
ATOM    100  F   UNL A   1      47.214  32.247  30.933  1.00  0.00    -0.206 F 
ATOM    101  C   UNL A   1      47.655  35.612  29.682  1.00  0.00     0.022 A 
BRANCH  98 102
ATOM    102  S   UNL A   1      47.321  36.825  27.193  1.00  0.00     0.124 S 
ATOM    103  O   UNL A   1      45.939  37.045  26.778  1.00  0.00    -0.237 OA
ATOM    104  O   UNL A   1      47.919  37.881  28.004  1.00  0.00    -0.237 OA
ATOM    105  O   UNL A   1      48.194  36.263  26.164  1.00  0.00    -0.744 OA
ENDBRANCH  98 102
ENDBRANCH  72  95
ENDBRANCH  46  47
ENDBRANCH  38  41
ENDBRANCH  36  37
ENDBRANCH  35  36
ENDBRANCH   1  35
TORSDOF 19
ENDMDL
MODEL 2
REMARK VINA RESULT:     -11.9      0.722      7.375
REMARK SMILES C[NH+]1CCC([NH+]2CCC(Oc3ccc4ccccc4c3)(C(=O)NCCCCCCNC(=O)c3ccc(-c4c5nc(c(-c6cc(S(=O)(=O)[O-])ccc6F)c6ccc([nH]6)c(-c6cc(S(=O)(=O)[O-])ccc6F)c6nc(c(-c7cc(S(=O)(=O)[O-])ccc7F)c7ccc4[nH]7)C=C6)C=C5)cc3)CC2)CC1
REMARK SMILES IDX 27 1 26 2 25 3 24 4 23 5 21 6 22 7 9 9 6 10 7 11 97 12 8 14
REMARK SMILES IDX 96 15 5 16 1 17 2 18 3 19 99 20 4 22 98 23 10 24 11 25 12 26
REMARK SMILES IDX 20 27 13 28 19 29 14 30 18 31 15 32 17 33 16 34 28 35 29 36
REMARK SMILES IDX 30 37 31 38 32 40 33 41 34 42 95 43 35 44 94 45 36 46 37 47
REMARK SMILES IDX 38 48 88 49 39 50 93 51 87 52 89 53 40 54 92 55 86 56 85 57
REMARK SMILES IDX 41 59 73 60 53 61 72 62 54 63 57 64 71 65 90 66 55 67 56 68
REMARK SMILES IDX 70 70 91 71 58 72 42 73 43 74 51 75 44 76 50 77 52 78 49 79
REMARK SMILES IDX 45 80 46 81 47 82 48 83 74 84 75 85 83 86 76 87 82 88 84 89
REMARK SMILES IDX 81 90 77 91 78 92 79 93 80 94 59 95 60 96 68 97 61 98 67 99
REMARK SMILES IDX 69 100 66 101 62 102 63 103 64 104 65 105
REMARK H PARENT 23 8 6 13 2 21 30 39 89 58 57 69
REMARK Flexibility Score: inf
ROOT
ATOM      1  C   UNL A   1      40.884  21.849  27.615  1.00  0.00     0.002 C 
ENDROOT
BRANCH   1   2
ATOM      2  C   UNL A   1      40.100  22.459  26.448  1.00  0.00     0.002 C 
BRANCH   2   3
ATOM      3  C   UNL A   1      39.343  23.750  26.783  1.00  0.00     0.021 C 
BRANCH   3   4
ATOM      4  C   UNL A   1      37.854  23.703  26.438  1.00  0.00     0.116 C 
BRANCH   4   5
ATOM      5  N   UNL A   1      37.664  23.422  25.028  1.00  0.00    -0.353 N 
ATOM      6  C   UNL A   1      36.520  23.344  24.287  1.00  0.00     0.264 C 
ATOM      7  O   UNL A   1      36.675  23.125  23.080  1.00  0.00    -0.270 OA
ATOM      8  H   UNL A   1      38.493  23.262  24.525  1.00  0.00     0.163 HD
BRANCH   6   9
ATOM      9  C   UNL A   1      35.114  23.531  24.932  1.00  0.00     0.197 C 
ATOM     10  N   UNL A   1      33.894  20.849  24.878  1.00  0.00    -0.332 N 
ATOM     11  C   UNL A   1      35.004  21.163  25.782  1.00  0.00     0.267 C 
ATOM     12  C   UNL A   1      33.981  21.635  23.634  1.00  0.00     0.267 C 
ATOM     13  H   UNL A   1      33.039  21.132  25.356  1.00  0.00     0.348 HD
ATOM     14  C   UNL A   1      34.931  22.632  26.160  1.00  0.00     0.120 C 
ATOM     15  C   UNL A   1      34.029  23.152  23.900  1.00  0.00     0.120 C 
BRANCH  10  16
ATOM     16  C   UNL A   1      33.724  19.395  24.632  1.00  0.00     0.195 C 
ATOM     17  C   UNL A   1      33.636  15.147  25.376  1.00  0.00     0.332 C 
ATOM     18  N   UNL A   1      33.816  16.593  25.470  1.00  0.00    -0.337 N 
ATOM     19  C   UNL A   1      32.526  17.287  25.393  1.00  0.00     0.268 C 
ATOM     20  C   UNL A   1      34.733  17.080  24.434  1.00  0.00     0.268 C 
ATOM     21  H   UNL A   1      34.233  16.797  26.378  1.00  0.00     0.347 HD
ATOM     22  C   UNL A   1      32.710  18.785  25.622  1.00  0.00     0.126 C 
ATOM     23  C   UNL A   1      35.022  18.570  24.627  1.00  0.00     0.126 C 
ENDBRANCH  10  16
BRANCH   9  24
ATOM     24  O   UNL A   1      35.146  24.955  25.207  1.00  0.00    -0.477 OA
BRANCH  24  25
ATOM     25  C   UNL A   1      34.002  25.686  25.101  1.00  0.00     0.121 A 
ATOM     26  C   UNL A   1      33.066  25.762  26.125  1.00  0.00     0.047 A 
ATOM     27  C   UNL A   1      33.877  26.512  23.984  1.00  0.00     0.055 A 
ATOM     28  C   UNL A   1      31.938  26.571  25.984  1.00  0.00     0.012 A 
ATOM     29  C   UNL A   1      32.770  27.363  23.843  1.00  0.00    -0.015 A 
ATOM     30  C   UNL A   1      31.772  27.370  24.845  1.00  0.00    -0.018 A 
ATOM     31  C   UNL A   1      32.632  28.216  22.737  1.00  0.00     0.009 A 
ATOM     32  C   UNL A   1      30.650  28.199  24.698  1.00  0.00     0.009 A 
ATOM     33  C   UNL A   1      31.518  29.048  22.612  1.00  0.00     0.001 A 
ATOM     34  C   UNL A   1      30.523  29.031  23.586  1.00  0.00     0.001 A 
ENDBRANCH  24  25
ENDBRANCH   9  24
ENDBRANCH   6   9
ENDBRANCH   4   5
ENDBRANCH   3   4
ENDBRANCH   2   3
ENDBRANCH   1   2
BRANCH   1  35
ATOM     35  C   UNL A   1      41.450  20.451  27.351  1.00  0.00     0.021 C 
BRANCH  35  36
ATOM     36  C   UNL A   1      41.310  19.975  25.910  1.00  0.00     0.116 C 
BRANCH  36  37
ATOM     37  N   UNL A   1      42.563  19.458  25.390  1.00  0.00    -0.352 N 
ATOM     38  C   UNL A   1      43.725  20.126  25.112  1.00  0.00     0.251 C 
ATOM     39  H   UNL A   1      42.579  18.489  25.214  1.00  0.00     0.163 HD
ATOM     40  O   UNL A   1      44.607  19.561  24.459  1.00  0.00    -0.269 OA
BRANCH  38  41
ATOM     41  C   UNL A   1      43.916  21.518  25.572  1.00  0.00     0.039 A 
ATOM     42  C   UNL A   1      43.501  22.567  24.747  1.00  0.00     0.014 A 
ATOM     43  C   UNL A   1      44.537  21.796  26.794  1.00  0.00     0.014 A 
ATOM     44  C   UNL A   1      43.685  23.889  25.158  1.00  0.00     0.010 A 
ATOM     45  C   UNL A   1      44.648  23.111  27.237  1.00  0.00     0.010 A 
ATOM     46  C   UNL A   1      44.249  24.173  26.412  1.00  0.00    -0.014 A 
BRANCH  46  47
ATOM     47  C   UNL A   1      44.480  25.576  26.844  1.00  0.00     0.031 A 
ATOM     48  C   UNL A   1      45.846  26.193  26.686  1.00  0.00     0.074 A 
ATOM     49  C   UNL A   1      43.478  26.283  27.401  1.00  0.00     0.049 A 
ATOM     50  N   UNL A   1      46.264  27.384  27.027  1.00  0.00    -0.248 NA
ATOM     51  C   UNL A   1      46.888  25.340  26.093  1.00  0.00     0.031 C 
ATOM     52  C   UNL A   1      42.124  25.781  27.645  1.00  0.00     0.029 A 
ATOM     53  N   UNL A   1      43.439  27.574  27.863  1.00  0.00    -0.354 N 
ATOM     54  C   UNL A   1      47.617  27.420  26.703  1.00  0.00     0.074 A 
ATOM     55  C   UNL A   1      47.962  26.105  26.207  1.00  0.00     0.031 C 
ATOM     56  C   UNL A   1      41.381  26.762  28.182  1.00  0.00     0.029 A 
ATOM     57  C   UNL A   1      42.212  27.949  28.357  1.00  0.00     0.049 A 
ATOM     58  H   UNL A   1      44.219  28.176  27.843  1.00  0.00     0.167 HD
ATOM     59  C   UNL A   1      48.485  28.459  26.784  1.00  0.00     0.034 A 
ATOM     60  C   UNL A   1      41.803  29.118  28.890  1.00  0.00     0.034 A 
ATOM     61  C   UNL A   1      48.119  29.770  27.268  1.00  0.00     0.049 A 
ATOM     62  C   UNL A   1      42.786  30.261  28.970  1.00  0.00     0.074 A 
ATOM     63  C   UNL A   1      48.902  30.908  27.357  1.00  0.00     0.029 A 
ATOM     64  N   UNL A   1      46.862  30.117  27.747  1.00  0.00    -0.354 N 
ATOM     65  N   UNL A   1      44.050  30.292  28.615  1.00  0.00    -0.248 NA
ATOM     66  C   UNL A   1      42.276  31.530  29.501  1.00  0.00     0.031 C 
ATOM     67  C   UNL A   1      48.140  31.921  27.948  1.00  0.00     0.029 A 
ATOM     68  C   UNL A   1      46.855  31.444  28.153  1.00  0.00     0.049 A 
ATOM     69  H   UNL A   1      46.088  29.510  27.792  1.00  0.00     0.167 HD
ATOM     70  C   UNL A   1      44.476  31.598  28.849  1.00  0.00     0.074 A 
ATOM     71  C   UNL A   1      43.326  32.322  29.352  1.00  0.00     0.031 C 
ATOM     72  C   UNL A   1      45.703  32.150  28.664  1.00  0.00     0.034 A 
BRANCH  59  73
ATOM     73  C   UNL A   1      49.914  28.204  26.361  1.00  0.00     0.023 A 
ATOM     74  C   UNL A   1      50.351  28.449  25.046  1.00  0.00     0.031 A 
ATOM     75  C   UNL A   1      50.845  27.671  27.270  1.00  0.00     0.131 A 
ATOM     76  C   UNL A   1      51.648  28.081  24.656  1.00  0.00     0.055 A 
ATOM     77  C   UNL A   1      52.161  27.389  26.899  1.00  0.00     0.041 A 
ATOM     78  F   UNL A   1      50.485  27.393  28.533  1.00  0.00    -0.206 F 
ATOM     79  C   UNL A   1      52.565  27.577  25.581  1.00  0.00     0.022 A 
BRANCH  76  80
ATOM     80  S   UNL A   1      52.065  28.119  22.891  1.00  0.00     0.124 S 
ATOM     81  O   UNL A   1      53.486  27.784  22.917  1.00  0.00    -0.237 OA
ATOM     82  O   UNL A   1      51.178  27.104  22.335  1.00  0.00    -0.237 OA
ATOM     83  O   UNL A   1      51.764  29.494  22.497  1.00  0.00    -0.744 OA
ENDBRANCH  76  80
ENDBRANCH  59  73
BRANCH  60  84
ATOM     84  C   UNL A   1      40.405  29.280  29.383  1.00  0.00     0.023 A 
ATOM     85  C   UNL A   1      40.121  29.314  30.758  1.00  0.00     0.031 A 
ATOM     86  C   UNL A   1      39.326  29.352  28.486  1.00  0.00     0.131 A 
ATOM     87  C   UNL A   1      38.789  29.360  31.197  1.00  0.00     0.055 A 
ATOM     88  C   UNL A   1      38.005  29.455  28.927  1.00  0.00     0.041 A 
ATOM     89  F   UNL A   1      39.541  29.331  27.161  1.00  0.00    -0.206 F 
ATOM     90  C   UNL A   1      37.730  29.444  30.291  1.00  0.00     0.022 A 
BRANCH  87  91
ATOM     91  S   UNL A   1      38.455  29.216  32.975  1.00  0.00     0.124 S 
ATOM     92  O   UNL A   1      38.046  30.575  33.311  1.00  0.00    -0.237 OA
ATOM     93  O   UNL A   1      37.404  28.204  33.003  1.00  0.00    -0.237 OA
ATOM     94  O   UNL A   1      39.739  28.794  33.529  1.00  0.00    -0.744 OA
ENDBRANCH  87  91
ENDBRANCH  60  84
BRANCH  72  95
ATOM     95  C   UNL A   1      45.838  33.626  28.963  1.00  0.00     0.023 A 
ATOM     96  C   UNL A   1      45.749  34.599  27.952  1.00  0.00     0.031 A 
ATOM     97  C   UNL A   1      46.103  34.061  30.274  1.00  0.00     0.131 A 
ATOM     98  C   UNL A   1      46.004  35.945  28.251  1.00  0.00     0.055 A 
ATOM     99  C   UNL A   1      46.282  35.411  30.580  1.00  0.00     0.041 A 
ATOM    100  F   UNL A   1      46.199  33.178  31.281  1.00  0.00    -0.206 F 
ATOM    101  C   UNL A   1      46.255  36.359  29.562  1.00  0.00     0.022 A 
BRANCH  98 102
ATOM    102  S   UNL A   1      46.141  37.128  26.884  1.00  0.00     0.124 S 
ATOM    103  O   UNL A   1      44.817  37.741  26.877  1.00  0.00    -0.237 OA
ATOM    104  O   UNL A   1      47.238  37.986  27.323  1.00  0.00    -0.237 OA
ATOM    105  O   UNL A   1      46.439  36.284  25.728  1.00  0.00    -0.744 OA
ENDBRANCH  98 102
ENDBRANCH  72  95
ENDBRANCH  46  47
ENDBRANCH  38  41
ENDBRANCH  36  37
ENDBRANCH  35  36
ENDBRANCH   1  35
TORSDOF 19
ENDMDL
MODEL 3
REMARK VINA RESULT:     -11.8      5.614     11.073
REMARK SMILES C[NH+]1CCC([NH+]2CCC(Oc3ccc4ccccc4c3)(C(=O)NCCCCCCNC(=O)c3ccc(-c4c5nc(c(-c6cc(S(=O)(=O)[O-])ccc6F)c6ccc([nH]6)c(-c6cc(S(=O)(=O)[O-])ccc6F)c6nc(c(-c7cc(S(=O)(=O)[O-])ccc7F)c7ccc4[nH]7)C=C6)C=C5)cc3)CC2)CC1
REMARK SMILES IDX 27 1 26 2 25 3 24 4 23 5 21 6 22 7 9 9 6 10 7 11 97 12 8 14
REMARK SMILES IDX 96 15 5 16 1 17 2 18 3 19 99 20 4 22 98 23 10 24 11 25 12 26
REMARK SMILES IDX 20 27 13 28 19 29 14 30 18 31 15 32 17 33 16 34 28 35 29 36
REMARK SMILES IDX 30 37 31 38 32 40 33 41 34 42 95 43 35 44 94 45 36 46 37 47
REMARK SMILES IDX 38 48 88 49 39 50 93 51 87 52 89 53 40 54 92 55 86 56 85 57
REMARK SMILES IDX 41 59 73 60 53 61 72 62 54 63 57 64 71 65 90 66 55 67 56 68
REMARK SMILES IDX 70 70 91 71 58 72 42 73 43 74 51 75 44 76 50 77 52 78 49 79
REMARK SMILES IDX 45 80 46 81 47 82 48 83 74 84 75 85 83 86 76 87 82 88 84 89
REMARK SMILES IDX 81 90 77 91 78 92 79 93 80 94 59 95 60 96 68 97 61 98 67 99
REMARK SMILES IDX 69 100 66 101 62 102 63 103 64 104 65 105
REMARK H PARENT 23 8 6 13 2 21 30 39 89 58 57 69
REMARK Flexibility Score: inf
ROOT
ATOM      1  C   UNL A   1      31.718  30.006  25.993  1.00  0.00     0.002 C 
ENDROOT
BRANCH   1   2
ATOM      2  C   UNL A   1      33.152  29.554  25.695  1.00  0.00     0.002 C 
BRANCH   2   3
ATOM      3  C   UNL A   1      33.679  28.437  26.604  1.00  0.00     0.021 C 
BRANCH   3   4
ATOM      4  C   UNL A   1      33.060  27.067  26.323  1.00  0.00     0.116 C 
BRANCH   4   5
ATOM      5  N   UNL A   1      34.048  26.163  25.766  1.00  0.00    -0.353 N 
ATOM      6  C   UNL A   1      33.987  25.346  24.674  1.00  0.00     0.264 C 
ATOM      7  O   UNL A   1      35.017  24.712  24.418  1.00  0.00    -0.270 OA
ATOM      8  H   UNL A   1      34.901  26.133  26.256  1.00  0.00     0.163 HD
BRANCH   6   9
ATOM      9  C   UNL A   1      32.697  25.238  23.807  1.00  0.00     0.197 C 
ATOM     10  N   UNL A   1      31.991  22.378  23.856  1.00  0.00    -0.332 N 
ATOM     11  C   UNL A   1      31.832  23.222  25.044  1.00  0.00     0.267 C 
ATOM     12  C   UNL A   1      33.116  22.836  23.022  1.00  0.00     0.267 C 
ATOM     13  H   UNL A   1      31.140  22.489  23.304  1.00  0.00     0.348 HD
ATOM     14  C   UNL A   1      31.529  24.643  24.602  1.00  0.00     0.120 C 
ATOM     15  C   UNL A   1      32.974  24.311  22.602  1.00  0.00     0.120 C 
BRANCH  10  16
ATOM     16  C   UNL A   1      32.053  20.927  24.165  1.00  0.00     0.195 C 
ATOM     17  C   UNL A   1      33.701  16.997  24.832  1.00  0.00     0.332 C 
ATOM     18  N   UNL A   1      33.496  18.403  24.497  1.00  0.00    -0.337 N 
ATOM     19  C   UNL A   1      33.089  19.169  25.680  1.00  0.00     0.268 C 
ATOM     20  C   UNL A   1      32.514  18.551  23.417  1.00  0.00     0.268 C 
ATOM     21  H   UNL A   1      34.385  18.778  24.166  1.00  0.00     0.347 HD
ATOM     22  C   UNL A   1      33.004  20.658  25.350  1.00  0.00     0.126 C 
ATOM     23  C   UNL A   1      32.411  20.014  22.980  1.00  0.00     0.126 C 
ENDBRANCH  10  16
BRANCH   9  24
ATOM     24  O   UNL A   1      32.535  26.626  23.414  1.00  0.00    -0.477 OA
BRANCH  24  25
ATOM     25  C   UNL A   1      31.284  27.140  23.262  1.00  0.00     0.121 A 
ATOM     26  C   UNL A   1      30.167  26.576  23.864  1.00  0.00     0.047 A 
ATOM     27  C   UNL A   1      31.178  28.372  22.618  1.00  0.00     0.055 A 
ATOM     28  C   UNL A   1      28.915  27.176  23.720  1.00  0.00     0.012 A 
ATOM     29  C   UNL A   1      29.935  29.013  22.498  1.00  0.00    -0.015 A 
ATOM     30  C   UNL A   1      28.783  28.390  23.033  1.00  0.00    -0.018 A 
ATOM     31  C   UNL A   1      29.806  30.262  21.872  1.00  0.00     0.009 A 
ATOM     32  C   UNL A   1      27.533  29.012  22.894  1.00  0.00     0.009 A 
ATOM     33  C   UNL A   1      28.558  30.877  21.755  1.00  0.00     0.001 A 
ATOM     34  C   UNL A   1      27.422  30.248  22.256  1.00  0.00     0.001 A 
ENDBRANCH  24  25
ENDBRANCH   9  24
ENDBRANCH   6   9
ENDBRANCH   4   5
ENDBRANCH   3   4
ENDBRANCH   2   3
ENDBRANCH   1   2
BRANCH   1  35
ATOM     35  C   UNL A   1      31.584  31.455  26.470  1.00  0.00     0.021 C 
BRANCH  35  36
ATOM     36  C   UNL A   1      32.837  32.021  27.126  1.00  0.00     0.116 C 
BRANCH  36  37
ATOM     37  N   UNL A   1      32.691  33.432  27.436  1.00  0.00    -0.352 N 
ATOM     38  C   UNL A   1      33.292  34.167  28.423  1.00  0.00     0.251 C 
ATOM     39  H   UNL A   1      32.073  33.931  26.855  1.00  0.00     0.163 HD
ATOM     40  O   UNL A   1      32.869  35.298  28.678  1.00  0.00    -0.269 OA
BRANCH  38  41
ATOM     41  C   UNL A   1      34.425  33.605  29.190  1.00  0.00     0.039 A 
ATOM     42  C   UNL A   1      35.726  33.976  28.842  1.00  0.00     0.014 A 
ATOM     43  C   UNL A   1      34.213  32.687  30.223  1.00  0.00     0.014 A 
ATOM     44  C   UNL A   1      36.811  33.446  29.545  1.00  0.00     0.010 A 
ATOM     45  C   UNL A   1      35.290  32.221  30.974  1.00  0.00     0.010 A 
ATOM     46  C   UNL A   1      36.602  32.574  30.626  1.00  0.00    -0.014 A 
BRANCH  46  47
ATOM     47  C   UNL A   1      37.750  31.979  31.358  1.00  0.00     0.031 A 
ATOM     48  C   UNL A   1      38.565  30.889  30.712  1.00  0.00     0.074 A 
ATOM     49  C   UNL A   1      38.041  32.395  32.605  1.00  0.00     0.049 A 
ATOM     50  N   UNL A   1      39.581  30.217  31.191  1.00  0.00    -0.248 NA
ATOM     51  C   UNL A   1      38.161  30.478  29.359  1.00  0.00     0.031 C 
ATOM     52  C   UNL A   1      37.298  33.413  33.352  1.00  0.00     0.029 A 
ATOM     53  N   UNL A   1      39.037  32.014  33.469  1.00  0.00    -0.354 N 
ATOM     54  C   UNL A   1      39.928  29.298  30.204  1.00  0.00     0.074 A 
ATOM     55  C   UNL A   1      38.966  29.452  29.134  1.00  0.00     0.031 C 
ATOM     56  C   UNL A   1      37.884  33.598  34.546  1.00  0.00     0.029 A 
ATOM     57  C   UNL A   1      39.018  32.687  34.668  1.00  0.00     0.049 A 
ATOM     58  H   UNL A   1      39.704  31.323  33.249  1.00  0.00     0.167 HD
ATOM     59  C   UNL A   1      40.969  28.428  30.180  1.00  0.00     0.034 A 
ATOM     60  C   UNL A   1      39.823  32.580  35.744  1.00  0.00     0.034 A 
ATOM     61  C   UNL A   1      41.928  28.298  31.251  1.00  0.00     0.049 A 
ATOM     62  C   UNL A   1      40.973  31.605  35.694  1.00  0.00     0.074 A 
ATOM     63  C   UNL A   1      43.043  27.482  31.319  1.00  0.00     0.029 A 
ATOM     64  N   UNL A   1      41.885  29.007  32.446  1.00  0.00    -0.354 N 
ATOM     65  N   UNL A   1      41.316  30.776  34.735  1.00  0.00    -0.248 NA
ATOM     66  C   UNL A   1      41.857  31.571  36.865  1.00  0.00     0.031 C 
ATOM     67  C   UNL A   1      43.634  27.647  32.576  1.00  0.00     0.029 A 
ATOM     68  C   UNL A   1      42.939  28.629  33.265  1.00  0.00     0.049 A 
ATOM     69  H   UNL A   1      41.204  29.680  32.678  1.00  0.00     0.167 HD
ATOM     70  C   UNL A   1      42.478  30.147  35.175  1.00  0.00     0.074 A 
ATOM     71  C   UNL A   1      42.785  30.712  36.474  1.00  0.00     0.031 C 
ATOM     72  C   UNL A   1      43.226  29.192  34.564  1.00  0.00     0.034 A 
BRANCH  59  73
ATOM     73  C   UNL A   1      41.099  27.538  28.965  1.00  0.00     0.023 A 
ATOM     74  C   UNL A   1      42.091  27.755  27.991  1.00  0.00     0.031 A 
ATOM     75  C   UNL A   1      40.196  26.480  28.753  1.00  0.00     0.131 A 
ATOM     76  C   UNL A   1      42.102  26.990  26.815  1.00  0.00     0.055 A 
ATOM     77  C   UNL A   1      40.268  25.664  27.622  1.00  0.00     0.041 A 
ATOM     78  F   UNL A   1      39.213  26.234  29.632  1.00  0.00    -0.206 F 
ATOM     79  C   UNL A   1      41.213  25.928  26.635  1.00  0.00     0.022 A 
BRANCH  76  80
ATOM     80  S   UNL A   1      43.186  27.507  25.455  1.00  0.00     0.124 S 
ATOM     81  O   UNL A   1      44.138  28.370  26.150  1.00  0.00    -0.237 OA
ATOM     82  O   UNL A   1      43.711  26.237  24.969  1.00  0.00    -0.237 OA
ATOM     83  O   UNL A   1      42.282  28.200  24.540  1.00  0.00    -0.744 OA
ENDBRANCH  76  80
ENDBRANCH  59  73
BRANCH  60  84
ATOM     84  C   UNL A   1      39.585  33.416  36.956  1.00  0.00     0.023 A 
ATOM     85  C   UNL A   1      39.006  32.868  38.113  1.00  0.00     0.031 A 
ATOM     86  C   UNL A   1      39.885  34.789  36.957  1.00  0.00     0.131 A 
ATOM     87  C   UNL A   1      38.696  33.697  39.200  1.00  0.00     0.055 A 
ATOM     88  C   UNL A   1      39.625  35.600  38.064  1.00  0.00     0.041 A 
ATOM     89  F   UNL A   1      40.445  35.364  35.881  1.00  0.00    -0.206 F 
ATOM     90  C   UNL A   1      39.013  35.057  39.189  1.00  0.00     0.022 A 
BRANCH  87  91
ATOM     91  S   UNL A   1      37.784  32.989  40.600  1.00  0.00     0.124 S 
ATOM     92  O   UNL A   1      38.132  33.908  41.677  1.00  0.00    -0.237 OA
ATOM     93  O   UNL A   1      36.406  33.050  40.125  1.00  0.00    -0.237 OA
ATOM     94  O   UNL A   1      38.340  31.643  40.721  1.00  0.00    -0.744 OA
ENDBRANCH  87  91
ENDBRANCH  60  84
BRANCH  72  95
ATOM     95  C   UNL A   1      44.478  28.743  35.283  1.00  0.00     0.023 A 
ATOM     96  C   UNL A   1      44.449  27.731  36.259  1.00  0.00     0.031 A 
ATOM     97  C   UNL A   1      45.709  29.367  35.016  1.00  0.00     0.131 A 
ATOM     98  C   UNL A   1      45.608  27.432  36.990  1.00  0.00     0.055 A 
ATOM     99  C   UNL A   1      46.876  29.013  35.695  1.00  0.00     0.041 A 
ATOM    100  F   UNL A   1      45.798  30.340  34.095  1.00  0.00    -0.206 F 
ATOM    101  C   UNL A   1      46.825  28.056  36.703  1.00  0.00     0.022 A 
BRANCH  98 102
ATOM    102  S   UNL A   1      45.473  26.317  38.414  1.00  0.00     0.124 S 
ATOM    103  O   UNL A   1      45.431  25.007  37.772  1.00  0.00    -0.237 OA
ATOM    104  O   UNL A   1      46.689  26.620  39.163  1.00  0.00    -0.237 OA
ATOM    105  O   UNL A   1      44.228  26.731  39.058  1.00  0.00    -0.744 OA
ENDBRANCH  98 102
ENDBRANCH  72  95
ENDBRANCH  46  47
ENDBRANCH  38  41
ENDBRANCH  36  37
ENDBRANCH  35  36
ENDBRANCH   1  35
TORSDOF 19
ENDMDL
