MODEL 1
REMARK VINA RESULT:     -12.2      0.000      0.000
REMARK SMILES O=C(CNC(=O)[C@@H](CC1=c2ccccc2=NC1)N1C(=O)N=C2C=CC=C[C@H]2C1=O)NCCCCCCNC(=O)c1ccc(-c2c3nc(c(-c4cc(S(=O)(=O)[O-])ccc4F)c4ccc([nH]4)c(-c4cc(S(=O)(=O)[O-])ccc4F)c4nc(c(-c5cc(S(=O)(=O)[O-])ccc5F)c5ccc2[nH]5)C=C4)C=C3)cc1
REMARK SMILES IDX 33 1 32 2 31 3 30 4 1 5 2 6 3 8 4 9 5 10 6 12 7 13 8 14 9 15
REMARK SMILES IDX 10 16 17 17 11 18 15 19 16 20 12 21 14 22 13 23 18 24 19 25
REMARK SMILES IDX 28 26 21 27 20 28 27 29 29 30 22 31 26 32 23 33 25 34 24 35
REMARK SMILES IDX 34 36 35 37 36 38 37 39 38 40 39 42 40 43 41 44 102 45 42 46
REMARK SMILES IDX 101 47 43 48 44 49 45 50 95 51 46 52 100 53 94 54 96 55
REMARK SMILES IDX 47 56 99 57 93 58 92 59 48 61 80 62 60 63 79 64 61 65 64 66
REMARK SMILES IDX 78 67 97 68 62 69 63 70 77 72 98 73 65 74 49 75 50 76 58 77
REMARK SMILES IDX 51 78 57 79 59 80 56 81 52 82 53 83 54 84 55 85 81 86 82 87
REMARK SMILES IDX 90 88 83 89 89 90 91 91 88 92 84 93 85 94 86 95 87 96 66 97
REMARK SMILES IDX 67 98 75 99 68 100 74 101 76 102 73 103 69 104 70 105 71 106
REMARK SMILES IDX 72 107
REMARK H PARENT 30 7 4 11 37 41 96 60 64 71
REMARK Flexibility Score: inf
ROOT
ATOM      1  C   UNL A   1      35.716  33.876  28.791  1.00  0.00     0.002 C 
ENDROOT
BRANCH   1   2
ATOM      2  C   UNL A   1      35.787  32.444  28.236  1.00  0.00     0.021 C 
BRANCH   2   3
ATOM      3  C   UNL A   1      34.836  31.437  28.890  1.00  0.00     0.116 C 
BRANCH   3   4
ATOM      4  N   UNL A   1      33.815  30.979  27.967  1.00  0.00    -0.355 N 
ATOM      5  O   UNL A   1      35.062  29.411  26.825  1.00  0.00    -0.273 OA
ATOM      6  C   UNL A   1      34.012  30.025  26.988  1.00  0.00     0.239 C 
ATOM      7  H   UNL A   1      32.919  31.378  28.043  1.00  0.00     0.163 HD
BRANCH   6   8
ATOM      8  C   UNL A   1      32.790  29.783  26.069  1.00  0.00     0.216 C 
BRANCH   8   9
ATOM      9  N   UNL A   1      33.187  29.584  24.679  1.00  0.00    -0.345 N 
ATOM     10  C   UNL A   1      33.422  28.433  23.989  1.00  0.00     0.244 C 
ATOM     11  H   UNL A   1      33.304  30.412  24.158  1.00  0.00     0.164 HD
ATOM     12  O   UNL A   1      34.360  28.455  23.184  1.00  0.00    -0.273 OA
BRANCH  10  13
ATOM     13  C   UNL A   1      32.627  27.119  24.240  1.00  0.00     0.188 C 
BRANCH  13  14
ATOM     14  C   UNL A   1      31.649  26.865  23.048  1.00  0.00     0.069 C 
BRANCH  14  15
ATOM     15  C   UNL A   1      30.231  27.335  23.157  1.00  0.00    -0.037 C 
ATOM     16  C   UNL A   1      29.658  28.467  22.752  1.00  0.00     0.001 A 
ATOM     17  C   UNL A   1      29.181  26.388  23.658  1.00  0.00     0.174 C 
ATOM     18  C   UNL A   1      30.079  29.644  22.066  1.00  0.00     0.010 A 
ATOM     19  C   UNL A   1      28.254  28.291  23.171  1.00  0.00     0.065 A 
ATOM     20  N   UNL A   1      27.923  27.155  23.696  1.00  0.00    -0.280 NA
ATOM     21  C   UNL A   1      29.190  30.632  21.867  1.00  0.00     0.001 A 
ATOM     22  C   UNL A   1      27.351  29.443  22.976  1.00  0.00     0.028 A 
ATOM     23  C   UNL A   1      27.826  30.539  22.363  1.00  0.00     0.002 A 
ENDBRANCH  14  15
ENDBRANCH  13  14
BRANCH  13  24
ATOM     24  N   UNL A   1      33.465  26.008  24.758  1.00  0.00    -0.249 N 
ATOM     25  C   UNL A   1      32.932  25.344  25.868  1.00  0.00     0.351 C 
ATOM     26  C   UNL A   1      34.180  25.212  23.886  1.00  0.00     0.244 C 
ATOM     27  N   UNL A   1      33.611  24.308  26.444  1.00  0.00    -0.197 NA
ATOM     28  O   UNL A   1      31.815  25.623  26.301  1.00  0.00    -0.246 OA
ATOM     29  C   UNL A   1      35.168  24.268  24.546  1.00  0.00     0.151 C 
ATOM     30  O   UNL A   1      34.049  25.242  22.662  1.00  0.00    -0.273 OA
ATOM     31  C   UNL A   1      34.593  23.738  25.834  1.00  0.00     0.062 C 
ATOM     32  C   UNL A   1      35.583  23.116  23.661  1.00  0.00    -0.007 C 
ATOM     33  C   UNL A   1      35.171  22.501  26.417  1.00  0.00     0.025 C 
ATOM     34  C   UNL A   1      35.843  21.896  24.156  1.00  0.00    -0.003 C 
ATOM     35  C   UNL A   1      35.756  21.640  25.574  1.00  0.00     0.002 C 
ENDBRANCH  13  24
ENDBRANCH  10  13
ENDBRANCH   8   9
ENDBRANCH   6   8
ENDBRANCH   3   4
ENDBRANCH   2   3
ENDBRANCH   1   2
BRANCH   1  36
ATOM     36  C   UNL A   1      34.762  34.829  28.070  1.00  0.00     0.002 C 
BRANCH  36  37
ATOM     37  C   UNL A   1      33.440  35.094  28.785  1.00  0.00     0.021 C 
BRANCH  37  38
ATOM     38  C   UNL A   1      33.398  36.368  29.623  1.00  0.00     0.116 C 
BRANCH  38  39
ATOM     39  N   UNL A   1      32.455  36.292  30.730  1.00  0.00    -0.352 N 
ATOM     40  C   UNL A   1      32.541  35.562  31.895  1.00  0.00     0.251 C 
ATOM     41  H   UNL A   1      31.642  36.838  30.632  1.00  0.00     0.163 HD
ATOM     42  O   UNL A   1      31.585  35.514  32.664  1.00  0.00    -0.269 OA
BRANCH  40  43
ATOM     43  C   UNL A   1      33.778  34.804  32.194  1.00  0.00     0.039 A 
ATOM     44  C   UNL A   1      33.728  33.431  32.438  1.00  0.00     0.014 A 
ATOM     45  C   UNL A   1      34.997  35.484  32.265  1.00  0.00     0.014 A 
ATOM     46  C   UNL A   1      34.855  32.777  32.924  1.00  0.00     0.010 A 
ATOM     47  C   UNL A   1      36.150  34.805  32.676  1.00  0.00     0.010 A 
ATOM     48  C   UNL A   1      36.077  33.458  33.060  1.00  0.00    -0.014 A 
BRANCH  48  49
ATOM     49  C   UNL A   1      37.256  32.727  33.599  1.00  0.00     0.031 A 
ATOM     50  C   UNL A   1      37.968  31.687  32.778  1.00  0.00     0.074 A 
ATOM     51  C   UNL A   1      37.729  33.066  34.814  1.00  0.00     0.049 A 
ATOM     52  N   UNL A   1      39.070  31.038  33.054  1.00  0.00    -0.248 NA
ATOM     53  C   UNL A   1      37.370  31.324  31.484  1.00  0.00     0.031 C 
ATOM     54  C   UNL A   1      37.116  34.055  35.699  1.00  0.00     0.029 A 
ATOM     55  N   UNL A   1      38.845  32.652  35.498  1.00  0.00    -0.354 N 
ATOM     56  C   UNL A   1      39.294  30.186  31.979  1.00  0.00     0.074 A 
ATOM     57  C   UNL A   1      38.193  30.374  31.059  1.00  0.00     0.031 C 
ATOM     58  C   UNL A   1      37.898  34.225  36.774  1.00  0.00     0.029 A 
ATOM     59  C   UNL A   1      39.039  33.317  36.685  1.00  0.00     0.049 A 
ATOM     60  H   UNL A   1      39.448  31.947  35.169  1.00  0.00     0.167 HD
ATOM     61  C   UNL A   1      40.331  29.339  31.770  1.00  0.00     0.034 A 
ATOM     62  C   UNL A   1      40.025  33.218  37.600  1.00  0.00     0.034 A 
ATOM     63  C   UNL A   1      41.434  29.173  32.682  1.00  0.00     0.049 A 
ATOM     64  C   UNL A   1      41.158  32.258  37.351  1.00  0.00     0.074 A 
ATOM     65  C   UNL A   1      42.548  28.364  32.537  1.00  0.00     0.029 A 
ATOM     66  N   UNL A   1      41.569  29.824  33.899  1.00  0.00    -0.354 N 
ATOM     67  N   UNL A   1      41.379  31.500  36.302  1.00  0.00    -0.248 NA
ATOM     68  C   UNL A   1      42.171  32.132  38.406  1.00  0.00     0.031 C 
ATOM     69  C   UNL A   1      43.334  28.492  33.686  1.00  0.00     0.029 A 
ATOM     70  C   UNL A   1      42.735  29.417  34.527  1.00  0.00     0.049 A 
ATOM     71  H   UNL A   1      40.931  30.478  34.263  1.00  0.00     0.167 HD
ATOM     72  C   UNL A   1      42.557  30.811  36.570  1.00  0.00     0.074 A 
ATOM     73  C   UNL A   1      43.021  31.270  37.863  1.00  0.00     0.031 C 
ATOM     74  C   UNL A   1      43.189  29.877  35.817  1.00  0.00     0.034 A 
BRANCH  61  75
ATOM     75  C   UNL A   1      40.349  28.527  30.499  1.00  0.00     0.023 A 
ATOM     76  C   UNL A   1      41.191  28.898  29.434  1.00  0.00     0.031 A 
ATOM     77  C   UNL A   1      39.452  27.463  30.302  1.00  0.00     0.131 A 
ATOM     78  C   UNL A   1      41.102  28.220  28.211  1.00  0.00     0.055 A 
ATOM     79  C   UNL A   1      39.387  26.774  29.091  1.00  0.00     0.041 A 
ATOM     80  F   UNL A   1      38.630  27.073  31.290  1.00  0.00    -0.206 F 
ATOM     81  C   UNL A   1      40.209  27.158  28.035  1.00  0.00     0.022 A 
BRANCH  78  82
ATOM     82  S   UNL A   1      42.110  28.716  26.786  1.00  0.00     0.124 S 
ATOM     83  O   UNL A   1      42.905  29.805  27.347  1.00  0.00    -0.237 OA
ATOM     84  O   UNL A   1      42.849  27.491  26.493  1.00  0.00    -0.237 OA
ATOM     85  O   UNL A   1      41.128  29.115  25.783  1.00  0.00    -0.744 OA
ENDBRANCH  78  82
ENDBRANCH  61  75
BRANCH  62  86
ATOM     86  C   UNL A   1      39.995  34.107  38.796  1.00  0.00     0.023 A 
ATOM     87  C   UNL A   1      39.202  33.794  39.914  1.00  0.00     0.031 A 
ATOM     88  C   UNL A   1      40.666  35.342  38.785  1.00  0.00     0.131 A 
ATOM     89  C   UNL A   1      39.039  34.733  40.939  1.00  0.00     0.055 A 
ATOM     90  C   UNL A   1      40.555  36.248  39.842  1.00  0.00     0.041 A 
ATOM     91  F   UNL A   1      41.426  35.690  37.736  1.00  0.00    -0.206 F 
ATOM     92  C   UNL A   1      39.722  35.953  40.916  1.00  0.00     0.022 A 
BRANCH  89  93
ATOM     93  S   UNL A   1      37.822  34.466  42.259  1.00  0.00     0.124 S 
ATOM     94  O   UNL A   1      37.941  35.696  43.034  1.00  0.00    -0.237 OA
ATOM     95  O   UNL A   1      36.582  34.316  41.499  1.00  0.00    -0.237 OA
ATOM     96  O   UNL A   1      38.293  33.253  42.919  1.00  0.00    -0.744 OA
ENDBRANCH  89  93
ENDBRANCH  62  86
BRANCH  74  97
ATOM     97  C   UNL A   1      44.445  29.249  36.367  1.00  0.00     0.023 A 
ATOM     98  C   UNL A   1      44.367  28.239  37.344  1.00  0.00     0.031 A 
ATOM     99  C   UNL A   1      45.713  29.744  36.018  1.00  0.00     0.131 A 
ATOM    100  C   UNL A   1      45.538  27.776  37.959  1.00  0.00     0.055 A 
ATOM    101  C   UNL A   1      46.879  29.254  36.608  1.00  0.00     0.041 A 
ATOM    102  F   UNL A   1      45.835  30.713  35.097  1.00  0.00    -0.206 F 
ATOM    103  C   UNL A   1      46.793  28.274  37.592  1.00  0.00     0.022 A 
BRANCH 100 104
ATOM    104  S   UNL A   1      45.472  26.565  39.309  1.00  0.00     0.124 S 
ATOM    105  O   UNL A   1      46.033  25.375  38.674  1.00  0.00    -0.237 OA
ATOM    106  O   UNL A   1      46.317  27.188  40.325  1.00  0.00    -0.237 OA
ATOM    107  O   UNL A   1      44.053  26.483  39.641  1.00  0.00    -0.744 OA
ENDBRANCH 100 104
ENDBRANCH  74  97
ENDBRANCH  48  49
ENDBRANCH  40  43
ENDBRANCH  38  39
ENDBRANCH  37  38
ENDBRANCH  36  37
ENDBRANCH   1  36
TORSDOF 21
ENDMDL
MODEL 2
REMARK VINA RESULT:     -11.9      4.790      7.777
REMARK SMILES O=C(CNC(=O)[C@@H](CC1=c2ccccc2=NC1)N1C(=O)N=C2C=CC=C[C@H]2C1=O)NCCCCCCNC(=O)c1ccc(-c2c3nc(c(-c4cc(S(=O)(=O)[O-])ccc4F)c4ccc([nH]4)c(-c4cc(S(=O)(=O)[O-])ccc4F)c4nc(c(-c5cc(S(=O)(=O)[O-])ccc5F)c5ccc2[nH]5)C=C4)C=C3)cc1
REMARK SMILES IDX 33 1 32 2 31 3 30 4 1 5 2 6 3 8 4 9 5 10 6 12 7 13 8 14 9 15
REMARK SMILES IDX 10 16 17 17 11 18 15 19 16 20 12 21 14 22 13 23 18 24 19 25
REMARK SMILES IDX 28 26 21 27 20 28 27 29 29 30 22 31 26 32 23 33 25 34 24 35
REMARK SMILES IDX 34 36 35 37 36 38 37 39 38 40 39 42 40 43 41 44 102 45 42 46
REMARK SMILES IDX 101 47 43 48 44 49 45 50 95 51 46 52 100 53 94 54 96 55
REMARK SMILES IDX 47 56 99 57 93 58 92 59 48 61 80 62 60 63 79 64 61 65 64 66
REMARK SMILES IDX 78 67 97 68 62 69 63 70 77 72 98 73 65 74 49 75 50 76 58 77
REMARK SMILES IDX 51 78 57 79 59 80 56 81 52 82 53 83 54 84 55 85 81 86 82 87
REMARK SMILES IDX 90 88 83 89 89 90 91 91 88 92 84 93 85 94 86 95 87 96 66 97
REMARK SMILES IDX 67 98 75 99 68 100 74 101 76 102 73 103 69 104 70 105 71 106
REMARK SMILES IDX 72 107
REMARK H PARENT 30 7 4 11 37 41 96 60 64 71
REMARK Flexibility Score: inf
ROOT
ATOM      1  C   UNL A   1      39.345  27.956  27.974  1.00  0.00     0.002 C 
ENDROOT
BRANCH   1   2
ATOM      2  C   UNL A   1      39.314  26.636  28.764  1.00  0.00     0.021 C 
BRANCH   2   3
ATOM      3  C   UNL A   1      39.642  25.378  27.955  1.00  0.00     0.116 C 
BRANCH   3   4
ATOM      4  N   UNL A   1      38.501  24.917  27.187  1.00  0.00    -0.355 N 
ATOM      5  O   UNL A   1      39.374  22.919  26.437  1.00  0.00    -0.273 OA
ATOM      6  C   UNL A   1      38.463  23.741  26.465  1.00  0.00     0.239 C 
ATOM      7  H   UNL A   1      37.696  25.485  27.179  1.00  0.00     0.163 HD
BRANCH   6   8
ATOM      8  C   UNL A   1      37.164  23.525  25.651  1.00  0.00     0.216 C 
BRANCH   8   9
ATOM      9  N   UNL A   1      36.221  22.662  26.354  1.00  0.00    -0.345 N 
ATOM     10  C   UNL A   1      34.864  22.745  26.459  1.00  0.00     0.244 C 
ATOM     11  H   UNL A   1      36.628  21.899  26.825  1.00  0.00     0.164 HD
ATOM     12  O   UNL A   1      34.379  22.446  27.556  1.00  0.00    -0.273 OA
BRANCH  10  13
ATOM     13  C   UNL A   1      33.957  23.269  25.310  1.00  0.00     0.188 C 
BRANCH  13  14
ATOM     14  C   UNL A   1      32.639  22.429  25.261  1.00  0.00     0.069 C 
BRANCH  14  15
ATOM     15  C   UNL A   1      32.471  21.402  24.184  1.00  0.00    -0.037 C 
ATOM     16  C   UNL A   1      32.574  20.074  24.225  1.00  0.00     0.001 A 
ATOM     17  C   UNL A   1      31.960  21.827  22.838  1.00  0.00     0.174 C 
ATOM     18  C   UNL A   1      32.844  19.095  25.227  1.00  0.00     0.010 A 
ATOM     19  C   UNL A   1      32.294  19.680  22.831  1.00  0.00     0.065 A 
ATOM     20  N   UNL A   1      31.956  20.615  22.001  1.00  0.00    -0.280 NA
ATOM     21  C   UNL A   1      32.912  17.802  24.868  1.00  0.00     0.001 A 
ATOM     22  C   UNL A   1      32.450  18.250  22.499  1.00  0.00     0.028 A 
ATOM     23  C   UNL A   1      32.750  17.388  23.483  1.00  0.00     0.002 A 
ENDBRANCH  14  15
ENDBRANCH  13  14
BRANCH  13  24
ATOM     24  N   UNL A   1      33.891  24.750  25.232  1.00  0.00    -0.249 N 
ATOM     25  C   UNL A   1      34.070  25.276  23.948  1.00  0.00     0.351 C 
ATOM     26  C   UNL A   1      33.014  25.449  26.036  1.00  0.00     0.244 C 
ATOM     27  N   UNL A   1      34.040  26.626  23.744  1.00  0.00    -0.197 NA
ATOM     28  O   UNL A   1      34.180  24.540  22.968  1.00  0.00    -0.246 OA
ATOM     29  C   UNL A   1      33.204  26.956  26.029  1.00  0.00     0.151 C 
ATOM     30  O   UNL A   1      32.134  24.922  26.716  1.00  0.00    -0.273 OA
ATOM     31  C   UNL A   1      33.577  27.422  24.647  1.00  0.00     0.062 C 
ATOM     32  C   UNL A   1      31.992  27.717  26.514  1.00  0.00    -0.007 C 
ATOM     33  C   UNL A   1      33.391  28.854  24.303  1.00  0.00     0.025 C 
ATOM     34  C   UNL A   1      31.650  28.910  26.005  1.00  0.00    -0.003 C 
ATOM     35  C   UNL A   1      32.450  29.530  24.975  1.00  0.00     0.002 C 
ENDBRANCH  13  24
ENDBRANCH  10  13
ENDBRANCH   8   9
ENDBRANCH   6   8
ENDBRANCH   3   4
ENDBRANCH   2   3
ENDBRANCH   1   2
BRANCH   1  36
ATOM     36  C   UNL A   1      39.213  29.236  28.801  1.00  0.00     0.002 C 
BRANCH  36  37
ATOM     37  C   UNL A   1      37.843  29.907  28.750  1.00  0.00     0.021 C 
BRANCH  37  38
ATOM     38  C   UNL A   1      36.784  29.292  29.661  1.00  0.00     0.116 C 
BRANCH  38  39
ATOM     39  N   UNL A   1      36.351  30.193  30.720  1.00  0.00    -0.352 N 
ATOM     40  C   UNL A   1      36.922  30.421  31.953  1.00  0.00     0.251 C 
ATOM     41  H   UNL A   1      35.536  30.710  30.529  1.00  0.00     0.163 HD
ATOM     42  O   UNL A   1      36.344  31.122  32.779  1.00  0.00    -0.269 OA
BRANCH  40  43
ATOM     43  C   UNL A   1      38.216  29.785  32.289  1.00  0.00     0.039 A 
ATOM     44  C   UNL A   1      39.363  30.560  32.469  1.00  0.00     0.014 A 
ATOM     45  C   UNL A   1      38.288  28.393  32.389  1.00  0.00     0.014 A 
ATOM     46  C   UNL A   1      40.604  29.940  32.571  1.00  0.00     0.010 A 
ATOM     47  C   UNL A   1      39.529  27.772  32.574  1.00  0.00     0.010 A 
ATOM     48  C   UNL A   1      40.704  28.538  32.613  1.00  0.00    -0.014 A 
BRANCH  48  49
ATOM     49  C   UNL A   1      42.050  27.911  32.706  1.00  0.00     0.031 A 
ATOM     50  C   UNL A   1      42.855  27.610  31.470  1.00  0.00     0.074 A 
ATOM     51  C   UNL A   1      42.577  27.683  33.924  1.00  0.00     0.049 A 
ATOM     52  N   UNL A   1      44.083  27.168  31.380  1.00  0.00    -0.248 NA
ATOM     53  C   UNL A   1      42.201  27.830  30.171  1.00  0.00     0.031 C 
ATOM     54  C   UNL A   1      41.886  27.931  35.189  1.00  0.00     0.029 A 
ATOM     55  N   UNL A   1      43.817  27.235  34.304  1.00  0.00    -0.354 N 
ATOM     56  C   UNL A   1      44.348  27.047  30.020  1.00  0.00     0.074 A 
ATOM     57  C   UNL A   1      43.139  27.429  29.322  1.00  0.00     0.031 C 
ATOM     58  C   UNL A   1      42.732  27.701  36.202  1.00  0.00     0.029 A 
ATOM     59  C   UNL A   1      44.007  27.234  35.666  1.00  0.00     0.049 A 
ATOM     60  H   UNL A   1      44.505  26.943  33.662  1.00  0.00     0.167 HD
ATOM     61  C   UNL A   1      45.498  26.669  29.411  1.00  0.00     0.034 A 
ATOM     62  C   UNL A   1      45.087  26.904  36.404  1.00  0.00     0.034 A 
ATOM     63  C   UNL A   1      46.703  26.310  30.114  1.00  0.00     0.049 A 
ATOM     64  C   UNL A   1      46.347  26.473  35.703  1.00  0.00     0.074 A 
ATOM     65  C   UNL A   1      47.928  25.948  29.580  1.00  0.00     0.029 A 
ATOM     66  N   UNL A   1      46.842  26.270  31.493  1.00  0.00    -0.354 N 
ATOM     67  N   UNL A   1      46.595  26.417  34.416  1.00  0.00    -0.248 NA
ATOM     68  C   UNL A   1      47.473  26.056  36.549  1.00  0.00     0.031 C 
ATOM     69  C   UNL A   1      48.793  25.647  30.636  1.00  0.00     0.029 A 
ATOM     70  C   UNL A   1      48.123  25.866  31.829  1.00  0.00     0.049 A 
ATOM     71  H   UNL A   1      46.133  26.494  32.139  1.00  0.00     0.167 HD
ATOM     72  C   UNL A   1      47.904  25.962  34.297  1.00  0.00     0.074 A 
ATOM     73  C   UNL A   1      48.408  25.793  35.645  1.00  0.00     0.031 C 
ATOM     74  C   UNL A   1      48.617  25.697  33.174  1.00  0.00     0.034 A 
BRANCH  61  75
ATOM     75  C   UNL A   1      45.533  26.636  27.904  1.00  0.00     0.023 A 
ATOM     76  C   UNL A   1      45.528  25.405  27.222  1.00  0.00     0.031 A 
ATOM     77  C   UNL A   1      45.689  27.814  27.153  1.00  0.00     0.131 A 
ATOM     78  C   UNL A   1      45.698  25.381  25.832  1.00  0.00     0.055 A 
ATOM     79  C   UNL A   1      45.830  27.787  25.766  1.00  0.00     0.041 A 
ATOM     80  F   UNL A   1      45.698  29.012  27.761  1.00  0.00    -0.206 F 
ATOM     81  C   UNL A   1      45.843  26.565  25.100  1.00  0.00     0.022 A 
BRANCH  78  82
ATOM     82  S   UNL A   1      45.780  23.814  24.921  1.00  0.00     0.124 S 
ATOM     83  O   UNL A   1      46.191  22.882  25.967  1.00  0.00    -0.237 OA
ATOM     84  O   UNL A   1      44.405  23.660  24.454  1.00  0.00    -0.237 OA
ATOM     85  O   UNL A   1      46.774  24.063  23.883  1.00  0.00    -0.744 OA
ENDBRANCH  78  82
ENDBRANCH  61  75
BRANCH  62  86
ATOM     86  C   UNL A   1      45.017  27.037  37.888  1.00  0.00     0.023 A 
ATOM     87  C   UNL A   1      45.474  28.200  38.534  1.00  0.00     0.031 A 
ATOM     88  C   UNL A   1      44.603  25.957  38.684  1.00  0.00     0.131 A 
ATOM     89  C   UNL A   1      45.578  28.227  39.929  1.00  0.00     0.055 A 
ATOM     90  C   UNL A   1      44.644  26.013  40.079  1.00  0.00     0.041 A 
ATOM     91  F   UNL A   1      44.169  24.823  38.113  1.00  0.00    -0.206 F 
ATOM     92  C   UNL A   1      45.153  27.145  40.707  1.00  0.00     0.022 A 
BRANCH  89  93
ATOM     93  S   UNL A   1      46.406  29.605  40.772  1.00  0.00     0.124 S 
ATOM     94  O   UNL A   1      46.131  29.311  42.175  1.00  0.00    -0.237 OA
ATOM     95  O   UNL A   1      47.794  29.426  40.349  1.00  0.00    -0.237 OA
ATOM     96  O   UNL A   1      45.743  30.786  40.231  1.00  0.00    -0.744 OA
ENDBRANCH  89  93
ENDBRANCH  62  86
BRANCH  74  97
ATOM     97  C   UNL A   1      50.020  25.168  33.330  1.00  0.00     0.023 A 
ATOM     98  C   UNL A   1      50.274  23.787  33.238  1.00  0.00     0.031 A 
ATOM     99  C   UNL A   1      51.077  26.018  33.699  1.00  0.00     0.131 A 
ATOM    100  C   UNL A   1      51.551  23.294  33.539  1.00  0.00     0.055 A 
ATOM    101  C   UNL A   1      52.356  25.526  33.964  1.00  0.00     0.041 A 
ATOM    102  F   UNL A   1      50.879  27.342  33.807  1.00  0.00    -0.206 F 
ATOM    103  C   UNL A   1      52.593  24.157  33.896  1.00  0.00     0.022 A 
BRANCH 100 104
ATOM    104  S   UNL A   1      51.889  21.511  33.554  1.00  0.00     0.124 S 
ATOM    105  O   UNL A   1      52.064  21.226  32.132  1.00  0.00    -0.237 OA
ATOM    106  O   UNL A   1      53.104  21.433  34.361  1.00  0.00    -0.237 OA
ATOM    107  O   UNL A   1      50.696  20.931  34.162  1.00  0.00    -0.744 OA
ENDBRANCH 100 104
ENDBRANCH  74  97
ENDBRANCH  48  49
ENDBRANCH  40  43
ENDBRANCH  38  39
ENDBRANCH  37  38
ENDBRANCH  36  37
ENDBRANCH   1  36
TORSDOF 21
ENDMDL
MODEL 3
REMARK VINA RESULT:     -11.8      0.721      7.275
REMARK SMILES O=C(CNC(=O)[C@@H](CC1=c2ccccc2=NC1)N1C(=O)N=C2C=CC=C[C@H]2C1=O)NCCCCCCNC(=O)c1ccc(-c2c3nc(c(-c4cc(S(=O)(=O)[O-])ccc4F)c4ccc([nH]4)c(-c4cc(S(=O)(=O)[O-])ccc4F)c4nc(c(-c5cc(S(=O)(=O)[O-])ccc5F)c5ccc2[nH]5)C=C4)C=C3)cc1
REMARK SMILES IDX 33 1 32 2 31 3 30 4 1 5 2 6 3 8 4 9 5 10 6 12 7 13 8 14 9 15
REMARK SMILES IDX 10 16 17 17 11 18 15 19 16 20 12 21 14 22 13 23 18 24 19 25
REMARK SMILES IDX 28 26 21 27 20 28 27 29 29 30 22 31 26 32 23 33 25 34 24 35
REMARK SMILES IDX 34 36 35 37 36 38 37 39 38 40 39 42 40 43 41 44 102 45 42 46
REMARK SMILES IDX 101 47 43 48 44 49 45 50 95 51 46 52 100 53 94 54 96 55
REMARK SMILES IDX 47 56 99 57 93 58 92 59 48 61 80 62 60 63 79 64 61 65 64 66
REMARK SMILES IDX 78 67 97 68 62 69 63 70 77 72 98 73 65 74 49 75 50 76 58 77
REMARK SMILES IDX 51 78 57 79 59 80 56 81 52 82 53 83 54 84 55 85 81 86 82 87
REMARK SMILES IDX 90 88 83 89 89 90 91 91 88 92 84 93 85 94 86 95 87 96 66 97
REMARK SMILES IDX 67 98 75 99 68 100 74 101 76 102 73 103 69 104 70 105 71 106
REMARK SMILES IDX 72 107
REMARK H PARENT 30 7 4 11 37 41 96 60 64 71
REMARK Flexibility Score: inf
ROOT
ATOM      1  C   UNL A   1      35.786  34.044  28.636  1.00  0.00     0.002 C 
ENDROOT
BRANCH   1   2
ATOM      2  C   UNL A   1      35.695  32.599  28.119  1.00  0.00     0.021 C 
BRANCH   2   3
ATOM      3  C   UNL A   1      34.927  31.626  29.018  1.00  0.00     0.116 C 
BRANCH   3   4
ATOM      4  N   UNL A   1      34.433  30.481  28.278  1.00  0.00    -0.355 N 
ATOM      5  O   UNL A   1      36.459  29.569  27.661  1.00  0.00    -0.273 OA
ATOM      6  C   UNL A   1      35.232  29.558  27.632  1.00  0.00     0.239 C 
ATOM      7  H   UNL A   1      33.458  30.353  28.230  1.00  0.00     0.163 HD
BRANCH   6   8
ATOM      8  C   UNL A   1      34.459  28.484  26.831  1.00  0.00     0.216 C 
BRANCH   8   9
ATOM      9  N   UNL A   1      34.124  28.945  25.488  1.00  0.00    -0.345 N 
ATOM     10  C   UNL A   1      33.729  28.240  24.390  1.00  0.00     0.244 C 
ATOM     11  H   UNL A   1      34.194  29.918  25.353  1.00  0.00     0.164 HD
ATOM     12  O   UNL A   1      34.176  28.620  23.302  1.00  0.00    -0.273 OA
BRANCH  10  13
ATOM     13  C   UNL A   1      32.835  26.970  24.477  1.00  0.00     0.188 C 
BRANCH  13  14
ATOM     14  C   UNL A   1      31.958  26.859  23.187  1.00  0.00     0.069 C 
BRANCH  14  15
ATOM     15  C   UNL A   1      30.500  27.188  23.268  1.00  0.00    -0.037 C 
ATOM     16  C   UNL A   1      29.819  28.238  22.811  1.00  0.00     0.001 A 
ATOM     17  C   UNL A   1      29.546  26.163  23.806  1.00  0.00     0.174 C 
ATOM     18  C   UNL A   1      30.126  29.420  22.075  1.00  0.00     0.010 A 
ATOM     19  C   UNL A   1      28.436  27.940  23.231  1.00  0.00     0.065 A 
ATOM     20  N   UNL A   1      28.217  26.800  23.804  1.00  0.00    -0.280 NA
ATOM     21  C   UNL A   1      29.144  30.303  21.828  1.00  0.00     0.001 A 
ATOM     22  C   UNL A   1      27.424  28.985  22.980  1.00  0.00     0.028 A 
ATOM     23  C   UNL A   1      27.792  30.095  22.321  1.00  0.00     0.002 A 
ENDBRANCH  14  15
ENDBRANCH  13  14
BRANCH  13  24
ATOM     24  N   UNL A   1      33.551  25.774  24.987  1.00  0.00    -0.249 N 
ATOM     25  C   UNL A   1      32.882  25.083  26.004  1.00  0.00     0.351 C 
ATOM     26  C   UNL A   1      34.286  24.984  24.127  1.00  0.00     0.244 C 
ATOM     27  N   UNL A   1      33.440  23.969  26.565  1.00  0.00    -0.197 NA
ATOM     28  O   UNL A   1      31.752  25.413  26.361  1.00  0.00    -0.246 OA
ATOM     29  C   UNL A   1      35.150  23.935  24.804  1.00  0.00     0.151 C 
ATOM     30  O   UNL A   1      34.264  25.096  22.902  1.00  0.00    -0.273 OA
ATOM     31  C   UNL A   1      34.433  23.370  26.002  1.00  0.00     0.062 C 
ATOM     32  C   UNL A   1      35.565  22.811  23.882  1.00  0.00    -0.007 C 
ATOM     33  C   UNL A   1      34.876  22.063  26.547  1.00  0.00     0.025 C 
ATOM     34  C   UNL A   1      35.702  21.549  24.315  1.00  0.00    -0.003 C 
ATOM     35  C   UNL A   1      35.476  21.215  25.701  1.00  0.00     0.002 C 
ENDBRANCH  13  24
ENDBRANCH  10  13
ENDBRANCH   8   9
ENDBRANCH   6   8
ENDBRANCH   3   4
ENDBRANCH   2   3
ENDBRANCH   1   2
BRANCH   1  36
ATOM     36  C   UNL A   1      34.740  35.018  28.093  1.00  0.00     0.002 C 
BRANCH  36  37
ATOM     37  C   UNL A   1      33.433  35.077  28.879  1.00  0.00     0.021 C 
BRANCH  37  38
ATOM     38  C   UNL A   1      33.271  36.298  29.781  1.00  0.00     0.116 C 
BRANCH  38  39
ATOM     39  N   UNL A   1      32.430  36.042  30.941  1.00  0.00    -0.352 N 
ATOM     40  C   UNL A   1      32.685  35.256  32.043  1.00  0.00     0.251 C 
ATOM     41  H   UNL A   1      31.555  36.494  30.938  1.00  0.00     0.163 HD
ATOM     42  O   UNL A   1      31.802  35.048  32.870  1.00  0.00    -0.269 OA
BRANCH  40  43
ATOM     43  C   UNL A   1      34.018  34.632  32.203  1.00  0.00     0.039 A 
ATOM     44  C   UNL A   1      34.143  33.249  32.342  1.00  0.00     0.014 A 
ATOM     45  C   UNL A   1      35.154  35.446  32.249  1.00  0.00     0.014 A 
ATOM     46  C   UNL A   1      35.369  32.701  32.703  1.00  0.00     0.010 A 
ATOM     47  C   UNL A   1      36.404  34.881  32.531  1.00  0.00     0.010 A 
ATOM     48  C   UNL A   1      36.512  33.512  32.814  1.00  0.00    -0.014 A 
BRANCH  48  49
ATOM     49  C   UNL A   1      37.803  32.891  33.218  1.00  0.00     0.031 A 
ATOM     50  C   UNL A   1      38.439  33.212  34.544  1.00  0.00     0.074 A 
ATOM     51  C   UNL A   1      38.363  31.971  32.408  1.00  0.00     0.049 A 
ATOM     52  N   UNL A   1      39.500  32.680  35.093  1.00  0.00    -0.248 NA
ATOM     53  C   UNL A   1      37.809  34.264  35.356  1.00  0.00     0.031 C 
ATOM     54  C   UNL A   1      37.837  31.586  31.099  1.00  0.00     0.029 A 
ATOM     55  N   UNL A   1      39.463  31.169  32.575  1.00  0.00    -0.354 N 
ATOM     56  C   UNL A   1      39.673  33.335  36.308  1.00  0.00     0.074 A 
ATOM     57  C   UNL A   1      38.626  34.330  36.400  1.00  0.00     0.031 C 
ATOM     58  C   UNL A   1      38.569  30.575  30.614  1.00  0.00     0.029 A 
ATOM     59  C   UNL A   1      39.652  30.276  31.547  1.00  0.00     0.049 A 
ATOM     60  H   UNL A   1      40.059  31.227  33.357  1.00  0.00     0.167 HD
ATOM     61  C   UNL A   1      40.606  33.115  37.265  1.00  0.00     0.034 A 
ATOM     62  C   UNL A   1      40.585  29.317  31.374  1.00  0.00     0.034 A 
ATOM     63  C   UNL A   1      41.633  32.108  37.174  1.00  0.00     0.049 A 
ATOM     64  C   UNL A   1      41.620  29.103  32.445  1.00  0.00     0.074 A 
ATOM     65  C   UNL A   1      42.601  31.788  38.111  1.00  0.00     0.029 A 
ATOM     66  N   UNL A   1      41.826  31.258  36.095  1.00  0.00    -0.354 N 
ATOM     67  N   UNL A   1      41.733  29.696  33.611  1.00  0.00    -0.248 NA
ATOM     68  C   UNL A   1      42.657  28.096  32.181  1.00  0.00     0.031 C 
ATOM     69  C   UNL A   1      43.405  30.775  37.580  1.00  0.00     0.029 A 
ATOM     70  C   UNL A   1      42.911  30.431  36.331  1.00  0.00     0.049 A 
ATOM     71  H   UNL A   1      41.273  31.245  35.281  1.00  0.00     0.167 HD
ATOM     72  C   UNL A   1      42.850  29.132  34.220  1.00  0.00     0.074 A 
ATOM     73  C   UNL A   1      43.356  28.126  33.309  1.00  0.00     0.031 C 
ATOM     74  C   UNL A   1      43.410  29.432  35.418  1.00  0.00     0.034 A 
BRANCH  61  75
ATOM     75  C   UNL A   1      40.566  33.959  38.514  1.00  0.00     0.023 A 
ATOM     76  C   UNL A   1      39.709  33.613  39.575  1.00  0.00     0.031 A 
ATOM     77  C   UNL A   1      41.286  35.163  38.602  1.00  0.00     0.131 A 
ATOM     78  C   UNL A   1      39.580  34.476  40.671  1.00  0.00     0.055 A 
ATOM     79  C   UNL A   1      41.175  36.004  39.709  1.00  0.00     0.041 A 
ATOM     80  F   UNL A   1      42.117  35.533  37.614  1.00  0.00    -0.206 F 
ATOM     81  C   UNL A   1      40.311  35.666  40.746  1.00  0.00     0.022 A 
BRANCH  78  82
ATOM     82  S   UNL A   1      38.426  34.111  42.024  1.00  0.00     0.124 S 
ATOM     83  O   UNL A   1      37.234  34.844  41.605  1.00  0.00    -0.237 OA
ATOM     84  O   UNL A   1      38.321  32.657  41.952  1.00  0.00    -0.237 OA
ATOM     85  O   UNL A   1      39.096  34.638  43.208  1.00  0.00    -0.744 OA
ENDBRANCH  78  82
ENDBRANCH  61  75
BRANCH  62  86
ATOM     86  C   UNL A   1      40.522  28.458  30.157  1.00  0.00     0.023 A 
ATOM     87  C   UNL A   1      41.360  28.700  29.053  1.00  0.00     0.031 A 
ATOM     88  C   UNL A   1      39.540  27.461  30.035  1.00  0.00     0.131 A 
ATOM     89  C   UNL A   1      41.151  28.008  27.854  1.00  0.00     0.055 A 
ATOM     90  C   UNL A   1      39.379  26.725  28.860  1.00  0.00     0.041 A 
ATOM     91  F   UNL A   1      38.710  27.201  31.058  1.00  0.00    -0.206 F 
ATOM     92  C   UNL A   1      40.174  27.013  27.755  1.00  0.00     0.022 A 
BRANCH  89  93
ATOM     93  S   UNL A   1      42.037  28.482  26.343  1.00  0.00     0.124 S 
ATOM     94  O   UNL A   1      40.963  29.031  25.522  1.00  0.00    -0.237 OA
ATOM     95  O   UNL A   1      43.004  29.453  26.852  1.00  0.00    -0.237 OA
ATOM     96  O   UNL A   1      42.613  27.225  25.875  1.00  0.00    -0.744 OA
ENDBRANCH  89  93
ENDBRANCH  62  86
BRANCH  74  97
ATOM     97  C   UNL A   1      44.658  28.690  35.826  1.00  0.00     0.023 A 
ATOM     98  C   UNL A   1      44.567  27.498  36.569  1.00  0.00     0.031 A 
ATOM     99  C   UNL A   1      45.932  29.234  35.589  1.00  0.00     0.131 A 
ATOM    100  C   UNL A   1      45.731  26.904  37.074  1.00  0.00     0.055 A 
ATOM    101  C   UNL A   1      47.092  28.619  36.065  1.00  0.00     0.041 A 
ATOM    102  F   UNL A   1      46.067  30.373  34.891  1.00  0.00    -0.206 F 
ATOM    103  C   UNL A   1      46.992  27.456  36.821  1.00  0.00     0.022 A 
BRANCH 100 104
ATOM    104  S   UNL A   1      45.649  25.438  38.140  1.00  0.00     0.124 S 
ATOM    105  O   UNL A   1      44.462  24.759  37.627  1.00  0.00    -0.237 OA
ATOM    106  O   UNL A   1      46.920  24.776  37.854  1.00  0.00    -0.237 OA
ATOM    107  O   UNL A   1      45.520  25.988  39.486  1.00  0.00    -0.744 OA
ENDBRANCH 100 104
ENDBRANCH  74  97
ENDBRANCH  48  49
ENDBRANCH  40  43
ENDBRANCH  38  39
ENDBRANCH  37  38
ENDBRANCH  36  37
ENDBRANCH   1  36
TORSDOF 21
ENDMDL
