MODEL 1
REMARK VINA RESULT:     -10.9      0.000      0.000
REMARK SMILES COCC[C@]1(C(=O)NCCCCCCNC(=O)c2ccc(-c3c4nc(c(-c5cc(S(=O)(=O)[O-])ccc5F)c5ccc([nH]5)c(-c5cc(S(=O)(=O)[O-])ccc5F)c5nc(c(-c6cc(S(=O)(=O)[O-])ccc6F)c6ccc3[nH]6)C=C5)C=C4)cc2)CCC[N@@H+](Cc2cccc3c2OC(C)(C)C3)C1
REMARK SMILES IDX 11 1 10 2 9 3 8 4 6 5 7 6 5 8 81 9 97 10 82 11 84 12 83 13
REMARK SMILES IDX 4 15 3 16 2 17 1 18 85 19 86 20 87 21 91 22 88 23 90 24
REMARK SMILES IDX 92 25 89 26 96 27 93 28 94 29 95 30 12 31 13 32 14 33 15 34
REMARK SMILES IDX 16 35 17 37 18 38 19 39 80 40 20 41 79 42 21 43 22 44 23 45
REMARK SMILES IDX 73 46 24 47 78 48 72 49 74 50 25 51 77 52 71 53 70 54 26 56
REMARK SMILES IDX 58 57 38 58 57 59 39 60 42 61 56 62 75 63 40 64 41 65 55 67
REMARK SMILES IDX 76 68 43 69 27 70 28 71 36 72 29 73 35 74 37 75 34 76 30 77
REMARK SMILES IDX 31 78 32 79 33 80 59 81 60 82 68 83 61 84 67 85 69 86 66 87
REMARK SMILES IDX 62 88 63 89 64 90 65 91 44 92 45 93 53 94 46 95 52 96 54 97
REMARK SMILES IDX 51 98 47 99 48 100 49 101 50 102
REMARK H PARENT 8 7 84 14 15 36 74 55 42 66
REMARK Flexibility Score: inf
ROOT
ATOM      1  C   UNL A   1      33.709  29.896  26.656  1.00  0.00     0.002 C 
ENDROOT
BRANCH   1   2
ATOM      2  C   UNL A   1      32.999  28.669  27.261  1.00  0.00     0.021 C 
BRANCH   2   3
ATOM      3  C   UNL A   1      31.522  28.469  26.863  1.00  0.00     0.116 C 
BRANCH   3   4
ATOM      4  N   UNL A   1      31.125  28.332  25.415  1.00  0.00    -0.355 N 
ATOM      5  C   UNL A   1      30.914  27.245  24.523  1.00  0.00     0.232 C 
ATOM      6  O   UNL A   1      29.950  27.308  23.758  1.00  0.00    -0.274 OA
ATOM      7  H   UNL A   1      30.977  29.205  24.984  1.00  0.00     0.163 HD
BRANCH   5   8
ATOM      8  C   UNL A   1      32.060  26.214  24.321  1.00  0.00     0.100 C 
ATOM      9  C   UNL A   1      32.133  26.285  22.775  1.00  0.00     0.029 C 
ATOM     10  C   UNL A   1      33.663  26.101  24.519  1.00  0.00     0.279 C 
ATOM     11  C   UNL A   1      32.487  25.014  22.080  1.00  0.00     0.063 C 
ATOM     12  N   UNL A   1      34.058  24.740  23.959  1.00  0.00    -0.330 N 
ATOM     13  C   UNL A   1      33.882  24.633  22.506  1.00  0.00     0.262 C 
ATOM     14  H   UNL A   1      33.354  24.175  24.434  1.00  0.00     0.348 HD
BRANCH   8  15
ATOM     15  C   UNL A   1      31.718  25.238  25.541  1.00  0.00     0.051 C 
BRANCH  15  16
ATOM     16  C   UNL A   1      30.349  24.863  26.130  1.00  0.00     0.161 C 
BRANCH  16  17
ATOM     17  O   UNL A   1      30.522  23.994  27.251  1.00  0.00    -0.385 OA
ATOM     18  C   UNL A   1      29.536  22.979  27.244  1.00  0.00     0.194 C 
ENDBRANCH  16  17
ENDBRANCH  15  16
ENDBRANCH   8  15
BRANCH  12  19
ATOM     19  C   UNL A   1      35.290  24.055  24.433  1.00  0.00     0.303 C 
BRANCH  19  20
ATOM     20  C   UNL A   1      35.044  22.848  25.327  1.00  0.00     0.049 A 
ATOM     21  C   UNL A   1      35.356  22.888  26.686  1.00  0.00     0.013 A 
ATOM     22  C   UNL A   1      34.021  22.010  24.979  1.00  0.00     0.132 A 
ATOM     23  C   UNL A   1      34.403  22.433  27.610  1.00  0.00     0.001 A 
ATOM     24  C   UNL A   1      32.945  21.868  25.811  1.00  0.00    -0.001 A 
ATOM     25  O   UNL A   1      33.915  21.308  23.822  1.00  0.00    -0.487 OA
ATOM     26  C   UNL A   1      33.127  22.049  27.166  1.00  0.00     0.008 A 
ATOM     27  C   UNL A   1      31.779  21.600  24.928  1.00  0.00     0.087 C 
ATOM     28  C   UNL A   1      32.530  20.863  23.792  1.00  0.00     0.108 C 
ATOM     29  C   UNL A   1      32.332  19.357  24.036  1.00  0.00     0.057 C 
ATOM     30  C   UNL A   1      32.164  21.214  22.352  1.00  0.00     0.057 C 
ENDBRANCH  19  20
ENDBRANCH  12  19
ENDBRANCH   5   8
ENDBRANCH   3   4
ENDBRANCH   2   3
ENDBRANCH   1   2
BRANCH   1  31
ATOM     31  C   UNL A   1      33.891  31.109  27.576  1.00  0.00     0.002 C 
BRANCH  31  32
ATOM     32  C   UNL A   1      32.734  32.109  27.620  1.00  0.00     0.021 C 
BRANCH  32  33
ATOM     33  C   UNL A   1      33.090  33.549  27.254  1.00  0.00     0.116 C 
BRANCH  33  34
ATOM     34  N   UNL A   1      32.773  34.491  28.319  1.00  0.00    -0.352 N 
ATOM     35  C   UNL A   1      33.304  34.596  29.579  1.00  0.00     0.251 C 
ATOM     36  H   UNL A   1      32.074  35.149  28.102  1.00  0.00     0.163 HD
ATOM     37  O   UNL A   1      32.758  35.327  30.416  1.00  0.00    -0.269 OA
BRANCH  35  38
ATOM     38  C   UNL A   1      34.503  33.820  29.946  1.00  0.00     0.039 A 
ATOM     39  C   UNL A   1      35.746  34.201  29.435  1.00  0.00     0.014 A 
ATOM     40  C   UNL A   1      34.403  32.729  30.815  1.00  0.00     0.014 A 
ATOM     41  C   UNL A   1      36.901  33.547  29.869  1.00  0.00     0.010 A 
ATOM     42  C   UNL A   1      35.561  32.123  31.297  1.00  0.00     0.010 A 
ATOM     43  C   UNL A   1      36.823  32.540  30.845  1.00  0.00    -0.014 A 
BRANCH  43  44
ATOM     44  C   UNL A   1      38.048  31.949  31.447  1.00  0.00     0.031 A 
ATOM     45  C   UNL A   1      38.765  30.821  30.760  1.00  0.00     0.074 A 
ATOM     46  C   UNL A   1      38.465  32.384  32.654  1.00  0.00     0.049 A 
ATOM     47  N   UNL A   1      39.783  30.113  31.178  1.00  0.00    -0.248 NA
ATOM     48  C   UNL A   1      38.253  30.421  29.441  1.00  0.00     0.031 C 
ATOM     49  C   UNL A   1      37.832  33.456  33.427  1.00  0.00     0.029 A 
ATOM     50  N   UNL A   1      39.504  31.973  33.450  1.00  0.00    -0.354 N 
ATOM     51  C   UNL A   1      40.033  29.181  30.178  1.00  0.00     0.074 A 
ATOM     52  C   UNL A   1      39.023  29.380  29.159  1.00  0.00     0.031 C 
ATOM     53  C   UNL A   1      38.508  33.629  34.573  1.00  0.00     0.029 A 
ATOM     54  C   UNL A   1      39.581  32.644  34.650  1.00  0.00     0.049 A 
ATOM     55  H   UNL A   1      40.136  31.265  33.188  1.00  0.00     0.167 HD
ATOM     56  C   UNL A   1      41.025  28.259  30.110  1.00  0.00     0.034 A 
ATOM     57  C   UNL A   1      40.402  32.468  35.704  1.00  0.00     0.034 A 
ATOM     58  C   UNL A   1      42.021  28.076  31.138  1.00  0.00     0.049 A 
ATOM     59  C   UNL A   1      41.449  31.384  35.636  1.00  0.00     0.074 A 
ATOM     60  C   UNL A   1      43.105  27.214  31.143  1.00  0.00     0.029 A 
ATOM     61  N   UNL A   1      42.046  28.749  32.353  1.00  0.00    -0.354 N 
ATOM     62  N   UNL A   1      41.711  30.550  34.656  1.00  0.00    -0.248 NA
ATOM     63  C   UNL A   1      42.308  31.215  36.815  1.00  0.00     0.031 C 
ATOM     64  C   UNL A   1      43.731  27.303  32.390  1.00  0.00     0.029 A 
ATOM     65  C   UNL A   1      43.092  28.283  33.135  1.00  0.00     0.049 A 
ATOM     66  H   UNL A   1      41.413  29.455  32.619  1.00  0.00     0.167 HD
ATOM     67  C   UNL A   1      42.778  29.772  35.095  1.00  0.00     0.074 A 
ATOM     68  C   UNL A   1      43.124  30.250  36.417  1.00  0.00     0.031 C 
ATOM     69  C   UNL A   1      43.412  28.753  34.463  1.00  0.00     0.034 A 
BRANCH  56  70
ATOM     70  C   UNL A   1      41.059  27.356  28.899  1.00  0.00     0.023 A 
ATOM     71  C   UNL A   1      42.017  27.519  27.883  1.00  0.00     0.031 A 
ATOM     72  C   UNL A   1      40.118  26.322  28.755  1.00  0.00     0.131 A 
ATOM     73  C   UNL A   1      41.967  26.710  26.738  1.00  0.00     0.055 A 
ATOM     74  C   UNL A   1      40.125  25.466  27.651  1.00  0.00     0.041 A 
ATOM     75  F   UNL A   1      39.165  26.130  29.681  1.00  0.00    -0.206 F 
ATOM     76  C   UNL A   1      41.045  25.667  26.626  1.00  0.00     0.022 A 
BRANCH  73  77
ATOM     77  S   UNL A   1      43.032  27.135  25.332  1.00  0.00     0.124 S 
ATOM     78  O   UNL A   1      44.239  27.605  26.009  1.00  0.00    -0.237 OA
ATOM     79  O   UNL A   1      43.149  25.862  24.630  1.00  0.00    -0.237 OA
ATOM     80  O   UNL A   1      42.277  28.170  24.630  1.00  0.00    -0.744 OA
ENDBRANCH  73  77
ENDBRANCH  56  70
BRANCH  57  81
ATOM     81  C   UNL A   1      40.249  33.304  36.930  1.00  0.00     0.023 A 
ATOM     82  C   UNL A   1      39.461  32.870  38.009  1.00  0.00     0.031 A 
ATOM     83  C   UNL A   1      40.851  34.572  37.026  1.00  0.00     0.131 A 
ATOM     84  C   UNL A   1      39.259  33.713  39.112  1.00  0.00     0.055 A 
ATOM     85  C   UNL A   1      40.697  35.381  38.153  1.00  0.00     0.041 A 
ATOM     86  F   UNL A   1      41.614  35.039  36.024  1.00  0.00    -0.206 F 
ATOM     87  C   UNL A   1      39.886  34.958  39.199  1.00  0.00     0.022 A 
BRANCH  84  88
ATOM     88  S   UNL A   1      38.083  33.198  40.393  1.00  0.00     0.124 S 
ATOM     89  O   UNL A   1      36.892  32.911  39.603  1.00  0.00    -0.237 OA
ATOM     90  O   UNL A   1      38.760  32.045  40.978  1.00  0.00    -0.237 OA
ATOM     91  O   UNL A   1      37.991  34.371  41.260  1.00  0.00    -0.744 OA
ENDBRANCH  84  88
ENDBRANCH  57  81
BRANCH  69  92
ATOM     92  C   UNL A   1      44.560  28.099  35.192  1.00  0.00     0.023 A 
ATOM     93  C   UNL A   1      44.384  26.914  35.926  1.00  0.00     0.031 A 
ATOM     94  C   UNL A   1      45.848  28.662  35.142  1.00  0.00     0.131 A 
ATOM     95  C   UNL A   1      45.467  26.351  36.616  1.00  0.00     0.055 A 
ATOM     96  C   UNL A   1      46.936  28.064  35.780  1.00  0.00     0.041 A 
ATOM     97  F   UNL A   1      46.073  29.796  34.461  1.00  0.00    -0.206 F 
ATOM     98  C   UNL A   1      46.746  26.908  36.531  1.00  0.00     0.022 A 
BRANCH  95  99
ATOM     99  S   UNL A   1      45.169  24.922  37.691  1.00  0.00     0.124 S 
ATOM    100  O   UNL A   1      46.523  24.427  37.920  1.00  0.00    -0.237 OA
ATOM    101  O   UNL A   1      44.510  25.528  38.844  1.00  0.00    -0.237 OA
ATOM    102  O   UNL A   1      44.320  24.053  36.878  1.00  0.00    -0.744 OA
ENDBRANCH  95  99
ENDBRANCH  69  92
ENDBRANCH  43  44
ENDBRANCH  35  38
ENDBRANCH  33  34
ENDBRANCH  32  33
ENDBRANCH  31  32
ENDBRANCH   1  31
TORSDOF 21
ENDMDL
MODEL 2
REMARK VINA RESULT:     -10.4      2.359      3.317
REMARK SMILES COCC[C@]1(C(=O)NCCCCCCNC(=O)c2ccc(-c3c4nc(c(-c5cc(S(=O)(=O)[O-])ccc5F)c5ccc([nH]5)c(-c5cc(S(=O)(=O)[O-])ccc5F)c5nc(c(-c6cc(S(=O)(=O)[O-])ccc6F)c6ccc3[nH]6)C=C5)C=C4)cc2)CCC[N@@H+](Cc2cccc3c2OC(C)(C)C3)C1
REMARK SMILES IDX 11 1 10 2 9 3 8 4 6 5 7 6 5 8 81 9 97 10 82 11 84 12 83 13
REMARK SMILES IDX 4 15 3 16 2 17 1 18 85 19 86 20 87 21 91 22 88 23 90 24
REMARK SMILES IDX 92 25 89 26 96 27 93 28 94 29 95 30 12 31 13 32 14 33 15 34
REMARK SMILES IDX 16 35 17 37 18 38 19 39 80 40 20 41 79 42 21 43 22 44 23 45
REMARK SMILES IDX 73 46 24 47 78 48 72 49 74 50 25 51 77 52 71 53 70 54 26 56
REMARK SMILES IDX 58 57 38 58 57 59 39 60 42 61 56 62 75 63 40 64 41 65 55 67
REMARK SMILES IDX 76 68 43 69 27 70 28 71 36 72 29 73 35 74 37 75 34 76 30 77
REMARK SMILES IDX 31 78 32 79 33 80 59 81 60 82 68 83 61 84 67 85 69 86 66 87
REMARK SMILES IDX 62 88 63 89 64 90 65 91 44 92 45 93 53 94 46 95 52 96 54 97
REMARK SMILES IDX 51 98 47 99 48 100 49 101 50 102
REMARK H PARENT 8 7 84 14 15 36 74 55 42 66
REMARK Flexibility Score: inf
ROOT
ATOM      1  C   UNL A   1      30.363  30.267  24.213  1.00  0.00     0.002 C 
ENDROOT
BRANCH   1   2
ATOM      2  C   UNL A   1      31.330  29.173  23.722  1.00  0.00     0.021 C 
BRANCH   2   3
ATOM      3  C   UNL A   1      30.804  28.243  22.609  1.00  0.00     0.116 C 
BRANCH   3   4
ATOM      4  N   UNL A   1      29.731  27.225  22.899  1.00  0.00    -0.355 N 
ATOM      5  C   UNL A   1      29.299  26.512  24.051  1.00  0.00     0.232 C 
ATOM      6  O   UNL A   1      28.086  26.385  24.227  1.00  0.00    -0.274 OA
ATOM      7  H   UNL A   1      29.204  26.999  22.099  1.00  0.00     0.163 HD
BRANCH   5   8
ATOM      8  C   UNL A   1      30.339  25.661  24.834  1.00  0.00     0.100 C 
ATOM      9  C   UNL A   1      30.903  26.795  25.728  1.00  0.00     0.029 C 
ATOM     10  C   UNL A   1      30.384  24.543  26.004  1.00  0.00     0.279 C 
ATOM     11  C   UNL A   1      32.351  26.696  26.069  1.00  0.00     0.063 C 
ATOM     12  N   UNL A   1      31.860  24.291  26.285  1.00  0.00    -0.330 N 
ATOM     13  C   UNL A   1      32.545  25.443  26.883  1.00  0.00     0.262 C 
ATOM     14  H   UNL A   1      32.174  24.165  25.323  1.00  0.00     0.348 HD
BRANCH   8  15
ATOM     15  C   UNL A   1      30.731  24.636  23.671  1.00  0.00     0.051 C 
BRANCH  15  16
ATOM     16  C   UNL A   1      31.822  24.759  22.596  1.00  0.00     0.161 C 
BRANCH  16  17
ATOM     17  O   UNL A   1      32.945  25.470  23.121  1.00  0.00    -0.385 OA
ATOM     18  C   UNL A   1      33.505  26.309  22.129  1.00  0.00     0.194 C 
ENDBRANCH  16  17
ENDBRANCH  15  16
ENDBRANCH   8  15
BRANCH  12  19
ATOM     19  C   UNL A   1      32.311  22.998  26.865  1.00  0.00     0.303 C 
BRANCH  19  20
ATOM     20  C   UNL A   1      32.803  21.979  25.849  1.00  0.00     0.049 A 
ATOM     21  C   UNL A   1      31.909  21.321  25.004  1.00  0.00     0.013 A 
ATOM     22  C   UNL A   1      34.067  22.148  25.356  1.00  0.00     0.132 A 
ATOM     23  C   UNL A   1      32.203  21.252  23.633  1.00  0.00     0.001 A 
ATOM     24  C   UNL A   1      34.251  22.407  24.026  1.00  0.00    -0.001 A 
ATOM     25  O   UNL A   1      35.218  22.143  26.077  1.00  0.00    -0.487 OA
ATOM     26  C   UNL A   1      33.325  21.930  23.124  1.00  0.00     0.008 A 
ATOM     27  C   UNL A   1      35.468  23.258  23.940  1.00  0.00     0.087 C 
ATOM     28  C   UNL A   1      36.216  22.694  25.173  1.00  0.00     0.108 C 
ATOM     29  C   UNL A   1      37.237  21.672  24.642  1.00  0.00     0.057 C 
ATOM     30  C   UNL A   1      36.906  23.688  26.104  1.00  0.00     0.057 C 
ENDBRANCH  19  20
ENDBRANCH  12  19
ENDBRANCH   5   8
ENDBRANCH   3   4
ENDBRANCH   2   3
ENDBRANCH   1   2
BRANCH   1  31
ATOM     31  C   UNL A   1      30.832  31.120  25.398  1.00  0.00     0.002 C 
BRANCH  31  32
ATOM     32  C   UNL A   1      31.476  30.366  26.564  1.00  0.00     0.021 C 
BRANCH  32  33
ATOM     33  C   UNL A   1      32.878  30.829  26.956  1.00  0.00     0.116 C 
BRANCH  33  34
ATOM     34  N   UNL A   1      32.938  32.257  27.237  1.00  0.00    -0.352 N 
ATOM     35  C   UNL A   1      33.871  32.969  27.946  1.00  0.00     0.251 C 
ATOM     36  H   UNL A   1      32.200  32.789  26.862  1.00  0.00     0.163 HD
ATOM     37  O   UNL A   1      33.640  34.146  28.255  1.00  0.00    -0.269 OA
BRANCH  35  38
ATOM     38  C   UNL A   1      35.133  32.331  28.364  1.00  0.00     0.039 A 
ATOM     39  C   UNL A   1      36.319  33.066  28.317  1.00  0.00     0.014 A 
ATOM     40  C   UNL A   1      35.141  31.010  28.824  1.00  0.00     0.014 A 
ATOM     41  C   UNL A   1      37.497  32.510  28.821  1.00  0.00     0.010 A 
ATOM     42  C   UNL A   1      36.301  30.483  29.388  1.00  0.00     0.010 A 
ATOM     43  C   UNL A   1      37.486  31.235  29.411  1.00  0.00    -0.014 A 
BRANCH  43  44
ATOM     44  C   UNL A   1      38.683  30.693  30.105  1.00  0.00     0.031 A 
ATOM     45  C   UNL A   1      39.518  29.622  29.460  1.00  0.00     0.074 A 
ATOM     46  C   UNL A   1      38.969  31.117  31.354  1.00  0.00     0.049 A 
ATOM     47  N   UNL A   1      40.532  28.958  29.951  1.00  0.00    -0.248 NA
ATOM     48  C   UNL A   1      39.145  29.233  28.092  1.00  0.00     0.031 C 
ATOM     49  C   UNL A   1      38.214  32.133  32.091  1.00  0.00     0.029 A 
ATOM     50  N   UNL A   1      39.955  30.739  32.230  1.00  0.00    -0.354 N 
ATOM     51  C   UNL A   1      40.919  28.068  28.956  1.00  0.00     0.074 A 
ATOM     52  C   UNL A   1      39.993  28.241  27.856  1.00  0.00     0.031 C 
ATOM     53  C   UNL A   1      38.777  32.310  33.297  1.00  0.00     0.029 A 
ATOM     54  C   UNL A   1      39.891  31.380  33.446  1.00  0.00     0.049 A 
ATOM     55  H   UNL A   1      40.645  30.072  32.009  1.00  0.00     0.167 HD
ATOM     56  C   UNL A   1      41.962  27.200  28.956  1.00  0.00     0.034 A 
ATOM     57  C   UNL A   1      40.624  31.220  34.565  1.00  0.00     0.034 A 
ATOM     58  C   UNL A   1      42.872  27.042  30.064  1.00  0.00     0.049 A 
ATOM     59  C   UNL A   1      41.730  30.194  34.566  1.00  0.00     0.074 A 
ATOM     60  C   UNL A   1      43.996  26.238  30.146  1.00  0.00     0.029 A 
ATOM     61  N   UNL A   1      42.754  27.682  31.291  1.00  0.00    -0.354 N 
ATOM     62  N   UNL A   1      42.122  29.401  33.595  1.00  0.00    -0.248 NA
ATOM     63  C   UNL A   1      42.492  30.038  35.812  1.00  0.00     0.031 C 
ATOM     64  C   UNL A   1      44.505  26.326  31.446  1.00  0.00     0.029 A 
ATOM     65  C   UNL A   1      43.752  27.250  32.152  1.00  0.00     0.049 A 
ATOM     66  H   UNL A   1      42.064  28.347  31.516  1.00  0.00     0.167 HD
ATOM     67  C   UNL A   1      43.187  28.668  34.109  1.00  0.00     0.074 A 
ATOM     68  C   UNL A   1      43.390  29.128  35.468  1.00  0.00     0.031 C 
ATOM     69  C   UNL A   1      43.929  27.700  33.513  1.00  0.00     0.034 A 
BRANCH  56  70
ATOM     70  C   UNL A   1      42.150  26.333  27.734  1.00  0.00     0.023 A 
ATOM     71  C   UNL A   1      41.689  25.006  27.690  1.00  0.00     0.031 A 
ATOM     72  C   UNL A   1      42.807  26.837  26.598  1.00  0.00     0.131 A 
ATOM     73  C   UNL A   1      41.952  24.209  26.567  1.00  0.00     0.055 A 
ATOM     74  C   UNL A   1      42.993  26.064  25.449  1.00  0.00     0.041 A 
ATOM     75  F   UNL A   1      43.291  28.090  26.586  1.00  0.00    -0.206 F 
ATOM     76  C   UNL A   1      42.577  24.736  25.435  1.00  0.00     0.022 A 
BRANCH  73  77
ATOM     77  S   UNL A   1      41.594  22.433  26.663  1.00  0.00     0.124 S 
ATOM     78  O   UNL A   1      42.122  21.958  25.385  1.00  0.00    -0.237 OA
ATOM     79  O   UNL A   1      42.336  22.026  27.851  1.00  0.00    -0.237 OA
ATOM     80  O   UNL A   1      40.140  22.382  26.785  1.00  0.00    -0.744 OA
ENDBRANCH  73  77
ENDBRANCH  56  70
BRANCH  57  81
ATOM     81  C   UNL A   1      40.320  32.013  35.791  1.00  0.00     0.023 A 
ATOM     82  C   UNL A   1      39.169  31.756  36.552  1.00  0.00     0.031 A 
ATOM     83  C   UNL A   1      41.152  33.073  36.197  1.00  0.00     0.131 A 
ATOM     84  C   UNL A   1      38.857  32.574  37.649  1.00  0.00     0.055 A 
ATOM     85  C   UNL A   1      40.870  33.845  37.325  1.00  0.00     0.041 A 
ATOM     86  F   UNL A   1      42.266  33.365  35.505  1.00  0.00    -0.206 F 
ATOM     87  C   UNL A   1      39.709  33.606  38.050  1.00  0.00     0.022 A 
BRANCH  84  88
ATOM     88  S   UNL A   1      37.266  32.333  38.487  1.00  0.00     0.124 S 
ATOM     89  O   UNL A   1      37.128  30.882  38.446  1.00  0.00    -0.237 OA
ATOM     90  O   UNL A   1      37.525  32.917  39.798  1.00  0.00    -0.237 OA
ATOM     91  O   UNL A   1      36.326  33.075  37.650  1.00  0.00    -0.744 OA
ENDBRANCH  84  88
ENDBRANCH  57  81
BRANCH  69  92
ATOM     92  C   UNL A   1      45.042  27.088  34.327  1.00  0.00     0.023 A 
ATOM     93  C   UNL A   1      46.338  27.635  34.327  1.00  0.00     0.031 A 
ATOM     94  C   UNL A   1      44.803  25.953  35.122  1.00  0.00     0.131 A 
ATOM     95  C   UNL A   1      47.355  27.021  35.072  1.00  0.00     0.055 A 
ATOM     96  C   UNL A   1      45.803  25.384  35.910  1.00  0.00     0.041 A 
ATOM     97  F   UNL A   1      43.586  25.387  35.156  1.00  0.00    -0.206 F 
ATOM     98  C   UNL A   1      47.091  25.911  35.880  1.00  0.00     0.022 A 
BRANCH  95  99
ATOM     99  S   UNL A   1      49.049  27.648  34.915  1.00  0.00     0.124 S 
ATOM    100  O   UNL A   1      48.873  29.070  35.192  1.00  0.00    -0.237 OA
ATOM    101  O   UNL A   1      49.762  26.885  35.936  1.00  0.00    -0.237 OA
ATOM    102  O   UNL A   1      49.409  27.324  33.536  1.00  0.00    -0.744 OA
ENDBRANCH  95  99
ENDBRANCH  69  92
ENDBRANCH  43  44
ENDBRANCH  35  38
ENDBRANCH  33  34
ENDBRANCH  32  33
ENDBRANCH  31  32
ENDBRANCH   1  31
TORSDOF 21
ENDMDL
MODEL 3
REMARK VINA RESULT:     -10.3      1.894      2.785
REMARK SMILES COCC[C@]1(C(=O)NCCCCCCNC(=O)c2ccc(-c3c4nc(c(-c5cc(S(=O)(=O)[O-])ccc5F)c5ccc([nH]5)c(-c5cc(S(=O)(=O)[O-])ccc5F)c5nc(c(-c6cc(S(=O)(=O)[O-])ccc6F)c6ccc3[nH]6)C=C5)C=C4)cc2)CCC[N@@H+](Cc2cccc3c2OC(C)(C)C3)C1
REMARK SMILES IDX 11 1 10 2 9 3 8 4 6 5 7 6 5 8 81 9 97 10 82 11 84 12 83 13
REMARK SMILES IDX 4 15 3 16 2 17 1 18 85 19 86 20 87 21 91 22 88 23 90 24
REMARK SMILES IDX 92 25 89 26 96 27 93 28 94 29 95 30 12 31 13 32 14 33 15 34
REMARK SMILES IDX 16 35 17 37 18 38 19 39 80 40 20 41 79 42 21 43 22 44 23 45
REMARK SMILES IDX 73 46 24 47 78 48 72 49 74 50 25 51 77 52 71 53 70 54 26 56
REMARK SMILES IDX 58 57 38 58 57 59 39 60 42 61 56 62 75 63 40 64 41 65 55 67
REMARK SMILES IDX 76 68 43 69 27 70 28 71 36 72 29 73 35 74 37 75 34 76 30 77
REMARK SMILES IDX 31 78 32 79 33 80 59 81 60 82 68 83 61 84 67 85 69 86 66 87
REMARK SMILES IDX 62 88 63 89 64 90 65 91 44 92 45 93 53 94 46 95 52 96 54 97
REMARK SMILES IDX 51 98 47 99 48 100 49 101 50 102
REMARK H PARENT 8 7 84 14 15 36 74 55 42 66
REMARK Flexibility Score: inf
ROOT
ATOM      1  C   UNL A   1      30.010  30.000  23.566  1.00  0.00     0.002 C 
ENDROOT
BRANCH   1   2
ATOM      2  C   UNL A   1      31.067  29.048  22.974  1.00  0.00     0.021 C 
BRANCH   2   3
ATOM      3  C   UNL A   1      30.535  27.753  22.326  1.00  0.00     0.116 C 
BRANCH   3   4
ATOM      4  N   UNL A   1      30.051  26.608  23.177  1.00  0.00    -0.355 N 
ATOM      5  C   UNL A   1      30.373  26.099  24.466  1.00  0.00     0.232 C 
ATOM      6  O   UNL A   1      29.444  25.737  25.189  1.00  0.00    -0.274 OA
ATOM      7  H   UNL A   1      29.342  26.087  22.735  1.00  0.00     0.163 HD
BRANCH   5   8
ATOM      8  C   UNL A   1      31.850  25.719  24.769  1.00  0.00     0.100 C 
ATOM      9  C   UNL A   1      32.323  27.108  25.266  1.00  0.00     0.029 C 
ATOM     10  C   UNL A   1      32.708  24.892  25.864  1.00  0.00     0.279 C 
ATOM     11  C   UNL A   1      33.736  27.465  24.953  1.00  0.00     0.063 C 
ATOM     12  N   UNL A   1      34.171  25.100  25.493  1.00  0.00    -0.330 N 
ATOM     13  C   UNL A   1      34.627  26.484  25.672  1.00  0.00     0.262 C 
ATOM     14  H   UNL A   1      34.103  24.886  24.499  1.00  0.00     0.348 HD
BRANCH   8  15
ATOM     15  C   UNL A   1      32.058  24.638  23.609  1.00  0.00     0.051 C 
BRANCH  15  16
ATOM     16  C   UNL A   1      33.064  24.642  22.447  1.00  0.00     0.161 C 
BRANCH  16  17
ATOM     17  O   UNL A   1      32.906  25.832  21.671  1.00  0.00    -0.385 OA
ATOM     18  C   UNL A   1      32.566  25.508  20.336  1.00  0.00     0.194 C 
ENDBRANCH  16  17
ENDBRANCH  15  16
ENDBRANCH   8  15
BRANCH  12  19
ATOM     19  C   UNL A   1      35.202  24.107  25.893  1.00  0.00     0.303 C 
BRANCH  19  20
ATOM     20  C   UNL A   1      35.540  23.074  24.828  1.00  0.00     0.049 A 
ATOM     21  C   UNL A   1      36.860  22.863  24.428  1.00  0.00     0.013 A 
ATOM     22  C   UNL A   1      34.709  21.994  24.719  1.00  0.00     0.132 A 
ATOM     23  C   UNL A   1      37.338  21.545  24.347  1.00  0.00     0.001 A 
ATOM     24  C   UNL A   1      35.186  20.739  24.980  1.00  0.00    -0.001 A 
ATOM     25  O   UNL A   1      33.385  22.025  24.420  1.00  0.00    -0.487 OA
ATOM     26  C   UNL A   1      36.522  20.480  24.766  1.00  0.00     0.008 A 
ATOM     27  C   UNL A   1      34.036  19.972  25.529  1.00  0.00     0.087 C 
ATOM     28  C   UNL A   1      32.903  20.695  24.759  1.00  0.00     0.108 C 
ATOM     29  C   UNL A   1      32.554  19.809  23.550  1.00  0.00     0.057 C 
ATOM     30  C   UNL A   1      31.635  21.055  25.529  1.00  0.00     0.057 C 
ENDBRANCH  19  20
ENDBRANCH  12  19
ENDBRANCH   5   8
ENDBRANCH   3   4
ENDBRANCH   2   3
ENDBRANCH   1   2
BRANCH   1  31
ATOM     31  C   UNL A   1      30.447  30.857  24.760  1.00  0.00     0.002 C 
BRANCH  31  32
ATOM     32  C   UNL A   1      31.198  30.132  25.879  1.00  0.00     0.021 C 
BRANCH  32  33
ATOM     33  C   UNL A   1      32.531  30.754  26.291  1.00  0.00     0.116 C 
BRANCH  33  34
ATOM     34  N   UNL A   1      32.388  32.126  26.757  1.00  0.00    -0.352 N 
ATOM     35  C   UNL A   1      33.169  32.837  27.632  1.00  0.00     0.251 C 
ATOM     36  H   UNL A   1      31.618  32.616  26.389  1.00  0.00     0.163 HD
ATOM     37  O   UNL A   1      32.767  33.924  28.068  1.00  0.00    -0.269 OA
BRANCH  35  38
ATOM     38  C   UNL A   1      34.467  32.297  28.077  1.00  0.00     0.039 A 
ATOM     39  C   UNL A   1      35.584  33.135  28.095  1.00  0.00     0.014 A 
ATOM     40  C   UNL A   1      34.577  30.967  28.496  1.00  0.00     0.014 A 
ATOM     41  C   UNL A   1      36.790  32.667  28.625  1.00  0.00     0.010 A 
ATOM     42  C   UNL A   1      35.759  30.525  29.085  1.00  0.00     0.010 A 
ATOM     43  C   UNL A   1      36.871  31.377  29.174  1.00  0.00    -0.014 A 
BRANCH  43  44
ATOM     44  C   UNL A   1      38.088  30.919  29.895  1.00  0.00     0.031 A 
ATOM     45  C   UNL A   1      39.019  29.923  29.260  1.00  0.00     0.074 A 
ATOM     46  C   UNL A   1      38.307  31.345  31.155  1.00  0.00     0.049 A 
ATOM     47  N   UNL A   1      40.068  29.332  29.771  1.00  0.00    -0.248 NA
ATOM     48  C   UNL A   1      38.714  29.525  27.878  1.00  0.00     0.031 C 
ATOM     49  C   UNL A   1      37.457  32.291  31.884  1.00  0.00     0.029 A 
ATOM     50  N   UNL A   1      39.296  31.032  32.054  1.00  0.00    -0.354 N 
ATOM     51  C   UNL A   1      40.548  28.487  28.777  1.00  0.00     0.074 A 
ATOM     52  C   UNL A   1      39.641  28.604  27.654  1.00  0.00     0.031 C 
ATOM     53  C   UNL A   1      37.973  32.494  33.106  1.00  0.00     0.029 A 
ATOM     54  C   UNL A   1      39.151  31.650  33.275  1.00  0.00     0.049 A 
ATOM     55  H   UNL A   1      40.041  30.423  31.844  1.00  0.00     0.167 HD
ATOM     56  C   UNL A   1      41.654  27.702  28.796  1.00  0.00     0.034 A 
ATOM     57  C   UNL A   1      39.865  31.531  34.412  1.00  0.00     0.034 A 
ATOM     58  C   UNL A   1      42.545  27.598  29.926  1.00  0.00     0.049 A 
ATOM     59  C   UNL A   1      41.046  30.593  34.431  1.00  0.00     0.074 A 
ATOM     60  C   UNL A   1      43.725  26.882  30.029  1.00  0.00     0.029 A 
ATOM     61  N   UNL A   1      42.346  28.211  31.157  1.00  0.00    -0.354 N 
ATOM     62  N   UNL A   1      41.523  29.846  33.462  1.00  0.00    -0.248 NA
ATOM     63  C   UNL A   1      41.783  30.479  35.696  1.00  0.00     0.031 C 
ATOM     64  C   UNL A   1      44.191  26.991  31.343  1.00  0.00     0.029 A 
ATOM     65  C   UNL A   1      43.351  27.845  32.039  1.00  0.00     0.049 A 
ATOM     66  H   UNL A   1      41.600  28.818  31.370  1.00  0.00     0.167 HD
ATOM     67  C   UNL A   1      42.627  29.189  33.996  1.00  0.00     0.074 A 
ATOM     68  C   UNL A   1      42.758  29.645  35.365  1.00  0.00     0.031 C 
ATOM     69  C   UNL A   1      43.456  28.289  33.410  1.00  0.00     0.034 A 
BRANCH  56  70
ATOM     70  C   UNL A   1      41.941  26.869  27.569  1.00  0.00     0.023 A 
ATOM     71  C   UNL A   1      41.563  25.517  27.488  1.00  0.00     0.031 A 
ATOM     72  C   UNL A   1      42.608  27.431  26.466  1.00  0.00     0.131 A 
ATOM     73  C   UNL A   1      41.917  24.756  26.364  1.00  0.00     0.055 A 
ATOM     74  C   UNL A   1      42.884  26.689  25.314  1.00  0.00     0.041 A 
ATOM     75  F   UNL A   1      43.014  28.710  26.491  1.00  0.00    -0.206 F 
ATOM     76  C   UNL A   1      42.551  25.339  25.264  1.00  0.00     0.022 A 
BRANCH  73  77
ATOM     77  S   UNL A   1      41.665  22.961  26.420  1.00  0.00     0.124 S 
ATOM     78  O   UNL A   1      42.526  22.509  25.330  1.00  0.00    -0.237 OA
ATOM     79  O   UNL A   1      42.109  22.622  27.767  1.00  0.00    -0.237 OA
ATOM     80  O   UNL A   1      40.232  22.807  26.177  1.00  0.00    -0.744 OA
ENDBRANCH  73  77
ENDBRANCH  56  70
BRANCH  57  81
ATOM     81  C   UNL A   1      39.468  32.282  35.638  1.00  0.00     0.023 A 
ATOM     82  C   UNL A   1      38.684  31.679  36.634  1.00  0.00     0.031 A 
ATOM     83  C   UNL A   1      39.828  33.631  35.813  1.00  0.00     0.131 A 
ATOM     84  C   UNL A   1      38.248  32.432  37.735  1.00  0.00     0.055 A 
ATOM     85  C   UNL A   1      39.443  34.359  36.940  1.00  0.00     0.041 A 
ATOM     86  F   UNL A   1      40.576  34.259  34.891  1.00  0.00    -0.206 F 
ATOM     87  C   UNL A   1      38.637  33.764  37.903  1.00  0.00     0.022 A 
BRANCH  84  88
ATOM     88  S   UNL A   1      37.080  31.675  38.897  1.00  0.00     0.124 S 
ATOM     89  O   UNL A   1      35.907  32.525  38.734  1.00  0.00    -0.237 OA
ATOM     90  O   UNL A   1      36.969  30.318  38.372  1.00  0.00    -0.237 OA
ATOM     91  O   UNL A   1      37.761  31.789  40.185  1.00  0.00    -0.744 OA
ENDBRANCH  84  88
ENDBRANCH  57  81
BRANCH  69  92
ATOM     92  C   UNL A   1      44.592  27.753  34.247  1.00  0.00     0.023 A 
ATOM     93  C   UNL A   1      44.448  26.586  35.018  1.00  0.00     0.031 A 
ATOM     94  C   UNL A   1      45.835  28.409  34.264  1.00  0.00     0.131 A 
ATOM     95  C   UNL A   1      45.516  26.134  35.807  1.00  0.00     0.055 A 
ATOM     96  C   UNL A   1      46.914  27.920  35.002  1.00  0.00     0.041 A 
ATOM     97  F   UNL A   1      46.027  29.530  33.551  1.00  0.00    -0.206 F 
ATOM     98  C   UNL A   1      46.754  26.782  35.788  1.00  0.00     0.022 A 
BRANCH  95  99
ATOM     99  S   UNL A   1      45.243  24.728  36.919  1.00  0.00     0.124 S 
ATOM    100  O   UNL A   1      44.119  25.194  37.725  1.00  0.00    -0.237 OA
ATOM    101  O   UNL A   1      44.952  23.643  35.987  1.00  0.00    -0.237 OA
ATOM    102  O   UNL A   1      46.512  24.606  37.635  1.00  0.00    -0.744 OA
ENDBRANCH  95  99
ENDBRANCH  69  92
ENDBRANCH  43  44
ENDBRANCH  35  38
ENDBRANCH  33  34
ENDBRANCH  32  33
ENDBRANCH  31  32
ENDBRANCH   1  31
TORSDOF 21
ENDMDL
