MODEL 1
REMARK VINA RESULT:     -13.5      0.000      0.000
REMARK SMILES CC1(C)S[C@@H]2c3ccccc3C(=O)N2[C@H]1C(=O)N[C@H](Cc1c[nH]c2ccccc12)C(=O)NCCCCCCNC(=O)c1ccc(-c2c3nc(c(-c4cc(S(=O)(=O)[O-])ccc4F)c4ccc([nH]4)c(-c4cc(S(=O)(=O)[O-])ccc4F)c4nc(c(-c5cc(S(=O)(=O)[O-])ccc5F)c5ccc2[nH]5)C=C4)C=C3)cc1
REMARK SMILES IDX 36 1 35 2 34 3 33 4 32 5 30 6 31 7 19 9 18 10 16 11 17 12
REMARK SMILES IDX 15 14 1 15 2 16 3 17 4 18 5 19 14 20 6 21 12 22 7 23 11 24
REMARK SMILES IDX 13 25 8 26 10 27 9 28 20 29 21 30 22 31 29 32 23 33 24 34
REMARK SMILES IDX 28 35 25 37 27 38 26 39 37 40 38 41 39 42 40 43 41 45 42 46
REMARK SMILES IDX 43 47 104 48 44 49 103 50 45 51 46 52 47 53 97 54 48 55
REMARK SMILES IDX 102 56 96 57 98 58 49 59 101 60 95 61 94 62 50 64 82 65
REMARK SMILES IDX 62 66 81 67 63 68 66 69 80 70 99 71 64 72 65 73 79 75 100 76
REMARK SMILES IDX 67 77 51 78 52 79 60 80 53 81 59 82 61 83 58 84 54 85 55 86
REMARK SMILES IDX 56 87 57 88 83 89 84 90 92 91 85 92 91 93 93 94 90 95 86 96
REMARK SMILES IDX 87 97 88 98 89 99 68 100 69 101 77 102 70 103 76 104 78 105
REMARK SMILES IDX 75 106 71 107 72 108 73 109 74 110
REMARK H PARENT 32 8 18 13 23 36 39 44 98 63 66 74
REMARK Flexibility Score: inf
ROOT
ATOM      1  C   UNL A   1      30.721  31.226  25.682  1.00  0.00     0.002 C 
ENDROOT
BRANCH   1   2
ATOM      2  C   UNL A   1      31.927  30.304  25.831  1.00  0.00     0.002 C 
BRANCH   2   3
ATOM      3  C   UNL A   1      31.959  29.354  27.026  1.00  0.00     0.021 C 
BRANCH   3   4
ATOM      4  C   UNL A   1      31.889  27.852  26.750  1.00  0.00     0.116 C 
BRANCH   4   5
ATOM      5  N   UNL A   1      32.701  27.305  25.658  1.00  0.00    -0.354 N 
ATOM      6  C   UNL A   1      32.459  26.378  24.677  1.00  0.00     0.242 C 
ATOM      7  O   UNL A   1      33.220  26.339  23.706  1.00  0.00    -0.273 OA
ATOM      8  H   UNL A   1      33.610  27.683  25.621  1.00  0.00     0.163 HD
BRANCH   6   9
ATOM      9  C   UNL A   1      31.359  25.313  24.828  1.00  0.00     0.175 C 
BRANCH   9  10
ATOM     10  N   UNL A   1      32.062  24.153  25.450  1.00  0.00    -0.342 N 
ATOM     11  C   UNL A   1      32.768  23.019  25.412  1.00  0.00     0.244 C 
ATOM     12  O   UNL A   1      32.507  22.298  26.395  1.00  0.00    -0.273 OA
ATOM     13  H   UNL A   1      31.940  24.309  26.415  1.00  0.00     0.164 HD
BRANCH  11  14
ATOM     14  C   UNL A   1      33.714  22.434  24.366  1.00  0.00     0.191 C 
ATOM     15  C   UNL A   1      35.522  23.921  25.452  1.00  0.00     0.026 C 
ATOM     16  C   UNL A   1      35.219  22.719  24.554  1.00  0.00     0.042 C 
ATOM     17  C   UNL A   1      35.894  22.935  23.186  1.00  0.00     0.026 C 
ATOM     18  S   UNL A   1      35.920  21.137  25.249  1.00  0.00    -0.123 SA
ATOM     19  C   UNL A   1      34.384  20.242  25.108  1.00  0.00     0.176 C 
ATOM     20  N   UNL A   1      33.561  21.011  24.254  1.00  0.00    -0.309 N 
ATOM     21  C   UNL A   1      34.290  18.880  24.531  1.00  0.00    -0.002 A 
ATOM     22  C   UNL A   1      32.863  20.272  23.335  1.00  0.00     0.256 C 
ATOM     23  C   UNL A   1      34.832  17.694  24.987  1.00  0.00     0.007 A 
ATOM     24  C   UNL A   1      33.283  18.877  23.557  1.00  0.00     0.046 A 
ATOM     25  O   UNL A   1      32.095  20.657  22.478  1.00  0.00    -0.269 OA
ATOM     26  C   UNL A   1      34.302  16.501  24.491  1.00  0.00     0.000 A 
ATOM     27  C   UNL A   1      32.771  17.712  23.023  1.00  0.00     0.014 A 
ATOM     28  C   UNL A   1      33.279  16.510  23.521  1.00  0.00     0.001 A 
ENDBRANCH  11  14
ENDBRANCH   9  10
BRANCH   9  29
ATOM     29  C   UNL A   1      30.377  25.472  23.627  1.00  0.00     0.072 C 
BRANCH  29  30
ATOM     30  C   UNL A   1      29.275  26.525  23.522  1.00  0.00    -0.020 A 
ATOM     31  C   UNL A   1      27.996  26.347  24.025  1.00  0.00     0.087 A 
ATOM     32  C   UNL A   1      29.305  27.918  23.086  1.00  0.00     0.003 A 
ATOM     33  N   UNL A   1      27.256  27.483  23.849  1.00  0.00    -0.361 N 
ATOM     34  C   UNL A   1      28.012  28.444  23.231  1.00  0.00     0.046 A 
ATOM     35  C   UNL A   1      30.272  28.796  22.545  1.00  0.00     0.010 A 
ATOM     36  H   UNL A   1      26.319  27.595  24.126  1.00  0.00     0.166 HD
ATOM     37  C   UNL A   1      27.625  29.707  22.756  1.00  0.00     0.026 A 
ATOM     38  C   UNL A   1      29.895  30.041  22.017  1.00  0.00     0.001 A 
ATOM     39  C   UNL A   1      28.582  30.482  22.105  1.00  0.00     0.002 A 
ENDBRANCH  29  30
ENDBRANCH   9  29
ENDBRANCH   6   9
ENDBRANCH   4   5
ENDBRANCH   3   4
ENDBRANCH   2   3
ENDBRANCH   1   2
BRANCH   1  40
ATOM     40  C   UNL A   1      31.028  32.650  26.114  1.00  0.00     0.021 C 
BRANCH  40  41
ATOM     41  C   UNL A   1      32.236  32.717  27.034  1.00  0.00     0.116 C 
BRANCH  41  42
ATOM     42  N   UNL A   1      32.441  34.040  27.626  1.00  0.00    -0.352 N 
ATOM     43  C   UNL A   1      33.535  34.470  28.349  1.00  0.00     0.251 C 
ATOM     44  H   UNL A   1      31.719  34.695  27.493  1.00  0.00     0.163 HD
ATOM     45  O   UNL A   1      33.573  35.576  28.869  1.00  0.00    -0.269 OA
BRANCH  43  46
ATOM     46  C   UNL A   1      34.639  33.503  28.504  1.00  0.00     0.039 A 
ATOM     47  C   UNL A   1      34.377  32.313  29.183  1.00  0.00     0.014 A 
ATOM     48  C   UNL A   1      35.945  33.917  28.241  1.00  0.00     0.014 A 
ATOM     49  C   UNL A   1      35.430  31.660  29.805  1.00  0.00     0.010 A 
ATOM     50  C   UNL A   1      37.008  33.176  28.763  1.00  0.00     0.010 A 
ATOM     51  C   UNL A   1      36.758  32.083  29.611  1.00  0.00    -0.014 A 
BRANCH  51  52
ATOM     52  C   UNL A   1      37.866  31.374  30.307  1.00  0.00     0.031 A 
ATOM     53  C   UNL A   1      38.176  31.639  31.760  1.00  0.00     0.074 A 
ATOM     54  C   UNL A   1      38.573  30.454  29.622  1.00  0.00     0.049 A 
ATOM     55  N   UNL A   1      39.146  31.155  32.493  1.00  0.00    -0.248 NA
ATOM     56  C   UNL A   1      37.292  32.568  32.485  1.00  0.00     0.031 C 
ATOM     57  C   UNL A   1      38.341  30.099  28.220  1.00  0.00     0.029 A 
ATOM     58  N   UNL A   1      39.608  29.638  30.002  1.00  0.00    -0.354 N 
ATOM     59  C   UNL A   1      39.014  31.744  33.748  1.00  0.00     0.074 A 
ATOM     60  C   UNL A   1      37.883  32.641  33.672  1.00  0.00     0.031 C 
ATOM     61  C   UNL A   1      39.159  29.099  27.878  1.00  0.00     0.029 A 
ATOM     62  C   UNL A   1      40.058  28.818  28.991  1.00  0.00     0.049 A 
ATOM     63  H   UNL A   1      39.991  29.638  30.909  1.00  0.00     0.167 HD
ATOM     64  C   UNL A   1      39.766  31.542  34.857  1.00  0.00     0.034 A 
ATOM     65  C   UNL A   1      41.100  27.966  28.942  1.00  0.00     0.034 A 
ATOM     66  C   UNL A   1      40.865  30.609  34.917  1.00  0.00     0.049 A 
ATOM     67  C   UNL A   1      41.942  27.792  30.176  1.00  0.00     0.074 A 
ATOM     68  C   UNL A   1      41.669  30.307  36.002  1.00  0.00     0.029 A 
ATOM     69  N   UNL A   1      41.308  29.821  33.864  1.00  0.00    -0.354 N 
ATOM     70  N   UNL A   1      41.794  28.345  31.358  1.00  0.00    -0.248 NA
ATOM     71  C   UNL A   1      43.091  26.884  30.079  1.00  0.00     0.031 C 
ATOM     72  C   UNL A   1      42.643  29.401  35.586  1.00  0.00     0.029 A 
ATOM     73  C   UNL A   1      42.394  29.059  34.266  1.00  0.00     0.049 A 
ATOM     74  H   UNL A   1      40.910  29.804  32.963  1.00  0.00     0.167 HD
ATOM     75  C   UNL A   1      42.816  27.835  32.150  1.00  0.00     0.074 A 
ATOM     76  C   UNL A   1      43.558  26.906  31.322  1.00  0.00     0.031 C 
ATOM     77  C   UNL A   1      43.114  28.116  33.442  1.00  0.00     0.034 A 
BRANCH  64  78
ATOM     78  C   UNL A   1      39.453  32.316  36.119  1.00  0.00     0.023 A 
ATOM     79  C   UNL A   1      38.565  31.773  37.071  1.00  0.00     0.031 A 
ATOM     80  C   UNL A   1      39.884  33.642  36.301  1.00  0.00     0.131 A 
ATOM     81  C   UNL A   1      38.098  32.566  38.127  1.00  0.00     0.055 A 
ATOM     82  C   UNL A   1      39.454  34.413  37.384  1.00  0.00     0.041 A 
ATOM     83  F   UNL A   1      40.725  34.211  35.424  1.00  0.00    -0.206 F 
ATOM     84  C   UNL A   1      38.543  33.881  38.293  1.00  0.00     0.022 A 
BRANCH  81  85
ATOM     85  S   UNL A   1      36.829  31.955  39.272  1.00  0.00     0.124 S 
ATOM     86  O   UNL A   1      36.799  30.529  38.953  1.00  0.00    -0.237 OA
ATOM     87  O   UNL A   1      37.404  32.292  40.572  1.00  0.00    -0.237 OA
ATOM     88  O   UNL A   1      35.631  32.699  38.898  1.00  0.00    -0.744 OA
ENDBRANCH  81  85
ENDBRANCH  64  78
BRANCH  65  89
ATOM     89  C   UNL A   1      41.364  27.217  27.678  1.00  0.00     0.023 A 
ATOM     90  C   UNL A   1      41.152  25.826  27.604  1.00  0.00     0.031 A 
ATOM     91  C   UNL A   1      41.955  27.853  26.574  1.00  0.00     0.131 A 
ATOM     92  C   UNL A   1      41.611  25.108  26.493  1.00  0.00     0.055 A 
ATOM     93  C   UNL A   1      42.328  27.145  25.431  1.00  0.00     0.041 A 
ATOM     94  F   UNL A   1      42.192  29.173  26.602  1.00  0.00    -0.206 F 
ATOM     95  C   UNL A   1      42.178  25.762  25.396  1.00  0.00     0.022 A 
BRANCH  92  96
ATOM     96  S   UNL A   1      41.637  23.293  26.508  1.00  0.00     0.124 S 
ATOM     97  O   UNL A   1      40.273  22.966  26.106  1.00  0.00    -0.237 OA
ATOM     98  O   UNL A   1      42.675  23.002  25.522  1.00  0.00    -0.237 OA
ATOM     99  O   UNL A   1      41.985  22.964  27.887  1.00  0.00    -0.744 OA
ENDBRANCH  92  96
ENDBRANCH  65  89
BRANCH  77 100
ATOM    100  C   UNL A   1      44.286  27.413  34.085  1.00  0.00     0.023 A 
ATOM    101  C   UNL A   1      44.122  26.113  34.603  1.00  0.00     0.031 A 
ATOM    102  C   UNL A   1      45.497  28.082  34.337  1.00  0.00     0.131 A 
ATOM    103  C   UNL A   1      45.128  25.546  35.393  1.00  0.00     0.055 A 
ATOM    104  C   UNL A   1      46.521  27.486  35.075  1.00  0.00     0.041 A 
ATOM    105  F   UNL A   1      45.698  29.325  33.874  1.00  0.00    -0.206 F 
ATOM    106  C   UNL A   1      46.331  26.221  35.623  1.00  0.00     0.022 A 
BRANCH 103 107
ATOM    107  S   UNL A   1      44.870  23.963  36.242  1.00  0.00     0.124 S 
ATOM    108  O   UNL A   1      45.145  24.318  37.633  1.00  0.00    -0.237 OA
ATOM    109  O   UNL A   1      43.471  23.676  35.937  1.00  0.00    -0.237 OA
ATOM    110  O   UNL A   1      45.845  23.069  35.625  1.00  0.00    -0.744 OA
ENDBRANCH 103 107
ENDBRANCH  77 100
ENDBRANCH  51  52
ENDBRANCH  43  46
ENDBRANCH  41  42
ENDBRANCH  40  41
ENDBRANCH   1  40
TORSDOF 20
ENDMDL
MODEL 2
REMARK VINA RESULT:     -13.2      1.887      2.217
REMARK SMILES CC1(C)S[C@@H]2c3ccccc3C(=O)N2[C@H]1C(=O)N[C@H](Cc1c[nH]c2ccccc12)C(=O)NCCCCCCNC(=O)c1ccc(-c2c3nc(c(-c4cc(S(=O)(=O)[O-])ccc4F)c4ccc([nH]4)c(-c4cc(S(=O)(=O)[O-])ccc4F)c4nc(c(-c5cc(S(=O)(=O)[O-])ccc5F)c5ccc2[nH]5)C=C4)C=C3)cc1
REMARK SMILES IDX 36 1 35 2 34 3 33 4 32 5 30 6 31 7 19 9 18 10 16 11 17 12
REMARK SMILES IDX 15 14 1 15 2 16 3 17 4 18 5 19 14 20 6 21 12 22 7 23 11 24
REMARK SMILES IDX 13 25 8 26 10 27 9 28 20 29 21 30 22 31 29 32 23 33 24 34
REMARK SMILES IDX 28 35 25 37 27 38 26 39 37 40 38 41 39 42 40 43 41 45 42 46
REMARK SMILES IDX 43 47 104 48 44 49 103 50 45 51 46 52 47 53 97 54 48 55
REMARK SMILES IDX 102 56 96 57 98 58 49 59 101 60 95 61 94 62 50 64 82 65
REMARK SMILES IDX 62 66 81 67 63 68 66 69 80 70 99 71 64 72 65 73 79 75 100 76
REMARK SMILES IDX 67 77 51 78 52 79 60 80 53 81 59 82 61 83 58 84 54 85 55 86
REMARK SMILES IDX 56 87 57 88 83 89 84 90 92 91 85 92 91 93 93 94 90 95 86 96
REMARK SMILES IDX 87 97 88 98 89 99 68 100 69 101 77 102 70 103 76 104 78 105
REMARK SMILES IDX 75 106 71 107 72 108 73 109 74 110
REMARK H PARENT 32 8 18 13 23 36 39 44 98 63 66 74
REMARK Flexibility Score: inf
ROOT
ATOM      1  C   UNL A   1      30.743  31.041  25.707  1.00  0.00     0.002 C 
ENDROOT
BRANCH   1   2
ATOM      2  C   UNL A   1      31.856  30.032  25.971  1.00  0.00     0.002 C 
BRANCH   2   3
ATOM      3  C   UNL A   1      31.731  29.131  27.197  1.00  0.00     0.021 C 
BRANCH   3   4
ATOM      4  C   UNL A   1      32.571  27.854  27.237  1.00  0.00     0.116 C 
BRANCH   4   5
ATOM      5  N   UNL A   1      33.433  27.550  26.091  1.00  0.00    -0.354 N 
ATOM      6  C   UNL A   1      33.202  26.995  24.859  1.00  0.00     0.242 C 
ATOM      7  O   UNL A   1      34.056  27.142  23.979  1.00  0.00    -0.273 OA
ATOM      8  H   UNL A   1      34.375  27.796  26.237  1.00  0.00     0.163 HD
BRANCH   6   9
ATOM      9  C   UNL A   1      31.985  26.091  24.597  1.00  0.00     0.175 C 
BRANCH   9  10
ATOM     10  N   UNL A   1      32.354  24.794  25.236  1.00  0.00    -0.342 N 
ATOM     11  C   UNL A   1      32.824  23.542  25.223  1.00  0.00     0.244 C 
ATOM     12  O   UNL A   1      32.292  22.857  26.119  1.00  0.00    -0.273 OA
ATOM     13  H   UNL A   1      32.130  24.939  26.184  1.00  0.00     0.164 HD
BRANCH  11  14
ATOM     14  C   UNL A   1      33.776  22.814  24.278  1.00  0.00     0.191 C 
ATOM     15  C   UNL A   1      35.659  24.074  25.513  1.00  0.00     0.026 C 
ATOM     16  C   UNL A   1      35.282  22.902  24.604  1.00  0.00     0.042 C 
ATOM     17  C   UNL A   1      36.102  22.995  23.303  1.00  0.00     0.026 C 
ATOM     18  S   UNL A   1      35.698  21.258  25.379  1.00  0.00    -0.123 SA
ATOM     19  C   UNL A   1      34.076  20.570  25.104  1.00  0.00     0.176 C 
ATOM     20  N   UNL A   1      33.445  21.422  24.167  1.00  0.00    -0.309 N 
ATOM     21  C   UNL A   1      33.855  19.220  24.534  1.00  0.00    -0.002 A 
ATOM     22  C   UNL A   1      32.742  20.759  23.195  1.00  0.00     0.256 C 
ATOM     23  C   UNL A   1      34.189  17.984  25.053  1.00  0.00     0.007 A 
ATOM     24  C   UNL A   1      32.950  19.327  23.470  1.00  0.00     0.046 A 
ATOM     25  O   UNL A   1      32.115  21.223  22.265  1.00  0.00    -0.269 OA
ATOM     26  C   UNL A   1      33.553  16.860  24.522  1.00  0.00     0.000 A 
ATOM     27  C   UNL A   1      32.339  18.227  22.903  1.00  0.00     0.014 A 
ATOM     28  C   UNL A   1      32.634  16.980  23.459  1.00  0.00     0.001 A 
ENDBRANCH  11  14
ENDBRANCH   9  10
BRANCH   9  29
ATOM     29  C   UNL A   1      31.387  26.490  23.213  1.00  0.00     0.072 C 
BRANCH  29  30
ATOM     30  C   UNL A   1      30.948  27.898  22.814  1.00  0.00    -0.020 A 
ATOM     31  C   UNL A   1      31.788  28.818  22.206  1.00  0.00     0.087 A 
ATOM     32  C   UNL A   1      29.634  28.531  22.788  1.00  0.00     0.003 A 
ATOM     33  N   UNL A   1      31.098  29.958  21.901  1.00  0.00    -0.361 N 
ATOM     34  C   UNL A   1      29.791  29.834  22.292  1.00  0.00     0.046 A 
ATOM     35  C   UNL A   1      28.320  28.169  23.165  1.00  0.00     0.010 A 
ATOM     36  H   UNL A   1      31.484  30.751  21.464  1.00  0.00     0.166 HD
ATOM     37  C   UNL A   1      28.768  30.795  22.280  1.00  0.00     0.026 A 
ATOM     38  C   UNL A   1      27.295  29.128  23.210  1.00  0.00     0.001 A 
ATOM     39  C   UNL A   1      27.524  30.432  22.791  1.00  0.00     0.002 A 
ENDBRANCH  29  30
ENDBRANCH   9  29
ENDBRANCH   6   9
ENDBRANCH   4   5
ENDBRANCH   3   4
ENDBRANCH   2   3
ENDBRANCH   1   2
BRANCH   1  40
ATOM     40  C   UNL A   1      31.192  32.471  25.950  1.00  0.00     0.021 C 
BRANCH  40  41
ATOM     41  C   UNL A   1      32.069  32.589  27.186  1.00  0.00     0.116 C 
BRANCH  41  42
ATOM     42  N   UNL A   1      32.351  33.974  27.567  1.00  0.00    -0.352 N 
ATOM     43  C   UNL A   1      33.510  34.464  28.132  1.00  0.00     0.251 C 
ATOM     44  H   UNL A   1      31.634  34.628  27.401  1.00  0.00     0.163 HD
ATOM     45  O   UNL A   1      33.615  35.630  28.486  1.00  0.00    -0.269 OA
BRANCH  43  46
ATOM     46  C   UNL A   1      34.602  33.493  28.334  1.00  0.00     0.039 A 
ATOM     47  C   UNL A   1      34.328  32.343  29.074  1.00  0.00     0.014 A 
ATOM     48  C   UNL A   1      35.913  33.876  28.047  1.00  0.00     0.014 A 
ATOM     49  C   UNL A   1      35.375  31.710  29.726  1.00  0.00     0.010 A 
ATOM     50  C   UNL A   1      36.968  33.150  28.604  1.00  0.00     0.010 A 
ATOM     51  C   UNL A   1      36.707  32.105  29.506  1.00  0.00    -0.014 A 
BRANCH  51  52
ATOM     52  C   UNL A   1      37.808  31.419  30.236  1.00  0.00     0.031 A 
ATOM     53  C   UNL A   1      38.098  31.721  31.685  1.00  0.00     0.074 A 
ATOM     54  C   UNL A   1      38.529  30.485  29.583  1.00  0.00     0.049 A 
ATOM     55  N   UNL A   1      39.060  31.261  32.443  1.00  0.00    -0.248 NA
ATOM     56  C   UNL A   1      37.200  32.664  32.375  1.00  0.00     0.031 C 
ATOM     57  C   UNL A   1      38.317  30.093  28.188  1.00  0.00     0.029 A 
ATOM     58  N   UNL A   1      39.562  29.683  29.997  1.00  0.00    -0.354 N 
ATOM     59  C   UNL A   1      38.909  31.881  33.681  1.00  0.00     0.074 A 
ATOM     60  C   UNL A   1      37.775  32.770  33.567  1.00  0.00     0.031 C 
ATOM     61  C   UNL A   1      39.144  29.089  27.882  1.00  0.00     0.029 A 
ATOM     62  C   UNL A   1      40.029  28.841  29.014  1.00  0.00     0.049 A 
ATOM     63  H   UNL A   1      39.933  29.708  30.909  1.00  0.00     0.167 HD
ATOM     64  C   UNL A   1      39.646  31.710  34.805  1.00  0.00     0.034 A 
ATOM     65  C   UNL A   1      41.075  27.992  29.001  1.00  0.00     0.034 A 
ATOM     66  C   UNL A   1      40.748  30.783  34.903  1.00  0.00     0.049 A 
ATOM     67  C   UNL A   1      41.901  27.853  30.250  1.00  0.00     0.074 A 
ATOM     68  C   UNL A   1      41.539  30.513  36.006  1.00  0.00     0.029 A 
ATOM     69  N   UNL A   1      41.209  29.972  33.876  1.00  0.00    -0.354 N 
ATOM     70  N   UNL A   1      41.734  28.435  31.415  1.00  0.00    -0.248 NA
ATOM     71  C   UNL A   1      43.055  26.949  30.191  1.00  0.00     0.031 C 
ATOM     72  C   UNL A   1      42.522  29.601  35.626  1.00  0.00     0.029 A 
ATOM     73  C   UNL A   1      42.292  29.225  34.312  1.00  0.00     0.049 A 
ATOM     74  H   UNL A   1      40.823  29.930  32.970  1.00  0.00     0.167 HD
ATOM     75  C   UNL A   1      42.748  27.949  32.233  1.00  0.00     0.074 A 
ATOM     76  C   UNL A   1      43.505  27.004  31.439  1.00  0.00     0.031 C 
ATOM     77  C   UNL A   1      43.028  28.265  33.522  1.00  0.00     0.034 A 
BRANCH  64  78
ATOM     78  C   UNL A   1      39.313  32.514  36.042  1.00  0.00     0.023 A 
ATOM     79  C   UNL A   1      40.021  33.702  36.317  1.00  0.00     0.031 A 
ATOM     80  C   UNL A   1      38.432  32.029  37.026  1.00  0.00     0.131 A 
ATOM     81  C   UNL A   1      39.878  34.332  37.560  1.00  0.00     0.055 A 
ATOM     82  C   UNL A   1      38.255  32.689  38.244  1.00  0.00     0.041 A 
ATOM     83  F   UNL A   1      37.735  30.901  36.820  1.00  0.00    -0.206 F 
ATOM     84  C   UNL A   1      38.994  33.836  38.523  1.00  0.00     0.022 A 
BRANCH  81  85
ATOM     85  S   UNL A   1      40.897  35.765  38.011  1.00  0.00     0.124 S 
ATOM     86  O   UNL A   1      40.013  36.880  37.676  1.00  0.00    -0.237 OA
ATOM     87  O   UNL A   1      41.113  35.548  39.439  1.00  0.00    -0.237 OA
ATOM     88  O   UNL A   1      42.079  35.636  37.165  1.00  0.00    -0.744 OA
ENDBRANCH  81  85
ENDBRANCH  64  78
BRANCH  65  89
ATOM     89  C   UNL A   1      41.360  27.213  27.760  1.00  0.00     0.023 A 
ATOM     90  C   UNL A   1      41.058  25.839  27.683  1.00  0.00     0.031 A 
ATOM     91  C   UNL A   1      42.054  27.795  26.687  1.00  0.00     0.131 A 
ATOM     92  C   UNL A   1      41.529  25.078  26.606  1.00  0.00     0.055 A 
ATOM     93  C   UNL A   1      42.443  27.050  25.572  1.00  0.00     0.041 A 
ATOM     94  F   UNL A   1      42.379  29.096  26.718  1.00  0.00    -0.206 F 
ATOM     95  C   UNL A   1      42.201  25.680  25.539  1.00  0.00     0.022 A 
BRANCH  92  96
ATOM     96  S   UNL A   1      41.430  23.266  26.636  1.00  0.00     0.124 S 
ATOM     97  O   UNL A   1      39.989  23.041  26.655  1.00  0.00    -0.237 OA
ATOM     98  O   UNL A   1      42.110  22.911  25.392  1.00  0.00    -0.237 OA
ATOM     99  O   UNL A   1      42.143  22.902  27.856  1.00  0.00    -0.744 OA
ENDBRANCH  92  96
ENDBRANCH  65  89
BRANCH  77 100
ATOM    100  C   UNL A   1      44.194  27.584  34.198  1.00  0.00     0.023 A 
ATOM    101  C   UNL A   1      45.483  28.141  34.097  1.00  0.00     0.031 A 
ATOM    102  C   UNL A   1      44.062  26.314  34.788  1.00  0.00     0.131 A 
ATOM    103  C   UNL A   1      46.595  27.407  34.523  1.00  0.00     0.055 A 
ATOM    104  C   UNL A   1      45.169  25.613  35.267  1.00  0.00     0.041 A 
ATOM    105  F   UNL A   1      42.856  25.736  34.898  1.00  0.00    -0.206 F 
ATOM    106  C   UNL A   1      46.445  26.150  35.119  1.00  0.00     0.022 A 
BRANCH 103 107
ATOM    107  S   UNL A   1      48.282  28.004  34.223  1.00  0.00     0.124 S 
ATOM    108  O   UNL A   1      48.469  27.683  32.810  1.00  0.00    -0.237 OA
ATOM    109  O   UNL A   1      48.163  29.426  34.529  1.00  0.00    -0.237 OA
ATOM    110  O   UNL A   1      49.101  27.227  35.149  1.00  0.00    -0.744 OA
ENDBRANCH 103 107
ENDBRANCH  77 100
ENDBRANCH  51  52
ENDBRANCH  43  46
ENDBRANCH  41  42
ENDBRANCH  40  41
ENDBRANCH   1  40
TORSDOF 20
ENDMDL
MODEL 3
REMARK VINA RESULT:     -13.2      5.520     11.479
REMARK SMILES CC1(C)S[C@@H]2c3ccccc3C(=O)N2[C@H]1C(=O)N[C@H](Cc1c[nH]c2ccccc12)C(=O)NCCCCCCNC(=O)c1ccc(-c2c3nc(c(-c4cc(S(=O)(=O)[O-])ccc4F)c4ccc([nH]4)c(-c4cc(S(=O)(=O)[O-])ccc4F)c4nc(c(-c5cc(S(=O)(=O)[O-])ccc5F)c5ccc2[nH]5)C=C4)C=C3)cc1
REMARK SMILES IDX 36 1 35 2 34 3 33 4 32 5 30 6 31 7 19 9 18 10 16 11 17 12
REMARK SMILES IDX 15 14 1 15 2 16 3 17 4 18 5 19 14 20 6 21 12 22 7 23 11 24
REMARK SMILES IDX 13 25 8 26 10 27 9 28 20 29 21 30 22 31 29 32 23 33 24 34
REMARK SMILES IDX 28 35 25 37 27 38 26 39 37 40 38 41 39 42 40 43 41 45 42 46
REMARK SMILES IDX 43 47 104 48 44 49 103 50 45 51 46 52 47 53 97 54 48 55
REMARK SMILES IDX 102 56 96 57 98 58 49 59 101 60 95 61 94 62 50 64 82 65
REMARK SMILES IDX 62 66 81 67 63 68 66 69 80 70 99 71 64 72 65 73 79 75 100 76
REMARK SMILES IDX 67 77 51 78 52 79 60 80 53 81 59 82 61 83 58 84 54 85 55 86
REMARK SMILES IDX 56 87 57 88 83 89 84 90 92 91 85 92 91 93 93 94 90 95 86 96
REMARK SMILES IDX 87 97 88 98 89 99 68 100 69 101 77 102 70 103 76 104 78 105
REMARK SMILES IDX 75 106 71 107 72 108 73 109 74 110
REMARK H PARENT 32 8 18 13 23 36 39 44 98 63 66 74
REMARK Flexibility Score: inf
ROOT
ATOM      1  C   UNL A   1      38.542  23.558  26.186  1.00  0.00     0.002 C 
ENDROOT
BRANCH   1   2
ATOM      2  C   UNL A   1      37.096  23.853  25.801  1.00  0.00     0.002 C 
BRANCH   2   3
ATOM      3  C   UNL A   1      36.647  23.506  24.384  1.00  0.00     0.021 C 
BRANCH   3   4
ATOM      4  C   UNL A   1      35.322  24.087  23.889  1.00  0.00     0.116 C 
BRANCH   4   5
ATOM      5  N   UNL A   1      34.457  23.243  23.060  1.00  0.00    -0.354 N 
ATOM      6  C   UNL A   1      33.174  22.779  23.204  1.00  0.00     0.242 C 
ATOM      7  O   UNL A   1      32.592  22.342  22.206  1.00  0.00    -0.273 OA
ATOM      8  H   UNL A   1      34.886  22.947  22.224  1.00  0.00     0.163 HD
BRANCH   6   9
ATOM      9  C   UNL A   1      32.508  22.665  24.586  1.00  0.00     0.175 C 
BRANCH   9  10
ATOM     10  N   UNL A   1      31.739  23.937  24.721  1.00  0.00    -0.342 N 
ATOM     11  C   UNL A   1      31.622  25.268  24.769  1.00  0.00     0.244 C 
ATOM     12  O   UNL A   1      30.663  25.605  25.491  1.00  0.00    -0.273 OA
ATOM     13  H   UNL A   1      30.812  23.626  24.838  1.00  0.00     0.164 HD
BRANCH  11  14
ATOM     14  C   UNL A   1      32.484  26.394  24.205  1.00  0.00     0.191 C 
ATOM     15  C   UNL A   1      31.535  25.708  21.906  1.00  0.00     0.026 C 
ATOM     16  C   UNL A   1      32.239  26.787  22.733  1.00  0.00     0.042 C 
ATOM     17  C   UNL A   1      33.571  27.150  22.050  1.00  0.00     0.026 C 
ATOM     18  S   UNL A   1      31.240  28.359  22.820  1.00  0.00    -0.123 SA
ATOM     19  C   UNL A   1      31.340  28.478  24.597  1.00  0.00     0.176 C 
ATOM     20  N   UNL A   1      32.368  27.590  24.990  1.00  0.00    -0.309 N 
ATOM     21  C   UNL A   1      31.687  29.732  25.307  1.00  0.00    -0.002 A 
ATOM     22  C   UNL A   1      33.198  28.090  25.959  1.00  0.00     0.256 C 
ATOM     23  C   UNL A   1      31.001  30.930  25.358  1.00  0.00     0.007 A 
ATOM     24  C   UNL A   1      32.717  29.459  26.217  1.00  0.00     0.046 A 
ATOM     25  O   UNL A   1      34.161  27.564  26.478  1.00  0.00    -0.269 OA
ATOM     26  C   UNL A   1      31.328  31.825  26.378  1.00  0.00     0.000 A 
ATOM     27  C   UNL A   1      33.084  30.346  27.209  1.00  0.00     0.014 A 
ATOM     28  C   UNL A   1      32.356  31.535  27.297  1.00  0.00     0.001 A 
ENDBRANCH  11  14
ENDBRANCH   9  10
BRANCH   9  29
ATOM     29  C   UNL A   1      33.480  21.878  25.518  1.00  0.00     0.072 C 
BRANCH  29  30
ATOM     30  C   UNL A   1      34.223  20.598  25.139  1.00  0.00    -0.020 A 
ATOM     31  C   UNL A   1      35.581  20.412  25.344  1.00  0.00     0.087 A 
ATOM     32  C   UNL A   1      33.741  19.297  24.687  1.00  0.00     0.003 A 
ATOM     33  N   UNL A   1      35.946  19.147  24.977  1.00  0.00    -0.361 N 
ATOM     34  C   UNL A   1      34.853  18.457  24.522  1.00  0.00     0.046 A 
ATOM     35  C   UNL A   1      32.487  18.733  24.356  1.00  0.00     0.010 A 
ATOM     36  H   UNL A   1      36.859  18.784  25.032  1.00  0.00     0.166 HD
ATOM     37  C   UNL A   1      34.790  17.182  23.940  1.00  0.00     0.026 A 
ATOM     38  C   UNL A   1      32.407  17.481  23.725  1.00  0.00     0.001 A 
ATOM     39  C   UNL A   1      33.549  16.724  23.502  1.00  0.00     0.002 A 
ENDBRANCH  29  30
ENDBRANCH   9  29
ENDBRANCH   6   9
ENDBRANCH   4   5
ENDBRANCH   3   4
ENDBRANCH   2   3
ENDBRANCH   1   2
BRANCH   1  40
ATOM     40  C   UNL A   1      38.987  22.176  25.738  1.00  0.00     0.021 C 
BRANCH  40  41
ATOM     41  C   UNL A   1      39.753  21.445  26.830  1.00  0.00     0.116 C 
BRANCH  41  42
ATOM     42  N   UNL A   1      40.333  20.178  26.380  1.00  0.00    -0.352 N 
ATOM     43  C   UNL A   1      41.650  19.937  26.044  1.00  0.00     0.251 C 
ATOM     44  H   UNL A   1      39.716  19.415  26.309  1.00  0.00     0.163 HD
ATOM     45  O   UNL A   1      42.017  18.857  25.603  1.00  0.00    -0.269 OA
BRANCH  43  46
ATOM     46  C   UNL A   1      42.583  21.069  26.198  1.00  0.00     0.039 A 
ATOM     47  C   UNL A   1      43.002  21.403  27.486  1.00  0.00     0.014 A 
ATOM     48  C   UNL A   1      42.782  21.935  25.123  1.00  0.00     0.014 A 
ATOM     49  C   UNL A   1      43.405  22.705  27.735  1.00  0.00     0.010 A 
ATOM     50  C   UNL A   1      43.314  23.203  25.365  1.00  0.00     0.010 A 
ATOM     51  C   UNL A   1      43.562  23.626  26.682  1.00  0.00    -0.014 A 
BRANCH  51  52
ATOM     52  C   UNL A   1      43.978  25.023  26.982  1.00  0.00     0.031 A 
ATOM     53  C   UNL A   1      45.384  25.499  26.712  1.00  0.00     0.074 A 
ATOM     54  C   UNL A   1      43.058  25.878  27.472  1.00  0.00     0.049 A 
ATOM     55  N   UNL A   1      45.922  26.662  26.978  1.00  0.00    -0.248 NA
ATOM     56  C   UNL A   1      46.309  24.552  26.066  1.00  0.00     0.031 C 
ATOM     57  C   UNL A   1      41.661  25.531  27.746  1.00  0.00     0.029 A 
ATOM     58  N   UNL A   1      43.140  27.205  27.807  1.00  0.00    -0.354 N 
ATOM     59  C   UNL A   1      47.251  26.576  26.570  1.00  0.00     0.074 A 
ATOM     60  C   UNL A   1      47.446  25.239  26.059  1.00  0.00     0.031 C 
ATOM     61  C   UNL A   1      41.006  26.626  28.144  1.00  0.00     0.029 A 
ATOM     62  C   UNL A   1      41.954  27.727  28.272  1.00  0.00     0.049 A 
ATOM     63  H   UNL A   1      43.967  27.733  27.724  1.00  0.00     0.167 HD
ATOM     64  C   UNL A   1      48.209  27.534  26.613  1.00  0.00     0.034 A 
ATOM     65  C   UNL A   1      41.661  28.939  28.783  1.00  0.00     0.034 A 
ATOM     66  C   UNL A   1      47.975  28.875  27.090  1.00  0.00     0.049 A 
ATOM     67  C   UNL A   1      42.754  29.969  28.856  1.00  0.00     0.074 A 
ATOM     68  C   UNL A   1      48.871  29.929  27.145  1.00  0.00     0.029 A 
ATOM     69  N   UNL A   1      46.768  29.355  27.580  1.00  0.00    -0.354 N 
ATOM     70  N   UNL A   1      44.000  29.876  28.452  1.00  0.00    -0.248 NA
ATOM     71  C   UNL A   1      42.413  31.265  29.452  1.00  0.00     0.031 C 
ATOM     72  C   UNL A   1      48.232  31.016  27.738  1.00  0.00     0.029 A 
ATOM     73  C   UNL A   1      46.907  30.678  27.969  1.00  0.00     0.049 A 
ATOM     74  H   UNL A   1      45.935  28.833  27.643  1.00  0.00     0.167 HD
ATOM     75  C   UNL A   1      44.583  31.108  28.724  1.00  0.00     0.074 A 
ATOM     76  C   UNL A   1      43.546  31.939  29.299  1.00  0.00     0.031 C 
ATOM     77  C   UNL A   1      45.862  31.509  28.520  1.00  0.00     0.034 A 
BRANCH  64  78
ATOM     78  C   UNL A   1      49.606  27.210  26.131  1.00  0.00     0.023 A 
ATOM     79  C   UNL A   1      49.988  27.543  24.815  1.00  0.00     0.031 A 
ATOM     80  C   UNL A   1      50.491  26.431  26.897  1.00  0.00     0.131 A 
ATOM     81  C   UNL A   1      51.191  27.055  24.288  1.00  0.00     0.055 A 
ATOM     82  C   UNL A   1      51.713  25.988  26.384  1.00  0.00     0.041 A 
ATOM     83  F   UNL A   1      50.178  26.081  28.154  1.00  0.00    -0.206 F 
ATOM     84  C   UNL A   1      52.059  26.285  25.068  1.00  0.00     0.022 A 
BRANCH  81  85
ATOM     85  S   UNL A   1      51.633  27.322  22.549  1.00  0.00     0.124 S 
ATOM     86  O   UNL A   1      52.763  26.410  22.383  1.00  0.00    -0.237 OA
ATOM     87  O   UNL A   1      50.408  26.929  21.858  1.00  0.00    -0.237 OA
ATOM     88  O   UNL A   1      51.968  28.741  22.485  1.00  0.00    -0.744 OA
ENDBRANCH  81  85
ENDBRANCH  64  78
BRANCH  65  89
ATOM     89  C   UNL A   1      40.266  29.215  29.237  1.00  0.00     0.023 A 
ATOM     90  C   UNL A   1      39.920  29.135  30.600  1.00  0.00     0.031 A 
ATOM     91  C   UNL A   1      39.236  29.432  28.308  1.00  0.00     0.131 A 
ATOM     92  C   UNL A   1      38.574  29.177  30.983  1.00  0.00     0.055 A 
ATOM     93  C   UNL A   1      37.904  29.565  28.704  1.00  0.00     0.041 A 
ATOM     94  F   UNL A   1      39.512  29.502  26.996  1.00  0.00    -0.206 F 
ATOM     95  C   UNL A   1      37.565  29.414  30.045  1.00  0.00     0.022 A 
BRANCH  92  96
ATOM     96  S   UNL A   1      38.079  28.763  32.680  1.00  0.00     0.124 S 
ATOM     97  O   UNL A   1      36.730  29.315  32.746  1.00  0.00    -0.237 OA
ATOM     98  O   UNL A   1      38.165  27.304  32.667  1.00  0.00    -0.237 OA
ATOM     99  O   UNL A   1      39.078  29.434  33.505  1.00  0.00    -0.744 OA
ENDBRANCH  92  96
ENDBRANCH  65  89
BRANCH  77 100
ATOM    100  C   UNL A   1      46.248  32.920  28.897  1.00  0.00     0.023 A 
ATOM    101  C   UNL A   1      46.022  33.973  27.989  1.00  0.00     0.031 A 
ATOM    102  C   UNL A   1      46.983  33.194  30.064  1.00  0.00     0.131 A 
ATOM    103  C   UNL A   1      46.575  35.235  28.234  1.00  0.00     0.055 A 
ATOM    104  C   UNL A   1      47.480  34.470  30.332  1.00  0.00     0.041 A 
ATOM    105  F   UNL A   1      47.234  32.223  30.955  1.00  0.00    -0.206 F 
ATOM    106  C   UNL A   1      47.294  35.492  29.406  1.00  0.00     0.022 A 
BRANCH 103 107
ATOM    107  S   UNL A   1      46.479  36.555  26.993  1.00  0.00     0.124 S 
ATOM    108  O   UNL A   1      47.101  35.924  25.831  1.00  0.00    -0.237 OA
ATOM    109  O   UNL A   1      45.039  36.773  26.889  1.00  0.00    -0.237 OA
ATOM    110  O   UNL A   1      47.240  37.651  27.585  1.00  0.00    -0.744 OA
ENDBRANCH 103 107
ENDBRANCH  77 100
ENDBRANCH  51  52
ENDBRANCH  43  46
ENDBRANCH  41  42
ENDBRANCH  40  41
ENDBRANCH   1  40
TORSDOF 20
ENDMDL
