MODEL 1
REMARK VINA RESULT:     -11.2      0.000      0.000
REMARK SMILES Cc1ccc([C@@H](C(=O)N(CC(=O)NCCCCCCNC(=O)c2ccc(-c3c4nc(c(-c5cc(S(=O)(=O)[O-])ccc5F)c5ccc([nH]5)c(-c5cc(S(=O)(=O)[O-])ccc5F)c5nc(c(-c6cc(S(=O)(=O)[O-])ccc6F)c6ccc3[nH]6)C=C5)C=C4)cc2)C2CC[NH+](C)CC2)[NH+](C)C)cc1
REMARK SMILES IDX 16 1 15 2 14 3 13 4 11 5 12 6 10 8 9 9 7 10 8 11 6 12 5 13
REMARK SMILES IDX 1 14 2 15 3 16 97 17 4 18 96 19 93 20 94 21 95 22 86 24
REMARK SMILES IDX 87 25 92 26 88 27 91 28 89 29 90 30 17 32 18 33 19 34 20 35
REMARK SMILES IDX 21 36 22 38 23 39 24 40 85 41 25 42 84 43 26 44 27 45 28 46
REMARK SMILES IDX 78 47 29 48 83 49 77 50 79 51 30 52 82 53 76 54 75 55 31 57
REMARK SMILES IDX 63 58 43 59 62 60 44 61 47 62 61 63 80 64 45 65 46 66 60 68
REMARK SMILES IDX 81 69 48 70 32 71 33 72 41 73 34 74 40 75 42 76 39 77 35 78
REMARK SMILES IDX 36 79 37 80 38 81 64 82 65 83 73 84 66 85 72 86 74 87 71 88
REMARK SMILES IDX 67 89 68 90 69 91 70 92 49 93 50 94 58 95 51 96 57 97 59 98
REMARK SMILES IDX 56 99 52 100 53 101 54 102 55 103
REMARK H PARENT 13 7 93 23 89 31 20 37 79 56 47 67
REMARK Flexibility Score: inf
ROOT
ATOM      1  C   UNL A   1      37.375  22.863  24.737  1.00  0.00     0.002 C 
ENDROOT
BRANCH   1   2
ATOM      2  C   UNL A   1      35.992  22.895  24.073  1.00  0.00     0.021 C 
BRANCH   2   3
ATOM      3  C   UNL A   1      35.108  24.082  24.434  1.00  0.00     0.116 C 
BRANCH   3   4
ATOM      4  N   UNL A   1      34.200  23.869  25.536  1.00  0.00    -0.355 N 
ATOM      5  C   UNL A   1      33.313  24.764  26.065  1.00  0.00     0.239 C 
ATOM      6  O   UNL A   1      32.336  24.329  26.682  1.00  0.00    -0.273 OA
ATOM      7  H   UNL A   1      34.223  22.978  25.955  1.00  0.00     0.163 HD
BRANCH   5   8
ATOM      8  C   UNL A   1      33.442  26.284  25.808  1.00  0.00     0.219 C 
BRANCH   8   9
ATOM      9  N   UNL A   1      32.350  26.985  25.119  1.00  0.00    -0.324 N 
BRANCH   9  10
ATOM     10  C   UNL A   1      32.183  26.937  23.710  1.00  0.00     0.286 C 
ATOM     11  O   UNL A   1      33.126  27.270  22.983  1.00  0.00    -0.267 OA
BRANCH  10  12
ATOM     12  C   UNL A   1      30.758  26.575  23.098  1.00  0.00     0.305 C 
BRANCH  12  13
ATOM     13  C   UNL A   1      29.818  27.774  22.894  1.00  0.00     0.019 A 
ATOM     14  C   UNL A   1      27.554  31.443  23.152  1.00  0.00     0.044 C 
ATOM     15  C   UNL A   1      28.289  30.160  22.894  1.00  0.00    -0.051 A 
ATOM     16  C   UNL A   1      27.712  28.942  23.257  1.00  0.00     0.004 A 
ATOM     17  C   UNL A   1      29.598  30.163  22.415  1.00  0.00     0.004 A 
ATOM     18  C   UNL A   1      28.478  27.771  23.298  1.00  0.00     0.011 A 
ATOM     19  C   UNL A   1      30.331  28.975  22.361  1.00  0.00     0.011 A 
ENDBRANCH  12  13
BRANCH  12  20
ATOM     20  N   UNL A   1      30.083  25.406  23.765  1.00  0.00    -0.326 N 
ATOM     21  C   UNL A   1      30.821  24.162  23.550  1.00  0.00     0.333 C 
ATOM     22  C   UNL A   1      29.796  25.568  25.192  1.00  0.00     0.333 C 
ATOM     23  H   UNL A   1      29.175  25.362  23.303  1.00  0.00     0.348 HD
ENDBRANCH  12  20
ENDBRANCH  10  12
ENDBRANCH   9  10
BRANCH   9  24
ATOM     24  C   UNL A   1      31.517  27.977  25.878  1.00  0.00     0.097 C 
ATOM     25  C   UNL A   1      31.578  29.470  25.485  1.00  0.00     0.086 C 
ATOM     26  C   UNL A   1      31.823  27.926  27.387  1.00  0.00     0.086 C 
ATOM     27  C   UNL A   1      32.873  30.180  25.892  1.00  0.00     0.264 C 
ATOM     28  C   UNL A   1      33.174  28.566  27.702  1.00  0.00     0.264 C 
ATOM     29  N   UNL A   1      33.224  29.976  27.302  1.00  0.00    -0.337 N 
ATOM     30  C   UNL A   1      34.548  30.537  27.582  1.00  0.00     0.332 C 
ATOM     31  H   UNL A   1      32.522  30.467  27.855  1.00  0.00     0.347 HD
ENDBRANCH   9  24
ENDBRANCH   8   9
ENDBRANCH   5   8
ENDBRANCH   3   4
ENDBRANCH   2   3
ENDBRANCH   1   2
BRANCH   1  32
ATOM     32  C   UNL A   1      37.525  23.609  26.073  1.00  0.00     0.002 C 
BRANCH  32  33
ATOM     33  C   UNL A   1      38.838  24.356  26.282  1.00  0.00     0.021 C 
BRANCH  33  34
ATOM     34  C   UNL A   1      39.887  23.626  27.111  1.00  0.00     0.116 C 
BRANCH  34  35
ATOM     35  N   UNL A   1      40.510  22.508  26.404  1.00  0.00    -0.352 N 
ATOM     36  C   UNL A   1      41.810  22.397  25.927  1.00  0.00     0.251 C 
ATOM     37  H   UNL A   1      39.930  21.729  26.244  1.00  0.00     0.163 HD
ATOM     38  O   UNL A   1      42.209  21.416  25.331  1.00  0.00    -0.269 OA
BRANCH  36  39
ATOM     39  C   UNL A   1      42.761  23.468  26.304  1.00  0.00     0.039 A 
ATOM     40  C   UNL A   1      43.455  23.291  27.504  1.00  0.00     0.014 A 
ATOM     41  C   UNL A   1      42.693  24.715  25.689  1.00  0.00     0.014 A 
ATOM     42  C   UNL A   1      43.847  24.411  28.228  1.00  0.00     0.010 A 
ATOM     43  C   UNL A   1      42.994  25.829  26.451  1.00  0.00     0.010 A 
ATOM     44  C   UNL A   1      43.496  25.674  27.750  1.00  0.00    -0.014 A 
BRANCH  44  45
ATOM     45  C   UNL A   1      43.468  26.852  28.611  1.00  0.00     0.031 A 
ATOM     46  C   UNL A   1      42.214  27.586  28.848  1.00  0.00     0.074 A 
ATOM     47  C   UNL A   1      44.598  27.285  29.217  1.00  0.00     0.049 A 
ATOM     48  N   UNL A   1      42.158  28.841  29.146  1.00  0.00    -0.248 NA
ATOM     49  C   UNL A   1      40.904  26.965  28.723  1.00  0.00     0.031 C 
ATOM     50  C   UNL A   1      44.709  28.297  30.263  1.00  0.00     0.029 A 
ATOM     51  N   UNL A   1      45.911  27.064  28.806  1.00  0.00    -0.354 N 
ATOM     52  C   UNL A   1      40.874  29.117  29.547  1.00  0.00     0.074 A 
ATOM     53  C   UNL A   1      40.117  27.938  29.190  1.00  0.00     0.031 C 
ATOM     54  C   UNL A   1      45.946  28.816  30.231  1.00  0.00     0.029 A 
ATOM     55  C   UNL A   1      46.632  28.242  29.090  1.00  0.00     0.049 A 
ATOM     56  H   UNL A   1      46.267  26.244  28.395  1.00  0.00     0.167 HD
ATOM     57  C   UNL A   1      40.622  30.253  30.258  1.00  0.00     0.034 A 
ATOM     58  C   UNL A   1      47.258  28.939  28.097  1.00  0.00     0.034 A 
ATOM     59  C   UNL A   1      41.821  31.081  30.427  1.00  0.00     0.049 A 
ATOM     60  C   UNL A   1      46.754  30.361  27.921  1.00  0.00     0.074 A 
ATOM     61  C   UNL A   1      42.674  31.356  31.485  1.00  0.00     0.029 A 
ATOM     62  N   UNL A   1      42.444  31.597  29.302  1.00  0.00    -0.354 N 
ATOM     63  N   UNL A   1      45.788  30.897  28.618  1.00  0.00    -0.248 NA
ATOM     64  C   UNL A   1      47.239  31.260  26.876  1.00  0.00     0.031 C 
ATOM     65  C   UNL A   1      43.802  32.066  30.980  1.00  0.00     0.029 A 
ATOM     66  C   UNL A   1      43.630  32.232  29.619  1.00  0.00     0.049 A 
ATOM     67  H   UNL A   1      42.084  31.522  28.388  1.00  0.00     0.167 HD
ATOM     68  C   UNL A   1      45.459  32.122  28.088  1.00  0.00     0.074 A 
ATOM     69  C   UNL A   1      46.406  32.307  27.003  1.00  0.00     0.031 C 
ATOM     70  C   UNL A   1      44.399  32.856  28.549  1.00  0.00     0.034 A 
BRANCH  57  71
ATOM     71  C   UNL A   1      39.342  30.486  31.033  1.00  0.00     0.023 A 
ATOM     72  C   UNL A   1      38.452  31.496  30.612  1.00  0.00     0.031 A 
ATOM     73  C   UNL A   1      38.952  29.791  32.194  1.00  0.00     0.131 A 
ATOM     74  C   UNL A   1      37.332  31.858  31.381  1.00  0.00     0.055 A 
ATOM     75  C   UNL A   1      37.880  30.195  33.000  1.00  0.00     0.041 A 
ATOM     76  F   UNL A   1      39.552  28.652  32.567  1.00  0.00    -0.206 F 
ATOM     77  C   UNL A   1      37.070  31.248  32.604  1.00  0.00     0.022 A 
BRANCH  74  78
ATOM     78  S   UNL A   1      36.209  33.135  30.754  1.00  0.00     0.124 S 
ATOM     79  O   UNL A   1      36.677  34.330  31.447  1.00  0.00    -0.237 OA
ATOM     80  O   UNL A   1      36.456  33.082  29.318  1.00  0.00    -0.237 OA
ATOM     81  O   UNL A   1      34.889  32.659  31.169  1.00  0.00    -0.744 OA
ENDBRANCH  74  78
ENDBRANCH  57  71
BRANCH  58  82
ATOM     82  C   UNL A   1      47.775  28.045  27.016  1.00  0.00     0.023 A 
ATOM     83  C   UNL A   1      49.031  27.435  27.239  1.00  0.00     0.031 A 
ATOM     84  C   UNL A   1      46.940  27.482  26.046  1.00  0.00     0.131 A 
ATOM     85  C   UNL A   1      49.337  26.204  26.641  1.00  0.00     0.055 A 
ATOM     86  C   UNL A   1      47.286  26.294  25.388  1.00  0.00     0.041 A 
ATOM     87  F   UNL A   1      45.721  27.991  25.811  1.00  0.00    -0.206 F 
ATOM     88  C   UNL A   1      48.463  25.622  25.722  1.00  0.00     0.022 A 
BRANCH  85  89
ATOM     89  S   UNL A   1      50.726  25.230  27.296  1.00  0.00     0.124 S 
ATOM     90  O   UNL A   1      51.461  24.888  26.085  1.00  0.00    -0.237 OA
ATOM     91  O   UNL A   1      51.389  26.172  28.196  1.00  0.00    -0.237 OA
ATOM     92  O   UNL A   1      50.070  24.115  27.976  1.00  0.00    -0.744 OA
ENDBRANCH  85  89
ENDBRANCH  58  82
BRANCH  70  93
ATOM     93  C   UNL A   1      43.956  34.203  28.005  1.00  0.00     0.023 A 
ATOM     94  C   UNL A   1      43.975  35.382  28.767  1.00  0.00     0.031 A 
ATOM     95  C   UNL A   1      43.426  34.334  26.697  1.00  0.00     0.131 A 
ATOM     96  C   UNL A   1      43.581  36.617  28.209  1.00  0.00     0.055 A 
ATOM     97  C   UNL A   1      42.972  35.546  26.168  1.00  0.00     0.041 A 
ATOM     98  F   UNL A   1      43.343  33.297  25.853  1.00  0.00    -0.206 F 
ATOM     99  C   UNL A   1      43.066  36.704  26.919  1.00  0.00     0.022 A 
BRANCH  96 100
ATOM    100  S   UNL A   1      43.805  38.125  29.188  1.00  0.00     0.124 S 
ATOM    101  O   UNL A   1      42.856  39.046  28.571  1.00  0.00    -0.237 OA
ATOM    102  O   UNL A   1      43.460  37.664  30.530  1.00  0.00    -0.237 OA
ATOM    103  O   UNL A   1      45.214  38.460  28.992  1.00  0.00    -0.744 OA
ENDBRANCH  96 100
ENDBRANCH  70  93
ENDBRANCH  44  45
ENDBRANCH  36  39
ENDBRANCH  34  35
ENDBRANCH  33  34
ENDBRANCH  32  33
ENDBRANCH   1  32
TORSDOF 22
ENDMDL
MODEL 2
REMARK VINA RESULT:     -10.3      8.405     14.701
REMARK SMILES Cc1ccc([C@@H](C(=O)N(CC(=O)NCCCCCCNC(=O)c2ccc(-c3c4nc(c(-c5cc(S(=O)(=O)[O-])ccc5F)c5ccc([nH]5)c(-c5cc(S(=O)(=O)[O-])ccc5F)c5nc(c(-c6cc(S(=O)(=O)[O-])ccc6F)c6ccc3[nH]6)C=C5)C=C4)cc2)C2CC[NH+](C)CC2)[NH+](C)C)cc1
REMARK SMILES IDX 16 1 15 2 14 3 13 4 11 5 12 6 10 8 9 9 7 10 8 11 6 12 5 13
REMARK SMILES IDX 1 14 2 15 3 16 97 17 4 18 96 19 93 20 94 21 95 22 86 24
REMARK SMILES IDX 87 25 92 26 88 27 91 28 89 29 90 30 17 32 18 33 19 34 20 35
REMARK SMILES IDX 21 36 22 38 23 39 24 40 85 41 25 42 84 43 26 44 27 45 28 46
REMARK SMILES IDX 78 47 29 48 83 49 77 50 79 51 30 52 82 53 76 54 75 55 31 57
REMARK SMILES IDX 63 58 43 59 62 60 44 61 47 62 61 63 80 64 45 65 46 66 60 68
REMARK SMILES IDX 81 69 48 70 32 71 33 72 41 73 34 74 40 75 42 76 39 77 35 78
REMARK SMILES IDX 36 79 37 80 38 81 64 82 65 83 73 84 66 85 72 86 74 87 71 88
REMARK SMILES IDX 67 89 68 90 69 91 70 92 49 93 50 94 58 95 51 96 57 97 59 98
REMARK SMILES IDX 56 99 52 100 53 101 54 102 55 103
REMARK H PARENT 13 7 93 23 89 31 20 37 79 56 47 67
REMARK Flexibility Score: inf
ROOT
ATOM      1  C   UNL A   1      51.614  20.737  33.254  1.00  0.00     0.002 C 
ENDROOT
BRANCH   1   2
ATOM      2  C   UNL A   1      51.971  20.139  34.621  1.00  0.00     0.021 C 
BRANCH   2   3
ATOM      3  C   UNL A   1      50.819  19.502  35.389  1.00  0.00     0.116 C 
BRANCH   3   4
ATOM      4  N   UNL A   1      49.524  19.594  34.756  1.00  0.00    -0.355 N 
ATOM      5  C   UNL A   1      48.480  20.397  35.117  1.00  0.00     0.239 C 
ATOM      6  O   UNL A   1      47.635  20.683  34.262  1.00  0.00    -0.273 OA
ATOM      7  H   UNL A   1      49.377  19.010  33.976  1.00  0.00     0.163 HD
BRANCH   5   8
ATOM      8  C   UNL A   1      48.399  21.044  36.519  1.00  0.00     0.219 C 
BRANCH   8   9
ATOM      9  N   UNL A   1      47.191  20.838  37.330  1.00  0.00    -0.324 N 
BRANCH   9  10
ATOM     10  C   UNL A   1      46.816  19.562  37.829  1.00  0.00     0.286 C 
ATOM     11  O   UNL A   1      45.772  19.043  37.420  1.00  0.00    -0.267 OA
BRANCH  10  12
ATOM     12  C   UNL A   1      47.678  18.885  38.985  1.00  0.00     0.305 C 
BRANCH  12  13
ATOM     13  C   UNL A   1      46.862  18.373  40.183  1.00  0.00     0.019 A 
ATOM     14  C   UNL A   1      43.968  16.622  42.868  1.00  0.00     0.044 C 
ATOM     15  C   UNL A   1      45.083  17.237  42.073  1.00  0.00    -0.051 A 
ATOM     16  C   UNL A   1      45.095  18.613  41.841  1.00  0.00     0.004 A 
ATOM     17  C   UNL A   1      46.045  16.445  41.448  1.00  0.00     0.004 A 
ATOM     18  C   UNL A   1      45.943  19.169  40.877  1.00  0.00     0.011 A 
ATOM     19  C   UNL A   1      46.959  17.018  40.560  1.00  0.00     0.011 A 
ENDBRANCH  12  13
BRANCH  12  20
ATOM     20  N   UNL A   1      48.889  19.680  39.394  1.00  0.00    -0.326 N 
ATOM     21  C   UNL A   1      48.889  19.965  40.829  1.00  0.00     0.333 C 
ATOM     22  C   UNL A   1      50.182  19.112  39.005  1.00  0.00     0.333 C 
ATOM     23  H   UNL A   1      48.795  20.546  38.863  1.00  0.00     0.348 HD
ENDBRANCH  12  20
ENDBRANCH  10  12
ENDBRANCH   9  10
BRANCH   9  24
ATOM     24  C   UNL A   1      46.186  21.947  37.449  1.00  0.00     0.097 C 
ATOM     25  C   UNL A   1      46.458  23.290  36.734  1.00  0.00     0.086 C 
ATOM     26  C   UNL A   1      45.916  22.302  38.923  1.00  0.00     0.086 C 
ATOM     27  C   UNL A   1      47.546  24.147  37.387  1.00  0.00     0.264 C 
ATOM     28  C   UNL A   1      47.086  23.071  39.533  1.00  0.00     0.264 C 
ATOM     29  N   UNL A   1      47.347  24.331  38.829  1.00  0.00    -0.337 N 
ATOM     30  C   UNL A   1      48.502  25.014  39.418  1.00  0.00     0.332 C 
ATOM     31  H   UNL A   1      46.515  24.911  38.940  1.00  0.00     0.347 HD
ENDBRANCH   9  24
ENDBRANCH   8   9
ENDBRANCH   5   8
ENDBRANCH   3   4
ENDBRANCH   2   3
ENDBRANCH   1   2
BRANCH   1  32
ATOM     32  C   UNL A   1      52.253  22.089  32.894  1.00  0.00     0.002 C 
BRANCH  32  33
ATOM     33  C   UNL A   1      51.345  23.310  32.994  1.00  0.00     0.021 C 
BRANCH  33  34
ATOM     34  C   UNL A   1      51.836  24.421  33.914  1.00  0.00     0.116 C 
BRANCH  34  35
ATOM     35  N   UNL A   1      53.242  24.763  33.710  1.00  0.00    -0.352 N 
ATOM     36  C   UNL A   1      53.809  25.564  32.728  1.00  0.00     0.251 C 
ATOM     37  H   UNL A   1      53.873  24.372  34.358  1.00  0.00     0.163 HD
ATOM     38  O   UNL A   1      55.006  25.759  32.649  1.00  0.00    -0.269 OA
BRANCH  36  39
ATOM     39  C   UNL A   1      52.881  26.311  31.848  1.00  0.00     0.039 A 
ATOM     40  C   UNL A   1      52.220  27.401  32.422  1.00  0.00     0.014 A 
ATOM     41  C   UNL A   1      52.437  25.747  30.656  1.00  0.00     0.014 A 
ATOM     42  C   UNL A   1      50.961  27.750  31.951  1.00  0.00     0.010 A 
ATOM     43  C   UNL A   1      51.146  26.028  30.248  1.00  0.00     0.010 A 
ATOM     44  C   UNL A   1      50.382  26.973  30.946  1.00  0.00    -0.014 A 
BRANCH  44  45
ATOM     45  C   UNL A   1      48.945  26.975  30.691  1.00  0.00     0.031 A 
ATOM     46  C   UNL A   1      48.030  26.161  31.510  1.00  0.00     0.074 A 
ATOM     47  C   UNL A   1      48.426  27.737  29.701  1.00  0.00     0.049 A 
ATOM     48  N   UNL A   1      46.895  25.710  31.090  1.00  0.00    -0.248 NA
ATOM     49  C   UNL A   1      48.346  25.750  32.869  1.00  0.00     0.031 C 
ATOM     50  C   UNL A   1      47.016  28.022  29.449  1.00  0.00     0.029 A 
ATOM     51  N   UNL A   1      49.082  28.195  28.560  1.00  0.00    -0.354 N 
ATOM     52  C   UNL A   1      46.210  25.231  32.179  1.00  0.00     0.074 A 
ATOM     53  C   UNL A   1      47.186  25.207  33.246  1.00  0.00     0.031 C 
ATOM     54  C   UNL A   1      46.865  28.338  28.154  1.00  0.00     0.029 A 
ATOM     55  C   UNL A   1      48.148  28.150  27.505  1.00  0.00     0.049 A 
ATOM     56  H   UNL A   1      50.019  28.491  28.500  1.00  0.00     0.167 HD
ATOM     57  C   UNL A   1      44.862  25.039  32.093  1.00  0.00     0.034 A 
ATOM     58  C   UNL A   1      48.381  27.396  26.391  1.00  0.00     0.034 A 
ATOM     59  C   UNL A   1      44.345  25.322  30.750  1.00  0.00     0.049 A 
ATOM     60  C   UNL A   1      47.351  26.304  26.153  1.00  0.00     0.074 A 
ATOM     61  C   UNL A   1      43.603  26.351  30.189  1.00  0.00     0.029 A 
ATOM     62  N   UNL A   1      44.796  24.563  29.682  1.00  0.00    -0.354 N 
ATOM     63  N   UNL A   1      46.336  26.058  26.936  1.00  0.00    -0.248 NA
ATOM     64  C   UNL A   1      47.444  25.340  25.058  1.00  0.00     0.031 C 
ATOM     65  C   UNL A   1      43.597  26.180  28.774  1.00  0.00     0.029 A 
ATOM     66  C   UNL A   1      44.325  25.044  28.476  1.00  0.00     0.049 A 
ATOM     67  H   UNL A   1      45.381  23.776  29.773  1.00  0.00     0.167 HD
ATOM     68  C   UNL A   1      45.712  24.900  26.537  1.00  0.00     0.074 A 
ATOM     69  C   UNL A   1      46.440  24.495  25.348  1.00  0.00     0.031 C 
ATOM     70  C   UNL A   1      44.686  24.340  27.251  1.00  0.00     0.034 A 
BRANCH  57  71
ATOM     71  C   UNL A   1      43.968  24.849  33.300  1.00  0.00     0.023 A 
ATOM     72  C   UNL A   1      43.364  25.975  33.898  1.00  0.00     0.031 A 
ATOM     73  C   UNL A   1      43.695  23.619  33.928  1.00  0.00     0.131 A 
ATOM     74  C   UNL A   1      42.656  25.874  35.109  1.00  0.00     0.055 A 
ATOM     75  C   UNL A   1      43.053  23.523  35.170  1.00  0.00     0.041 A 
ATOM     76  F   UNL A   1      43.981  22.450  33.340  1.00  0.00    -0.206 F 
ATOM     77  C   UNL A   1      42.543  24.660  35.778  1.00  0.00     0.022 A 
BRANCH  74  78
ATOM     78  S   UNL A   1      41.871  27.357  35.795  1.00  0.00     0.124 S 
ATOM     79  O   UNL A   1      41.130  27.876  34.650  1.00  0.00    -0.237 OA
ATOM     80  O   UNL A   1      41.073  26.805  36.885  1.00  0.00    -0.237 OA
ATOM     81  O   UNL A   1      43.006  28.176  36.218  1.00  0.00    -0.744 OA
ENDBRANCH  74  78
ENDBRANCH  57  71
BRANCH  58  82
ATOM     82  C   UNL A   1      49.833  27.331  26.043  1.00  0.00     0.023 A 
ATOM     83  C   UNL A   1      50.419  28.509  25.526  1.00  0.00     0.031 A 
ATOM     84  C   UNL A   1      50.687  26.355  26.569  1.00  0.00     0.131 A 
ATOM     85  C   UNL A   1      51.785  28.761  25.710  1.00  0.00     0.055 A 
ATOM     86  C   UNL A   1      52.067  26.577  26.676  1.00  0.00     0.041 A 
ATOM     87  F   UNL A   1      50.194  25.230  27.108  1.00  0.00    -0.206 F 
ATOM     88  C   UNL A   1      52.613  27.804  26.295  1.00  0.00     0.022 A 
BRANCH  85  89
ATOM     89  S   UNL A   1      52.407  30.453  25.463  1.00  0.00     0.124 S 
ATOM     90  O   UNL A   1      53.851  30.257  25.492  1.00  0.00    -0.237 OA
ATOM     91  O   UNL A   1      51.842  30.822  24.166  1.00  0.00    -0.237 OA
ATOM     92  O   UNL A   1      51.845  31.191  26.593  1.00  0.00    -0.744 OA
ENDBRANCH  85  89
ENDBRANCH  58  82
BRANCH  70  93
ATOM     93  C   UNL A   1      43.961  23.056  26.892  1.00  0.00     0.023 A 
ATOM     94  C   UNL A   1      44.525  22.054  26.086  1.00  0.00     0.031 A 
ATOM     95  C   UNL A   1      42.623  22.822  27.301  1.00  0.00     0.131 A 
ATOM     96  C   UNL A   1      43.823  20.864  25.803  1.00  0.00     0.055 A 
ATOM     97  C   UNL A   1      41.904  21.672  26.963  1.00  0.00     0.041 A 
ATOM     98  F   UNL A   1      41.952  23.688  28.073  1.00  0.00    -0.206 F 
ATOM     99  C   UNL A   1      42.510  20.673  26.225  1.00  0.00     0.022 A 
BRANCH  96 100
ATOM    100  S   UNL A   1      44.679  19.539  24.912  1.00  0.00     0.124 S 
ATOM    101  O   UNL A   1      44.335  19.818  23.522  1.00  0.00    -0.237 OA
ATOM    102  O   UNL A   1      46.071  19.780  25.283  1.00  0.00    -0.237 OA
ATOM    103  O   UNL A   1      44.095  18.317  25.464  1.00  0.00    -0.744 OA
ENDBRANCH  96 100
ENDBRANCH  70  93
ENDBRANCH  44  45
ENDBRANCH  36  39
ENDBRANCH  34  35
ENDBRANCH  33  34
ENDBRANCH  32  33
ENDBRANCH   1  32
TORSDOF 22
ENDMDL
MODEL 3
REMARK VINA RESULT:     -10.2      8.440     16.626
REMARK SMILES Cc1ccc([C@@H](C(=O)N(CC(=O)NCCCCCCNC(=O)c2ccc(-c3c4nc(c(-c5cc(S(=O)(=O)[O-])ccc5F)c5ccc([nH]5)c(-c5cc(S(=O)(=O)[O-])ccc5F)c5nc(c(-c6cc(S(=O)(=O)[O-])ccc6F)c6ccc3[nH]6)C=C5)C=C4)cc2)C2CC[NH+](C)CC2)[NH+](C)C)cc1
REMARK SMILES IDX 16 1 15 2 14 3 13 4 11 5 12 6 10 8 9 9 7 10 8 11 6 12 5 13
REMARK SMILES IDX 1 14 2 15 3 16 97 17 4 18 96 19 93 20 94 21 95 22 86 24
REMARK SMILES IDX 87 25 92 26 88 27 91 28 89 29 90 30 17 32 18 33 19 34 20 35
REMARK SMILES IDX 21 36 22 38 23 39 24 40 85 41 25 42 84 43 26 44 27 45 28 46
REMARK SMILES IDX 78 47 29 48 83 49 77 50 79 51 30 52 82 53 76 54 75 55 31 57
REMARK SMILES IDX 63 58 43 59 62 60 44 61 47 62 61 63 80 64 45 65 46 66 60 68
REMARK SMILES IDX 81 69 48 70 32 71 33 72 41 73 34 74 40 75 42 76 39 77 35 78
REMARK SMILES IDX 36 79 37 80 38 81 64 82 65 83 73 84 66 85 72 86 74 87 71 88
REMARK SMILES IDX 67 89 68 90 69 91 70 92 49 93 50 94 58 95 51 96 57 97 59 98
REMARK SMILES IDX 56 99 52 100 53 101 54 102 55 103
REMARK H PARENT 13 7 93 23 89 31 20 37 79 56 47 67
REMARK Flexibility Score: inf
ROOT
ATOM      1  C   UNL A   1      42.316  42.526  21.595  1.00  0.00     0.002 C 
ENDROOT
BRANCH   1   2
ATOM      2  C   UNL A   1      41.830  43.308  20.369  1.00  0.00     0.021 C 
BRANCH   2   3
ATOM      3  C   UNL A   1      42.745  43.270  19.151  1.00  0.00     0.116 C 
BRANCH   3   4
ATOM      4  N   UNL A   1      42.911  44.527  18.459  1.00  0.00    -0.355 N 
ATOM      5  C   UNL A   1      43.965  45.392  18.552  1.00  0.00     0.239 C 
ATOM      6  O   UNL A   1      44.171  46.171  17.616  1.00  0.00    -0.273 OA
ATOM      7  H   UNL A   1      42.182  44.790  17.851  1.00  0.00     0.163 HD
BRANCH   5   8
ATOM      8  C   UNL A   1      44.960  45.336  19.734  1.00  0.00     0.219 C 
BRANCH   8   9
ATOM      9  N   UNL A   1      46.304  45.903  19.562  1.00  0.00    -0.324 N 
BRANCH   9  10
ATOM     10  C   UNL A   1      47.356  45.191  18.927  1.00  0.00     0.286 C 
ATOM     11  O   UNL A   1      47.399  45.163  17.692  1.00  0.00    -0.267 OA
BRANCH  10  12
ATOM     12  C   UNL A   1      48.381  44.350  19.809  1.00  0.00     0.305 C 
BRANCH  12  13
ATOM     13  C   UNL A   1      47.735  43.500  20.916  1.00  0.00     0.019 A 
ATOM     14  C   UNL A   1      46.830  40.994  24.315  1.00  0.00     0.044 C 
ATOM     15  C   UNL A   1      46.973  41.903  23.129  1.00  0.00    -0.051 A 
ATOM     16  C   UNL A   1      47.010  41.367  21.841  1.00  0.00     0.004 A 
ATOM     17  C   UNL A   1      47.199  43.269  23.292  1.00  0.00     0.004 A 
ATOM     18  C   UNL A   1      47.428  42.144  20.754  1.00  0.00     0.011 A 
ATOM     19  C   UNL A   1      47.519  44.066  22.189  1.00  0.00     0.011 A 
ENDBRANCH  12  13
BRANCH  12  20
ATOM     20  N   UNL A   1      49.568  45.139  20.291  1.00  0.00    -0.326 N 
ATOM     21  C   UNL A   1      50.489  44.310  21.068  1.00  0.00     0.333 C 
ATOM     22  C   UNL A   1      50.312  45.862  19.256  1.00  0.00     0.333 C 
ATOM     23  H   UNL A   1      49.152  45.856  20.885  1.00  0.00     0.348 HD
ENDBRANCH  12  20
ENDBRANCH  10  12
ENDBRANCH   9  10
BRANCH   9  24
ATOM     24  C   UNL A   1      46.664  47.172  20.278  1.00  0.00     0.097 C 
ATOM     25  C   UNL A   1      45.537  48.058  20.856  1.00  0.00     0.086 C 
ATOM     26  C   UNL A   1      47.512  48.098  19.385  1.00  0.00     0.086 C 
ATOM     27  C   UNL A   1      44.735  48.828  19.804  1.00  0.00     0.264 C 
ATOM     28  C   UNL A   1      46.660  48.754  18.300  1.00  0.00     0.264 C 
ATOM     29  N   UNL A   1      45.581  49.572  18.863  1.00  0.00    -0.337 N 
ATOM     30  C   UNL A   1      44.765  50.146  17.791  1.00  0.00     0.332 C 
ATOM     31  H   UNL A   1      46.023  50.322  19.394  1.00  0.00     0.347 HD
ENDBRANCH   9  24
ENDBRANCH   8   9
ENDBRANCH   5   8
ENDBRANCH   3   4
ENDBRANCH   2   3
ENDBRANCH   1   2
BRANCH   1  32
ATOM     32  C   UNL A   1      43.573  43.053  22.308  1.00  0.00     0.002 C 
BRANCH  32  33
ATOM     33  C   UNL A   1      43.405  43.429  23.776  1.00  0.00     0.021 C 
BRANCH  33  34
ATOM     34  C   UNL A   1      43.395  42.263  24.757  1.00  0.00     0.116 C 
BRANCH  34  35
ATOM     35  N   UNL A   1      42.058  41.729  25.009  1.00  0.00    -0.352 N 
ATOM     36  C   UNL A   1      41.662  40.779  25.941  1.00  0.00     0.251 C 
ATOM     37  H   UNL A   1      41.341  42.092  24.440  1.00  0.00     0.163 HD
ATOM     38  O   UNL A   1      40.513  40.397  26.043  1.00  0.00    -0.269 OA
BRANCH  36  39
ATOM     39  C   UNL A   1      42.674  40.341  26.931  1.00  0.00     0.039 A 
ATOM     40  C   UNL A   1      43.644  39.444  26.474  1.00  0.00     0.014 A 
ATOM     41  C   UNL A   1      42.453  40.532  28.291  1.00  0.00     0.014 A 
ATOM     42  C   UNL A   1      44.200  38.539  27.371  1.00  0.00     0.010 A 
ATOM     43  C   UNL A   1      42.931  39.573  29.165  1.00  0.00     0.010 A 
ATOM     44  C   UNL A   1      43.739  38.532  28.688  1.00  0.00    -0.014 A 
BRANCH  44  45
ATOM     45  C   UNL A   1      43.921  37.384  29.571  1.00  0.00     0.031 A 
ATOM     46  C   UNL A   1      42.936  36.289  29.602  1.00  0.00     0.074 A 
ATOM     47  C   UNL A   1      45.010  37.300  30.370  1.00  0.00     0.049 A 
ATOM     48  N   UNL A   1      42.732  35.533  30.628  1.00  0.00    -0.248 NA
ATOM     49  C   UNL A   1      42.062  35.986  28.479  1.00  0.00     0.031 C 
ATOM     50  C   UNL A   1      45.455  36.144  31.142  1.00  0.00     0.029 A 
ATOM     51  N   UNL A   1      45.790  38.354  30.842  1.00  0.00    -0.354 N 
ATOM     52  C   UNL A   1      41.952  34.479  30.219  1.00  0.00     0.074 A 
ATOM     53  C   UNL A   1      41.498  34.850  28.897  1.00  0.00     0.031 C 
ATOM     54  C   UNL A   1      46.208  36.573  32.167  1.00  0.00     0.029 A 
ATOM     55  C   UNL A   1      46.172  38.023  32.158  1.00  0.00     0.049 A 
ATOM     56  H   UNL A   1      46.028  39.174  30.352  1.00  0.00     0.167 HD
ATOM     57  C   UNL A   1      41.889  33.353  30.986  1.00  0.00     0.034 A 
ATOM     58  C   UNL A   1      45.835  38.823  33.211  1.00  0.00     0.034 A 
ATOM     59  C   UNL A   1      42.651  33.486  32.232  1.00  0.00     0.049 A 
ATOM     60  C   UNL A   1      44.961  38.145  34.252  1.00  0.00     0.074 A 
ATOM     61  C   UNL A   1      43.856  32.979  32.696  1.00  0.00     0.029 A 
ATOM     62  N   UNL A   1      42.279  34.458  33.147  1.00  0.00    -0.354 N 
ATOM     63  N   UNL A   1      44.527  36.917  34.171  1.00  0.00    -0.248 NA
ATOM     64  C   UNL A   1      44.431  38.837  35.427  1.00  0.00     0.031 C 
ATOM     65  C   UNL A   1      44.184  33.644  33.913  1.00  0.00     0.029 A 
ATOM     66  C   UNL A   1      43.175  34.547  34.195  1.00  0.00     0.049 A 
ATOM     67  H   UNL A   1      41.473  35.017  33.060  1.00  0.00     0.167 HD
ATOM     68  C   UNL A   1      43.620  36.677  35.176  1.00  0.00     0.074 A 
ATOM     69  C   UNL A   1      43.604  37.911  35.942  1.00  0.00     0.031 C 
ATOM     70  C   UNL A   1      42.916  35.506  35.260  1.00  0.00     0.034 A 
BRANCH  57  71
ATOM     71  C   UNL A   1      41.353  32.030  30.482  1.00  0.00     0.023 A 
ATOM     72  C   UNL A   1      40.003  31.696  30.716  1.00  0.00     0.031 A 
ATOM     73  C   UNL A   1      42.104  31.048  29.809  1.00  0.00     0.131 A 
ATOM     74  C   UNL A   1      39.496  30.420  30.410  1.00  0.00     0.055 A 
ATOM     75  C   UNL A   1      41.625  29.753  29.568  1.00  0.00     0.041 A 
ATOM     76  F   UNL A   1      43.312  31.316  29.295  1.00  0.00    -0.206 F 
ATOM     77  C   UNL A   1      40.316  29.426  29.886  1.00  0.00     0.022 A 
BRANCH  74  78
ATOM     78  S   UNL A   1      37.739  30.078  30.698  1.00  0.00     0.124 S 
ATOM     79  O   UNL A   1      37.088  30.963  29.738  1.00  0.00    -0.237 OA
ATOM     80  O   UNL A   1      37.655  28.649  30.419  1.00  0.00    -0.237 OA
ATOM     81  O   UNL A   1      37.549  30.444  32.101  1.00  0.00    -0.744 OA
ENDBRANCH  74  78
ENDBRANCH  57  71
BRANCH  58  82
ATOM     82  C   UNL A   1      45.801  40.270  32.835  1.00  0.00     0.023 A 
ATOM     83  C   UNL A   1      44.562  40.784  32.387  1.00  0.00     0.031 A 
ATOM     84  C   UNL A   1      46.763  41.182  33.281  1.00  0.00     0.131 A 
ATOM     85  C   UNL A   1      44.252  42.139  32.566  1.00  0.00     0.055 A 
ATOM     86  C   UNL A   1      46.477  42.551  33.380  1.00  0.00     0.041 A 
ATOM     87  F   UNL A   1      47.945  40.758  33.753  1.00  0.00    -0.206 F 
ATOM     88  C   UNL A   1      45.201  43.027  33.072  1.00  0.00     0.022 A 
BRANCH  85  89
ATOM     89  S   UNL A   1      42.518  42.669  32.420  1.00  0.00     0.124 S 
ATOM     90  O   UNL A   1      42.230  43.154  33.764  1.00  0.00    -0.237 OA
ATOM     91  O   UNL A   1      42.575  43.690  31.375  1.00  0.00    -0.237 OA
ATOM     92  O   UNL A   1      41.820  41.447  32.024  1.00  0.00    -0.744 OA
ENDBRANCH  85  89
ENDBRANCH  58  82
BRANCH  70  93
ATOM     93  C   UNL A   1      41.884  35.173  36.323  1.00  0.00     0.023 A 
ATOM     94  C   UNL A   1      42.079  34.184  37.301  1.00  0.00     0.031 A 
ATOM     95  C   UNL A   1      40.614  35.805  36.345  1.00  0.00     0.131 A 
ATOM     96  C   UNL A   1      41.102  33.930  38.286  1.00  0.00     0.055 A 
ATOM     97  C   UNL A   1      39.621  35.504  37.281  1.00  0.00     0.041 A 
ATOM     98  F   UNL A   1      40.282  36.767  35.474  1.00  0.00    -0.206 F 
ATOM     99  C   UNL A   1      39.867  34.574  38.274  1.00  0.00     0.022 A 
BRANCH  96 100
ATOM    100  S   UNL A   1      41.495  32.773  39.624  1.00  0.00     0.124 S 
ATOM    101  O   UNL A   1      42.270  33.602  40.541  1.00  0.00    -0.237 OA
ATOM    102  O   UNL A   1      40.164  32.388  40.086  1.00  0.00    -0.237 OA
ATOM    103  O   UNL A   1      42.248  31.714  38.956  1.00  0.00    -0.744 OA
ENDBRANCH  96 100
ENDBRANCH  70  93
ENDBRANCH  44  45
ENDBRANCH  36  39
ENDBRANCH  34  35
ENDBRANCH  33  34
ENDBRANCH  32  33
ENDBRANCH   1  32
TORSDOF 22
ENDMDL
