MODEL 1
REMARK VINA RESULT:     -10.3      0.000      0.000
REMARK SMILES Cc1ccc(CNC(=O)NC[C@@H](CC(C)C)C(=O)NCCCCCCNC(=O)c2ccc(-c3c4nc(c(-c5cc(S(=O)(=O)[O-])ccc5F)c5ccc([nH]5)c(-c5cc(S(=O)(=O)[O-])ccc5F)c5nc(c(-c6cc(S(=O)(=O)[O-])ccc6F)c6ccc3[nH]6)C=C5)C=C4)cc2)s1
REMARK SMILES IDX 22 1 21 2 20 3 19 4 17 5 18 6 12 8 11 9 10 10 7 11 8 12 9 14
REMARK SMILES IDX 6 16 5 17 1 18 2 19 3 20 92 21 4 22 13 23 14 24 15 25 16 26
REMARK SMILES IDX 23 27 24 28 25 29 26 30 27 31 28 33 29 34 30 35 91 36 31 37
REMARK SMILES IDX 90 38 32 39 33 40 34 41 84 42 35 43 89 44 83 45 85 46 36 47
REMARK SMILES IDX 88 48 82 49 81 50 37 52 69 53 49 54 68 55 50 56 53 57 67 58
REMARK SMILES IDX 86 59 51 60 52 61 66 63 87 64 54 65 38 66 39 67 47 68 40 69
REMARK SMILES IDX 46 70 48 71 45 72 41 73 42 74 43 75 44 76 70 77 71 78 79 79
REMARK SMILES IDX 72 80 78 81 80 82 77 83 73 84 74 85 75 86 76 87 55 88 56 89
REMARK SMILES IDX 64 90 57 91 63 92 65 93 62 94 58 95 59 96 60 97 61 98
REMARK H PARENT 19 7 7 13 10 15 26 32 85 51 53 62
REMARK Flexibility Score: inf
ROOT
ATOM      1  C   UNL A   1      37.942  22.643  25.807  1.00  0.00     0.002 C 
ENDROOT
BRANCH   1   2
ATOM      2  C   UNL A   1      36.967  23.821  25.753  1.00  0.00     0.021 C 
BRANCH   2   3
ATOM      3  C   UNL A   1      35.600  23.479  25.183  1.00  0.00     0.116 C 
BRANCH   3   4
ATOM      4  N   UNL A   1      34.624  23.149  26.201  1.00  0.00    -0.356 N 
ATOM      5  C   UNL A   1      33.373  23.629  26.422  1.00  0.00     0.224 C 
ATOM      6  O   UNL A   1      32.689  23.035  27.264  1.00  0.00    -0.275 OA
ATOM      7  H   UNL A   1      34.918  22.462  26.842  1.00  0.00     0.163 HD
BRANCH   5   8
ATOM      8  C   UNL A   1      32.786  24.827  25.680  1.00  0.00     0.098 C 
BRANCH   8   9
ATOM      9  C   UNL A   1      32.028  24.458  24.398  1.00  0.00     0.131 C 
BRANCH   9  10
ATOM     10  N   UNL A   1      32.914  24.192  23.276  1.00  0.00    -0.337 N 
ATOM     11  N   UNL A   1      32.458  21.960  22.657  1.00  0.00    -0.333 N 
ATOM     12  C   UNL A   1      32.962  23.172  22.405  1.00  0.00     0.315 C 
ATOM     13  H   UNL A   1      32.285  21.430  21.846  1.00  0.00     0.165 HD
ATOM     14  O   UNL A   1      33.501  23.368  21.314  1.00  0.00    -0.249 OA
ATOM     15  H   UNL A   1      33.600  24.882  23.130  1.00  0.00     0.165 HD
BRANCH  11  16
ATOM     16  C   UNL A   1      32.115  21.268  23.881  1.00  0.00     0.164 C 
BRANCH  16  17
ATOM     17  C   UNL A   1      32.951  20.031  24.047  1.00  0.00     0.024 A 
ATOM     18  C   UNL A   1      34.094  16.288  23.660  1.00  0.00     0.056 C 
ATOM     19  C   UNL A   1      33.874  17.732  23.963  1.00  0.00     0.002 A 
ATOM     20  C   UNL A   1      34.696  18.597  24.653  1.00  0.00     0.015 A 
ATOM     21  S   UNL A   1      32.447  18.508  23.434  1.00  0.00    -0.144 S 
ATOM     22  C   UNL A   1      34.164  19.919  24.702  1.00  0.00     0.017 A 
ENDBRANCH  16  17
ENDBRANCH  11  16
ENDBRANCH   9  10
ENDBRANCH   8   9
BRANCH   8  23
ATOM     23  C   UNL A   1      32.059  25.858  26.582  1.00  0.00     0.018 C 
BRANCH  23  24
ATOM     24  C   UNL A   1      32.301  27.357  26.305  1.00  0.00    -0.017 C 
ATOM     25  C   UNL A   1      31.900  28.234  27.499  1.00  0.00     0.007 C 
ATOM     26  C   UNL A   1      33.774  27.635  25.986  1.00  0.00     0.007 C 
ENDBRANCH  23  24
ENDBRANCH   8  23
ENDBRANCH   5   8
ENDBRANCH   3   4
ENDBRANCH   2   3
ENDBRANCH   1   2
BRANCH   1  27
ATOM     27  C   UNL A   1      37.645  21.479  24.853  1.00  0.00     0.002 C 
BRANCH  27  28
ATOM     28  C   UNL A   1      38.484  20.214  25.050  1.00  0.00     0.021 C 
BRANCH  28  29
ATOM     29  C   UNL A   1      39.333  20.188  26.313  1.00  0.00     0.116 C 
BRANCH  29  30
ATOM     30  N   UNL A   1      40.591  19.492  26.124  1.00  0.00    -0.352 N 
ATOM     31  C   UNL A   1      41.868  19.995  26.127  1.00  0.00     0.251 C 
ATOM     32  H   UNL A   1      40.518  18.522  25.970  1.00  0.00     0.163 HD
ATOM     33  O   UNL A   1      42.802  19.279  25.787  1.00  0.00    -0.269 OA
BRANCH  31  34
ATOM     34  C   UNL A   1      42.101  21.405  26.512  1.00  0.00     0.039 A 
ATOM     35  C   UNL A   1      42.325  21.706  27.857  1.00  0.00     0.014 A 
ATOM     36  C   UNL A   1      42.091  22.427  25.556  1.00  0.00     0.014 A 
ATOM     37  C   UNL A   1      42.579  23.025  28.237  1.00  0.00     0.010 A 
ATOM     38  C   UNL A   1      42.429  23.725  25.925  1.00  0.00     0.010 A 
ATOM     39  C   UNL A   1      42.657  24.042  27.272  1.00  0.00    -0.014 A 
BRANCH  39  40
ATOM     40  C   UNL A   1      42.925  25.452  27.660  1.00  0.00     0.031 A 
ATOM     41  C   UNL A   1      44.319  26.008  27.536  1.00  0.00     0.074 A 
ATOM     42  C   UNL A   1      41.932  26.216  28.153  1.00  0.00     0.049 A 
ATOM     43  N   UNL A   1      44.776  27.186  27.873  1.00  0.00    -0.248 NA
ATOM     44  C   UNL A   1      45.342  25.102  26.990  1.00  0.00     0.031 C 
ATOM     45  C   UNL A   1      40.546  25.781  28.344  1.00  0.00     0.029 A 
ATOM     46  N   UNL A   1      41.931  27.519  28.583  1.00  0.00    -0.354 N 
ATOM     47  C   UNL A   1      46.138  27.161  27.588  1.00  0.00     0.074 A 
ATOM     48  C   UNL A   1      46.442  25.823  27.128  1.00  0.00     0.031 C 
ATOM     49  C   UNL A   1      39.824  26.810  28.817  1.00  0.00     0.029 A 
ATOM     50  C   UNL A   1      40.701  27.960  29.014  1.00  0.00     0.049 A 
ATOM     51  H   UNL A   1      42.736  28.086  28.584  1.00  0.00     0.167 HD
ATOM     52  C   UNL A   1      47.043  28.168  27.671  1.00  0.00     0.034 A 
ATOM     53  C   UNL A   1      40.325  29.153  29.516  1.00  0.00     0.034 A 
ATOM     54  C   UNL A   1      46.717  29.497  28.128  1.00  0.00     0.049 A 
ATOM     55  C   UNL A   1      41.359  30.244  29.647  1.00  0.00     0.074 A 
ATOM     56  C   UNL A   1      47.545  30.602  28.225  1.00  0.00     0.029 A 
ATOM     57  N   UNL A   1      45.463  29.901  28.571  1.00  0.00    -0.354 N 
ATOM     58  N   UNL A   1      42.636  30.216  29.340  1.00  0.00    -0.248 NA
ATOM     59  C   UNL A   1      40.897  31.532  30.179  1.00  0.00     0.031 C 
ATOM     60  C   UNL A   1      46.814  31.648  28.796  1.00  0.00     0.029 A 
ATOM     61  C   UNL A   1      45.504  31.229  28.970  1.00  0.00     0.049 A 
ATOM     62  H   UNL A   1      44.663  29.329  28.599  1.00  0.00     0.167 HD
ATOM     63  C   UNL A   1      43.118  31.497  29.600  1.00  0.00     0.074 A 
ATOM     64  C   UNL A   1      41.992  32.271  30.080  1.00  0.00     0.031 C 
ATOM     65  C   UNL A   1      44.374  31.990  29.449  1.00  0.00     0.034 A 
BRANCH  52  66
ATOM     66  C   UNL A   1      48.470  27.850  27.284  1.00  0.00     0.023 A 
ATOM     67  C   UNL A   1      48.983  28.185  26.018  1.00  0.00     0.031 A 
ATOM     68  C   UNL A   1      49.317  27.166  28.173  1.00  0.00     0.131 A 
ATOM     69  C   UNL A   1      50.264  27.757  25.644  1.00  0.00     0.055 A 
ATOM     70  C   UNL A   1      50.628  26.828  27.830  1.00  0.00     0.041 A 
ATOM     71  F   UNL A   1      48.881  26.797  29.387  1.00  0.00    -0.206 F 
ATOM     72  C   UNL A   1      51.103  27.106  26.551  1.00  0.00     0.022 A 
BRANCH  69  73
ATOM     73  S   UNL A   1      50.752  27.908  23.903  1.00  0.00     0.124 S 
ATOM     74  O   UNL A   1      49.469  27.747  23.224  1.00  0.00    -0.237 OA
ATOM     75  O   UNL A   1      51.338  29.242  23.853  1.00  0.00    -0.237 OA
ATOM     76  O   UNL A   1      51.691  26.805  23.713  1.00  0.00    -0.744 OA
ENDBRANCH  69  73
ENDBRANCH  52  66
BRANCH  53  77
ATOM     77  C   UNL A   1      38.912  29.390  29.933  1.00  0.00     0.023 A 
ATOM     78  C   UNL A   1      38.009  30.048  29.083  1.00  0.00     0.031 A 
ATOM     79  C   UNL A   1      38.455  29.006  31.206  1.00  0.00     0.131 A 
ATOM     80  C   UNL A   1      36.716  30.352  29.535  1.00  0.00     0.055 A 
ATOM     81  C   UNL A   1      37.148  29.255  31.628  1.00  0.00     0.041 A 
ATOM     82  F   UNL A   1      39.275  28.370  32.059  1.00  0.00    -0.206 F 
ATOM     83  C   UNL A   1      36.273  29.947  30.795  1.00  0.00     0.022 A 
BRANCH  80  84
ATOM     84  S   UNL A   1      35.648  31.375  28.484  1.00  0.00     0.124 S 
ATOM     85  O   UNL A   1      34.724  31.938  29.463  1.00  0.00    -0.237 OA
ATOM     86  O   UNL A   1      36.605  32.306  27.895  1.00  0.00    -0.237 OA
ATOM     87  O   UNL A   1      35.063  30.412  27.554  1.00  0.00    -0.744 OA
ENDBRANCH  80  84
ENDBRANCH  53  77
BRANCH  65  88
ATOM     88  C   UNL A   1      44.579  33.459  29.742  1.00  0.00     0.023 A 
ATOM     89  C   UNL A   1      44.383  34.450  28.765  1.00  0.00     0.031 A 
ATOM     90  C   UNL A   1      44.987  33.868  31.025  1.00  0.00     0.131 A 
ATOM     91  C   UNL A   1      44.657  35.793  29.067  1.00  0.00     0.055 A 
ATOM     92  C   UNL A   1      45.188  35.212  31.340  1.00  0.00     0.041 A 
ATOM     93  F   UNL A   1      45.193  32.966  31.997  1.00  0.00    -0.206 F 
ATOM     94  C   UNL A   1      45.039  36.182  30.353  1.00  0.00     0.022 A 
BRANCH  91  95
ATOM     95  S   UNL A   1      44.613  37.013  27.726  1.00  0.00     0.124 S 
ATOM     96  O   UNL A   1      44.339  38.251  28.452  1.00  0.00    -0.237 OA
ATOM     97  O   UNL A   1      45.949  36.895  27.152  1.00  0.00    -0.237 OA
ATOM     98  O   UNL A   1      43.526  36.544  26.870  1.00  0.00    -0.744 OA
ENDBRANCH  91  95
ENDBRANCH  65  88
ENDBRANCH  39  40
ENDBRANCH  31  34
ENDBRANCH  29  30
ENDBRANCH  28  29
ENDBRANCH  27  28
ENDBRANCH   1  27
TORSDOF 22
ENDMDL
MODEL 2
REMARK VINA RESULT:     -10.2      2.160      8.433
REMARK SMILES Cc1ccc(CNC(=O)NC[C@@H](CC(C)C)C(=O)NCCCCCCNC(=O)c2ccc(-c3c4nc(c(-c5cc(S(=O)(=O)[O-])ccc5F)c5ccc([nH]5)c(-c5cc(S(=O)(=O)[O-])ccc5F)c5nc(c(-c6cc(S(=O)(=O)[O-])ccc6F)c6ccc3[nH]6)C=C5)C=C4)cc2)s1
REMARK SMILES IDX 22 1 21 2 20 3 19 4 17 5 18 6 12 8 11 9 10 10 7 11 8 12 9 14
REMARK SMILES IDX 6 16 5 17 1 18 2 19 3 20 92 21 4 22 13 23 14 24 15 25 16 26
REMARK SMILES IDX 23 27 24 28 25 29 26 30 27 31 28 33 29 34 30 35 91 36 31 37
REMARK SMILES IDX 90 38 32 39 33 40 34 41 84 42 35 43 89 44 83 45 85 46 36 47
REMARK SMILES IDX 88 48 82 49 81 50 37 52 69 53 49 54 68 55 50 56 53 57 67 58
REMARK SMILES IDX 86 59 51 60 52 61 66 63 87 64 54 65 38 66 39 67 47 68 40 69
REMARK SMILES IDX 46 70 48 71 45 72 41 73 42 74 43 75 44 76 70 77 71 78 79 79
REMARK SMILES IDX 72 80 78 81 80 82 77 83 73 84 74 85 75 86 76 87 55 88 56 89
REMARK SMILES IDX 64 90 57 91 63 92 65 93 62 94 58 95 59 96 60 97 61 98
REMARK H PARENT 19 7 7 13 10 15 26 32 85 51 53 62
REMARK Flexibility Score: inf
ROOT
ATOM      1  C   UNL A   1      37.029  22.248  24.455  1.00  0.00     0.002 C 
ENDROOT
BRANCH   1   2
ATOM      2  C   UNL A   1      35.734  22.668  25.155  1.00  0.00     0.021 C 
BRANCH   2   3
ATOM      3  C   UNL A   1      35.165  23.995  24.679  1.00  0.00     0.116 C 
BRANCH   3   4
ATOM      4  N   UNL A   1      34.673  23.949  23.318  1.00  0.00    -0.356 N 
ATOM      5  C   UNL A   1      33.517  23.449  22.807  1.00  0.00     0.224 C 
ATOM      6  O   UNL A   1      33.274  23.708  21.622  1.00  0.00    -0.275 OA
ATOM      7  H   UNL A   1      35.278  24.345  22.650  1.00  0.00     0.163 HD
BRANCH   5   8
ATOM      8  C   UNL A   1      32.524  22.623  23.620  1.00  0.00     0.098 C 
BRANCH   8   9
ATOM      9  C   UNL A   1      31.253  23.386  24.016  1.00  0.00     0.131 C 
BRANCH   9  10
ATOM     10  N   UNL A   1      30.768  23.024  25.339  1.00  0.00    -0.337 N 
ATOM     11  N   UNL A   1      31.126  24.944  26.664  1.00  0.00    -0.333 N 
ATOM     12  C   UNL A   1      30.540  23.763  26.435  1.00  0.00     0.315 C 
ATOM     13  H   UNL A   1      30.645  25.500  27.320  1.00  0.00     0.165 HD
ATOM     14  O   UNL A   1      29.747  23.329  27.272  1.00  0.00    -0.249 OA
ATOM     15  H   UNL A   1      30.572  22.066  25.449  1.00  0.00     0.165 HD
BRANCH  11  16
ATOM     16  C   UNL A   1      32.322  25.569  26.146  1.00  0.00     0.164 C 
BRANCH  16  17
ATOM     17  C   UNL A   1      32.405  27.005  26.580  1.00  0.00     0.024 A 
ATOM     18  C   UNL A   1      33.866  30.627  27.042  1.00  0.00     0.056 C 
ATOM     19  C   UNL A   1      33.107  29.344  27.010  1.00  0.00     0.002 A 
ATOM     20  C   UNL A   1      31.835  29.089  27.474  1.00  0.00     0.015 A 
ATOM     21  S   UNL A   1      33.822  27.945  26.337  1.00  0.00    -0.144 S 
ATOM     22  C   UNL A   1      31.431  27.744  27.227  1.00  0.00     0.017 A 
ENDBRANCH  16  17
ENDBRANCH  11  16
ENDBRANCH   9  10
ENDBRANCH   8   9
BRANCH   8  23
ATOM     23  C   UNL A   1      32.271  21.192  23.076  1.00  0.00     0.018 C 
BRANCH  23  24
ATOM     24  C   UNL A   1      32.367  20.016  24.071  1.00  0.00    -0.017 C 
ATOM     25  C   UNL A   1      32.434  18.661  23.353  1.00  0.00     0.007 C 
ATOM     26  C   UNL A   1      33.604  20.140  24.967  1.00  0.00     0.007 C 
ENDBRANCH  23  24
ENDBRANCH   8  23
ENDBRANCH   5   8
ENDBRANCH   3   4
ENDBRANCH   2   3
ENDBRANCH   1   2
BRANCH   1  27
ATOM     27  C   UNL A   1      38.230  21.976  25.370  1.00  0.00     0.002 C 
BRANCH  27  28
ATOM     28  C   UNL A   1      38.772  20.545  25.364  1.00  0.00     0.021 C 
BRANCH  28  29
ATOM     29  C   UNL A   1      39.683  20.190  26.531  1.00  0.00     0.116 C 
BRANCH  29  30
ATOM     30  N   UNL A   1      40.768  19.309  26.143  1.00  0.00    -0.352 N 
ATOM     31  C   UNL A   1      42.085  19.610  25.906  1.00  0.00     0.251 C 
ATOM     32  H   UNL A   1      40.524  18.362  26.034  1.00  0.00     0.163 HD
ATOM     33  O   UNL A   1      42.825  18.759  25.428  1.00  0.00    -0.269 OA
BRANCH  31  34
ATOM     34  C   UNL A   1      42.593  20.970  26.201  1.00  0.00     0.039 A 
ATOM     35  C   UNL A   1      42.734  21.877  25.149  1.00  0.00     0.014 A 
ATOM     36  C   UNL A   1      42.935  21.347  27.504  1.00  0.00     0.014 A 
ATOM     37  C   UNL A   1      43.180  23.174  25.410  1.00  0.00     0.010 A 
ATOM     38  C   UNL A   1      43.296  22.663  27.773  1.00  0.00     0.010 A 
ATOM     39  C   UNL A   1      43.442  23.586  26.726  1.00  0.00    -0.014 A 
BRANCH  39  40
ATOM     40  C   UNL A   1      43.918  24.963  27.020  1.00  0.00     0.031 A 
ATOM     41  C   UNL A   1      42.964  25.975  27.596  1.00  0.00     0.074 A 
ATOM     42  C   UNL A   1      45.189  25.311  26.741  1.00  0.00     0.049 A 
ATOM     43  N   UNL A   1      43.160  27.239  27.870  1.00  0.00    -0.248 NA
ATOM     44  C   UNL A   1      41.596  25.509  27.870  1.00  0.00     0.031 C 
ATOM     45  C   UNL A   1      46.199  24.424  26.157  1.00  0.00     0.029 A 
ATOM     46  N   UNL A   1      45.851  26.501  26.908  1.00  0.00    -0.354 N 
ATOM     47  C   UNL A   1      41.942  27.720  28.338  1.00  0.00     0.074 A 
ATOM     48  C   UNL A   1      40.995  26.630  28.233  1.00  0.00     0.031 C 
ATOM     49  C   UNL A   1      47.360  25.091  26.051  1.00  0.00     0.029 A 
ATOM     50  C   UNL A   1      47.166  26.464  26.507  1.00  0.00     0.049 A 
ATOM     51  H   UNL A   1      45.424  27.307  27.280  1.00  0.00     0.167 HD
ATOM     52  C   UNL A   1      41.646  28.945  28.840  1.00  0.00     0.034 A 
ATOM     53  C   UNL A   1      48.107  27.429  26.503  1.00  0.00     0.034 A 
ATOM     54  C   UNL A   1      42.606  30.018  28.941  1.00  0.00     0.049 A 
ATOM     55  C   UNL A   1      47.744  28.800  27.018  1.00  0.00     0.074 A 
ATOM     56  C   UNL A   1      42.428  31.289  29.458  1.00  0.00     0.029 A 
ATOM     57  N   UNL A   1      43.925  29.948  28.509  1.00  0.00    -0.354 N 
ATOM     58  N   UNL A   1      46.596  29.230  27.490  1.00  0.00    -0.248 NA
ATOM     59  C   UNL A   1      48.808  29.812  27.012  1.00  0.00     0.031 C 
ATOM     60  C   UNL A   1      43.611  32.009  29.271  1.00  0.00     0.029 A 
ATOM     61  C   UNL A   1      44.562  31.162  28.722  1.00  0.00     0.049 A 
ATOM     62  H   UNL A   1      44.347  29.153  28.111  1.00  0.00     0.167 HD
ATOM     63  C   UNL A   1      46.815  30.549  27.879  1.00  0.00     0.074 A 
ATOM     64  C   UNL A   1      48.205  30.838  27.593  1.00  0.00     0.031 C 
ATOM     65  C   UNL A   1      45.949  31.438  28.430  1.00  0.00     0.034 A 
BRANCH  52  66
ATOM     66  C   UNL A   1      40.222  29.187  29.286  1.00  0.00     0.023 A 
ATOM     67  C   UNL A   1      39.854  29.129  30.642  1.00  0.00     0.031 A 
ATOM     68  C   UNL A   1      39.209  29.436  28.343  1.00  0.00     0.131 A 
ATOM     69  C   UNL A   1      38.504  29.223  31.008  1.00  0.00     0.055 A 
ATOM     70  C   UNL A   1      37.879  29.626  28.723  1.00  0.00     0.041 A 
ATOM     71  F   UNL A   1      39.490  29.480  27.032  1.00  0.00    -0.206 F 
ATOM     72  C   UNL A   1      37.515  29.501  30.061  1.00  0.00     0.022 A 
BRANCH  69  73
ATOM     73  S   UNL A   1      38.039  28.804  32.711  1.00  0.00     0.124 S 
ATOM     74  O   UNL A   1      36.692  29.364  32.794  1.00  0.00    -0.237 OA
ATOM     75  O   UNL A   1      38.128  27.349  32.714  1.00  0.00    -0.237 OA
ATOM     76  O   UNL A   1      39.042  29.494  33.520  1.00  0.00    -0.744 OA
ENDBRANCH  69  73
ENDBRANCH  52  66
BRANCH  53  77
ATOM     77  C   UNL A   1      49.482  27.146  25.998  1.00  0.00     0.023 A 
ATOM     78  C   UNL A   1      49.860  27.501  24.693  1.00  0.00     0.031 A 
ATOM     79  C   UNL A   1      50.426  26.472  26.794  1.00  0.00     0.131 A 
ATOM     80  C   UNL A   1      51.122  27.133  24.203  1.00  0.00     0.055 A 
ATOM     81  C   UNL A   1      51.704  26.163  26.323  1.00  0.00     0.041 A 
ATOM     82  F   UNL A   1      50.120  26.111  28.051  1.00  0.00    -0.206 F 
ATOM     83  C   UNL A   1      52.053  26.481  25.014  1.00  0.00     0.022 A 
BRANCH  80  84
ATOM     84  S   UNL A   1      51.497  27.434  22.454  1.00  0.00     0.124 S 
ATOM     85  O   UNL A   1      51.535  28.891  22.407  1.00  0.00    -0.237 OA
ATOM     86  O   UNL A   1      52.777  26.753  22.297  1.00  0.00    -0.237 OA
ATOM     87  O   UNL A   1      50.373  26.815  21.755  1.00  0.00    -0.744 OA
ENDBRANCH  80  84
ENDBRANCH  53  77
BRANCH  65  88
ATOM     88  C   UNL A   1      46.503  32.789  28.824  1.00  0.00     0.023 A 
ATOM     89  C   UNL A   1      46.437  33.902  27.968  1.00  0.00     0.031 A 
ATOM     90  C   UNL A   1      47.117  32.956  30.079  1.00  0.00     0.131 A 
ATOM     91  C   UNL A   1      47.031  35.114  28.352  1.00  0.00     0.055 A 
ATOM     92  C   UNL A   1      47.642  34.184  30.484  1.00  0.00     0.041 A 
ATOM     93  F   UNL A   1      47.213  31.927  30.936  1.00  0.00    -0.206 F 
ATOM     94  C   UNL A   1      47.615  35.268  29.612  1.00  0.00     0.022 A 
BRANCH  91  95
ATOM     95  S   UNL A   1      47.127  36.459  27.139  1.00  0.00     0.124 S 
ATOM     96  O   UNL A   1      47.341  35.729  25.893  1.00  0.00    -0.237 OA
ATOM     97  O   UNL A   1      45.826  37.104  27.284  1.00  0.00    -0.237 OA
ATOM     98  O   UNL A   1      48.266  37.252  27.595  1.00  0.00    -0.744 OA
ENDBRANCH  91  95
ENDBRANCH  65  88
ENDBRANCH  39  40
ENDBRANCH  31  34
ENDBRANCH  29  30
ENDBRANCH  28  29
ENDBRANCH  27  28
ENDBRANCH   1  27
TORSDOF 22
ENDMDL
MODEL 3
REMARK VINA RESULT:     -10.1      1.662      3.561
REMARK SMILES Cc1ccc(CNC(=O)NC[C@@H](CC(C)C)C(=O)NCCCCCCNC(=O)c2ccc(-c3c4nc(c(-c5cc(S(=O)(=O)[O-])ccc5F)c5ccc([nH]5)c(-c5cc(S(=O)(=O)[O-])ccc5F)c5nc(c(-c6cc(S(=O)(=O)[O-])ccc6F)c6ccc3[nH]6)C=C5)C=C4)cc2)s1
REMARK SMILES IDX 22 1 21 2 20 3 19 4 17 5 18 6 12 8 11 9 10 10 7 11 8 12 9 14
REMARK SMILES IDX 6 16 5 17 1 18 2 19 3 20 92 21 4 22 13 23 14 24 15 25 16 26
REMARK SMILES IDX 23 27 24 28 25 29 26 30 27 31 28 33 29 34 30 35 91 36 31 37
REMARK SMILES IDX 90 38 32 39 33 40 34 41 84 42 35 43 89 44 83 45 85 46 36 47
REMARK SMILES IDX 88 48 82 49 81 50 37 52 69 53 49 54 68 55 50 56 53 57 67 58
REMARK SMILES IDX 86 59 51 60 52 61 66 63 87 64 54 65 38 66 39 67 47 68 40 69
REMARK SMILES IDX 46 70 48 71 45 72 41 73 42 74 43 75 44 76 70 77 71 78 79 79
REMARK SMILES IDX 72 80 78 81 80 82 77 83 73 84 74 85 75 86 76 87 55 88 56 89
REMARK SMILES IDX 64 90 57 91 63 92 65 93 62 94 58 95 59 96 60 97 61 98
REMARK H PARENT 19 7 7 13 10 15 26 32 85 51 53 62
REMARK Flexibility Score: inf
ROOT
ATOM      1  C   UNL A   1      35.317  19.959  24.893  1.00  0.00     0.002 C 
ENDROOT
BRANCH   1   2
ATOM      2  C   UNL A   1      34.038  19.119  24.911  1.00  0.00     0.021 C 
BRANCH   2   3
ATOM      3  C   UNL A   1      32.753  19.931  24.858  1.00  0.00     0.116 C 
BRANCH   3   4
ATOM      4  N   UNL A   1      32.349  20.271  23.510  1.00  0.00    -0.356 N 
ATOM      5  C   UNL A   1      32.225  21.477  22.895  1.00  0.00     0.224 C 
ATOM      6  O   UNL A   1      32.033  21.462  21.674  1.00  0.00    -0.275 OA
ATOM      7  H   UNL A   1      32.126  19.498  22.942  1.00  0.00     0.163 HD
BRANCH   5   8
ATOM      8  C   UNL A   1      32.331  22.811  23.629  1.00  0.00     0.098 C 
BRANCH   8   9
ATOM      9  C   UNL A   1      30.977  23.413  24.030  1.00  0.00     0.131 C 
BRANCH   9  10
ATOM     10  N   UNL A   1      30.626  23.138  25.414  1.00  0.00    -0.337 N 
ATOM     11  N   UNL A   1      30.717  25.236  26.492  1.00  0.00    -0.333 N 
ATOM     12  C   UNL A   1      30.329  23.957  26.434  1.00  0.00     0.315 C 
ATOM     13  H   UNL A   1      30.181  25.780  27.113  1.00  0.00     0.165 HD
ATOM     14  O   UNL A   1      29.663  23.503  27.367  1.00  0.00    -0.249 OA
ATOM     15  H   UNL A   1      30.601  22.181  25.642  1.00  0.00     0.165 HD
BRANCH  11  16
ATOM     16  C   UNL A   1      31.763  25.981  25.828  1.00  0.00     0.164 C 
BRANCH  16  17
ATOM     17  C   UNL A   1      31.187  27.115  25.029  1.00  0.00     0.024 A 
ATOM     18  C   UNL A   1      28.765  29.045  22.604  1.00  0.00     0.056 C 
ATOM     19  C   UNL A   1      29.817  28.543  23.535  1.00  0.00     0.002 A 
ATOM     20  C   UNL A   1      30.826  29.252  24.150  1.00  0.00     0.015 A 
ATOM     21  S   UNL A   1      29.868  26.886  23.953  1.00  0.00    -0.144 S 
ATOM     22  C   UNL A   1      31.614  28.430  25.008  1.00  0.00     0.017 A 
ENDBRANCH  16  17
ENDBRANCH  11  16
ENDBRANCH   9  10
ENDBRANCH   8   9
BRANCH   8  23
ATOM     23  C   UNL A   1      33.408  22.855  24.744  1.00  0.00     0.018 C 
BRANCH  23  24
ATOM     24  C   UNL A   1      34.684  23.683  24.481  1.00  0.00    -0.017 C 
ATOM     25  C   UNL A   1      35.678  23.592  25.647  1.00  0.00     0.007 C 
ATOM     26  C   UNL A   1      35.401  23.216  23.209  1.00  0.00     0.007 C 
ENDBRANCH  23  24
ENDBRANCH   8  23
ENDBRANCH   5   8
ENDBRANCH   3   4
ENDBRANCH   2   3
ENDBRANCH   1   2
BRANCH   1  27
ATOM     27  C   UNL A   1      36.635  19.179  24.976  1.00  0.00     0.002 C 
BRANCH  27  28
ATOM     28  C   UNL A   1      37.903  19.957  24.616  1.00  0.00     0.021 C 
BRANCH  28  29
ATOM     29  C   UNL A   1      38.726  20.444  25.800  1.00  0.00     0.116 C 
BRANCH  29  30
ATOM     30  N   UNL A   1      39.870  19.596  26.071  1.00  0.00    -0.352 N 
ATOM     31  C   UNL A   1      41.149  19.953  26.419  1.00  0.00     0.251 C 
ATOM     32  H   UNL A   1      39.707  18.629  25.993  1.00  0.00     0.163 HD
ATOM     33  O   UNL A   1      42.029  19.102  26.449  1.00  0.00    -0.269 OA
BRANCH  31  34
ATOM     34  C   UNL A   1      41.459  21.368  26.724  1.00  0.00     0.039 A 
ATOM     35  C   UNL A   1      41.744  21.723  28.044  1.00  0.00     0.014 A 
ATOM     36  C   UNL A   1      41.462  22.341  25.719  1.00  0.00     0.014 A 
ATOM     37  C   UNL A   1      42.071  23.046  28.349  1.00  0.00     0.010 A 
ATOM     38  C   UNL A   1      41.872  23.638  26.011  1.00  0.00     0.010 A 
ATOM     39  C   UNL A   1      42.161  24.010  27.332  1.00  0.00    -0.014 A 
BRANCH  39  40
ATOM     40  C   UNL A   1      42.507  25.422  27.640  1.00  0.00     0.031 A 
ATOM     41  C   UNL A   1      43.877  25.946  27.300  1.00  0.00     0.074 A 
ATOM     42  C   UNL A   1      41.609  26.218  28.252  1.00  0.00     0.049 A 
ATOM     43  N   UNL A   1      44.398  27.123  27.536  1.00  0.00    -0.248 NA
ATOM     44  C   UNL A   1      44.794  25.008  26.635  1.00  0.00     0.031 C 
ATOM     45  C   UNL A   1      40.259  25.816  28.654  1.00  0.00     0.029 A 
ATOM     46  N   UNL A   1      41.693  27.531  28.643  1.00  0.00    -0.354 N 
ATOM     47  C   UNL A   1      45.703  27.063  27.056  1.00  0.00     0.074 A 
ATOM     48  C   UNL A   1      45.915  25.709  26.592  1.00  0.00     0.031 C 
ATOM     49  C   UNL A   1      39.631  26.870  29.200  1.00  0.00     0.029 A 
ATOM     50  C   UNL A   1      40.547  28.007  29.236  1.00  0.00     0.049 A 
ATOM     51  H   UNL A   1      42.500  28.081  28.512  1.00  0.00     0.167 HD
ATOM     52  C   UNL A   1      46.628  28.053  26.980  1.00  0.00     0.034 A 
ATOM     53  C   UNL A   1      40.268  29.219  29.756  1.00  0.00     0.034 A 
ATOM     54  C   UNL A   1      46.394  29.398  27.445  1.00  0.00     0.049 A 
ATOM     55  C   UNL A   1      41.329  30.291  29.707  1.00  0.00     0.074 A 
ATOM     56  C   UNL A   1      47.246  30.489  27.392  1.00  0.00     0.029 A 
ATOM     57  N   UNL A   1      45.226  29.838  28.055  1.00  0.00    -0.354 N 
ATOM     58  N   UNL A   1      42.547  30.230  29.218  1.00  0.00    -0.248 NA
ATOM     59  C   UNL A   1      40.971  31.600  30.267  1.00  0.00     0.031 C 
ATOM     60  C   UNL A   1      46.624  31.563  28.035  1.00  0.00     0.029 A 
ATOM     61  C   UNL A   1      45.347  31.174  28.409  1.00  0.00     0.049 A 
ATOM     62  H   UNL A   1      44.429  29.284  28.214  1.00  0.00     0.167 HD
ATOM     63  C   UNL A   1      43.083  31.506  29.372  1.00  0.00     0.074 A 
ATOM     64  C   UNL A   1      42.052  32.314  29.990  1.00  0.00     0.031 C 
ATOM     65  C   UNL A   1      44.311  31.970  29.027  1.00  0.00     0.034 A 
BRANCH  52  66
ATOM     66  C   UNL A   1      47.977  27.697  26.399  1.00  0.00     0.023 A 
ATOM     67  C   UNL A   1      48.237  27.802  25.020  1.00  0.00     0.031 A 
ATOM     68  C   UNL A   1      49.005  27.206  27.223  1.00  0.00     0.131 A 
ATOM     69  C   UNL A   1      49.452  27.337  24.498  1.00  0.00     0.055 A 
ATOM     70  C   UNL A   1      50.249  26.836  26.708  1.00  0.00     0.041 A 
ATOM     71  F   UNL A   1      48.813  27.060  28.543  1.00  0.00    -0.206 F 
ATOM     72  C   UNL A   1      50.473  26.881  25.335  1.00  0.00     0.022 A 
BRANCH  69  73
ATOM     73  S   UNL A   1      49.612  27.172  22.698  1.00  0.00     0.124 S 
ATOM     74  O   UNL A   1      49.230  28.508  22.246  1.00  0.00    -0.237 OA
ATOM     75  O   UNL A   1      51.017  26.819  22.536  1.00  0.00    -0.237 OA
ATOM     76  O   UNL A   1      48.659  26.115  22.364  1.00  0.00    -0.744 OA
ENDBRANCH  69  73
ENDBRANCH  52  66
BRANCH  53  77
ATOM     77  C   UNL A   1      38.936  29.494  30.368  1.00  0.00     0.023 A 
ATOM     78  C   UNL A   1      37.960  30.227  29.674  1.00  0.00     0.031 A 
ATOM     79  C   UNL A   1      38.634  29.072  31.675  1.00  0.00     0.131 A 
ATOM     80  C   UNL A   1      36.754  30.563  30.306  1.00  0.00     0.055 A 
ATOM     81  C   UNL A   1      37.406  29.355  32.278  1.00  0.00     0.041 A 
ATOM     82  F   UNL A   1      39.528  28.365  32.385  1.00  0.00    -0.206 F 
ATOM     83  C   UNL A   1      36.463  30.119  31.598  1.00  0.00     0.022 A 
BRANCH  80  84
ATOM     84  S   UNL A   1      35.605  31.676  29.449  1.00  0.00     0.124 S 
ATOM     85  O   UNL A   1      36.519  32.652  28.867  1.00  0.00    -0.237 OA
ATOM     86  O   UNL A   1      34.949  30.770  28.511  1.00  0.00    -0.237 OA
ATOM     87  O   UNL A   1      34.754  32.179  30.526  1.00  0.00    -0.744 OA
ENDBRANCH  80  84
ENDBRANCH  53  77
BRANCH  65  88
ATOM     88  C   UNL A   1      44.581  33.441  29.248  1.00  0.00     0.023 A 
ATOM     89  C   UNL A   1      44.128  34.426  28.355  1.00  0.00     0.031 A 
ATOM     90  C   UNL A   1      45.317  33.858  30.373  1.00  0.00     0.131 A 
ATOM     91  C   UNL A   1      44.467  35.771  28.567  1.00  0.00     0.055 A 
ATOM     92  C   UNL A   1      45.590  35.204  30.617  1.00  0.00     0.041 A 
ATOM     93  F   UNL A   1      45.779  32.960  31.259  1.00  0.00    -0.206 F 
ATOM     94  C   UNL A   1      45.178  36.168  29.702  1.00  0.00     0.022 A 
BRANCH  91  95
ATOM     95  S   UNL A   1      44.062  36.985  27.282  1.00  0.00     0.124 S 
ATOM     96  O   UNL A   1      43.217  36.204  26.383  1.00  0.00    -0.237 OA
ATOM     97  O   UNL A   1      43.386  38.031  28.042  1.00  0.00    -0.237 OA
ATOM     98  O   UNL A   1      45.366  37.358  26.738  1.00  0.00    -0.744 OA
ENDBRANCH  91  95
ENDBRANCH  65  88
ENDBRANCH  39  40
ENDBRANCH  31  34
ENDBRANCH  29  30
ENDBRANCH  28  29
ENDBRANCH  27  28
ENDBRANCH   1  27
TORSDOF 22
ENDMDL
