MODEL 1
REMARK VINA RESULT:     -12.3      0.000      0.000
REMARK SMILES CC1=C[C@H](C)[C@@H](C(=O)NCCCCCCNC(=O)c2ccc(-c3c4nc(c(-c5cc(S(=O)(=O)[O-])ccc5F)c5ccc([nH]5)c(-c5cc(S(=O)(=O)[O-])ccc5F)c5nc(c(-c6cc(S(=O)(=O)[O-])ccc6F)c6ccc3[nH]6)C=C5)C=C4)cc2)[C@H](C(=O)Nc2cccnc2)C1
REMARK SMILES IDX 13 1 12 2 11 3 10 4 9 5 7 6 8 7 6 9 1 10 2 11 3 12 92 13
REMARK SMILES IDX 4 14 82 15 5 16 83 17 84 18 85 19 86 21 87 22 91 23 88 24
REMARK SMILES IDX 90 25 89 26 14 27 15 28 16 29 17 30 18 32 19 33 20 34 81 35
REMARK SMILES IDX 21 36 80 37 22 38 23 39 24 40 74 41 25 42 79 43 73 44 75 45
REMARK SMILES IDX 26 46 78 47 72 48 71 49 27 51 59 52 39 53 58 54 40 55 43 56
REMARK SMILES IDX 57 57 76 58 41 59 42 60 56 62 77 63 44 64 28 65 29 66 37 67
REMARK SMILES IDX 30 68 36 69 38 70 35 71 31 72 32 73 33 74 34 75 60 76 61 77
REMARK SMILES IDX 69 78 62 79 68 80 70 81 67 82 63 83 64 84 65 85 66 86 45 87
REMARK SMILES IDX 46 88 54 89 47 90 53 91 55 92 52 93 48 94 49 95 50 96 51 97
REMARK H PARENT 9 8 85 20 16 31 75 50 43 61
REMARK Flexibility Score: inf
ROOT
ATOM      1  C   UNL A   1      31.033  28.035  25.299  1.00  0.00     0.002 C 
ENDROOT
BRANCH   1   2
ATOM      2  C   UNL A   1      30.656  26.584  24.968  1.00  0.00     0.002 C 
BRANCH   2   3
ATOM      3  C   UNL A   1      30.760  26.215  23.489  1.00  0.00     0.021 C 
BRANCH   3   4
ATOM      4  C   UNL A   1      30.798  24.715  23.245  1.00  0.00     0.116 C 
BRANCH   4   5
ATOM      5  N   UNL A   1      31.862  24.309  22.351  1.00  0.00    -0.356 N 
ATOM      6  C   UNL A   1      33.053  23.705  22.631  1.00  0.00     0.224 C 
ATOM      7  O   UNL A   1      33.738  23.328  21.676  1.00  0.00    -0.275 OA
ATOM      8  H   UNL A   1      31.702  24.496  21.398  1.00  0.00     0.163 HD
BRANCH   6   9
ATOM      9  C   UNL A   1      33.542  23.477  24.073  1.00  0.00     0.098 C 
ATOM     10  C   UNL A   1      37.512  21.775  25.234  1.00  0.00     0.039 C 
ATOM     11  C   UNL A   1      36.184  22.385  24.881  1.00  0.00    -0.076 C 
ATOM     12  C   UNL A   1      36.000  23.716  24.843  1.00  0.00    -0.024 C 
ATOM     13  C   UNL A   1      35.111  21.397  24.514  1.00  0.00     0.044 C 
ATOM     14  C   UNL A   1      34.750  24.408  24.360  1.00  0.00     0.022 C 
ATOM     15  C   UNL A   1      33.693  21.967  24.376  1.00  0.00     0.096 C 
ATOM     16  C   UNL A   1      34.363  25.620  25.231  1.00  0.00     0.013 C 
BRANCH  15  17
ATOM     17  C   UNL A   1      32.727  21.447  25.466  1.00  0.00     0.228 C 
ATOM     18  O   UNL A   1      32.372  22.205  26.376  1.00  0.00    -0.274 OA
ATOM     19  N   UNL A   1      32.122  20.221  25.407  1.00  0.00    -0.324 N 
ATOM     20  H   UNL A   1      31.264  20.157  25.884  1.00  0.00     0.169 HD
BRANCH  19  21
ATOM     21  C   UNL A   1      32.535  19.044  24.775  1.00  0.00     0.059 A 
ATOM     22  C   UNL A   1      32.533  18.919  23.395  1.00  0.00     0.029 A 
ATOM     23  C   UNL A   1      33.032  17.975  25.514  1.00  0.00     0.137 A 
ATOM     24  C   UNL A   1      32.900  17.712  22.806  1.00  0.00     0.022 A 
ATOM     25  N   UNL A   1      33.396  16.787  24.974  1.00  0.00    -0.263 NA
ATOM     26  C   UNL A   1      33.293  16.673  23.632  1.00  0.00     0.111 A 
ENDBRANCH  19  21
ENDBRANCH  15  17
ENDBRANCH   6   9
ENDBRANCH   4   5
ENDBRANCH   3   4
ENDBRANCH   2   3
ENDBRANCH   1   2
BRANCH   1  27
ATOM     27  C   UNL A   1      32.202  28.618  24.496  1.00  0.00     0.021 C 
BRANCH  27  28
ATOM     28  C   UNL A   1      33.285  29.298  25.331  1.00  0.00     0.116 C 
BRANCH  28  29
ATOM     29  N   UNL A   1      32.860  30.600  25.813  1.00  0.00    -0.352 N 
ATOM     30  C   UNL A   1      33.276  31.322  26.900  1.00  0.00     0.251 C 
ATOM     31  H   UNL A   1      32.161  31.033  25.271  1.00  0.00     0.163 HD
ATOM     32  O   UNL A   1      32.624  32.302  27.250  1.00  0.00    -0.269 OA
BRANCH  30  33
ATOM     33  C   UNL A   1      34.485  30.923  27.652  1.00  0.00     0.039 A 
ATOM     34  C   UNL A   1      35.492  31.872  27.840  1.00  0.00     0.014 A 
ATOM     35  C   UNL A   1      34.655  29.617  28.125  1.00  0.00     0.014 A 
ATOM     36  C   UNL A   1      36.653  31.521  28.530  1.00  0.00     0.010 A 
ATOM     37  C   UNL A   1      35.781  29.291  28.879  1.00  0.00     0.010 A 
ATOM     38  C   UNL A   1      36.798  30.235  29.075  1.00  0.00    -0.014 A 
BRANCH  38  39
ATOM     39  C   UNL A   1      38.018  29.883  29.845  1.00  0.00     0.031 A 
ATOM     40  C   UNL A   1      38.240  30.439  31.224  1.00  0.00     0.074 A 
ATOM     41  C   UNL A   1      38.937  29.077  29.283  1.00  0.00     0.049 A 
ATOM     42  N   UNL A   1      39.224  30.215  32.058  1.00  0.00    -0.248 NA
ATOM     43  C   UNL A   1      37.242  31.399  31.716  1.00  0.00     0.031 C 
ATOM     44  C   UNL A   1      38.864  28.538  27.922  1.00  0.00     0.029 A 
ATOM     45  N   UNL A   1      40.110  28.568  29.778  1.00  0.00    -0.354 N 
ATOM     46  C   UNL A   1      38.965  31.006  33.173  1.00  0.00     0.074 A 
ATOM     47  C   UNL A   1      37.776  31.774  32.868  1.00  0.00     0.031 C 
ATOM     48  C   UNL A   1      39.929  27.752  27.703  1.00  0.00     0.029 A 
ATOM     49  C   UNL A   1      40.776  27.754  28.892  1.00  0.00     0.049 A 
ATOM     50  H   UNL A   1      40.443  28.766  30.683  1.00  0.00     0.167 HD
ATOM     51  C   UNL A   1      39.639  31.065  34.350  1.00  0.00     0.034 A 
ATOM     52  C   UNL A   1      41.937  27.085  29.022  1.00  0.00     0.034 A 
ATOM     53  C   UNL A   1      40.830  30.295  34.626  1.00  0.00     0.049 A 
ATOM     54  C   UNL A   1      42.663  27.146  30.339  1.00  0.00     0.074 A 
ATOM     55  C   UNL A   1      41.570  30.231  35.794  1.00  0.00     0.029 A 
ATOM     56  N   UNL A   1      41.470  29.462  33.712  1.00  0.00    -0.354 N 
ATOM     57  N   UNL A   1      42.363  27.835  31.417  1.00  0.00    -0.248 NA
ATOM     58  C   UNL A   1      43.865  26.317  30.464  1.00  0.00     0.031 C 
ATOM     59  C   UNL A   1      42.689  29.421  35.564  1.00  0.00     0.029 A 
ATOM     60  C   UNL A   1      42.608  28.908  34.279  1.00  0.00     0.049 A 
ATOM     61  H   UNL A   1      41.157  29.291  32.794  1.00  0.00     0.167 HD
ATOM     62  C   UNL A   1      43.335  27.509  32.357  1.00  0.00     0.074 A 
ATOM     63  C   UNL A   1      44.206  26.537  31.725  1.00  0.00     0.031 C 
ATOM     64  C   UNL A   1      43.493  27.967  33.627  1.00  0.00     0.034 A 
BRANCH  51  65
ATOM     65  C   UNL A   1      39.109  32.018  35.401  1.00  0.00     0.023 A 
ATOM     66  C   UNL A   1      39.524  33.361  35.458  1.00  0.00     0.031 A 
ATOM     67  C   UNL A   1      38.225  31.568  36.399  1.00  0.00     0.131 A 
ATOM     68  C   UNL A   1      39.147  34.170  36.540  1.00  0.00     0.055 A 
ATOM     69  C   UNL A   1      37.775  32.407  37.420  1.00  0.00     0.041 A 
ATOM     70  F   UNL A   1      37.804  30.293  36.416  1.00  0.00    -0.206 F 
ATOM     71  C   UNL A   1      38.253  33.711  37.508  1.00  0.00     0.022 A 
BRANCH  68  72
ATOM     72  S   UNL A   1      39.992  35.761  36.765  1.00  0.00     0.124 S 
ATOM     73  O   UNL A   1      39.654  36.452  35.523  1.00  0.00    -0.237 OA
ATOM     74  O   UNL A   1      39.370  36.281  37.976  1.00  0.00    -0.237 OA
ATOM     75  O   UNL A   1      41.399  35.387  36.895  1.00  0.00    -0.744 OA
ENDBRANCH  68  72
ENDBRANCH  51  65
BRANCH  52  76
ATOM     76  C   UNL A   1      42.474  26.303  27.872  1.00  0.00     0.023 A 
ATOM     77  C   UNL A   1      42.074  24.980  27.635  1.00  0.00     0.031 A 
ATOM     78  C   UNL A   1      43.403  26.883  26.989  1.00  0.00     0.131 A 
ATOM     79  C   UNL A   1      42.625  24.267  26.557  1.00  0.00     0.055 A 
ATOM     80  C   UNL A   1      43.912  26.186  25.892  1.00  0.00     0.041 A 
ATOM     81  F   UNL A   1      43.809  28.151  27.166  1.00  0.00    -0.206 F 
ATOM     82  C   UNL A   1      43.530  24.866  25.677  1.00  0.00     0.022 A 
BRANCH  79  83
ATOM     83  S   UNL A   1      42.180  22.521  26.349  1.00  0.00     0.124 S 
ATOM     84  O   UNL A   1      40.731  22.562  26.511  1.00  0.00    -0.237 OA
ATOM     85  O   UNL A   1      42.668  22.243  25.002  1.00  0.00    -0.237 OA
ATOM     86  O   UNL A   1      42.911  21.853  27.424  1.00  0.00    -0.744 OA
ENDBRANCH  79  83
ENDBRANCH  52  76
BRANCH  64  87
ATOM     87  C   UNL A   1      44.651  27.397  34.413  1.00  0.00     0.023 A 
ATOM     88  C   UNL A   1      44.524  26.208  35.156  1.00  0.00     0.031 A 
ATOM     89  C   UNL A   1      45.880  28.077  34.464  1.00  0.00     0.131 A 
ATOM     90  C   UNL A   1      45.577  25.784  35.982  1.00  0.00     0.055 A 
ATOM     91  C   UNL A   1      46.950  27.608  35.228  1.00  0.00     0.041 A 
ATOM     92  F   UNL A   1      46.060  29.218  33.779  1.00  0.00    -0.206 F 
ATOM     93  C   UNL A   1      46.794  26.467  36.009  1.00  0.00     0.022 A 
BRANCH  90  94
ATOM     94  S   UNL A   1      45.280  24.409  37.129  1.00  0.00     0.124 S 
ATOM     95  O   UNL A   1      44.827  23.355  36.226  1.00  0.00    -0.237 OA
ATOM     96  O   UNL A   1      46.596  24.215  37.727  1.00  0.00    -0.237 OA
ATOM     97  O   UNL A   1      44.257  24.933  38.033  1.00  0.00    -0.744 OA
ENDBRANCH  90  94
ENDBRANCH  64  87
ENDBRANCH  38  39
ENDBRANCH  30  33
ENDBRANCH  28  29
ENDBRANCH  27  28
ENDBRANCH   1  27
TORSDOF 18
ENDMDL
MODEL 2
REMARK VINA RESULT:     -12.3      4.405      9.578
REMARK SMILES CC1=C[C@H](C)[C@@H](C(=O)NCCCCCCNC(=O)c2ccc(-c3c4nc(c(-c5cc(S(=O)(=O)[O-])ccc5F)c5ccc([nH]5)c(-c5cc(S(=O)(=O)[O-])ccc5F)c5nc(c(-c6cc(S(=O)(=O)[O-])ccc6F)c6ccc3[nH]6)C=C5)C=C4)cc2)[C@H](C(=O)Nc2cccnc2)C1
REMARK SMILES IDX 13 1 12 2 11 3 10 4 9 5 7 6 8 7 6 9 1 10 2 11 3 12 92 13
REMARK SMILES IDX 4 14 82 15 5 16 83 17 84 18 85 19 86 21 87 22 91 23 88 24
REMARK SMILES IDX 90 25 89 26 14 27 15 28 16 29 17 30 18 32 19 33 20 34 81 35
REMARK SMILES IDX 21 36 80 37 22 38 23 39 24 40 74 41 25 42 79 43 73 44 75 45
REMARK SMILES IDX 26 46 78 47 72 48 71 49 27 51 59 52 39 53 58 54 40 55 43 56
REMARK SMILES IDX 57 57 76 58 41 59 42 60 56 62 77 63 44 64 28 65 29 66 37 67
REMARK SMILES IDX 30 68 36 69 38 70 35 71 31 72 32 73 33 74 34 75 60 76 61 77
REMARK SMILES IDX 69 78 62 79 68 80 70 81 67 82 63 83 64 84 65 85 66 86 45 87
REMARK SMILES IDX 46 88 54 89 47 90 53 91 55 92 52 93 48 94 49 95 50 96 51 97
REMARK H PARENT 9 8 85 20 16 31 75 50 43 61
REMARK Flexibility Score: inf
ROOT
ATOM      1  C   UNL A   1      35.448  21.142  25.365  1.00  0.00     0.002 C 
ENDROOT
BRANCH   1   2
ATOM      2  C   UNL A   1      34.045  20.768  24.865  1.00  0.00     0.002 C 
BRANCH   2   3
ATOM      3  C   UNL A   1      33.431  21.756  23.876  1.00  0.00     0.021 C 
BRANCH   3   4
ATOM      4  C   UNL A   1      32.023  22.188  24.254  1.00  0.00     0.116 C 
BRANCH   4   5
ATOM      5  N   UNL A   1      31.888  22.531  25.654  1.00  0.00    -0.356 N 
ATOM      6  C   UNL A   1      31.822  23.756  26.250  1.00  0.00     0.224 C 
ATOM      7  O   UNL A   1      31.564  23.788  27.457  1.00  0.00    -0.275 OA
ATOM      8  H   UNL A   1      31.835  21.763  26.269  1.00  0.00     0.163 HD
BRANCH   6   9
ATOM      9  C   UNL A   1      32.045  25.064  25.469  1.00  0.00     0.098 C 
ATOM     10  C   UNL A   1      33.164  29.005  27.266  1.00  0.00     0.039 C 
ATOM     11  C   UNL A   1      32.824  27.688  26.624  1.00  0.00    -0.076 C 
ATOM     12  C   UNL A   1      33.770  26.880  26.114  1.00  0.00    -0.024 C 
ATOM     13  C   UNL A   1      31.365  27.324  26.660  1.00  0.00     0.044 C 
ATOM     14  C   UNL A   1      33.534  25.487  25.589  1.00  0.00     0.022 C 
ATOM     15  C   UNL A   1      30.957  26.109  25.816  1.00  0.00     0.096 C 
ATOM     16  C   UNL A   1      34.332  25.189  24.303  1.00  0.00     0.013 C 
BRANCH  15  17
ATOM     17  C   UNL A   1      30.046  26.483  24.623  1.00  0.00     0.228 C 
ATOM     18  O   UNL A   1      28.872  26.094  24.610  1.00  0.00    -0.274 OA
ATOM     19  N   UNL A   1      30.427  27.346  23.632  1.00  0.00    -0.324 N 
ATOM     20  H   UNL A   1      29.687  27.817  23.185  1.00  0.00     0.169 HD
BRANCH  19  21
ATOM     21  C   UNL A   1      31.703  27.660  23.154  1.00  0.00     0.059 A 
ATOM     22  C   UNL A   1      32.381  28.790  23.583  1.00  0.00     0.029 A 
ATOM     23  C   UNL A   1      32.366  26.807  22.280  1.00  0.00     0.137 A 
ATOM     24  C   UNL A   1      33.628  29.098  23.043  1.00  0.00     0.022 A 
ATOM     25  N   UNL A   1      33.577  27.077  21.734  1.00  0.00    -0.263 NA
ATOM     26  C   UNL A   1      34.167  28.233  22.107  1.00  0.00     0.111 A 
ENDBRANCH  19  21
ENDBRANCH  15  17
ENDBRANCH   6   9
ENDBRANCH   4   5
ENDBRANCH   3   4
ENDBRANCH   2   3
ENDBRANCH   1   2
BRANCH   1  27
ATOM     27  C   UNL A   1      35.540  22.441  26.174  1.00  0.00     0.021 C 
BRANCH  27  28
ATOM     28  C   UNL A   1      36.875  23.176  26.068  1.00  0.00     0.116 C 
BRANCH  28  29
ATOM     29  N   UNL A   1      37.999  22.258  26.068  1.00  0.00    -0.352 N 
ATOM     30  C   UNL A   1      39.331  22.488  26.292  1.00  0.00     0.251 C 
ATOM     31  H   UNL A   1      37.768  21.320  25.877  1.00  0.00     0.163 HD
ATOM     32  O   UNL A   1      40.142  21.606  26.022  1.00  0.00    -0.269 OA
BRANCH  30  33
ATOM     33  C   UNL A   1      39.792  23.783  26.837  1.00  0.00     0.039 A 
ATOM     34  C   UNL A   1      39.977  24.846  25.952  1.00  0.00     0.014 A 
ATOM     35  C   UNL A   1      40.089  23.940  28.195  1.00  0.00     0.014 A 
ATOM     36  C   UNL A   1      40.429  26.075  26.433  1.00  0.00     0.010 A 
ATOM     37  C   UNL A   1      40.467  25.190  28.685  1.00  0.00     0.010 A 
ATOM     38  C   UNL A   1      40.656  26.265  27.806  1.00  0.00    -0.014 A 
BRANCH  38  39
ATOM     39  C   UNL A   1      41.094  27.589  28.315  1.00  0.00     0.031 A 
ATOM     40  C   UNL A   1      42.555  27.935  28.391  1.00  0.00     0.074 A 
ATOM     41  C   UNL A   1      40.166  28.471  28.731  1.00  0.00     0.049 A 
ATOM     42  N   UNL A   1      43.123  29.052  28.772  1.00  0.00    -0.248 NA
ATOM     43  C   UNL A   1      43.503  26.875  28.023  1.00  0.00     0.031 C 
ATOM     44  C   UNL A   1      38.723  28.217  28.774  1.00  0.00     0.029 A 
ATOM     45  N   UNL A   1      40.290  29.755  29.196  1.00  0.00    -0.354 N 
ATOM     46  C   UNL A   1      44.494  28.830  28.691  1.00  0.00     0.074 A 
ATOM     47  C   UNL A   1      44.665  27.444  28.303  1.00  0.00     0.031 C 
ATOM     48  C   UNL A   1      38.096  29.318  29.211  1.00  0.00     0.029 A 
ATOM     49  C   UNL A   1      39.089  30.346  29.509  1.00  0.00     0.049 A 
ATOM     50  H   UNL A   1      41.157  30.209  29.296  1.00  0.00     0.167 HD
ATOM     51  C   UNL A   1      45.512  29.705  28.891  1.00  0.00     0.034 A 
ATOM     52  C   UNL A   1      38.818  31.576  29.983  1.00  0.00     0.034 A 
ATOM     53  C   UNL A   1      45.314  31.080  29.288  1.00  0.00     0.049 A 
ATOM     54  C   UNL A   1      39.955  32.541  30.184  1.00  0.00     0.074 A 
ATOM     55  C   UNL A   1      46.260  32.074  29.473  1.00  0.00     0.029 A 
ATOM     56  N   UNL A   1      44.080  31.655  29.578  1.00  0.00    -0.354 N 
ATOM     57  N   UNL A   1      41.244  32.344  30.024  1.00  0.00    -0.248 NA
ATOM     58  C   UNL A   1      39.597  33.900  30.600  1.00  0.00     0.031 C 
ATOM     59  C   UNL A   1      45.609  33.221  29.941  1.00  0.00     0.029 A 
ATOM     60  C   UNL A   1      44.245  32.976  29.970  1.00  0.00     0.049 A 
ATOM     61  H   UNL A   1      43.214  31.191  29.514  1.00  0.00     0.167 HD
ATOM     62  C   UNL A   1      41.852  33.563  30.306  1.00  0.00     0.074 A 
ATOM     63  C   UNL A   1      40.782  34.493  30.612  1.00  0.00     0.031 C 
ATOM     64  C   UNL A   1      43.172  33.886  30.310  1.00  0.00     0.034 A 
BRANCH  51  65
ATOM     65  C   UNL A   1      46.920  29.177  28.712  1.00  0.00     0.023 A 
ATOM     66  C   UNL A   1      47.505  29.051  27.438  1.00  0.00     0.031 A 
ATOM     67  C   UNL A   1      47.669  28.736  29.818  1.00  0.00     0.131 A 
ATOM     68  C   UNL A   1      48.741  28.403  27.291  1.00  0.00     0.055 A 
ATOM     69  C   UNL A   1      48.942  28.181  29.673  1.00  0.00     0.041 A 
ATOM     70  F   UNL A   1      47.163  28.809  31.060  1.00  0.00    -0.206 F 
ATOM     71  C   UNL A   1      49.477  27.991  28.402  1.00  0.00     0.022 A 
BRANCH  68  72
ATOM     72  S   UNL A   1      49.279  27.938  25.621  1.00  0.00     0.124 S 
ATOM     73  O   UNL A   1      49.667  26.542  25.815  1.00  0.00    -0.237 OA
ATOM     74  O   UNL A   1      48.078  28.164  24.827  1.00  0.00    -0.237 OA
ATOM     75  O   UNL A   1      50.390  28.850  25.352  1.00  0.00    -0.744 OA
ENDBRANCH  68  72
ENDBRANCH  51  65
BRANCH  52  76
ATOM     76  C   UNL A   1      37.410  31.957  30.294  1.00  0.00     0.023 A 
ATOM     77  C   UNL A   1      36.547  32.447  29.303  1.00  0.00     0.031 A 
ATOM     78  C   UNL A   1      36.911  31.829  31.603  1.00  0.00     0.131 A 
ATOM     79  C   UNL A   1      35.237  32.822  29.642  1.00  0.00     0.055 A 
ATOM     80  C   UNL A   1      35.593  32.158  31.926  1.00  0.00     0.041 A 
ATOM     81  F   UNL A   1      37.693  31.353  32.586  1.00  0.00    -0.206 F 
ATOM     82  C   UNL A   1      34.750  32.667  30.943  1.00  0.00     0.022 A 
BRANCH  79  83
ATOM     83  S   UNL A   1      34.185  33.565  28.365  1.00  0.00     0.124 S 
ATOM     84  O   UNL A   1      35.174  34.095  27.435  1.00  0.00    -0.237 OA
ATOM     85  O   UNL A   1      33.416  32.416  27.900  1.00  0.00    -0.237 OA
ATOM     86  O   UNL A   1      33.416  34.569  29.099  1.00  0.00    -0.744 OA
ENDBRANCH  79  83
ENDBRANCH  52  76
BRANCH  64  87
ATOM     87  C   UNL A   1      43.517  35.320  30.642  1.00  0.00     0.023 A 
ATOM     88  C   UNL A   1      43.739  35.737  31.968  1.00  0.00     0.031 A 
ATOM     89  C   UNL A   1      43.572  36.292  29.629  1.00  0.00     0.131 A 
ATOM     90  C   UNL A   1      43.920  37.099  32.252  1.00  0.00     0.055 A 
ATOM     91  C   UNL A   1      43.830  37.635  29.910  1.00  0.00     0.041 A 
ATOM     92  F   UNL A   1      43.366  35.955  28.345  1.00  0.00    -0.206 F 
ATOM     93  C   UNL A   1      43.985  38.048  31.230  1.00  0.00     0.022 A 
BRANCH  90  94
ATOM     94  S   UNL A   1      43.926  37.631  33.987  1.00  0.00     0.124 S 
ATOM     95  O   UNL A   1      43.870  36.355  34.694  1.00  0.00    -0.237 OA
ATOM     96  O   UNL A   1      45.187  38.358  34.084  1.00  0.00    -0.237 OA
ATOM     97  O   UNL A   1      42.724  38.455  34.097  1.00  0.00    -0.744 OA
ENDBRANCH  90  94
ENDBRANCH  64  87
ENDBRANCH  38  39
ENDBRANCH  30  33
ENDBRANCH  28  29
ENDBRANCH  27  28
ENDBRANCH   1  27
TORSDOF 18
ENDMDL
MODEL 3
REMARK VINA RESULT:     -12.0      4.701     10.345
REMARK SMILES CC1=C[C@H](C)[C@@H](C(=O)NCCCCCCNC(=O)c2ccc(-c3c4nc(c(-c5cc(S(=O)(=O)[O-])ccc5F)c5ccc([nH]5)c(-c5cc(S(=O)(=O)[O-])ccc5F)c5nc(c(-c6cc(S(=O)(=O)[O-])ccc6F)c6ccc3[nH]6)C=C5)C=C4)cc2)[C@H](C(=O)Nc2cccnc2)C1
REMARK SMILES IDX 13 1 12 2 11 3 10 4 9 5 7 6 8 7 6 9 1 10 2 11 3 12 92 13
REMARK SMILES IDX 4 14 82 15 5 16 83 17 84 18 85 19 86 21 87 22 91 23 88 24
REMARK SMILES IDX 90 25 89 26 14 27 15 28 16 29 17 30 18 32 19 33 20 34 81 35
REMARK SMILES IDX 21 36 80 37 22 38 23 39 24 40 74 41 25 42 79 43 73 44 75 45
REMARK SMILES IDX 26 46 78 47 72 48 71 49 27 51 59 52 39 53 58 54 40 55 43 56
REMARK SMILES IDX 57 57 76 58 41 59 42 60 56 62 77 63 44 64 28 65 29 66 37 67
REMARK SMILES IDX 30 68 36 69 38 70 35 71 31 72 32 73 33 74 34 75 60 76 61 77
REMARK SMILES IDX 69 78 62 79 68 80 70 81 67 82 63 83 64 84 65 85 66 86 45 87
REMARK SMILES IDX 46 88 54 89 47 90 53 91 55 92 52 93 48 94 49 95 50 96 51 97
REMARK H PARENT 9 8 85 20 16 31 75 50 43 61
REMARK Flexibility Score: inf
ROOT
ATOM      1  C   UNL A   1      34.086  21.202  25.233  1.00  0.00     0.002 C 
ENDROOT
BRANCH   1   2
ATOM      2  C   UNL A   1      32.660  21.575  24.802  1.00  0.00     0.002 C 
BRANCH   2   3
ATOM      3  C   UNL A   1      32.571  22.732  23.809  1.00  0.00     0.021 C 
BRANCH   3   4
ATOM      4  C   UNL A   1      31.168  23.303  23.675  1.00  0.00     0.116 C 
BRANCH   4   5
ATOM      5  N   UNL A   1      30.641  23.820  24.921  1.00  0.00    -0.356 N 
ATOM      6  C   UNL A   1      30.811  25.044  25.499  1.00  0.00     0.224 C 
ATOM      7  O   UNL A   1      30.140  25.297  26.503  1.00  0.00    -0.275 OA
ATOM      8  H   UNL A   1      30.074  23.194  25.426  1.00  0.00     0.163 HD
BRANCH   6   9
ATOM      9  C   UNL A   1      31.787  26.092  24.934  1.00  0.00     0.098 C 
ATOM     10  C   UNL A   1      32.643  30.090  26.749  1.00  0.00     0.039 C 
ATOM     11  C   UNL A   1      32.407  28.739  26.131  1.00  0.00    -0.076 C 
ATOM     12  C   UNL A   1      33.216  27.693  26.378  1.00  0.00    -0.024 C 
ATOM     13  C   UNL A   1      31.172  28.640  25.279  1.00  0.00     0.044 C 
ATOM     14  C   UNL A   1      32.971  26.278  25.921  1.00  0.00     0.022 C 
ATOM     15  C   UNL A   1      31.029  27.354  24.454  1.00  0.00     0.096 C 
ATOM     16  C   UNL A   1      34.255  25.576  25.435  1.00  0.00     0.013 C 
BRANCH  15  17
ATOM     17  C   UNL A   1      31.128  27.602  22.931  1.00  0.00     0.228 C 
ATOM     18  O   UNL A   1      32.061  27.099  22.292  1.00  0.00    -0.274 OA
ATOM     19  N   UNL A   1      30.155  28.241  22.212  1.00  0.00    -0.324 N 
ATOM     20  H   UNL A   1      30.111  27.992  21.260  1.00  0.00     0.169 HD
BRANCH  19  21
ATOM     21  C   UNL A   1      29.216  29.194  22.618  1.00  0.00     0.059 A 
ATOM     22  C   UNL A   1      29.521  30.545  22.654  1.00  0.00     0.029 A 
ATOM     23  C   UNL A   1      27.914  28.822  22.935  1.00  0.00     0.137 A 
ATOM     24  C   UNL A   1      28.575  31.458  23.117  1.00  0.00     0.022 A 
ATOM     25  N   UNL A   1      26.971  29.682  23.389  1.00  0.00    -0.263 NA
ATOM     26  C   UNL A   1      27.334  30.978  23.497  1.00  0.00     0.111 A 
ENDBRANCH  19  21
ENDBRANCH  15  17
ENDBRANCH   6   9
ENDBRANCH   4   5
ENDBRANCH   3   4
ENDBRANCH   2   3
ENDBRANCH   1   2
BRANCH   1  27
ATOM     27  C   UNL A   1      34.683  22.051  26.363  1.00  0.00     0.021 C 
BRANCH  27  28
ATOM     28  C   UNL A   1      36.113  22.531  26.125  1.00  0.00     0.116 C 
BRANCH  28  29
ATOM     29  N   UNL A   1      37.048  21.425  26.036  1.00  0.00    -0.352 N 
ATOM     30  C   UNL A   1      38.417  21.417  26.063  1.00  0.00     0.251 C 
ATOM     31  H   UNL A   1      36.631  20.537  25.943  1.00  0.00     0.163 HD
ATOM     32  O   UNL A   1      39.014  20.391  25.748  1.00  0.00    -0.269 OA
BRANCH  30  33
ATOM     33  C   UNL A   1      39.171  22.629  26.453  1.00  0.00     0.039 A 
ATOM     34  C   UNL A   1      38.841  23.839  25.840  1.00  0.00     0.014 A 
ATOM     35  C   UNL A   1      40.225  22.571  27.371  1.00  0.00     0.014 A 
ATOM     36  C   UNL A   1      39.546  24.996  26.172  1.00  0.00     0.010 A 
ATOM     37  C   UNL A   1      40.876  23.742  27.757  1.00  0.00     0.010 A 
ATOM     38  C   UNL A   1      40.554  24.963  27.149  1.00  0.00    -0.014 A 
BRANCH  38  39
ATOM     39  C   UNL A   1      41.269  26.207  27.528  1.00  0.00     0.031 A 
ATOM     40  C   UNL A   1      42.696  26.429  27.111  1.00  0.00     0.074 A 
ATOM     41  C   UNL A   1      40.630  27.129  28.273  1.00  0.00     0.049 A 
ATOM     42  N   UNL A   1      43.468  27.466  27.317  1.00  0.00    -0.248 NA
ATOM     43  C   UNL A   1      43.352  25.325  26.398  1.00  0.00     0.031 C 
ATOM     44  C   UNL A   1      39.269  26.989  28.799  1.00  0.00     0.029 A 
ATOM     45  N   UNL A   1      41.032  28.362  28.717  1.00  0.00    -0.354 N 
ATOM     46  C   UNL A   1      44.701  27.140  26.761  1.00  0.00     0.074 A 
ATOM     47  C   UNL A   1      44.591  25.777  26.283  1.00  0.00     0.031 C 
ATOM     48  C   UNL A   1      38.941  28.104  29.468  1.00  0.00     0.029 A 
ATOM     49  C   UNL A   1      40.074  29.024  29.447  1.00  0.00     0.049 A 
ATOM     50  H   UNL A   1      41.922  28.737  28.530  1.00  0.00     0.167 HD
ATOM     51  C   UNL A   1      45.809  27.913  26.633  1.00  0.00     0.034 A 
ATOM     52  C   UNL A   1      40.103  30.236  30.034  1.00  0.00     0.034 A 
ATOM     53  C   UNL A   1      45.896  29.269  27.128  1.00  0.00     0.049 A 
ATOM     54  C   UNL A   1      41.332  31.089  29.869  1.00  0.00     0.074 A 
ATOM     55  C   UNL A   1      46.943  30.167  27.015  1.00  0.00     0.029 A 
ATOM     56  N   UNL A   1      44.897  29.919  27.848  1.00  0.00    -0.354 N 
ATOM     57  N   UNL A   1      42.464  30.800  29.268  1.00  0.00    -0.248 NA
ATOM     58  C   UNL A   1      41.274  32.440  30.436  1.00  0.00     0.031 C 
ATOM     59  C   UNL A   1      46.607  31.327  27.724  1.00  0.00     0.029 A 
ATOM     60  C   UNL A   1      45.316  31.192  28.210  1.00  0.00     0.049 A 
ATOM     61  H   UNL A   1      44.019  29.532  28.067  1.00  0.00     0.167 HD
ATOM     62  C   UNL A   1      43.250  31.943  29.371  1.00  0.00     0.074 A 
ATOM     63  C   UNL A   1      42.446  32.932  30.063  1.00  0.00     0.031 C 
ATOM     64  C   UNL A   1      44.519  32.158  28.934  1.00  0.00     0.034 A 
BRANCH  51  65
ATOM     65  C   UNL A   1      47.013  27.289  25.960  1.00  0.00     0.023 A 
ATOM     66  C   UNL A   1      47.949  26.525  26.681  1.00  0.00     0.031 A 
ATOM     67  C   UNL A   1      47.266  27.507  24.594  1.00  0.00     0.131 A 
ATOM     68  C   UNL A   1      49.138  26.103  26.066  1.00  0.00     0.055 A 
ATOM     69  C   UNL A   1      48.404  27.000  23.964  1.00  0.00     0.041 A 
ATOM     70  F   UNL A   1      46.424  28.243  23.851  1.00  0.00    -0.206 F 
ATOM     71  C   UNL A   1      49.360  26.312  24.705  1.00  0.00     0.022 A 
BRANCH  68  72
ATOM     72  S   UNL A   1      50.468  25.449  27.115  1.00  0.00     0.124 S 
ATOM     73  O   UNL A   1      49.779  24.378  27.831  1.00  0.00    -0.237 OA
ATOM     74  O   UNL A   1      51.463  25.029  26.137  1.00  0.00    -0.237 OA
ATOM     75  O   UNL A   1      50.847  26.594  27.942  1.00  0.00    -0.744 OA
ENDBRANCH  68  72
ENDBRANCH  51  65
BRANCH  52  76
ATOM     76  C   UNL A   1      38.930  30.706  30.825  1.00  0.00     0.023 A 
ATOM     77  C   UNL A   1      37.837  31.337  30.212  1.00  0.00     0.031 A 
ATOM     78  C   UNL A   1      38.891  30.521  32.219  1.00  0.00     0.131 A 
ATOM     79  C   UNL A   1      36.764  31.791  30.995  1.00  0.00     0.055 A 
ATOM     80  C   UNL A   1      37.801  30.931  32.987  1.00  0.00     0.041 A 
ATOM     81  F   UNL A   1      39.906  29.911  32.852  1.00  0.00    -0.206 F 
ATOM     82  C   UNL A   1      36.732  31.580  32.376  1.00  0.00     0.022 A 
BRANCH  79  83
ATOM     83  S   UNL A   1      35.424  32.710  30.189  1.00  0.00     0.124 S 
ATOM     84  O   UNL A   1      34.600  33.095  31.328  1.00  0.00    -0.237 OA
ATOM     85  O   UNL A   1      36.152  33.788  29.528  1.00  0.00    -0.237 OA
ATOM     86  O   UNL A   1      34.827  31.723  29.290  1.00  0.00    -0.744 OA
ENDBRANCH  79  83
ENDBRANCH  52  76
BRANCH  64  87
ATOM     87  C   UNL A   1      45.097  33.532  29.184  1.00  0.00     0.023 A 
ATOM     88  C   UNL A   1      44.942  34.578  28.256  1.00  0.00     0.031 A 
ATOM     89  C   UNL A   1      45.858  33.785  30.339  1.00  0.00     0.131 A 
ATOM     90  C   UNL A   1      45.608  35.797  28.457  1.00  0.00     0.055 A 
ATOM     91  C   UNL A   1      46.455  35.025  30.571  1.00  0.00     0.041 A 
ATOM     92  F   UNL A   1      46.044  32.825  31.260  1.00  0.00    -0.206 F 
ATOM     93  C   UNL A   1      46.348  36.033  29.617  1.00  0.00     0.022 A 
BRANCH  90  94
ATOM     94  S   UNL A   1      45.610  37.017  27.114  1.00  0.00     0.124 S 
ATOM     95  O   UNL A   1      46.111  36.231  25.991  1.00  0.00    -0.237 OA
ATOM     96  O   UNL A   1      44.205  37.404  27.044  1.00  0.00    -0.237 OA
ATOM     97  O   UNL A   1      46.517  38.057  27.597  1.00  0.00    -0.744 OA
ENDBRANCH  90  94
ENDBRANCH  64  87
ENDBRANCH  38  39
ENDBRANCH  30  33
ENDBRANCH  28  29
ENDBRANCH  27  28
ENDBRANCH   1  27
TORSDOF 18
ENDMDL
