MODEL 1
REMARK VINA RESULT:     -10.8      0.000      0.000
REMARK SMILES COc1ccc(/C=C/c2cc(OC)cc(OC)c2/C=C/C(=O)NCCCCCCNC(=O)c2ccc(-c3c4nc(c(-c5cc(S(=O)(=O)[O-])ccc5F)c5ccc([nH]5)c(-c5cc(S(=O)(=O)[O-])ccc5F)c5nc(c(-c6cc(S(=O)(=O)[O-])ccc6F)c6ccc3[nH]6)C=C5)C=C4)cc2)cc1
REMARK SMILES IDX 26 1 25 2 24 3 23 4 21 5 22 6 20 8 19 9 18 10 9 11 10 12
REMARK SMILES IDX 11 13 15 14 14 15 8 16 7 17 6 18 3 19 4 20 97 21 5 22 96 23
REMARK SMILES IDX 2 24 1 25 12 26 13 27 16 28 17 29 27 30 28 31 29 32 30 33
REMARK SMILES IDX 31 34 32 36 33 37 34 38 95 39 35 40 94 41 36 42 37 43 38 44
REMARK SMILES IDX 88 45 39 46 93 47 87 48 89 49 40 50 92 51 86 52 85 53 41 55
REMARK SMILES IDX 73 56 53 57 72 58 54 59 57 60 71 61 90 62 55 63 56 64 70 66
REMARK SMILES IDX 91 67 58 68 42 69 43 70 51 71 44 72 50 73 52 74 49 75 45 76
REMARK SMILES IDX 46 77 47 78 48 79 74 80 75 81 83 82 76 83 82 84 84 85 81 86
REMARK SMILES IDX 77 87 78 88 79 89 80 90 59 91 60 92 68 93 61 94 67 95 69 96
REMARK SMILES IDX 66 97 62 98 63 99 64 100 65 101
REMARK H PARENT 23 7 30 35 89 54 57 65
REMARK Flexibility Score: inf
ROOT
ATOM      1  C   UNL A   1      35.629  22.794  26.108  1.00  0.00     0.002 C 
ENDROOT
BRANCH   1   2
ATOM      2  C   UNL A   1      34.792  22.961  27.384  1.00  0.00     0.021 C 
BRANCH   2   3
ATOM      3  C   UNL A   1      33.800  21.829  27.637  1.00  0.00     0.116 C 
BRANCH   3   4
ATOM      4  N   UNL A   1      32.478  22.343  27.926  1.00  0.00    -0.353 N 
ATOM      5  C   UNL A   1      31.651  23.070  27.132  1.00  0.00     0.244 C 
ATOM      6  O   UNL A   1      30.532  23.389  27.520  1.00  0.00    -0.270 OA
ATOM      7  H   UNL A   1      32.130  22.137  28.824  1.00  0.00     0.163 HD
BRANCH   5   8
ATOM      8  C   UNL A   1      32.080  23.434  25.765  1.00  0.00     0.072 C 
ATOM      9  C   UNL A   1      32.331  24.709  25.433  1.00  0.00     0.018 C 
BRANCH   9  10
ATOM     10  C   UNL A   1      32.537  25.140  24.036  1.00  0.00     0.024 A 
ATOM     11  C   UNL A   1      32.398  24.172  23.002  1.00  0.00    -0.011 A 
ATOM     12  C   UNL A   1      32.575  24.528  21.655  1.00  0.00     0.055 A 
ATOM     13  C   UNL A   1      32.933  25.819  21.303  1.00  0.00     0.123 A 
ATOM     14  C   UNL A   1      32.892  26.456  23.666  1.00  0.00     0.130 A 
ATOM     15  C   UNL A   1      33.072  26.774  22.302  1.00  0.00     0.093 A 
BRANCH  11  16
ATOM     16  C   UNL A   1      32.107  22.747  23.223  1.00  0.00     0.009 C 
ATOM     17  C   UNL A   1      33.079  21.830  23.313  1.00  0.00     0.009 C 
BRANCH  17  18
ATOM     18  C   UNL A   1      32.884  20.393  23.557  1.00  0.00    -0.025 A 
ATOM     19  C   UNL A   1      32.608  17.664  24.184  1.00  0.00     0.118 A 
ATOM     20  C   UNL A   1      32.340  18.119  22.895  1.00  0.00     0.047 A 
ATOM     21  C   UNL A   1      32.982  18.576  25.167  1.00  0.00     0.047 A 
ATOM     22  C   UNL A   1      32.473  19.475  22.582  1.00  0.00     0.012 A 
ATOM     23  C   UNL A   1      33.126  19.925  24.854  1.00  0.00     0.012 A 
BRANCH  19  24
ATOM     24  O   UNL A   1      32.498  16.317  24.369  1.00  0.00    -0.497 OA
ATOM     25  C   UNL A   1      32.577  15.875  25.717  1.00  0.00     0.278 C 
ENDBRANCH  19  24
ENDBRANCH  17  18
ENDBRANCH  11  16
BRANCH  13  26
ATOM     26  O   UNL A   1      33.112  26.038  19.966  1.00  0.00    -0.497 OA
ATOM     27  C   UNL A   1      32.240  25.317  19.104  1.00  0.00     0.278 C 
ENDBRANCH  13  26
BRANCH  14  28
ATOM     28  O   UNL A   1      33.123  27.570  24.430  1.00  0.00    -0.496 OA
ATOM     29  C   UNL A   1      32.074  28.339  24.989  1.00  0.00     0.278 C 
ENDBRANCH  14  28
ENDBRANCH   9  10
ENDBRANCH   5   8
ENDBRANCH   3   4
ENDBRANCH   2   3
ENDBRANCH   1   2
BRANCH   1  30
ATOM     30  C   UNL A   1      36.005  21.351  25.747  1.00  0.00     0.002 C 
BRANCH  30  31
ATOM     31  C   UNL A   1      37.397  21.175  25.137  1.00  0.00     0.021 C 
BRANCH  31  32
ATOM     32  C   UNL A   1      38.510  21.947  25.844  1.00  0.00     0.116 C 
BRANCH  32  33
ATOM     33  N   UNL A   1      39.658  21.099  26.118  1.00  0.00    -0.352 N 
ATOM     34  C   UNL A   1      40.945  21.427  26.476  1.00  0.00     0.251 C 
ATOM     35  H   UNL A   1      39.487  20.133  26.034  1.00  0.00     0.163 HD
ATOM     36  O   UNL A   1      41.809  20.553  26.428  1.00  0.00    -0.269 OA
BRANCH  34  37
ATOM     37  C   UNL A   1      41.315  22.808  26.885  1.00  0.00     0.039 A 
ATOM     38  C   UNL A   1      41.559  23.764  25.888  1.00  0.00     0.014 A 
ATOM     39  C   UNL A   1      41.457  23.172  28.224  1.00  0.00     0.014 A 
ATOM     40  C   UNL A   1      41.870  25.089  26.232  1.00  0.00     0.010 A 
ATOM     41  C   UNL A   1      41.693  24.508  28.565  1.00  0.00     0.010 A 
ATOM     42  C   UNL A   1      41.901  25.488  27.575  1.00  0.00    -0.014 A 
BRANCH  42  43
ATOM     43  C   UNL A   1      42.160  26.904  27.980  1.00  0.00     0.031 A 
ATOM     44  C   UNL A   1      43.581  27.400  28.067  1.00  0.00     0.074 A 
ATOM     45  C   UNL A   1      41.152  27.726  28.347  1.00  0.00     0.049 A 
ATOM     46  N   UNL A   1      44.029  28.566  28.459  1.00  0.00    -0.248 NA
ATOM     47  C   UNL A   1      44.635  26.457  27.668  1.00  0.00     0.031 C 
ATOM     48  C   UNL A   1      39.728  27.402  28.301  1.00  0.00     0.029 A 
ATOM     49  N   UNL A   1      41.173  29.003  28.860  1.00  0.00    -0.354 N 
ATOM     50  C   UNL A   1      45.412  28.501  28.335  1.00  0.00     0.074 A 
ATOM     51  C   UNL A   1      45.732  27.150  27.928  1.00  0.00     0.031 C 
ATOM     52  C   UNL A   1      39.018  28.414  28.826  1.00  0.00     0.029 A 
ATOM     53  C   UNL A   1      39.931  29.477  29.223  1.00  0.00     0.049 A 
ATOM     54  H   UNL A   1      41.999  29.527  28.961  1.00  0.00     0.167 HD
ATOM     55  C   UNL A   1      46.329  29.487  28.500  1.00  0.00     0.034 A 
ATOM     56  C   UNL A   1      39.556  30.638  29.798  1.00  0.00     0.034 A 
ATOM     57  C   UNL A   1      46.005  30.830  28.910  1.00  0.00     0.049 A 
ATOM     58  C   UNL A   1      40.600  31.695  30.055  1.00  0.00     0.074 A 
ATOM     59  C   UNL A   1      46.851  31.916  29.049  1.00  0.00     0.029 A 
ATOM     60  N   UNL A   1      44.737  31.268  29.269  1.00  0.00    -0.354 N 
ATOM     61  N   UNL A   1      41.894  31.644  29.841  1.00  0.00    -0.248 NA
ATOM     62  C   UNL A   1      40.126  32.979  30.586  1.00  0.00     0.031 C 
ATOM     63  C   UNL A   1      46.113  32.985  29.566  1.00  0.00     0.029 A 
ATOM     64  C   UNL A   1      44.787  32.595  29.668  1.00  0.00     0.049 A 
ATOM     65  H   UNL A   1      43.921  30.718  29.244  1.00  0.00     0.167 HD
ATOM     66  C   UNL A   1      42.377  32.910  30.159  1.00  0.00     0.074 A 
ATOM     67  C   UNL A   1      41.238  33.699  30.577  1.00  0.00     0.031 C 
ATOM     68  C   UNL A   1      43.650  33.380  30.090  1.00  0.00     0.034 A 
BRANCH  55  69
ATOM     69  C   UNL A   1      47.774  29.132  28.240  1.00  0.00     0.023 A 
ATOM     70  C   UNL A   1      48.258  28.933  26.934  1.00  0.00     0.031 A 
ATOM     71  C   UNL A   1      48.673  28.957  29.307  1.00  0.00     0.131 A 
ATOM     72  C   UNL A   1      49.572  28.487  26.733  1.00  0.00     0.055 A 
ATOM     73  C   UNL A   1      50.006  28.602  29.094  1.00  0.00     0.041 A 
ATOM     74  F   UNL A   1      48.267  29.114  30.576  1.00  0.00    -0.206 F 
ATOM     75  C   UNL A   1      50.458  28.347  27.802  1.00  0.00     0.022 A 
BRANCH  72  76
ATOM     76  S   UNL A   1      50.053  27.941  25.071  1.00  0.00     0.124 S 
ATOM     77  O   UNL A   1      50.536  26.588  25.335  1.00  0.00    -0.237 OA
ATOM     78  O   UNL A   1      48.802  28.040  24.331  1.00  0.00    -0.237 OA
ATOM     79  O   UNL A   1      51.087  28.898  24.683  1.00  0.00    -0.744 OA
ENDBRANCH  72  76
ENDBRANCH  55  69
BRANCH  56  80
ATOM     80  C   UNL A   1      38.126  30.888  30.145  1.00  0.00     0.023 A 
ATOM     81  C   UNL A   1      37.233  31.423  29.203  1.00  0.00     0.031 A 
ATOM     82  C   UNL A   1      37.645  30.648  31.445  1.00  0.00     0.131 A 
ATOM     83  C   UNL A   1      35.924  31.756  29.586  1.00  0.00     0.055 A 
ATOM     84  C   UNL A   1      36.327  30.934  31.809  1.00  0.00     0.041 A 
ATOM     85  F   UNL A   1      38.453  30.129  32.383  1.00  0.00    -0.206 F 
ATOM     86  C   UNL A   1      35.462  31.506  30.880  1.00  0.00     0.022 A 
BRANCH  83  87
ATOM     87  S   UNL A   1      34.860  32.611  28.391  1.00  0.00     0.124 S 
ATOM     88  O   UNL A   1      35.841  33.310  27.568  1.00  0.00    -0.237 OA
ATOM     89  O   UNL A   1      34.166  31.497  27.755  1.00  0.00    -0.237 OA
ATOM     90  O   UNL A   1      34.025  33.467  29.230  1.00  0.00    -0.744 OA
ENDBRANCH  83  87
ENDBRANCH  56  80
BRANCH  68  91
ATOM     91  C   UNL A   1      43.868  34.836  30.423  1.00  0.00     0.023 A 
ATOM     92  C   UNL A   1      44.055  35.279  31.744  1.00  0.00     0.031 A 
ATOM     93  C   UNL A   1      43.889  35.797  29.396  1.00  0.00     0.131 A 
ATOM     94  C   UNL A   1      44.198  36.650  32.008  1.00  0.00     0.055 A 
ATOM     95  C   UNL A   1      44.099  37.152  29.658  1.00  0.00     0.041 A 
ATOM     96  F   UNL A   1      43.710  35.434  28.116  1.00  0.00    -0.206 F 
ATOM     97  C   UNL A   1      44.242  37.586  30.972  1.00  0.00     0.022 A 
BRANCH  94  98
ATOM     98  S   UNL A   1      44.231  37.206  33.734  1.00  0.00     0.124 S 
ATOM     99  O   UNL A   1      45.029  36.165  34.373  1.00  0.00    -0.237 OA
ATOM    100  O   UNL A   1      44.860  38.518  33.629  1.00  0.00    -0.237 OA
ATOM    101  O   UNL A   1      42.819  37.225  34.115  1.00  0.00    -0.744 OA
ENDBRANCH  94  98
ENDBRANCH  68  91
ENDBRANCH  42  43
ENDBRANCH  34  37
ENDBRANCH  32  33
ENDBRANCH  31  32
ENDBRANCH  30  31
ENDBRANCH   1  30
TORSDOF 22
ENDMDL
MODEL 2
REMARK VINA RESULT:     -10.8      2.539      7.855
REMARK SMILES COc1ccc(/C=C/c2cc(OC)cc(OC)c2/C=C/C(=O)NCCCCCCNC(=O)c2ccc(-c3c4nc(c(-c5cc(S(=O)(=O)[O-])ccc5F)c5ccc([nH]5)c(-c5cc(S(=O)(=O)[O-])ccc5F)c5nc(c(-c6cc(S(=O)(=O)[O-])ccc6F)c6ccc3[nH]6)C=C5)C=C4)cc2)cc1
REMARK SMILES IDX 26 1 25 2 24 3 23 4 21 5 22 6 20 8 19 9 18 10 9 11 10 12
REMARK SMILES IDX 11 13 15 14 14 15 8 16 7 17 6 18 3 19 4 20 97 21 5 22 96 23
REMARK SMILES IDX 2 24 1 25 12 26 13 27 16 28 17 29 27 30 28 31 29 32 30 33
REMARK SMILES IDX 31 34 32 36 33 37 34 38 95 39 35 40 94 41 36 42 37 43 38 44
REMARK SMILES IDX 88 45 39 46 93 47 87 48 89 49 40 50 92 51 86 52 85 53 41 55
REMARK SMILES IDX 73 56 53 57 72 58 54 59 57 60 71 61 90 62 55 63 56 64 70 66
REMARK SMILES IDX 91 67 58 68 42 69 43 70 51 71 44 72 50 73 52 74 49 75 45 76
REMARK SMILES IDX 46 77 47 78 48 79 74 80 75 81 83 82 76 83 82 84 84 85 81 86
REMARK SMILES IDX 77 87 78 88 79 89 80 90 59 91 60 92 68 93 61 94 67 95 69 96
REMARK SMILES IDX 66 97 62 98 63 99 64 100 65 101
REMARK H PARENT 23 7 30 35 89 54 57 65
REMARK Flexibility Score: inf
ROOT
ATOM      1  C   UNL A   1      37.240  21.531  24.740  1.00  0.00     0.002 C 
ENDROOT
BRANCH   1   2
ATOM      2  C   UNL A   1      36.272  22.162  25.749  1.00  0.00     0.021 C 
BRANCH   2   3
ATOM      3  C   UNL A   1      34.956  21.406  25.913  1.00  0.00     0.116 C 
BRANCH   3   4
ATOM      4  N   UNL A   1      34.377  21.636  27.220  1.00  0.00    -0.353 N 
ATOM      5  C   UNL A   1      33.593  22.662  27.639  1.00  0.00     0.244 C 
ATOM      6  O   UNL A   1      33.143  22.681  28.780  1.00  0.00    -0.270 OA
ATOM      7  H   UNL A   1      34.579  20.952  27.900  1.00  0.00     0.163 HD
BRANCH   5   8
ATOM      8  C   UNL A   1      33.233  23.741  26.695  1.00  0.00     0.072 C 
ATOM      9  C   UNL A   1      32.100  24.445  26.844  1.00  0.00     0.018 C 
BRANCH   9  10
ATOM     10  C   UNL A   1      31.594  25.365  25.807  1.00  0.00     0.024 A 
ATOM     11  C   UNL A   1      31.098  24.810  24.593  1.00  0.00    -0.011 A 
ATOM     12  C   UNL A   1      30.597  25.639  23.576  1.00  0.00     0.055 A 
ATOM     13  C   UNL A   1      30.614  27.017  23.710  1.00  0.00     0.123 A 
ATOM     14  C   UNL A   1      31.597  26.772  25.938  1.00  0.00     0.130 A 
ATOM     15  C   UNL A   1      31.095  27.572  24.889  1.00  0.00     0.093 A 
BRANCH  11  16
ATOM     16  C   UNL A   1      31.094  23.375  24.269  1.00  0.00     0.009 C 
ATOM     17  C   UNL A   1      32.137  22.779  23.676  1.00  0.00     0.009 C 
BRANCH  17  18
ATOM     18  C   UNL A   1      32.232  21.351  23.339  1.00  0.00    -0.025 A 
ATOM     19  C   UNL A   1      32.485  18.589  22.865  1.00  0.00     0.118 A 
ATOM     20  C   UNL A   1      32.269  19.467  21.804  1.00  0.00     0.047 A 
ATOM     21  C   UNL A   1      32.540  19.086  24.163  1.00  0.00     0.047 A 
ATOM     22  C   UNL A   1      32.141  20.839  22.038  1.00  0.00     0.012 A 
ATOM     23  C   UNL A   1      32.423  20.454  24.396  1.00  0.00     0.012 A 
BRANCH  19  24
ATOM     24  O   UNL A   1      32.649  17.279  22.522  1.00  0.00    -0.497 OA
ATOM     25  C   UNL A   1      33.651  16.577  23.243  1.00  0.00     0.278 C 
ENDBRANCH  19  24
ENDBRANCH  17  18
ENDBRANCH  11  16
BRANCH  13  26
ATOM     26  O   UNL A   1      30.134  27.719  22.641  1.00  0.00    -0.497 OA
ATOM     27  C   UNL A   1      30.389  29.119  22.661  1.00  0.00     0.278 C 
ENDBRANCH  13  26
BRANCH  14  28
ATOM     28  O   UNL A   1      32.033  27.575  26.958  1.00  0.00    -0.496 OA
ATOM     29  C   UNL A   1      31.566  28.899  27.138  1.00  0.00     0.278 C 
ENDBRANCH  14  28
ENDBRANCH   9  10
ENDBRANCH   5   8
ENDBRANCH   3   4
ENDBRANCH   2   3
ENDBRANCH   1   2
BRANCH   1  30
ATOM     30  C   UNL A   1      37.160  20.004  24.609  1.00  0.00     0.002 C 
BRANCH  30  31
ATOM     31  C   UNL A   1      38.474  19.260  24.857  1.00  0.00     0.021 C 
BRANCH  31  32
ATOM     32  C   UNL A   1      39.320  19.814  26.002  1.00  0.00     0.116 C 
BRANCH  32  33
ATOM     33  N   UNL A   1      40.546  19.055  26.177  1.00  0.00    -0.352 N 
ATOM     34  C   UNL A   1      41.846  19.478  26.321  1.00  0.00     0.251 C 
ATOM     35  H   UNL A   1      40.427  18.077  26.196  1.00  0.00     0.163 HD
ATOM     36  O   UNL A   1      42.749  18.650  26.221  1.00  0.00    -0.269 OA
BRANCH  34  37
ATOM     37  C   UNL A   1      42.181  20.908  26.559  1.00  0.00     0.039 A 
ATOM     38  C   UNL A   1      42.029  21.430  27.852  1.00  0.00     0.014 A 
ATOM     39  C   UNL A   1      42.611  21.750  25.533  1.00  0.00     0.014 A 
ATOM     40  C   UNL A   1      42.374  22.763  28.128  1.00  0.00     0.010 A 
ATOM     41  C   UNL A   1      43.025  23.054  25.825  1.00  0.00     0.010 A 
ATOM     42  C   UNL A   1      42.916  23.580  27.126  1.00  0.00    -0.014 A 
BRANCH  42  43
ATOM     43  C   UNL A   1      43.359  24.982  27.395  1.00  0.00     0.031 A 
ATOM     44  C   UNL A   1      42.368  25.982  27.935  1.00  0.00     0.074 A 
ATOM     45  C   UNL A   1      44.610  25.394  27.092  1.00  0.00     0.049 A 
ATOM     46  N   UNL A   1      42.526  27.259  28.176  1.00  0.00    -0.248 NA
ATOM     47  C   UNL A   1      41.020  25.478  28.234  1.00  0.00     0.031 C 
ATOM     48  C   UNL A   1      45.687  24.548  26.581  1.00  0.00     0.029 A 
ATOM     49  N   UNL A   1      45.184  26.645  27.141  1.00  0.00    -0.354 N 
ATOM     50  C   UNL A   1      41.306  27.704  28.672  1.00  0.00     0.074 A 
ATOM     51  C   UNL A   1      40.393  26.584  28.602  1.00  0.00     0.031 C 
ATOM     52  C   UNL A   1      46.761  25.304  26.301  1.00  0.00     0.029 A 
ATOM     53  C   UNL A   1      46.465  26.690  26.637  1.00  0.00     0.049 A 
ATOM     54  H   UNL A   1      44.720  27.434  27.502  1.00  0.00     0.167 HD
ATOM     55  C   UNL A   1      40.986  28.920  29.182  1.00  0.00     0.034 A 
ATOM     56  C   UNL A   1      47.319  27.721  26.470  1.00  0.00     0.034 A 
ATOM     57  C   UNL A   1      41.899  30.033  29.244  1.00  0.00     0.049 A 
ATOM     58  C   UNL A   1      46.918  29.087  26.965  1.00  0.00     0.074 A 
ATOM     59  C   UNL A   1      41.693  31.287  29.794  1.00  0.00     0.029 A 
ATOM     60  N   UNL A   1      43.186  30.038  28.721  1.00  0.00    -0.354 N 
ATOM     61  N   UNL A   1      45.789  29.465  27.518  1.00  0.00    -0.248 NA
ATOM     62  C   UNL A   1      47.921  30.153  26.855  1.00  0.00     0.031 C 
ATOM     63  C   UNL A   1      42.821  32.072  29.534  1.00  0.00     0.029 A 
ATOM     64  C   UNL A   1      43.767  31.285  28.899  1.00  0.00     0.049 A 
ATOM     65  H   UNL A   1      43.623  29.270  28.288  1.00  0.00     0.167 HD
ATOM     66  C   UNL A   1      45.971  30.798  27.873  1.00  0.00     0.074 A 
ATOM     67  C   UNL A   1      47.315  31.156  27.472  1.00  0.00     0.031 C 
ATOM     68  C   UNL A   1      45.107  31.642  28.493  1.00  0.00     0.034 A 
BRANCH  55  69
ATOM     69  C   UNL A   1      39.580  29.098  29.703  1.00  0.00     0.023 A 
ATOM     70  C   UNL A   1      38.617  29.825  28.980  1.00  0.00     0.031 A 
ATOM     71  C   UNL A   1      39.203  28.567  30.948  1.00  0.00     0.131 A 
ATOM     72  C   UNL A   1      37.358  30.075  29.544  1.00  0.00     0.055 A 
ATOM     73  C   UNL A   1      37.918  28.742  31.464  1.00  0.00     0.041 A 
ATOM     74  F   UNL A   1      40.083  27.880  31.693  1.00  0.00    -0.206 F 
ATOM     75  C   UNL A   1      36.991  29.516  30.769  1.00  0.00     0.022 A 
BRANCH  72  76
ATOM     76  S   UNL A   1      36.268  31.274  28.727  1.00  0.00     0.124 S 
ATOM     77  O   UNL A   1      35.344  31.615  29.806  1.00  0.00    -0.237 OA
ATOM     78  O   UNL A   1      37.197  32.323  28.326  1.00  0.00    -0.237 OA
ATOM     79  O   UNL A   1      35.678  30.508  27.631  1.00  0.00    -0.744 OA
ENDBRANCH  72  76
ENDBRANCH  55  69
BRANCH  56  80
ATOM     80  C   UNL A   1      48.653  27.507  25.837  1.00  0.00     0.023 A 
ATOM     81  C   UNL A   1      49.806  27.326  26.617  1.00  0.00     0.031 A 
ATOM     82  C   UNL A   1      48.803  27.540  24.438  1.00  0.00     0.131 A 
ATOM     83  C   UNL A   1      51.065  27.244  26.000  1.00  0.00     0.055 A 
ATOM     84  C   UNL A   1      50.052  27.407  23.827  1.00  0.00     0.041 A 
ATOM     85  F   UNL A   1      47.733  27.703  23.645  1.00  0.00    -0.206 F 
ATOM     86  C   UNL A   1      51.195  27.273  24.610  1.00  0.00     0.022 A 
BRANCH  83  87
ATOM     87  S   UNL A   1      52.544  27.192  27.049  1.00  0.00     0.124 S 
ATOM     88  O   UNL A   1      53.494  27.971  26.262  1.00  0.00    -0.237 OA
ATOM     89  O   UNL A   1      52.064  27.818  28.277  1.00  0.00    -0.237 OA
ATOM     90  O   UNL A   1      52.839  25.766  27.152  1.00  0.00    -0.744 OA
ENDBRANCH  83  87
ENDBRANCH  56  80
BRANCH  68  91
ATOM     91  C   UNL A   1      45.612  33.024  28.829  1.00  0.00     0.023 A 
ATOM     92  C   UNL A   1      45.401  34.123  27.977  1.00  0.00     0.031 A 
ATOM     93  C   UNL A   1      46.318  33.245  30.026  1.00  0.00     0.131 A 
ATOM     94  C   UNL A   1      45.939  35.377  28.306  1.00  0.00     0.055 A 
ATOM     95  C   UNL A   1      46.792  34.508  30.381  1.00  0.00     0.041 A 
ATOM     96  F   UNL A   1      46.555  32.232  30.876  1.00  0.00    -0.206 F 
ATOM     97  C   UNL A   1      46.615  35.580  29.512  1.00  0.00     0.022 A 
BRANCH  94  98
ATOM     98  S   UNL A   1      45.826  36.718  27.092  1.00  0.00     0.124 S 
ATOM     99  O   UNL A   1      46.538  37.799  27.766  1.00  0.00    -0.237 OA
ATOM    100  O   UNL A   1      46.493  36.144  25.928  1.00  0.00    -0.237 OA
ATOM    101  O   UNL A   1      44.386  36.924  26.942  1.00  0.00    -0.744 OA
ENDBRANCH  94  98
ENDBRANCH  68  91
ENDBRANCH  42  43
ENDBRANCH  34  37
ENDBRANCH  32  33
ENDBRANCH  31  32
ENDBRANCH  30  31
ENDBRANCH   1  30
TORSDOF 22
ENDMDL
MODEL 3
REMARK VINA RESULT:     -10.4      3.698      6.392
REMARK SMILES COc1ccc(/C=C/c2cc(OC)cc(OC)c2/C=C/C(=O)NCCCCCCNC(=O)c2ccc(-c3c4nc(c(-c5cc(S(=O)(=O)[O-])ccc5F)c5ccc([nH]5)c(-c5cc(S(=O)(=O)[O-])ccc5F)c5nc(c(-c6cc(S(=O)(=O)[O-])ccc6F)c6ccc3[nH]6)C=C5)C=C4)cc2)cc1
REMARK SMILES IDX 26 1 25 2 24 3 23 4 21 5 22 6 20 8 19 9 18 10 9 11 10 12
REMARK SMILES IDX 11 13 15 14 14 15 8 16 7 17 6 18 3 19 4 20 97 21 5 22 96 23
REMARK SMILES IDX 2 24 1 25 12 26 13 27 16 28 17 29 27 30 28 31 29 32 30 33
REMARK SMILES IDX 31 34 32 36 33 37 34 38 95 39 35 40 94 41 36 42 37 43 38 44
REMARK SMILES IDX 88 45 39 46 93 47 87 48 89 49 40 50 92 51 86 52 85 53 41 55
REMARK SMILES IDX 73 56 53 57 72 58 54 59 57 60 71 61 90 62 55 63 56 64 70 66
REMARK SMILES IDX 91 67 58 68 42 69 43 70 51 71 44 72 50 73 52 74 49 75 45 76
REMARK SMILES IDX 46 77 47 78 48 79 74 80 75 81 83 82 76 83 82 84 84 85 81 86
REMARK SMILES IDX 77 87 78 88 79 89 80 90 59 91 60 92 68 93 61 94 67 95 69 96
REMARK SMILES IDX 66 97 62 98 63 99 64 100 65 101
REMARK H PARENT 23 7 30 35 89 54 57 65
REMARK Flexibility Score: inf
ROOT
ATOM      1  C   UNL A   1      38.216  24.337  26.685  1.00  0.00     0.002 C 
ENDROOT
BRANCH   1   2
ATOM      2  C   UNL A   1      37.617  23.468  25.571  1.00  0.00     0.021 C 
BRANCH   2   3
ATOM      3  C   UNL A   1      36.189  23.843  25.183  1.00  0.00     0.116 C 
BRANCH   3   4
ATOM      4  N   UNL A   1      35.239  23.406  26.184  1.00  0.00    -0.353 N 
ATOM      5  C   UNL A   1      33.952  23.796  26.369  1.00  0.00     0.244 C 
ATOM      6  O   UNL A   1      33.264  23.285  27.247  1.00  0.00    -0.270 OA
ATOM      7  H   UNL A   1      35.573  22.732  26.819  1.00  0.00     0.163 HD
BRANCH   5   8
ATOM      8  C   UNL A   1      33.356  24.805  25.469  1.00  0.00     0.072 C 
ATOM      9  C   UNL A   1      32.931  25.989  25.938  1.00  0.00     0.018 C 
BRANCH   9  10
ATOM     10  C   UNL A   1      32.130  26.924  25.124  1.00  0.00     0.024 A 
ATOM     11  C   UNL A   1      32.601  28.258  24.966  1.00  0.00    -0.011 A 
ATOM     12  C   UNL A   1      31.883  29.188  24.196  1.00  0.00     0.055 A 
ATOM     13  C   UNL A   1      30.678  28.842  23.607  1.00  0.00     0.123 A 
ATOM     14  C   UNL A   1      30.905  26.579  24.511  1.00  0.00     0.130 A 
ATOM     15  C   UNL A   1      30.207  27.543  23.753  1.00  0.00     0.093 A 
BRANCH  11  16
ATOM     16  C   UNL A   1      33.814  28.798  25.599  1.00  0.00     0.009 C 
ATOM     17  C   UNL A   1      33.769  29.494  26.742  1.00  0.00     0.009 C 
BRANCH  17  18
ATOM     18  C   UNL A   1      34.928  30.048  27.457  1.00  0.00    -0.025 A 
ATOM     19  C   UNL A   1      37.098  31.278  28.760  1.00  0.00     0.118 A 
ATOM     20  C   UNL A   1      37.065  29.894  28.605  1.00  0.00     0.047 A 
ATOM     21  C   UNL A   1      36.033  32.044  28.294  1.00  0.00     0.047 A 
ATOM     22  C   UNL A   1      35.986  29.281  27.961  1.00  0.00     0.012 A 
ATOM     23  C   UNL A   1      34.964  31.435  27.643  1.00  0.00     0.012 A 
BRANCH  19  24
ATOM     24  O   UNL A   1      38.219  31.778  29.354  1.00  0.00    -0.497 OA
ATOM     25  C   UNL A   1      38.057  33.024  30.018  1.00  0.00     0.278 C 
ENDBRANCH  19  24
ENDBRANCH  17  18
ENDBRANCH  11  16
BRANCH  13  26
ATOM     26  O   UNL A   1      30.053  29.839  22.913  1.00  0.00    -0.497 OA
ATOM     27  C   UNL A   1      28.670  30.011  23.196  1.00  0.00     0.278 C 
ENDBRANCH  13  26
BRANCH  14  28
ATOM     28  O   UNL A   1      30.202  25.403  24.515  1.00  0.00    -0.496 OA
ATOM     29  C   UNL A   1      30.279  24.467  23.455  1.00  0.00     0.278 C 
ENDBRANCH  14  28
ENDBRANCH   9  10
ENDBRANCH   5   8
ENDBRANCH   3   4
ENDBRANCH   2   3
ENDBRANCH   1   2
BRANCH   1  30
ATOM     30  C   UNL A   1      39.727  24.590  26.587  1.00  0.00     0.002 C 
BRANCH  30  31
ATOM     31  C   UNL A   1      40.455  24.702  27.928  1.00  0.00     0.021 C 
BRANCH  31  32
ATOM     32  C   UNL A   1      41.908  24.234  27.912  1.00  0.00     0.116 C 
BRANCH  32  33
ATOM     33  N   UNL A   1      42.533  24.471  26.622  1.00  0.00    -0.352 N 
ATOM     34  C   UNL A   1      42.934  25.643  26.025  1.00  0.00     0.251 C 
ATOM     35  H   UNL A   1      42.695  23.660  26.086  1.00  0.00     0.163 HD
ATOM     36  O   UNL A   1      43.225  25.626  24.831  1.00  0.00    -0.269 OA
BRANCH  34  37
ATOM     37  C   UNL A   1      42.992  26.924  26.779  1.00  0.00     0.039 A 
ATOM     38  C   UNL A   1      43.869  27.027  27.868  1.00  0.00     0.014 A 
ATOM     39  C   UNL A   1      42.181  28.012  26.455  1.00  0.00     0.014 A 
ATOM     40  C   UNL A   1      43.984  28.232  28.579  1.00  0.00     0.010 A 
ATOM     41  C   UNL A   1      42.351  29.233  27.116  1.00  0.00     0.010 A 
ATOM     42  C   UNL A   1      43.256  29.364  28.186  1.00  0.00    -0.014 A 
BRANCH  42  43
ATOM     43  C   UNL A   1      43.402  30.683  28.874  1.00  0.00     0.031 A 
ATOM     44  C   UNL A   1      44.530  31.602  28.482  1.00  0.00     0.074 A 
ATOM     45  C   UNL A   1      42.590  31.037  29.895  1.00  0.00     0.049 A 
ATOM     46  N   UNL A   1      44.875  32.757  28.993  1.00  0.00    -0.248 NA
ATOM     47  C   UNL A   1      45.388  31.158  27.373  1.00  0.00     0.031 C 
ATOM     48  C   UNL A   1      41.445  30.269  30.380  1.00  0.00     0.029 A 
ATOM     49  N   UNL A   1      42.620  32.128  30.733  1.00  0.00    -0.354 N 
ATOM     50  C   UNL A   1      45.975  33.183  28.257  1.00  0.00     0.074 A 
ATOM     51  C   UNL A   1      46.298  32.118  27.333  1.00  0.00     0.031 C 
ATOM     52  C   UNL A   1      40.926  30.868  31.464  1.00  0.00     0.029 A 
ATOM     53  C   UNL A   1      41.680  32.084  31.740  1.00  0.00     0.049 A 
ATOM     54  H   UNL A   1      43.255  32.871  30.624  1.00  0.00     0.167 HD
ATOM     55  C   UNL A   1      46.629  34.371  28.312  1.00  0.00     0.034 A 
ATOM     56  C   UNL A   1      41.436  32.924  32.767  1.00  0.00     0.034 A 
ATOM     57  C   UNL A   1      46.305  35.426  29.239  1.00  0.00     0.049 A 
ATOM     58  C   UNL A   1      42.229  34.202  32.867  1.00  0.00     0.074 A 
ATOM     59  C   UNL A   1      46.866  36.688  29.337  1.00  0.00     0.029 A 
ATOM     60  N   UNL A   1      45.349  35.340  30.243  1.00  0.00    -0.354 N 
ATOM     61  N   UNL A   1      43.205  34.629  32.100  1.00  0.00    -0.248 NA
ATOM     62  C   UNL A   1      41.856  35.131  33.940  1.00  0.00     0.031 C 
ATOM     63  C   UNL A   1      46.308  37.332  30.446  1.00  0.00     0.029 A 
ATOM     64  C   UNL A   1      45.335  36.509  30.989  1.00  0.00     0.049 A 
ATOM     65  H   UNL A   1      44.766  34.563  30.402  1.00  0.00     0.167 HD
ATOM     66  C   UNL A   1      43.521  35.901  32.566  1.00  0.00     0.074 A 
ATOM     67  C   UNL A   1      42.634  36.171  33.678  1.00  0.00     0.031 C 
ATOM     68  C   UNL A   1      44.452  36.774  32.101  1.00  0.00     0.034 A 
BRANCH  55  69
ATOM     69  C   UNL A   1      47.767  34.575  27.341  1.00  0.00     0.023 A 
ATOM     70  C   UNL A   1      49.098  34.306  27.704  1.00  0.00     0.031 A 
ATOM     71  C   UNL A   1      47.526  35.074  26.049  1.00  0.00     0.131 A 
ATOM     72  C   UNL A   1      50.143  34.619  26.823  1.00  0.00     0.055 A 
ATOM     73  C   UNL A   1      48.564  35.298  25.143  1.00  0.00     0.041 A 
ATOM     74  F   UNL A   1      46.280  35.369  25.650  1.00  0.00    -0.206 F 
ATOM     75  C   UNL A   1      49.884  35.088  25.534  1.00  0.00     0.022 A 
BRANCH  72  76
ATOM     76  S   UNL A   1      51.846  34.556  27.445  1.00  0.00     0.124 S 
ATOM     77  O   UNL A   1      51.986  33.141  27.778  1.00  0.00    -0.237 OA
ATOM     78  O   UNL A   1      52.619  35.023  26.301  1.00  0.00    -0.237 OA
ATOM     79  O   UNL A   1      51.823  35.459  28.594  1.00  0.00    -0.744 OA
ENDBRANCH  72  76
ENDBRANCH  55  69
BRANCH  56  80
ATOM     80  C   UNL A   1      40.377  32.610  33.770  1.00  0.00     0.023 A 
ATOM     81  C   UNL A   1      39.064  33.083  33.611  1.00  0.00     0.031 A 
ATOM     82  C   UNL A   1      40.677  31.881  34.935  1.00  0.00     0.131 A 
ATOM     83  C   UNL A   1      38.115  32.873  34.625  1.00  0.00     0.055 A 
ATOM     84  C   UNL A   1      39.716  31.631  35.917  1.00  0.00     0.041 A 
ATOM     85  F   UNL A   1      41.914  31.399  35.133  1.00  0.00    -0.206 F 
ATOM     86  C   UNL A   1      38.429  32.142  35.772  1.00  0.00     0.022 A 
BRANCH  83  87
ATOM     87  S   UNL A   1      36.486  33.654  34.463  1.00  0.00     0.124 S 
ATOM     88  O   UNL A   1      36.834  34.951  33.893  1.00  0.00    -0.237 OA
ATOM     89  O   UNL A   1      35.795  32.727  33.573  1.00  0.00    -0.237 OA
ATOM     90  O   UNL A   1      35.987  33.688  35.835  1.00  0.00    -0.744 OA
ENDBRANCH  83  87
ENDBRANCH  56  80
BRANCH  68  91
ATOM     91  C   UNL A   1      44.518  38.131  32.759  1.00  0.00     0.023 A 
ATOM     92  C   UNL A   1      43.552  39.124  32.519  1.00  0.00     0.031 A 
ATOM     93  C   UNL A   1      45.569  38.434  33.644  1.00  0.00     0.131 A 
ATOM     94  C   UNL A   1      43.687  40.390  33.110  1.00  0.00     0.055 A 
ATOM     95  C   UNL A   1      45.661  39.672  34.282  1.00  0.00     0.041 A 
ATOM     96  F   UNL A   1      46.524  37.528  33.907  1.00  0.00    -0.206 F 
ATOM     97  C   UNL A   1      44.724  40.662  34.006  1.00  0.00     0.022 A 
BRANCH  94  98
ATOM     98  S   UNL A   1      42.542  41.707  32.620  1.00  0.00     0.124 S 
ATOM     99  O   UNL A   1      41.728  41.865  33.821  1.00  0.00    -0.237 OA
ATOM    100  O   UNL A   1      43.447  42.810  32.313  1.00  0.00    -0.237 OA
ATOM    101  O   UNL A   1      41.842  41.141  31.467  1.00  0.00    -0.744 OA
ENDBRANCH  94  98
ENDBRANCH  68  91
ENDBRANCH  42  43
ENDBRANCH  34  37
ENDBRANCH  32  33
ENDBRANCH  31  32
ENDBRANCH  30  31
ENDBRANCH   1  30
TORSDOF 22
ENDMDL
