MODEL 1
REMARK VINA RESULT:     -10.5      0.000      0.000
REMARK SMILES C=CCOc1ccccc1/C=C1\SC(=S)N(CC(=O)NCCCCCCNC(=O)c2ccc(-c3c4nc(c(-c5cc(S(=O)(=O)[O-])ccc5F)c5ccc([nH]5)c(-c5cc(S(=O)(=O)[O-])ccc5F)c5nc(c(-c6cc(S(=O)(=O)[O-])ccc6F)c6ccc3[nH]6)C=C5)C=C4)cc2)C1=O
REMARK SMILES IDX 22 1 21 2 20 3 18 4 19 5 17 7 16 8 11 9 12 10 13 11 93 12
REMARK SMILES IDX 14 13 94 14 15 15 10 16 5 17 6 18 7 19 9 20 8 21 4 22 3 23
REMARK SMILES IDX 2 24 1 25 23 26 24 27 25 28 26 29 27 30 28 31 29 33 30 34
REMARK SMILES IDX 31 35 92 36 32 37 91 38 33 39 34 40 35 41 85 42 36 43 90 44
REMARK SMILES IDX 84 45 86 46 37 47 89 48 83 49 82 50 38 52 70 53 50 54 69 55
REMARK SMILES IDX 51 56 54 57 68 58 87 59 52 60 53 61 67 63 88 64 55 65 39 66
REMARK SMILES IDX 40 67 48 68 41 69 47 70 49 71 46 72 42 73 43 74 44 75 45 76
REMARK SMILES IDX 71 77 72 78 80 79 73 80 79 81 81 82 78 83 74 84 75 85 76 86
REMARK SMILES IDX 77 87 56 88 57 89 65 90 58 91 64 92 66 93 63 94 59 95 60 96
REMARK SMILES IDX 61 97 62 98
REMARK H PARENT 20 6 27 32 86 51 54 62
REMARK Flexibility Score: inf
ROOT
ATOM      1  C   UNL A   1      37.389  23.454  26.182  1.00  0.00     0.021 C 
ENDROOT
BRANCH   1   2
ATOM      2  C   UNL A   1      35.898  23.427  25.847  1.00  0.00     0.116 C 
BRANCH   2   3
ATOM      3  N   UNL A   1      35.100  22.941  26.952  1.00  0.00    -0.355 N 
ATOM      4  C   UNL A   1      33.835  22.436  26.979  1.00  0.00     0.240 C 
ATOM      5  O   UNL A   1      33.475  21.883  28.024  1.00  0.00    -0.273 OA
ATOM      6  H   UNL A   1      35.545  22.982  27.829  1.00  0.00     0.163 HD
BRANCH   4   7
ATOM      7  C   UNL A   1      32.956  22.357  25.726  1.00  0.00     0.227 C 
BRANCH   7   8
ATOM      8  N   UNL A   1      32.647  23.630  25.082  1.00  0.00    -0.283 N 
ATOM      9  C   UNL A   1      30.532  26.533  25.249  1.00  0.00     0.033 C 
ATOM     10  C   UNL A   1      31.496  25.672  24.903  1.00  0.00     0.081 C 
ATOM     11  S   UNL A   1      32.416  25.606  23.456  1.00  0.00    -0.054 SA
ATOM     12  C   UNL A   1      31.803  24.496  25.754  1.00  0.00     0.266 C 
ATOM     13  C   UNL A   1      32.988  23.981  23.792  1.00  0.00     0.148 C 
ATOM     14  O   UNL A   1      31.331  24.314  26.868  1.00  0.00    -0.268 OA
ATOM     15  S   UNL A   1      33.800  23.074  22.652  1.00  0.00    -0.052 S 
BRANCH   9  16
ATOM     16  C   UNL A   1      29.931  27.552  24.380  1.00  0.00     0.018 A 
ATOM     17  C   UNL A   1      30.559  28.784  24.118  1.00  0.00     0.127 A 
ATOM     18  C   UNL A   1      29.958  29.730  23.288  1.00  0.00     0.047 A 
ATOM     19  C   UNL A   1      28.753  29.428  22.655  1.00  0.00     0.004 A 
ATOM     20  C   UNL A   1      28.732  27.254  23.721  1.00  0.00     0.012 A 
ATOM     21  C   UNL A   1      28.146  28.189  22.862  1.00  0.00     0.001 A 
BRANCH  17  22
ATOM     22  O   UNL A   1      31.741  29.127  24.730  1.00  0.00    -0.489 OA
BRANCH  22  23
ATOM     23  C   UNL A   1      31.602  30.277  25.571  1.00  0.00     0.257 C 
BRANCH  23  24
ATOM     24  C   UNL A   1      31.920  29.895  26.987  1.00  0.00     0.006 C 
ATOM     25  C   UNL A   1      32.047  28.635  27.424  1.00  0.00     0.007 C 
ENDBRANCH  23  24
ENDBRANCH  22  23
ENDBRANCH  17  22
ENDBRANCH   9  16
ENDBRANCH   7   8
ENDBRANCH   4   7
ENDBRANCH   2   3
ENDBRANCH   1   2
BRANCH   1  26
ATOM     26  C   UNL A   1      38.245  22.529  25.310  1.00  0.00     0.002 C 
BRANCH  26  27
ATOM     27  C   UNL A   1      37.632  21.154  25.025  1.00  0.00     0.002 C 
BRANCH  27  28
ATOM     28  C   UNL A   1      38.586  19.968  25.199  1.00  0.00     0.021 C 
BRANCH  28  29
ATOM     29  C   UNL A   1      39.587  20.115  26.341  1.00  0.00     0.116 C 
BRANCH  29  30
ATOM     30  N   UNL A   1      40.811  19.374  26.088  1.00  0.00    -0.352 N 
ATOM     31  C   UNL A   1      42.100  19.835  25.973  1.00  0.00     0.251 C 
ATOM     32  H   UNL A   1      40.701  18.401  25.986  1.00  0.00     0.163 HD
ATOM     33  O   UNL A   1      42.973  19.090  25.539  1.00  0.00    -0.269 OA
BRANCH  31  34
ATOM     34  C   UNL A   1      42.425  21.227  26.350  1.00  0.00     0.039 A 
ATOM     35  C   UNL A   1      42.515  22.197  25.347  1.00  0.00     0.014 A 
ATOM     36  C   UNL A   1      42.659  21.575  27.683  1.00  0.00     0.014 A 
ATOM     37  C   UNL A   1      42.783  23.525  25.689  1.00  0.00     0.010 A 
ATOM     38  C   UNL A   1      42.862  22.910  28.028  1.00  0.00     0.010 A 
ATOM     39  C   UNL A   1      42.928  23.900  27.035  1.00  0.00    -0.014 A 
BRANCH  39  40
ATOM     40  C   UNL A   1      43.162  25.317  27.421  1.00  0.00     0.031 A 
ATOM     41  C   UNL A   1      44.549  25.895  27.356  1.00  0.00     0.074 A 
ATOM     42  C   UNL A   1      42.137  26.063  27.879  1.00  0.00     0.049 A 
ATOM     43  N   UNL A   1      44.974  27.072  27.738  1.00  0.00    -0.248 NA
ATOM     44  C   UNL A   1      45.603  25.025  26.813  1.00  0.00     0.031 C 
ATOM     45  C   UNL A   1      40.751  25.605  28.012  1.00  0.00     0.029 A 
ATOM     46  N   UNL A   1      42.098  27.360  28.327  1.00  0.00    -0.354 N 
ATOM     47  C   UNL A   1      46.341  27.084  27.484  1.00  0.00     0.074 A 
ATOM     48  C   UNL A   1      46.683  25.773  26.974  1.00  0.00     0.031 C 
ATOM     49  C   UNL A   1      39.999  26.608  28.493  1.00  0.00     0.029 A 
ATOM     50  C   UNL A   1      40.851  27.765  28.748  1.00  0.00     0.049 A 
ATOM     51  H   UNL A   1      42.888  27.945  28.346  1.00  0.00     0.167 HD
ATOM     52  C   UNL A   1      47.225  28.101  27.639  1.00  0.00     0.034 A 
ATOM     53  C   UNL A   1      40.446  28.930  29.293  1.00  0.00     0.034 A 
ATOM     54  C   UNL A   1      46.871  29.405  28.141  1.00  0.00     0.049 A 
ATOM     55  C   UNL A   1      41.459  30.033  29.489  1.00  0.00     0.074 A 
ATOM     56  C   UNL A   1      47.683  30.513  28.315  1.00  0.00     0.029 A 
ATOM     57  N   UNL A   1      45.597  29.782  28.547  1.00  0.00    -0.354 N 
ATOM     58  N   UNL A   1      42.743  30.034  29.213  1.00  0.00    -0.248 NA
ATOM     59  C   UNL A   1      40.965  31.296  30.055  1.00  0.00     0.031 C 
ATOM     60  C   UNL A   1      46.915  31.538  28.878  1.00  0.00     0.029 A 
ATOM     61  C   UNL A   1      45.607  31.096  28.988  1.00  0.00     0.049 A 
ATOM     62  H   UNL A   1      44.803  29.200  28.525  1.00  0.00     0.167 HD
ATOM     63  C   UNL A   1      43.198  31.311  29.539  1.00  0.00     0.074 A 
ATOM     64  C   UNL A   1      42.049  32.053  30.013  1.00  0.00     0.031 C 
ATOM     65  C   UNL A   1      44.451  31.824  29.453  1.00  0.00     0.034 A 
BRANCH  52  66
ATOM     66  C   UNL A   1      48.666  27.834  27.274  1.00  0.00     0.023 A 
ATOM     67  C   UNL A   1      49.167  28.143  25.998  1.00  0.00     0.031 A 
ATOM     68  C   UNL A   1      49.548  27.267  28.210  1.00  0.00     0.131 A 
ATOM     69  C   UNL A   1      50.496  27.830  25.673  1.00  0.00     0.055 A 
ATOM     70  C   UNL A   1      50.889  27.026  27.905  1.00  0.00     0.041 A 
ATOM     71  F   UNL A   1      49.120  26.932  29.437  1.00  0.00    -0.206 F 
ATOM     72  C   UNL A   1      51.367  27.297  26.626  1.00  0.00     0.022 A 
BRANCH  69  73
ATOM     73  S   UNL A   1      51.036  28.023  23.953  1.00  0.00     0.124 S 
ATOM     74  O   UNL A   1      51.609  29.366  23.974  1.00  0.00    -0.237 OA
ATOM     75  O   UNL A   1      51.986  26.926  23.795  1.00  0.00    -0.237 OA
ATOM     76  O   UNL A   1      49.798  27.892  23.187  1.00  0.00    -0.744 OA
ENDBRANCH  69  73
ENDBRANCH  52  66
BRANCH  53  77
ATOM     77  C   UNL A   1      39.028  29.123  29.719  1.00  0.00     0.023 A 
ATOM     78  C   UNL A   1      38.116  29.810  28.901  1.00  0.00     0.031 A 
ATOM     79  C   UNL A   1      38.584  28.696  30.983  1.00  0.00     0.131 A 
ATOM     80  C   UNL A   1      36.832  30.111  29.383  1.00  0.00     0.055 A 
ATOM     81  C   UNL A   1      37.286  28.941  31.431  1.00  0.00     0.041 A 
ATOM     82  F   UNL A   1      39.413  28.032  31.806  1.00  0.00    -0.206 F 
ATOM     83  C   UNL A   1      36.407  29.671  30.637  1.00  0.00     0.022 A 
BRANCH  80  84
ATOM     84  S   UNL A   1      35.771  31.201  28.394  1.00  0.00     0.124 S 
ATOM     85  O   UNL A   1      35.399  30.328  27.287  1.00  0.00    -0.237 OA
ATOM     86  O   UNL A   1      34.709  31.527  29.340  1.00  0.00    -0.237 OA
ATOM     87  O   UNL A   1      36.656  32.310  28.045  1.00  0.00    -0.744 OA
ENDBRANCH  80  84
ENDBRANCH  53  77
BRANCH  65  88
ATOM     88  C   UNL A   1      44.624  33.276  29.825  1.00  0.00     0.023 A 
ATOM     89  C   UNL A   1      44.424  34.309  28.894  1.00  0.00     0.031 A 
ATOM     90  C   UNL A   1      45.010  33.627  31.132  1.00  0.00     0.131 A 
ATOM     91  C   UNL A   1      44.667  35.640  29.265  1.00  0.00     0.055 A 
ATOM     92  C   UNL A   1      45.191  34.957  31.511  1.00  0.00     0.041 A 
ATOM     93  F   UNL A   1      45.215  32.680  32.061  1.00  0.00    -0.206 F 
ATOM     94  C   UNL A   1      45.032  35.972  30.572  1.00  0.00     0.022 A 
BRANCH  91  95
ATOM     95  S   UNL A   1      44.581  36.928  27.991  1.00  0.00     0.124 S 
ATOM     96  O   UNL A   1      44.346  36.146  26.783  1.00  0.00    -0.237 OA
ATOM     97  O   UNL A   1      43.463  37.746  28.448  1.00  0.00    -0.237 OA
ATOM     98  O   UNL A   1      45.892  37.573  28.067  1.00  0.00    -0.744 OA
ENDBRANCH  91  95
ENDBRANCH  65  88
ENDBRANCH  39  40
ENDBRANCH  31  34
ENDBRANCH  29  30
ENDBRANCH  28  29
ENDBRANCH  27  28
ENDBRANCH  26  27
ENDBRANCH   1  26
TORSDOF 21
ENDMDL
MODEL 2
REMARK VINA RESULT:     -10.4      2.066      7.723
REMARK SMILES C=CCOc1ccccc1/C=C1\SC(=S)N(CC(=O)NCCCCCCNC(=O)c2ccc(-c3c4nc(c(-c5cc(S(=O)(=O)[O-])ccc5F)c5ccc([nH]5)c(-c5cc(S(=O)(=O)[O-])ccc5F)c5nc(c(-c6cc(S(=O)(=O)[O-])ccc6F)c6ccc3[nH]6)C=C5)C=C4)cc2)C1=O
REMARK SMILES IDX 22 1 21 2 20 3 18 4 19 5 17 7 16 8 11 9 12 10 13 11 93 12
REMARK SMILES IDX 14 13 94 14 15 15 10 16 5 17 6 18 7 19 9 20 8 21 4 22 3 23
REMARK SMILES IDX 2 24 1 25 23 26 24 27 25 28 26 29 27 30 28 31 29 33 30 34
REMARK SMILES IDX 31 35 92 36 32 37 91 38 33 39 34 40 35 41 85 42 36 43 90 44
REMARK SMILES IDX 84 45 86 46 37 47 89 48 83 49 82 50 38 52 70 53 50 54 69 55
REMARK SMILES IDX 51 56 54 57 68 58 87 59 52 60 53 61 67 63 88 64 55 65 39 66
REMARK SMILES IDX 40 67 48 68 41 69 47 70 49 71 46 72 42 73 43 74 44 75 45 76
REMARK SMILES IDX 71 77 72 78 80 79 73 80 79 81 81 82 78 83 74 84 75 85 76 86
REMARK SMILES IDX 77 87 56 88 57 89 65 90 58 91 64 92 66 93 63 94 59 95 60 96
REMARK SMILES IDX 61 97 62 98
REMARK H PARENT 20 6 27 32 86 51 54 62
REMARK Flexibility Score: inf
ROOT
ATOM      1  C   UNL A   1      35.941  22.788  25.294  1.00  0.00     0.021 C 
ENDROOT
BRANCH   1   2
ATOM      2  C   UNL A   1      35.022  22.187  24.231  1.00  0.00     0.116 C 
BRANCH   2   3
ATOM      3  N   UNL A   1      34.051  21.279  24.802  1.00  0.00    -0.355 N 
ATOM      4  C   UNL A   1      32.713  21.156  24.580  1.00  0.00     0.240 C 
ATOM      5  O   UNL A   1      32.160  20.148  25.032  1.00  0.00    -0.273 OA
ATOM      6  H   UNL A   1      34.419  20.645  25.459  1.00  0.00     0.163 HD
BRANCH   4   7
ATOM      7  C   UNL A   1      31.946  22.098  23.645  1.00  0.00     0.227 C 
BRANCH   7   8
ATOM      8  N   UNL A   1      31.652  23.425  24.176  1.00  0.00    -0.283 N 
ATOM      9  C   UNL A   1      32.573  26.897  23.994  1.00  0.00     0.033 C 
ATOM     10  C   UNL A   1      31.938  25.756  24.288  1.00  0.00     0.081 C 
ATOM     11  S   UNL A   1      30.854  25.426  25.577  1.00  0.00    -0.054 SA
ATOM     12  C   UNL A   1      32.236  24.508  23.543  1.00  0.00     0.266 C 
ATOM     13  C   UNL A   1      30.977  23.690  25.350  1.00  0.00     0.148 C 
ATOM     14  O   UNL A   1      32.939  24.458  22.543  1.00  0.00    -0.268 OA
ATOM     15  S   UNL A   1      30.351  22.605  26.452  1.00  0.00    -0.052 S 
BRANCH   9  16
ATOM     16  C   UNL A   1      32.596  28.110  24.820  1.00  0.00     0.018 A 
ATOM     17  C   UNL A   1      31.525  29.023  24.846  1.00  0.00     0.127 A 
ATOM     18  C   UNL A   1      31.583  30.167  25.642  1.00  0.00     0.047 A 
ATOM     19  C   UNL A   1      32.683  30.378  26.472  1.00  0.00     0.004 A 
ATOM     20  C   UNL A   1      33.685  28.323  25.675  1.00  0.00     0.012 A 
ATOM     21  C   UNL A   1      33.726  29.453  26.498  1.00  0.00     0.001 A 
BRANCH  17  22
ATOM     22  O   UNL A   1      30.428  28.861  24.035  1.00  0.00    -0.489 OA
BRANCH  22  23
ATOM     23  C   UNL A   1      30.022  30.088  23.422  1.00  0.00     0.257 C 
BRANCH  23  24
ATOM     24  C   UNL A   1      28.536  30.065  23.205  1.00  0.00     0.006 C 
ATOM     25  C   UNL A   1      27.701  31.048  23.567  1.00  0.00     0.007 C 
ENDBRANCH  23  24
ENDBRANCH  22  23
ENDBRANCH  17  22
ENDBRANCH   9  16
ENDBRANCH   7   8
ENDBRANCH   4   7
ENDBRANCH   2   3
ENDBRANCH   1   2
BRANCH   1  26
ATOM     26  C   UNL A   1      37.273  22.049  25.463  1.00  0.00     0.002 C 
BRANCH  26  27
ATOM     27  C   UNL A   1      37.509  20.900  24.477  1.00  0.00     0.002 C 
BRANCH  27  28
ATOM     28  C   UNL A   1      38.328  19.728  25.026  1.00  0.00     0.021 C 
BRANCH  28  29
ATOM     29  C   UNL A   1      39.352  20.109  26.092  1.00  0.00     0.116 C 
BRANCH  29  30
ATOM     30  N   UNL A   1      40.517  19.241  26.060  1.00  0.00    -0.352 N 
ATOM     31  C   UNL A   1      41.849  19.570  26.081  1.00  0.00     0.251 C 
ATOM     32  H   UNL A   1      40.322  18.277  26.017  1.00  0.00     0.163 HD
ATOM     33  O   UNL A   1      42.690  18.713  25.824  1.00  0.00    -0.269 OA
BRANCH  31  34
ATOM     34  C   UNL A   1      42.265  20.955  26.393  1.00  0.00     0.039 A 
ATOM     35  C   UNL A   1      42.608  21.279  27.709  1.00  0.00     0.014 A 
ATOM     36  C   UNL A   1      42.301  21.936  25.397  1.00  0.00     0.014 A 
ATOM     37  C   UNL A   1      43.041  22.572  28.013  1.00  0.00     0.010 A 
ATOM     38  C   UNL A   1      42.794  23.206  25.690  1.00  0.00     0.010 A 
ATOM     39  C   UNL A   1      43.168  23.539  27.002  1.00  0.00    -0.014 A 
BRANCH  39  40
ATOM     40  C   UNL A   1      43.677  24.905  27.298  1.00  0.00     0.031 A 
ATOM     41  C   UNL A   1      42.746  25.951  27.849  1.00  0.00     0.074 A 
ATOM     42  C   UNL A   1      44.959  25.215  27.023  1.00  0.00     0.049 A 
ATOM     43  N   UNL A   1      42.971  27.219  28.083  1.00  0.00    -0.248 NA
ATOM     44  C   UNL A   1      41.373  25.519  28.153  1.00  0.00     0.031 C 
ATOM     45  C   UNL A   1      45.951  24.293  26.462  1.00  0.00     0.029 A 
ATOM     46  N   UNL A   1      45.650  26.393  27.165  1.00  0.00    -0.354 N 
ATOM     47  C   UNL A   1      41.771  27.736  28.558  1.00  0.00     0.074 A 
ATOM     48  C   UNL A   1      40.806  26.658  28.520  1.00  0.00     0.031 C 
ATOM     49  C   UNL A   1      47.122  24.935  26.323  1.00  0.00     0.029 A 
ATOM     50  C   UNL A   1      46.957  26.325  26.738  1.00  0.00     0.049 A 
ATOM     51  H   UNL A   1      45.248  27.210  27.537  1.00  0.00     0.167 HD
ATOM     52  C   UNL A   1      41.505  28.988  29.008  1.00  0.00     0.034 A 
ATOM     53  C   UNL A   1      47.909  27.279  26.672  1.00  0.00     0.034 A 
ATOM     54  C   UNL A   1      42.478  30.051  29.049  1.00  0.00     0.049 A 
ATOM     55  C   UNL A   1      47.575  28.673  27.146  1.00  0.00     0.074 A 
ATOM     56  C   UNL A   1      42.320  31.348  29.507  1.00  0.00     0.029 A 
ATOM     57  N   UNL A   1      43.794  29.942  28.618  1.00  0.00    -0.354 N 
ATOM     58  N   UNL A   1      46.441  29.135  27.621  1.00  0.00    -0.248 NA
ATOM     59  C   UNL A   1      48.652  29.670  27.086  1.00  0.00     0.031 C 
ATOM     60  C   UNL A   1      43.520  32.038  29.302  1.00  0.00     0.029 A 
ATOM     61  C   UNL A   1      44.450  31.152  28.783  1.00  0.00     0.049 A 
ATOM     62  H   UNL A   1      44.201  29.125  28.250  1.00  0.00     0.167 HD
ATOM     63  C   UNL A   1      46.685  30.467  27.952  1.00  0.00     0.074 A 
ATOM     64  C   UNL A   1      48.074  30.725  27.638  1.00  0.00     0.031 C 
ATOM     65  C   UNL A   1      45.839  31.392  28.469  1.00  0.00     0.034 A 
BRANCH  52  66
ATOM     66  C   UNL A   1      40.100  29.275  29.478  1.00  0.00     0.023 A 
ATOM     67  C   UNL A   1      39.789  29.366  30.846  1.00  0.00     0.031 A 
ATOM     68  C   UNL A   1      39.059  29.463  28.551  1.00  0.00     0.131 A 
ATOM     69  C   UNL A   1      38.462  29.578  31.250  1.00  0.00     0.055 A 
ATOM     70  C   UNL A   1      37.754  29.748  28.958  1.00  0.00     0.041 A 
ATOM     71  F   UNL A   1      39.292  29.368  27.234  1.00  0.00    -0.206 F 
ATOM     72  C   UNL A   1      37.447  29.795  30.315  1.00  0.00     0.022 A 
BRANCH  69  73
ATOM     73  S   UNL A   1      38.062  29.451  33.014  1.00  0.00     0.124 S 
ATOM     74  O   UNL A   1      37.244  30.644  33.216  1.00  0.00    -0.237 OA
ATOM     75  O   UNL A   1      37.359  28.174  33.088  1.00  0.00    -0.237 OA
ATOM     76  O   UNL A   1      39.370  29.482  33.666  1.00  0.00    -0.744 OA
ENDBRANCH  69  73
ENDBRANCH  52  66
BRANCH  53  77
ATOM     77  C   UNL A   1      49.262  26.972  26.121  1.00  0.00     0.023 A 
ATOM     78  C   UNL A   1      49.622  27.374  24.824  1.00  0.00     0.031 A 
ATOM     79  C   UNL A   1      50.186  26.203  26.851  1.00  0.00     0.131 A 
ATOM     80  C   UNL A   1      50.839  26.946  24.271  1.00  0.00     0.055 A 
ATOM     81  C   UNL A   1      51.424  25.837  26.320  1.00  0.00     0.041 A 
ATOM     82  F   UNL A   1      49.897  25.795  28.097  1.00  0.00    -0.206 F 
ATOM     83  C   UNL A   1      51.748  26.191  25.014  1.00  0.00     0.022 A 
BRANCH  80  84
ATOM     84  S   UNL A   1      51.158  27.285  22.518  1.00  0.00     0.124 S 
ATOM     85  O   UNL A   1      49.867  26.975  21.915  1.00  0.00    -0.237 OA
ATOM     86  O   UNL A   1      51.532  28.696  22.547  1.00  0.00    -0.237 OA
ATOM     87  O   UNL A   1      52.241  26.361  22.185  1.00  0.00    -0.744 OA
ENDBRANCH  80  84
ENDBRANCH  53  77
BRANCH  65  88
ATOM     88  C   UNL A   1      46.416  32.751  28.783  1.00  0.00     0.023 A 
ATOM     89  C   UNL A   1      46.550  33.745  27.798  1.00  0.00     0.031 A 
ATOM     90  C   UNL A   1      46.851  33.047  30.087  1.00  0.00     0.131 A 
ATOM     91  C   UNL A   1      47.158  34.968  28.120  1.00  0.00     0.055 A 
ATOM     92  C   UNL A   1      47.399  34.287  30.415  1.00  0.00     0.041 A 
ATOM     93  F   UNL A   1      46.746  32.134  31.066  1.00  0.00    -0.206 F 
ATOM     94  C   UNL A   1      47.568  35.252  29.425  1.00  0.00     0.022 A 
BRANCH  91  95
ATOM     95  S   UNL A   1      47.486  36.153  26.787  1.00  0.00     0.124 S 
ATOM     96  O   UNL A   1      48.944  36.177  26.753  1.00  0.00    -0.237 OA
ATOM     97  O   UNL A   1      46.832  35.527  25.643  1.00  0.00    -0.237 OA
ATOM     98  O   UNL A   1      46.856  37.385  27.262  1.00  0.00    -0.744 OA
ENDBRANCH  91  95
ENDBRANCH  65  88
ENDBRANCH  39  40
ENDBRANCH  31  34
ENDBRANCH  29  30
ENDBRANCH  28  29
ENDBRANCH  27  28
ENDBRANCH  26  27
ENDBRANCH   1  26
TORSDOF 21
ENDMDL
MODEL 3
REMARK VINA RESULT:     -10.4      6.129     12.308
REMARK SMILES C=CCOc1ccccc1/C=C1\SC(=S)N(CC(=O)NCCCCCCNC(=O)c2ccc(-c3c4nc(c(-c5cc(S(=O)(=O)[O-])ccc5F)c5ccc([nH]5)c(-c5cc(S(=O)(=O)[O-])ccc5F)c5nc(c(-c6cc(S(=O)(=O)[O-])ccc6F)c6ccc3[nH]6)C=C5)C=C4)cc2)C1=O
REMARK SMILES IDX 22 1 21 2 20 3 18 4 19 5 17 7 16 8 11 9 12 10 13 11 93 12
REMARK SMILES IDX 14 13 94 14 15 15 10 16 5 17 6 18 7 19 9 20 8 21 4 22 3 23
REMARK SMILES IDX 2 24 1 25 23 26 24 27 25 28 26 29 27 30 28 31 29 33 30 34
REMARK SMILES IDX 31 35 92 36 32 37 91 38 33 39 34 40 35 41 85 42 36 43 90 44
REMARK SMILES IDX 84 45 86 46 37 47 89 48 83 49 82 50 38 52 70 53 50 54 69 55
REMARK SMILES IDX 51 56 54 57 68 58 87 59 52 60 53 61 67 63 88 64 55 65 39 66
REMARK SMILES IDX 40 67 48 68 41 69 47 70 49 71 46 72 42 73 43 74 44 75 45 76
REMARK SMILES IDX 71 77 72 78 80 79 73 80 79 81 81 82 78 83 74 84 75 85 76 86
REMARK SMILES IDX 77 87 56 88 57 89 65 90 58 91 64 92 66 93 63 94 59 95 60 96
REMARK SMILES IDX 61 97 62 98
REMARK H PARENT 20 6 27 32 86 51 54 62
REMARK Flexibility Score: inf
ROOT
ATOM      1  C   UNL A   1      36.692  33.083  34.455  1.00  0.00     0.021 C 
ENDROOT
BRANCH   1   2
ATOM      2  C   UNL A   1      37.250  31.779  33.887  1.00  0.00     0.116 C 
BRANCH   2   3
ATOM      3  N   UNL A   1      37.787  30.921  34.920  1.00  0.00    -0.355 N 
ATOM      4  C   UNL A   1      39.076  30.671  35.285  1.00  0.00     0.240 C 
ATOM      5  O   UNL A   1      39.250  30.069  36.349  1.00  0.00    -0.273 OA
ATOM      6  H   UNL A   1      37.110  30.437  35.445  1.00  0.00     0.163 HD
BRANCH   4   7
ATOM      7  C   UNL A   1      40.272  31.275  34.540  1.00  0.00     0.227 C 
BRANCH   7   8
ATOM      8  N   UNL A   1      41.472  30.448  34.481  1.00  0.00    -0.283 N 
ATOM      9  C   UNL A   1      42.892  27.490  33.008  1.00  0.00     0.033 C 
ATOM     10  C   UNL A   1      42.739  28.635  33.683  1.00  0.00     0.081 C 
ATOM     11  S   UNL A   1      43.730  29.301  34.916  1.00  0.00    -0.054 SA
ATOM     12  C   UNL A   1      41.516  29.457  33.515  1.00  0.00     0.266 C 
ATOM     13  C   UNL A   1      42.498  30.453  35.402  1.00  0.00     0.148 C 
ATOM     14  O   UNL A   1      40.658  29.245  32.668  1.00  0.00    -0.268 OA
ATOM     15  S   UNL A   1      42.634  31.361  36.796  1.00  0.00    -0.052 S 
BRANCH   9  16
ATOM     16  C   UNL A   1      43.889  26.449  33.287  1.00  0.00     0.018 A 
ATOM     17  C   UNL A   1      43.817  25.622  34.424  1.00  0.00     0.127 A 
ATOM     18  C   UNL A   1      44.784  24.645  34.658  1.00  0.00     0.047 A 
ATOM     19  C   UNL A   1      45.798  24.437  33.723  1.00  0.00     0.004 A 
ATOM     20  C   UNL A   1      44.900  26.215  32.346  1.00  0.00     0.012 A 
ATOM     21  C   UNL A   1      45.849  25.212  32.565  1.00  0.00     0.001 A 
BRANCH  17  22
ATOM     22  O   UNL A   1      42.842  25.802  35.376  1.00  0.00    -0.489 OA
BRANCH  22  23
ATOM     23  C   UNL A   1      41.877  24.745  35.368  1.00  0.00     0.257 C 
BRANCH  23  24
ATOM     24  C   UNL A   1      41.029  24.841  36.603  1.00  0.00     0.006 C 
ATOM     25  C   UNL A   1      41.000  25.899  37.425  1.00  0.00     0.007 C 
ENDBRANCH  23  24
ENDBRANCH  22  23
ENDBRANCH  17  22
ENDBRANCH   9  16
ENDBRANCH   7   8
ENDBRANCH   4   7
ENDBRANCH   2   3
ENDBRANCH   1   2
BRANCH   1  26
ATOM     26  C   UNL A   1      36.159  34.054  33.395  1.00  0.00     0.002 C 
BRANCH  26  27
ATOM     27  C   UNL A   1      34.797  34.679  33.711  1.00  0.00     0.002 C 
BRANCH  27  28
ATOM     28  C   UNL A   1      33.703  34.417  32.670  1.00  0.00     0.021 C 
BRANCH  28  29
ATOM     29  C   UNL A   1      33.675  35.409  31.511  1.00  0.00     0.116 C 
BRANCH  29  30
ATOM     30  N   UNL A   1      33.085  34.830  30.316  1.00  0.00    -0.352 N 
ATOM     31  C   UNL A   1      33.674  34.073  29.334  1.00  0.00     0.251 C 
ATOM     32  H   UNL A   1      32.124  35.006  30.193  1.00  0.00     0.163 HD
ATOM     33  O   UNL A   1      33.068  33.859  28.288  1.00  0.00    -0.269 OA
BRANCH  31  34
ATOM     34  C   UNL A   1      35.039  33.537  29.529  1.00  0.00     0.039 A 
ATOM     35  C   UNL A   1      36.123  34.229  28.981  1.00  0.00     0.014 A 
ATOM     36  C   UNL A   1      35.250  32.349  30.234  1.00  0.00     0.014 A 
ATOM     37  C   UNL A   1      37.422  33.759  29.190  1.00  0.00     0.010 A 
ATOM     38  C   UNL A   1      36.549  31.917  30.495  1.00  0.00     0.010 A 
ATOM     39  C   UNL A   1      37.650  32.616  29.974  1.00  0.00    -0.014 A 
BRANCH  39  40
ATOM     40  C   UNL A   1      39.028  32.131  30.251  1.00  0.00     0.031 A 
ATOM     41  C   UNL A   1      39.910  32.880  31.213  1.00  0.00     0.074 A 
ATOM     42  C   UNL A   1      39.501  31.051  29.597  1.00  0.00     0.049 A 
ATOM     43  N   UNL A   1      41.167  32.675  31.516  1.00  0.00    -0.248 NA
ATOM     44  C   UNL A   1      39.305  34.025  31.910  1.00  0.00     0.031 C 
ATOM     45  C   UNL A   1      38.750  30.258  28.620  1.00  0.00     0.029 A 
ATOM     46  N   UNL A   1      40.728  30.438  29.643  1.00  0.00    -0.354 N 
ATOM     47  C   UNL A   1      41.503  33.665  32.433  1.00  0.00     0.074 A 
ATOM     48  C   UNL A   1      40.335  34.505  32.589  1.00  0.00     0.031 C 
ATOM     49  C   UNL A   1      39.526  29.257  28.173  1.00  0.00     0.029 A 
ATOM     50  C   UNL A   1      40.844  29.362  28.793  1.00  0.00     0.049 A 
ATOM     51  H   UNL A   1      41.458  30.739  30.231  1.00  0.00     0.167 HD
ATOM     52  C   UNL A   1      42.670  33.842  33.101  1.00  0.00     0.034 A 
ATOM     53  C   UNL A   1      41.897  28.562  28.529  1.00  0.00     0.034 A 
ATOM     54  C   UNL A   1      43.824  32.992  32.943  1.00  0.00     0.049 A 
ATOM     55  C   UNL A   1      43.196  28.804  29.260  1.00  0.00     0.074 A 
ATOM     56  C   UNL A   1      45.047  33.068  33.589  1.00  0.00     0.029 A 
ATOM     57  N   UNL A   1      43.900  31.906  32.080  1.00  0.00    -0.354 N 
ATOM     58  N   UNL A   1      43.485  29.728  30.148  1.00  0.00    -0.248 NA
ATOM     59  C   UNL A   1      44.306  27.887  28.965  1.00  0.00     0.031 C 
ATOM     60  C   UNL A   1      45.879  32.067  33.076  1.00  0.00     0.029 A 
ATOM     61  C   UNL A   1      45.153  31.319  32.164  1.00  0.00     0.049 A 
ATOM     62  H   UNL A   1      43.171  31.599  31.495  1.00  0.00     0.167 HD
ATOM     63  C   UNL A   1      44.797  29.476  30.542  1.00  0.00     0.074 A 
ATOM     64  C   UNL A   1      45.234  28.307  29.810  1.00  0.00     0.031 C 
ATOM     65  C   UNL A   1      45.571  30.149  31.429  1.00  0.00     0.034 A 
BRANCH  52  66
ATOM     66  C   UNL A   1      42.757  35.009  34.054  1.00  0.00     0.023 A 
ATOM     67  C   UNL A   1      42.192  34.949  35.340  1.00  0.00     0.031 A 
ATOM     68  C   UNL A   1      43.412  36.194  33.676  1.00  0.00     0.131 A 
ATOM     69  C   UNL A   1      42.241  36.072  36.180  1.00  0.00     0.055 A 
ATOM     70  C   UNL A   1      43.523  37.282  34.544  1.00  0.00     0.041 A 
ATOM     71  F   UNL A   1      43.952  36.317  32.454  1.00  0.00    -0.206 F 
ATOM     72  C   UNL A   1      42.925  37.229  35.800  1.00  0.00     0.022 A 
BRANCH  69  73
ATOM     73  S   UNL A   1      41.299  36.039  37.729  1.00  0.00     0.124 S 
ATOM     74  O   UNL A   1      42.182  36.783  38.624  1.00  0.00    -0.237 OA
ATOM     75  O   UNL A   1      40.056  36.705  37.358  1.00  0.00    -0.237 OA
ATOM     76  O   UNL A   1      41.179  34.613  38.026  1.00  0.00    -0.744 OA
ENDBRANCH  69  73
ENDBRANCH  52  66
BRANCH  53  77
ATOM     77  C   UNL A   1      41.794  27.470  27.515  1.00  0.00     0.023 A 
ATOM     78  C   UNL A   1      41.471  26.158  27.898  1.00  0.00     0.031 A 
ATOM     79  C   UNL A   1      42.095  27.704  26.162  1.00  0.00     0.131 A 
ATOM     80  C   UNL A   1      41.527  25.119  26.956  1.00  0.00     0.055 A 
ATOM     81  C   UNL A   1      42.084  26.679  25.216  1.00  0.00     0.041 A 
ATOM     82  F   UNL A   1      42.407  28.940  25.738  1.00  0.00    -0.206 F 
ATOM     83  C   UNL A   1      41.818  25.372  25.615  1.00  0.00     0.022 A 
BRANCH  80  84
ATOM     84  S   UNL A   1      41.337  23.412  27.538  1.00  0.00     0.124 S 
ATOM     85  O   UNL A   1      41.959  22.658  26.456  1.00  0.00    -0.237 OA
ATOM     86  O   UNL A   1      42.066  23.442  28.802  1.00  0.00    -0.237 OA
ATOM     87  O   UNL A   1      39.889  23.253  27.658  1.00  0.00    -0.744 OA
ENDBRANCH  80  84
ENDBRANCH  53  77
BRANCH  65  88
ATOM     88  C   UNL A   1      46.949  29.594  31.698  1.00  0.00     0.023 A 
ATOM     89  C   UNL A   1      47.192  28.685  32.742  1.00  0.00     0.031 A 
ATOM     90  C   UNL A   1      48.037  29.994  30.901  1.00  0.00     0.131 A 
ATOM     91  C   UNL A   1      48.501  28.251  32.999  1.00  0.00     0.055 A 
ATOM     92  C   UNL A   1      49.326  29.511  31.123  1.00  0.00     0.041 A 
ATOM     93  F   UNL A   1      47.861  30.860  29.890  1.00  0.00    -0.206 F 
ATOM     94  C   UNL A   1      49.567  28.644  32.185  1.00  0.00     0.022 A 
BRANCH  91  95
ATOM     95  S   UNL A   1      48.807  27.229  34.465  1.00  0.00     0.124 S 
ATOM     96  O   UNL A   1      49.876  27.965  35.131  1.00  0.00    -0.237 OA
ATOM     97  O   UNL A   1      47.510  27.245  35.134  1.00  0.00    -0.237 OA
ATOM     98  O   UNL A   1      49.199  25.936  33.907  1.00  0.00    -0.744 OA
ENDBRANCH  91  95
ENDBRANCH  65  88
ENDBRANCH  39  40
ENDBRANCH  31  34
ENDBRANCH  29  30
ENDBRANCH  28  29
ENDBRANCH  27  28
ENDBRANCH  26  27
ENDBRANCH   1  26
TORSDOF 21
ENDMDL
