MODEL 1
REMARK VINA RESULT:     -12.4      0.000      0.000
REMARK SMILES O=C(NCCCCCCNC(=O)c1c(C2CC2)nn(-c2ccc(Cl)c(F)c2)c1Cl)c1ccc(-c2c3nc(c(-c4cc(S(=O)(=O)[O-])ccc4F)c4ccc([nH]4)c(-c4cc(S(=O)(=O)[O-])ccc4F)c4nc(c(-c5cc(S(=O)(=O)[O-])ccc5F)c5ccc2[nH]5)C=C4)C=C3)cc1
REMARK SMILES IDX 5 1 4 2 3 3 1 4 2 5 30 7 31 8 92 9 32 10 91 11 33 12 34 13
REMARK SMILES IDX 35 14 85 15 36 16 90 17 84 18 86 19 37 20 89 21 83 22 82 23
REMARK SMILES IDX 38 25 70 26 50 27 69 28 51 29 54 30 68 31 87 32 52 33 53 34
REMARK SMILES IDX 67 36 88 37 55 38 39 39 40 40 48 41 41 42 47 43 49 44 46 45
REMARK SMILES IDX 42 46 43 47 44 48 45 49 71 50 72 51 80 52 73 53 79 54 81 55
REMARK SMILES IDX 78 56 74 57 75 58 76 59 77 60 56 61 57 62 65 63 58 64 64 65
REMARK SMILES IDX 66 66 63 67 59 68 60 69 61 70 62 71 6 72 7 73 8 74 9 75
REMARK SMILES IDX 10 76 11 77 12 79 13 80 14 81 28 82 18 83 19 84 29 85 15 86
REMARK SMILES IDX 16 87 17 88 20 89 21 90 27 91 22 92 25 93 23 94 26 95 24 96
REMARK H PARENT 3 6 86 24 54 35 10 78
REMARK Flexibility Score: inf
ROOT
ATOM      1  C   UNL A   1      32.294  30.332  26.339  1.00  0.00     0.021 C 
ENDROOT
BRANCH   1   2
ATOM      2  C   UNL A   1      33.501  30.282  27.278  1.00  0.00     0.116 C 
BRANCH   2   3
ATOM      3  N   UNL A   1      34.164  31.557  27.450  1.00  0.00    -0.352 N 
ATOM      4  O   UNL A   1      35.611  33.182  27.764  1.00  0.00    -0.269 OA
ATOM      5  C   UNL A   1      35.426  31.961  27.791  1.00  0.00     0.251 C 
ATOM      6  H   UNL A   1      33.562  32.317  27.281  1.00  0.00     0.163 HD
BRANCH   5   7
ATOM      7  C   UNL A   1      36.561  31.070  28.180  1.00  0.00     0.039 A 
ATOM      8  C   UNL A   1      36.666  29.706  27.907  1.00  0.00     0.014 A 
ATOM      9  C   UNL A   1      37.623  31.684  28.877  1.00  0.00     0.014 A 
ATOM     10  C   UNL A   1      37.789  28.979  28.318  1.00  0.00     0.010 A 
ATOM     11  C   UNL A   1      38.749  30.963  29.283  1.00  0.00     0.010 A 
ATOM     12  C   UNL A   1      38.836  29.600  29.007  1.00  0.00    -0.014 A 
BRANCH  12  13
ATOM     13  C   UNL A   1      40.020  28.794  29.334  1.00  0.00     0.031 A 
ATOM     14  C   UNL A   1      40.379  28.656  30.779  1.00  0.00     0.074 A 
ATOM     15  C   UNL A   1      40.714  28.037  28.461  1.00  0.00     0.049 A 
ATOM     16  N   UNL A   1      41.488  28.965  31.370  1.00  0.00    -0.248 NA
ATOM     17  C   UNL A   1      39.361  28.097  31.680  1.00  0.00     0.031 C 
ATOM     18  C   UNL A   1      40.362  27.704  27.081  1.00  0.00     0.029 A 
ATOM     19  N   UNL A   1      41.855  27.311  28.682  1.00  0.00    -0.354 N 
ATOM     20  C   UNL A   1      41.388  28.491  32.679  1.00  0.00     0.074 A 
ATOM     21  C   UNL A   1      40.026  28.047  32.837  1.00  0.00     0.031 C 
ATOM     22  C   UNL A   1      41.146  26.687  26.660  1.00  0.00     0.029 A 
ATOM     23  C   UNL A   1      42.140  26.397  27.683  1.00  0.00     0.049 A 
ATOM     24  H   UNL A   1      42.420  27.431  29.480  1.00  0.00     0.167 HD
ATOM     25  C   UNL A   1      42.468  28.377  33.504  1.00  0.00     0.034 A 
ATOM     26  C   UNL A   1      43.088  25.428  27.699  1.00  0.00     0.034 A 
ATOM     27  C   UNL A   1      43.586  29.155  33.034  1.00  0.00     0.049 A 
ATOM     28  C   UNL A   1      44.125  25.803  28.687  1.00  0.00     0.074 A 
ATOM     29  C   UNL A   1      43.797  30.492  32.759  1.00  0.00     0.029 A 
ATOM     30  N   UNL A   1      44.675  28.499  32.512  1.00  0.00    -0.354 N 
ATOM     31  N   UNL A   1      44.924  26.825  28.562  1.00  0.00    -0.248 NA
ATOM     32  C   UNL A   1      44.084  25.209  30.014  1.00  0.00     0.031 C 
ATOM     33  C   UNL A   1      44.733  30.510  31.684  1.00  0.00     0.029 A 
ATOM     34  C   UNL A   1      45.041  29.183  31.380  1.00  0.00     0.049 A 
ATOM     35  H   UNL A   1      45.107  27.694  32.879  1.00  0.00     0.167 HD
ATOM     36  C   UNL A   1      45.180  27.243  29.856  1.00  0.00     0.074 A 
ATOM     37  C   UNL A   1      44.755  26.135  30.701  1.00  0.00     0.031 C 
ATOM     38  C   UNL A   1      45.447  28.551  30.141  1.00  0.00     0.034 A 
BRANCH  25  39
ATOM     39  C   UNL A   1      42.622  27.388  34.642  1.00  0.00     0.023 A 
ATOM     40  C   UNL A   1      43.414  26.238  34.425  1.00  0.00     0.031 A 
ATOM     41  C   UNL A   1      41.839  27.377  35.815  1.00  0.00     0.131 A 
ATOM     42  C   UNL A   1      43.364  25.140  35.303  1.00  0.00     0.055 A 
ATOM     43  C   UNL A   1      41.850  26.314  36.727  1.00  0.00     0.041 A 
ATOM     44  F   UNL A   1      40.958  28.346  36.094  1.00  0.00    -0.206 F 
ATOM     45  C   UNL A   1      42.595  25.176  36.462  1.00  0.00     0.022 A 
BRANCH  42  46
ATOM     46  S   UNL A   1      44.168  23.591  34.806  1.00  0.00     0.124 S 
ATOM     47  O   UNL A   1      43.082  22.891  34.128  1.00  0.00    -0.237 OA
ATOM     48  O   UNL A   1      45.253  24.074  33.959  1.00  0.00    -0.237 OA
ATOM     49  O   UNL A   1      44.584  23.003  36.077  1.00  0.00    -0.744 OA
ENDBRANCH  42  46
ENDBRANCH  25  39
BRANCH  26  50
ATOM     50  C   UNL A   1      43.010  24.090  27.062  1.00  0.00     0.023 A 
ATOM     51  C   UNL A   1      43.916  23.674  26.068  1.00  0.00     0.031 A 
ATOM     52  C   UNL A   1      42.148  23.103  27.594  1.00  0.00     0.131 A 
ATOM     53  C   UNL A   1      43.923  22.330  25.634  1.00  0.00     0.055 A 
ATOM     54  C   UNL A   1      42.145  21.782  27.148  1.00  0.00     0.041 A 
ATOM     55  F   UNL A   1      41.334  23.376  28.625  1.00  0.00    -0.206 F 
ATOM     56  C   UNL A   1      43.039  21.388  26.166  1.00  0.00     0.022 A 
BRANCH  53  57
ATOM     57  S   UNL A   1      45.175  21.765  24.441  1.00  0.00     0.124 S 
ATOM     58  O   UNL A   1      44.584  20.532  23.935  1.00  0.00    -0.237 OA
ATOM     59  O   UNL A   1      45.245  22.884  23.507  1.00  0.00    -0.237 OA
ATOM     60  O   UNL A   1      46.371  21.584  25.265  1.00  0.00    -0.744 OA
ENDBRANCH  53  57
ENDBRANCH  26  50
BRANCH  38  61
ATOM     61  C   UNL A   1      45.891  29.468  29.026  1.00  0.00     0.023 A 
ATOM     62  C   UNL A   1      45.017  30.263  28.256  1.00  0.00     0.031 A 
ATOM     63  C   UNL A   1      47.275  29.647  28.843  1.00  0.00     0.131 A 
ATOM     64  C   UNL A   1      45.539  31.191  27.336  1.00  0.00     0.055 A 
ATOM     65  C   UNL A   1      47.789  30.577  27.941  1.00  0.00     0.041 A 
ATOM     66  F   UNL A   1      48.155  28.945  29.577  1.00  0.00    -0.206 F 
ATOM     67  C   UNL A   1      46.920  31.351  27.179  1.00  0.00     0.022 A 
BRANCH  64  68
ATOM     68  S   UNL A   1      44.416  32.224  26.344  1.00  0.00     0.124 S 
ATOM     69  O   UNL A   1      43.967  33.238  27.291  1.00  0.00    -0.237 OA
ATOM     70  O   UNL A   1      45.284  32.691  25.265  1.00  0.00    -0.237 OA
ATOM     71  O   UNL A   1      43.375  31.286  25.919  1.00  0.00    -0.744 OA
ENDBRANCH  64  68
ENDBRANCH  38  61
ENDBRANCH  12  13
ENDBRANCH   5   7
ENDBRANCH   2   3
ENDBRANCH   1   2
BRANCH   1  72
ATOM     72  C   UNL A   1      32.505  29.709  24.953  1.00  0.00     0.002 C 
BRANCH  72  73
ATOM     73  C   UNL A   1      31.248  29.235  24.215  1.00  0.00     0.002 C 
BRANCH  73  74
ATOM     74  C   UNL A   1      31.477  28.508  22.886  1.00  0.00     0.021 C 
BRANCH  74  75
ATOM     75  C   UNL A   1      32.184  27.158  22.985  1.00  0.00     0.116 C 
BRANCH  75  76
ATOM     76  N   UNL A   1      31.285  26.034  22.776  1.00  0.00    -0.352 N 
ATOM     77  C   UNL A   1      31.318  24.775  23.334  1.00  0.00     0.256 C 
ATOM     78  H   UNL A   1      30.546  26.195  22.145  1.00  0.00     0.163 HD
ATOM     79  O   UNL A   1      30.439  23.970  23.050  1.00  0.00    -0.269 OA
BRANCH  77  80
ATOM     80  C   UNL A   1      32.394  24.461  24.246  1.00  0.00     0.100 A 
ATOM     81  C   UNL A   1      32.535  24.664  25.640  1.00  0.00     0.080 A 
ATOM     82  C   UNL A   1      33.599  23.894  23.887  1.00  0.00     0.145 A 
ATOM     83  N   UNL A   1      33.637  24.082  26.128  1.00  0.00    -0.170 NA
ATOM     84  N   UNL A   1      34.301  23.617  25.038  1.00  0.00    -0.221 N 
ATOM     85  Cl  UNL A   1      34.135  23.403  22.338  1.00  0.00    -0.061 Cl
BRANCH  81  86
ATOM     86  C   UNL A   1      31.618  25.373  26.634  1.00  0.00     0.041 C 
ATOM     87  C   UNL A   1      31.646  26.872  26.825  1.00  0.00     0.011 C 
ATOM     88  C   UNL A   1      30.480  26.237  26.148  1.00  0.00     0.011 C 
ENDBRANCH  81  86
BRANCH  84  89
ATOM     89  C   UNL A   1      35.504  22.885  25.230  1.00  0.00     0.069 A 
ATOM     90  C   UNL A   1      35.496  21.503  24.972  1.00  0.00     0.030 A 
ATOM     91  C   UNL A   1      36.684  23.505  25.651  1.00  0.00     0.069 A 
ATOM     92  C   UNL A   1      36.678  20.763  25.064  1.00  0.00     0.026 A 
ATOM     93  C   UNL A   1      37.849  22.750  25.772  1.00  0.00     0.143 A 
ATOM     94  C   UNL A   1      37.858  21.390  25.464  1.00  0.00     0.076 A 
ATOM     95  F   UNL A   1      38.963  23.358  26.204  1.00  0.00    -0.205 F 
ATOM     96  Cl  UNL A   1      39.307  20.470  25.579  1.00  0.00    -0.081 Cl
ENDBRANCH  84  89
ENDBRANCH  77  80
ENDBRANCH  75  76
ENDBRANCH  74  75
ENDBRANCH  73  74
ENDBRANCH  72  73
ENDBRANCH   1  72
TORSDOF 18
ENDMDL
MODEL 2
REMARK VINA RESULT:     -12.4      2.245      7.041
REMARK SMILES O=C(NCCCCCCNC(=O)c1c(C2CC2)nn(-c2ccc(Cl)c(F)c2)c1Cl)c1ccc(-c2c3nc(c(-c4cc(S(=O)(=O)[O-])ccc4F)c4ccc([nH]4)c(-c4cc(S(=O)(=O)[O-])ccc4F)c4nc(c(-c5cc(S(=O)(=O)[O-])ccc5F)c5ccc2[nH]5)C=C4)C=C3)cc1
REMARK SMILES IDX 5 1 4 2 3 3 1 4 2 5 30 7 31 8 92 9 32 10 91 11 33 12 34 13
REMARK SMILES IDX 35 14 85 15 36 16 90 17 84 18 86 19 37 20 89 21 83 22 82 23
REMARK SMILES IDX 38 25 70 26 50 27 69 28 51 29 54 30 68 31 87 32 52 33 53 34
REMARK SMILES IDX 67 36 88 37 55 38 39 39 40 40 48 41 41 42 47 43 49 44 46 45
REMARK SMILES IDX 42 46 43 47 44 48 45 49 71 50 72 51 80 52 73 53 79 54 81 55
REMARK SMILES IDX 78 56 74 57 75 58 76 59 77 60 56 61 57 62 65 63 58 64 64 65
REMARK SMILES IDX 66 66 63 67 59 68 60 69 61 70 62 71 6 72 7 73 8 74 9 75
REMARK SMILES IDX 10 76 11 77 12 79 13 80 14 81 28 82 18 83 19 84 29 85 15 86
REMARK SMILES IDX 16 87 17 88 20 89 21 90 27 91 22 92 25 93 23 94 26 95 24 96
REMARK H PARENT 3 6 86 24 54 35 10 78
REMARK Flexibility Score: inf
ROOT
ATOM      1  C   UNL A   1      33.209  28.586  26.280  1.00  0.00     0.021 C 
ENDROOT
BRANCH   1   2
ATOM      2  C   UNL A   1      34.617  28.602  26.875  1.00  0.00     0.116 C 
BRANCH   2   3
ATOM      3  N   UNL A   1      34.782  29.540  27.967  1.00  0.00    -0.352 N 
ATOM      4  O   UNL A   1      35.558  30.871  29.535  1.00  0.00    -0.269 OA
ATOM      5  C   UNL A   1      35.836  29.993  28.711  1.00  0.00     0.251 C 
ATOM      6  H   UNL A   1      33.929  29.950  28.238  1.00  0.00     0.163 HD
BRANCH   5   7
ATOM      7  C   UNL A   1      37.252  29.526  28.609  1.00  0.00     0.039 A 
ATOM      8  C   UNL A   1      38.130  29.789  27.558  1.00  0.00     0.014 A 
ATOM      9  C   UNL A   1      37.733  28.758  29.690  1.00  0.00     0.014 A 
ATOM     10  C   UNL A   1      39.442  29.301  27.583  1.00  0.00     0.010 A 
ATOM     11  C   UNL A   1      39.044  28.275  29.722  1.00  0.00     0.010 A 
ATOM     12  C   UNL A   1      39.907  28.543  28.662  1.00  0.00    -0.014 A 
BRANCH  12  13
ATOM     13  C   UNL A   1      41.318  28.135  28.660  1.00  0.00     0.031 A 
ATOM     14  C   UNL A   1      41.679  26.912  27.879  1.00  0.00     0.074 A 
ATOM     15  C   UNL A   1      42.340  28.855  29.165  1.00  0.00     0.049 A 
ATOM     16  N   UNL A   1      42.257  25.830  28.291  1.00  0.00    -0.248 NA
ATOM     17  C   UNL A   1      41.347  26.899  26.447  1.00  0.00     0.031 C 
ATOM     18  C   UNL A   1      42.315  30.236  29.647  1.00  0.00     0.029 A 
ATOM     19  N   UNL A   1      43.664  28.512  29.249  1.00  0.00    -0.354 N 
ATOM     20  C   UNL A   1      42.523  25.062  27.156  1.00  0.00     0.074 A 
ATOM     21  C   UNL A   1      41.862  25.729  26.063  1.00  0.00     0.031 C 
ATOM     22  C   UNL A   1      43.585  30.680  29.775  1.00  0.00     0.029 A 
ATOM     23  C   UNL A   1      44.503  29.579  29.521  1.00  0.00     0.049 A 
ATOM     24  H   UNL A   1      43.988  27.590  29.128  1.00  0.00     0.167 HD
ATOM     25  C   UNL A   1      43.378  24.000  27.171  1.00  0.00     0.034 A 
ATOM     26  C   UNL A   1      45.858  29.589  29.492  1.00  0.00     0.034 A 
ATOM     27  C   UNL A   1      43.630  23.533  28.511  1.00  0.00     0.049 A 
ATOM     28  C   UNL A   1      46.341  28.199  29.653  1.00  0.00     0.074 A 
ATOM     29  C   UNL A   1      42.844  23.057  29.542  1.00  0.00     0.029 A 
ATOM     30  N   UNL A   1      44.865  23.763  29.069  1.00  0.00    -0.354 N 
ATOM     31  N   UNL A   1      46.196  27.492  30.739  1.00  0.00    -0.248 NA
ATOM     32  C   UNL A   1      46.734  27.446  28.473  1.00  0.00     0.031 C 
ATOM     33  C   UNL A   1      43.495  23.483  30.736  1.00  0.00     0.029 A 
ATOM     34  C   UNL A   1      44.642  24.182  30.356  1.00  0.00     0.049 A 
ATOM     35  H   UNL A   1      45.739  23.650  28.630  1.00  0.00     0.167 HD
ATOM     36  C   UNL A   1      46.092  26.182  30.304  1.00  0.00     0.074 A 
ATOM     37  C   UNL A   1      46.568  26.202  28.928  1.00  0.00     0.031 C 
ATOM     38  C   UNL A   1      45.368  25.257  31.001  1.00  0.00     0.034 A 
BRANCH  25  39
ATOM     39  C   UNL A   1      44.186  23.487  25.995  1.00  0.00     0.023 A 
ATOM     40  C   UNL A   1      44.040  22.132  25.624  1.00  0.00     0.031 A 
ATOM     41  C   UNL A   1      45.265  24.171  25.396  1.00  0.00     0.131 A 
ATOM     42  C   UNL A   1      44.958  21.508  24.760  1.00  0.00     0.055 A 
ATOM     43  C   UNL A   1      46.131  23.567  24.475  1.00  0.00     0.041 A 
ATOM     44  F   UNL A   1      45.593  25.424  25.736  1.00  0.00    -0.206 F 
ATOM     45  C   UNL A   1      45.997  22.222  24.171  1.00  0.00     0.022 A 
BRANCH  42  46
ATOM     46  S   UNL A   1      44.886  19.704  24.568  1.00  0.00     0.124 S 
ATOM     47  O   UNL A   1      44.491  19.566  23.170  1.00  0.00    -0.237 OA
ATOM     48  O   UNL A   1      46.253  19.313  24.893  1.00  0.00    -0.237 OA
ATOM     49  O   UNL A   1      43.873  19.301  25.540  1.00  0.00    -0.744 OA
ENDBRANCH  42  46
ENDBRANCH  25  39
BRANCH  26  50
ATOM     50  C   UNL A   1      46.736  30.721  29.102  1.00  0.00     0.023 A 
ATOM     51  C   UNL A   1      46.469  31.531  27.983  1.00  0.00     0.031 A 
ATOM     52  C   UNL A   1      47.757  31.156  29.977  1.00  0.00     0.131 A 
ATOM     53  C   UNL A   1      47.218  32.709  27.766  1.00  0.00     0.055 A 
ATOM     54  C   UNL A   1      48.508  32.309  29.748  1.00  0.00     0.041 A 
ATOM     55  F   UNL A   1      48.004  30.515  31.130  1.00  0.00    -0.206 F 
ATOM     56  C   UNL A   1      48.237  33.095  28.640  1.00  0.00     0.022 A 
BRANCH  53  57
ATOM     57  S   UNL A   1      46.791  33.820  26.390  1.00  0.00     0.124 S 
ATOM     58  O   UNL A   1      48.069  33.966  25.704  1.00  0.00    -0.237 OA
ATOM     59  O   UNL A   1      45.758  33.065  25.687  1.00  0.00    -0.237 OA
ATOM     60  O   UNL A   1      46.310  35.026  27.065  1.00  0.00    -0.744 OA
ENDBRANCH  53  57
ENDBRANCH  26  50
BRANCH  38  61
ATOM     61  C   UNL A   1      45.039  25.525  32.450  1.00  0.00     0.023 A 
ATOM     62  C   UNL A   1      43.870  26.177  32.891  1.00  0.00     0.031 A 
ATOM     63  C   UNL A   1      45.883  24.959  33.424  1.00  0.00     0.131 A 
ATOM     64  C   UNL A   1      43.584  26.253  34.267  1.00  0.00     0.055 A 
ATOM     65  C   UNL A   1      45.589  25.023  34.786  1.00  0.00     0.041 A 
ATOM     66  F   UNL A   1      46.991  24.291  33.061  1.00  0.00    -0.206 F 
ATOM     67  C   UNL A   1      44.438  25.676  35.213  1.00  0.00     0.022 A 
BRANCH  64  68
ATOM     68  S   UNL A   1      42.073  27.088  34.841  1.00  0.00     0.124 S 
ATOM     69  O   UNL A   1      41.208  25.984  35.241  1.00  0.00    -0.237 OA
ATOM     70  O   UNL A   1      42.571  27.939  35.920  1.00  0.00    -0.237 OA
ATOM     71  O   UNL A   1      41.616  27.821  33.658  1.00  0.00    -0.744 OA
ENDBRANCH  64  68
ENDBRANCH  38  61
ENDBRANCH  12  13
ENDBRANCH   5   7
ENDBRANCH   2   3
ENDBRANCH   1   2
BRANCH   1  72
ATOM     72  C   UNL A   1      32.713  27.220  25.788  1.00  0.00     0.002 C 
BRANCH  72  73
ATOM     73  C   UNL A   1      31.502  26.625  26.516  1.00  0.00     0.002 C 
BRANCH  73  74
ATOM     74  C   UNL A   1      30.635  25.655  25.709  1.00  0.00     0.021 C 
BRANCH  74  75
ATOM     75  C   UNL A   1      30.979  24.175  25.867  1.00  0.00     0.116 C 
BRANCH  75  76
ATOM     76  N   UNL A   1      30.700  23.400  24.668  1.00  0.00    -0.352 N 
ATOM     77  C   UNL A   1      31.565  22.973  23.684  1.00  0.00     0.256 C 
ATOM     78  H   UNL A   1      29.758  23.144  24.540  1.00  0.00     0.163 HD
ATOM     79  O   UNL A   1      31.134  22.294  22.760  1.00  0.00    -0.269 OA
BRANCH  77  80
ATOM     80  C   UNL A   1      32.958  23.340  23.794  1.00  0.00     0.100 A 
ATOM     81  C   UNL A   1      33.662  24.494  23.373  1.00  0.00     0.080 A 
ATOM     82  C   UNL A   1      33.948  22.548  24.338  1.00  0.00     0.145 A 
ATOM     83  N   UNL A   1      34.928  24.503  23.809  1.00  0.00    -0.170 NA
ATOM     84  N   UNL A   1      35.106  23.291  24.396  1.00  0.00    -0.221 N 
ATOM     85  Cl  UNL A   1      33.816  20.988  25.028  1.00  0.00    -0.061 Cl
BRANCH  81  86
ATOM     86  C   UNL A   1      33.188  25.705  22.574  1.00  0.00     0.041 C 
ATOM     87  C   UNL A   1      32.752  25.598  21.131  1.00  0.00     0.011 C 
ATOM     88  C   UNL A   1      31.735  25.853  22.191  1.00  0.00     0.011 C 
ENDBRANCH  81  86
BRANCH  84  89
ATOM     89  C   UNL A   1      36.351  23.008  25.018  1.00  0.00     0.069 A 
ATOM     90  C   UNL A   1      36.935  21.746  24.806  1.00  0.00     0.030 A 
ATOM     91  C   UNL A   1      37.007  23.950  25.816  1.00  0.00     0.069 A 
ATOM     92  C   UNL A   1      38.199  21.459  25.328  1.00  0.00     0.026 A 
ATOM     93  C   UNL A   1      38.252  23.639  26.360  1.00  0.00     0.143 A 
ATOM     94  C   UNL A   1      38.859  22.410  26.106  1.00  0.00     0.076 A 
ATOM     95  F   UNL A   1      38.851  24.546  27.145  1.00  0.00    -0.205 F 
ATOM     96  Cl  UNL A   1      40.412  22.044  26.750  1.00  0.00    -0.081 Cl
ENDBRANCH  84  89
ENDBRANCH  77  80
ENDBRANCH  75  76
ENDBRANCH  74  75
ENDBRANCH  73  74
ENDBRANCH  72  73
ENDBRANCH   1  72
TORSDOF 18
ENDMDL
MODEL 3
REMARK VINA RESULT:     -12.3      2.525      3.176
REMARK SMILES O=C(NCCCCCCNC(=O)c1c(C2CC2)nn(-c2ccc(Cl)c(F)c2)c1Cl)c1ccc(-c2c3nc(c(-c4cc(S(=O)(=O)[O-])ccc4F)c4ccc([nH]4)c(-c4cc(S(=O)(=O)[O-])ccc4F)c4nc(c(-c5cc(S(=O)(=O)[O-])ccc5F)c5ccc2[nH]5)C=C4)C=C3)cc1
REMARK SMILES IDX 5 1 4 2 3 3 1 4 2 5 30 7 31 8 92 9 32 10 91 11 33 12 34 13
REMARK SMILES IDX 35 14 85 15 36 16 90 17 84 18 86 19 37 20 89 21 83 22 82 23
REMARK SMILES IDX 38 25 70 26 50 27 69 28 51 29 54 30 68 31 87 32 52 33 53 34
REMARK SMILES IDX 67 36 88 37 55 38 39 39 40 40 48 41 41 42 47 43 49 44 46 45
REMARK SMILES IDX 42 46 43 47 44 48 45 49 71 50 72 51 80 52 73 53 79 54 81 55
REMARK SMILES IDX 78 56 74 57 75 58 76 59 77 60 56 61 57 62 65 63 58 64 64 65
REMARK SMILES IDX 66 66 63 67 59 68 60 69 61 70 62 71 6 72 7 73 8 74 9 75
REMARK SMILES IDX 10 76 11 77 12 79 13 80 14 81 28 82 18 83 19 84 29 85 15 86
REMARK SMILES IDX 16 87 17 88 20 89 21 90 27 91 22 92 25 93 23 94 26 95 24 96
REMARK H PARENT 3 6 86 24 54 35 10 78
REMARK Flexibility Score: inf
ROOT
ATOM      1  C   UNL A   1      31.834  29.025  26.784  1.00  0.00     0.021 C 
ENDROOT
BRANCH   1   2
ATOM      2  C   UNL A   1      33.173  29.674  26.430  1.00  0.00     0.116 C 
BRANCH   2   3
ATOM      3  N   UNL A   1      33.407  30.937  27.098  1.00  0.00    -0.352 N 
ATOM      4  O   UNL A   1      34.263  32.657  28.167  1.00  0.00    -0.269 OA
ATOM      5  C   UNL A   1      34.441  31.489  27.804  1.00  0.00     0.251 C 
ATOM      6  H   UNL A   1      32.636  31.546  27.027  1.00  0.00     0.163 HD
BRANCH   5   7
ATOM      7  C   UNL A   1      35.726  30.814  28.158  1.00  0.00     0.039 A 
ATOM      8  C   UNL A   1      36.008  29.455  28.010  1.00  0.00     0.014 A 
ATOM      9  C   UNL A   1      36.742  31.642  28.678  1.00  0.00     0.014 A 
ATOM     10  C   UNL A   1      37.259  28.942  28.372  1.00  0.00     0.010 A 
ATOM     11  C   UNL A   1      37.994  31.134  29.034  1.00  0.00     0.010 A 
ATOM     12  C   UNL A   1      38.258  29.775  28.885  1.00  0.00    -0.014 A 
BRANCH  12  13
ATOM     13  C   UNL A   1      39.573  29.183  29.164  1.00  0.00     0.031 A 
ATOM     14  C   UNL A   1      39.971  29.040  30.598  1.00  0.00     0.074 A 
ATOM     15  C   UNL A   1      40.381  28.609  28.249  1.00  0.00     0.049 A 
ATOM     16  N   UNL A   1      41.014  29.516  31.199  1.00  0.00    -0.248 NA
ATOM     17  C   UNL A   1      39.085  28.261  31.474  1.00  0.00     0.031 C 
ATOM     18  C   UNL A   1      40.076  28.286  26.856  1.00  0.00     0.029 A 
ATOM     19  N   UNL A   1      41.637  28.093  28.428  1.00  0.00    -0.354 N 
ATOM     20  C   UNL A   1      41.020  28.967  32.482  1.00  0.00     0.074 A 
ATOM     21  C   UNL A   1      39.764  28.276  32.624  1.00  0.00     0.031 C 
ATOM     22  C   UNL A   1      41.026  27.451  26.379  1.00  0.00     0.029 A 
ATOM     23  C   UNL A   1      42.070  27.296  27.381  1.00  0.00     0.049 A 
ATOM     24  H   UNL A   1      42.183  28.273  29.228  1.00  0.00     0.167 HD
ATOM     25  C   UNL A   1      42.115  29.011  33.295  1.00  0.00     0.034 A 
ATOM     26  C   UNL A   1      43.178  26.516  27.343  1.00  0.00     0.034 A 
ATOM     27  C   UNL A   1      43.066  30.001  32.861  1.00  0.00     0.049 A 
ATOM     28  C   UNL A   1      44.143  27.023  28.345  1.00  0.00     0.074 A 
ATOM     29  C   UNL A   1      43.028  31.366  32.654  1.00  0.00     0.029 A 
ATOM     30  N   UNL A   1      44.248  29.581  32.300  1.00  0.00    -0.354 N 
ATOM     31  N   UNL A   1      44.742  28.179  28.268  1.00  0.00    -0.248 NA
ATOM     32  C   UNL A   1      44.229  26.367  29.639  1.00  0.00     0.031 C 
ATOM     33  C   UNL A   1      43.929  31.608  31.577  1.00  0.00     0.029 A 
ATOM     34  C   UNL A   1      44.468  30.375  31.204  1.00  0.00     0.049 A 
ATOM     35  H   UNL A   1      44.825  28.850  32.623  1.00  0.00     0.167 HD
ATOM     36  C   UNL A   1      44.936  28.572  29.581  1.00  0.00     0.074 A 
ATOM     37  C   UNL A   1      44.731  27.364  30.370  1.00  0.00     0.031 C 
ATOM     38  C   UNL A   1      44.965  29.891  29.932  1.00  0.00     0.034 A 
BRANCH  25  39
ATOM     39  C   UNL A   1      42.461  28.010  34.380  1.00  0.00     0.023 A 
ATOM     40  C   UNL A   1      43.175  26.848  34.013  1.00  0.00     0.031 A 
ATOM     41  C   UNL A   1      41.914  28.005  35.680  1.00  0.00     0.131 A 
ATOM     42  C   UNL A   1      43.271  25.744  34.880  1.00  0.00     0.055 A 
ATOM     43  C   UNL A   1      42.076  26.935  36.570  1.00  0.00     0.041 A 
ATOM     44  F   UNL A   1      41.120  28.988  36.123  1.00  0.00    -0.206 F 
ATOM     45  C   UNL A   1      42.736  25.786  36.164  1.00  0.00     0.022 A 
BRANCH  42  46
ATOM     46  S   UNL A   1      43.936  24.184  34.235  1.00  0.00     0.124 S 
ATOM     47  O   UNL A   1      42.804  23.279  34.407  1.00  0.00    -0.237 OA
ATOM     48  O   UNL A   1      44.270  24.545  32.862  1.00  0.00    -0.237 OA
ATOM     49  O   UNL A   1      45.079  23.918  35.105  1.00  0.00    -0.744 OA
ENDBRANCH  42  46
ENDBRANCH  25  39
BRANCH  26  50
ATOM     50  C   UNL A   1      43.335  25.219  26.638  1.00  0.00     0.023 A 
ATOM     51  C   UNL A   1      42.556  24.090  26.955  1.00  0.00     0.031 A 
ATOM     52  C   UNL A   1      44.129  25.141  25.472  1.00  0.00     0.131 A 
ATOM     53  C   UNL A   1      42.603  22.944  26.131  1.00  0.00     0.055 A 
ATOM     54  C   UNL A   1      44.188  23.999  24.673  1.00  0.00     0.041 A 
ATOM     55  F   UNL A   1      44.813  26.206  25.025  1.00  0.00    -0.206 F 
ATOM     56  C   UNL A   1      43.420  22.894  24.998  1.00  0.00     0.022 A 
BRANCH  53  57
ATOM     57  S   UNL A   1      41.505  21.533  26.469  1.00  0.00     0.124 S 
ATOM     58  O   UNL A   1      42.108  20.474  25.670  1.00  0.00    -0.237 OA
ATOM     59  O   UNL A   1      41.609  21.395  27.918  1.00  0.00    -0.237 OA
ATOM     60  O   UNL A   1      40.201  21.999  25.994  1.00  0.00    -0.744 OA
ENDBRANCH  53  57
ENDBRANCH  26  50
BRANCH  38  61
ATOM     61  C   UNL A   1      45.220  30.927  28.864  1.00  0.00     0.023 A 
ATOM     62  C   UNL A   1      46.500  31.391  28.498  1.00  0.00     0.031 A 
ATOM     63  C   UNL A   1      44.123  31.347  28.089  1.00  0.00     0.131 A 
ATOM     64  C   UNL A   1      46.646  32.252  27.394  1.00  0.00     0.055 A 
ATOM     65  C   UNL A   1      44.273  32.188  26.987  1.00  0.00     0.041 A 
ATOM     66  F   UNL A   1      42.884  30.906  28.367  1.00  0.00    -0.206 F 
ATOM     67  C   UNL A   1      45.538  32.649  26.638  1.00  0.00     0.022 A 
BRANCH  64  68
ATOM     68  S   UNL A   1      48.297  32.848  26.913  1.00  0.00     0.124 S 
ATOM     69  O   UNL A   1      48.016  33.767  25.816  1.00  0.00    -0.237 OA
ATOM     70  O   UNL A   1      48.788  33.453  28.149  1.00  0.00    -0.237 OA
ATOM     71  O   UNL A   1      49.000  31.626  26.518  1.00  0.00    -0.744 OA
ENDBRANCH  64  68
ENDBRANCH  38  61
ENDBRANCH  12  13
ENDBRANCH   5   7
ENDBRANCH   2   3
ENDBRANCH   1   2
BRANCH   1  72
ATOM     72  C   UNL A   1      31.796  27.493  26.695  1.00  0.00     0.002 C 
BRANCH  72  73
ATOM     73  C   UNL A   1      31.397  26.893  25.342  1.00  0.00     0.002 C 
BRANCH  73  74
ATOM     74  C   UNL A   1      30.798  25.484  25.376  1.00  0.00     0.021 C 
BRANCH  74  75
ATOM     75  C   UNL A   1      31.732  24.360  24.931  1.00  0.00     0.116 C 
BRANCH  75  76
ATOM     76  N   UNL A   1      32.229  24.542  23.576  1.00  0.00    -0.352 N 
ATOM     77  C   UNL A   1      33.118  23.769  22.862  1.00  0.00     0.256 C 
ATOM     78  H   UNL A   1      31.879  25.329  23.100  1.00  0.00     0.163 HD
ATOM     79  O   UNL A   1      33.386  24.077  21.707  1.00  0.00    -0.269 OA
BRANCH  77  80
ATOM     80  C   UNL A   1      33.694  22.615  23.511  1.00  0.00     0.100 A 
ATOM     81  C   UNL A   1      34.819  22.476  24.358  1.00  0.00     0.080 A 
ATOM     82  C   UNL A   1      33.237  21.319  23.379  1.00  0.00     0.145 A 
ATOM     83  N   UNL A   1      34.919  21.243  24.871  1.00  0.00    -0.170 NA
ATOM     84  N   UNL A   1      33.945  20.526  24.253  1.00  0.00    -0.221 N 
ATOM     85  Cl  UNL A   1      31.908  20.737  22.471  1.00  0.00    -0.061 Cl
BRANCH  81  86
ATOM     86  C   UNL A   1      35.860  23.503  24.797  1.00  0.00     0.041 C 
ATOM     87  C   UNL A   1      35.596  24.490  25.911  1.00  0.00     0.011 C 
ATOM     88  C   UNL A   1      36.556  23.370  26.130  1.00  0.00     0.011 C 
ENDBRANCH  81  86
BRANCH  84  89
ATOM     89  C   UNL A   1      33.750  19.169  24.629  1.00  0.00     0.069 A 
ATOM     90  C   UNL A   1      32.601  18.838  25.370  1.00  0.00     0.030 A 
ATOM     91  C   UNL A   1      34.657  18.168  24.270  1.00  0.00     0.069 A 
ATOM     92  C   UNL A   1      32.328  17.504  25.685  1.00  0.00     0.026 A 
ATOM     93  C   UNL A   1      34.390  16.846  24.620  1.00  0.00     0.143 A 
ATOM     94  C   UNL A   1      33.225  16.505  25.307  1.00  0.00     0.076 A 
ATOM     95  F   UNL A   1      35.287  15.904  24.291  1.00  0.00    -0.205 F 
ATOM     96  Cl  UNL A   1      32.882  14.867  25.704  1.00  0.00    -0.081 Cl
ENDBRANCH  84  89
ENDBRANCH  77  80
ENDBRANCH  75  76
ENDBRANCH  74  75
ENDBRANCH  73  74
ENDBRANCH  72  73
ENDBRANCH   1  72
TORSDOF 18
ENDMDL
