MODEL 1
REMARK VINA RESULT:     -13.6      0.000      0.000
REMARK SMILES O=C(NCCCCCCNC(=O)c1ccc(N2C(=O)[C@@H]3N=NC(c4ccccc4)=C3[C@H]2c2cccc(Br)c2)cc1)c1ccc(-c2c3nc(c(-c4cc(S(=O)(=O)[O-])ccc4F)c4ccc([nH]4)c(-c4cc(S(=O)(=O)[O-])ccc4F)c4nc(c(-c5cc(S(=O)(=O)[O-])ccc5F)c5ccc2[nH]5)C=C4)C=C3)cc1
REMARK SMILES IDX 6 1 5 2 4 3 3 4 1 5 2 6 41 8 42 9 103 10 43 11 102 12 44 13
REMARK SMILES IDX 45 14 46 15 96 16 47 17 101 18 95 19 97 20 48 21 100 22
REMARK SMILES IDX 94 23 93 24 49 26 81 27 61 28 80 29 62 30 65 31 79 32 98 33
REMARK SMILES IDX 63 34 64 35 78 37 99 38 66 39 50 40 51 41 59 42 52 43 58 44
REMARK SMILES IDX 60 45 57 46 53 47 54 48 55 49 56 50 82 51 83 52 91 53 84 54
REMARK SMILES IDX 90 55 92 56 89 57 85 58 86 59 87 60 88 61 67 62 68 63 76 64
REMARK SMILES IDX 69 65 75 66 77 67 74 68 70 69 71 70 72 71 73 72 7 73 8 74
REMARK SMILES IDX 9 75 10 76 11 77 12 79 13 80 14 81 40 82 15 83 39 84 16 85
REMARK SMILES IDX 17 86 18 87 31 88 20 89 19 90 30 91 21 92 23 93 22 94 32 95
REMARK SMILES IDX 33 96 38 97 34 98 36 99 35 100 37 101 24 102 25 103 29 104
REMARK SMILES IDX 26 105 28 106 27 107
REMARK H PARENT 3 7 97 25 65 36 10 78
REMARK Flexibility Score: inf
ROOT
ATOM      1  C   UNL A   1      37.138  23.378  25.382  1.00  0.00     0.002 C 
ENDROOT
BRANCH   1   2
ATOM      2  C   UNL A   1      38.379  23.648  26.243  1.00  0.00     0.021 C 
BRANCH   2   3
ATOM      3  C   UNL A   1      39.281  22.440  26.489  1.00  0.00     0.116 C 
BRANCH   3   4
ATOM      4  N   UNL A   1      40.616  22.551  25.941  1.00  0.00    -0.352 N 
ATOM      5  O   UNL A   1      42.726  23.102  25.583  1.00  0.00    -0.269 OA
ATOM      6  C   UNL A   1      41.663  23.411  26.131  1.00  0.00     0.251 C 
ATOM      7  H   UNL A   1      40.815  21.848  25.281  1.00  0.00     0.163 HD
BRANCH   6   8
ATOM      8  C   UNL A   1      41.590  24.694  26.883  1.00  0.00     0.039 A 
ATOM      9  C   UNL A   1      42.091  24.919  28.166  1.00  0.00     0.014 A 
ATOM     10  C   UNL A   1      40.966  25.762  26.209  1.00  0.00     0.014 A 
ATOM     11  C   UNL A   1      41.911  26.156  28.787  1.00  0.00     0.010 A 
ATOM     12  C   UNL A   1      40.794  27.001  26.820  1.00  0.00     0.010 A 
ATOM     13  C   UNL A   1      41.249  27.193  28.122  1.00  0.00    -0.014 A 
BRANCH  13  14
ATOM     14  C   UNL A   1      41.238  28.524  28.735  1.00  0.00     0.031 A 
ATOM     15  C   UNL A   1      42.357  29.410  28.302  1.00  0.00     0.074 A 
ATOM     16  C   UNL A   1      40.230  29.016  29.483  1.00  0.00     0.049 A 
ATOM     17  N   UNL A   1      43.287  29.939  29.027  1.00  0.00    -0.248 NA
ATOM     18  C   UNL A   1      42.524  29.647  26.858  1.00  0.00     0.031 C 
ATOM     19  C   UNL A   1      38.937  28.390  29.759  1.00  0.00     0.029 A 
ATOM     20  N   UNL A   1      40.109  30.247  30.070  1.00  0.00    -0.354 N 
ATOM     21  C   UNL A   1      44.031  30.751  28.173  1.00  0.00     0.074 A 
ATOM     22  C   UNL A   1      43.627  30.397  26.839  1.00  0.00     0.031 C 
ATOM     23  C   UNL A   1      38.091  29.317  30.261  1.00  0.00     0.029 A 
ATOM     24  C   UNL A   1      38.809  30.568  30.456  1.00  0.00     0.049 A 
ATOM     25  H   UNL A   1      40.872  30.852  30.207  1.00  0.00     0.167 HD
ATOM     26  C   UNL A   1      44.764  31.800  28.640  1.00  0.00     0.034 A 
ATOM     27  C   UNL A   1      38.333  31.784  30.844  1.00  0.00     0.034 A 
ATOM     28  C   UNL A   1      45.005  31.677  30.059  1.00  0.00     0.049 A 
ATOM     29  C   UNL A   1      39.494  32.586  31.301  1.00  0.00     0.074 A 
ATOM     30  C   UNL A   1      45.597  30.723  30.864  1.00  0.00     0.029 A 
ATOM     31  N   UNL A   1      44.296  32.488  30.918  1.00  0.00    -0.354 N 
ATOM     32  N   UNL A   1      40.191  32.302  32.365  1.00  0.00    -0.248 NA
ATOM     33  C   UNL A   1      40.162  33.445  30.335  1.00  0.00     0.031 C 
ATOM     34  C   UNL A   1      44.802  30.697  32.047  1.00  0.00     0.029 A 
ATOM     35  C   UNL A   1      43.822  31.685  31.925  1.00  0.00     0.049 A 
ATOM     36  H   UNL A   1      44.156  33.458  30.827  1.00  0.00     0.167 HD
ATOM     37  C   UNL A   1      41.506  32.560  32.009  1.00  0.00     0.074 A 
ATOM     38  C   UNL A   1      41.415  33.361  30.791  1.00  0.00     0.031 C 
ATOM     39  C   UNL A   1      42.540  31.871  32.574  1.00  0.00     0.034 A 
BRANCH  26  40
ATOM     40  C   UNL A   1      44.961  33.116  27.910  1.00  0.00     0.023 A 
ATOM     41  C   UNL A   1      44.121  34.186  28.279  1.00  0.00     0.031 A 
ATOM     42  C   UNL A   1      45.673  33.290  26.703  1.00  0.00     0.131 A 
ATOM     43  C   UNL A   1      43.913  35.276  27.416  1.00  0.00     0.055 A 
ATOM     44  C   UNL A   1      45.521  34.414  25.884  1.00  0.00     0.041 A 
ATOM     45  F   UNL A   1      46.482  32.354  26.195  1.00  0.00    -0.206 F 
ATOM     46  C   UNL A   1      44.607  35.397  26.218  1.00  0.00     0.022 A 
BRANCH  43  47
ATOM     47  S   UNL A   1      42.559  36.420  27.796  1.00  0.00     0.124 S 
ATOM     48  O   UNL A   1      41.426  35.743  27.175  1.00  0.00    -0.237 OA
ATOM     49  O   UNL A   1      42.582  36.437  29.254  1.00  0.00    -0.237 OA
ATOM     50  O   UNL A   1      42.975  37.662  27.150  1.00  0.00    -0.744 OA
ENDBRANCH  43  47
ENDBRANCH  26  40
BRANCH  27  51
ATOM     51  C   UNL A   1      36.993  32.373  30.559  1.00  0.00     0.023 A 
ATOM     52  C   UNL A   1      36.160  32.924  31.559  1.00  0.00     0.031 A 
ATOM     53  C   UNL A   1      36.615  32.621  29.220  1.00  0.00     0.131 A 
ATOM     54  C   UNL A   1      35.012  33.673  31.200  1.00  0.00     0.055 A 
ATOM     55  C   UNL A   1      35.478  33.354  28.872  1.00  0.00     0.041 A 
ATOM     56  F   UNL A   1      37.390  32.233  28.194  1.00  0.00    -0.206 F 
ATOM     57  C   UNL A   1      34.675  33.891  29.863  1.00  0.00     0.022 A 
BRANCH  54  58
ATOM     58  S   UNL A   1      33.980  34.468  32.478  1.00  0.00     0.124 S 
ATOM     59  O   UNL A   1      32.958  35.137  31.680  1.00  0.00    -0.237 OA
ATOM     60  O   UNL A   1      33.539  33.333  33.279  1.00  0.00    -0.237 OA
ATOM     61  O   UNL A   1      34.912  35.369  33.158  1.00  0.00    -0.744 OA
ENDBRANCH  54  58
ENDBRANCH  27  51
BRANCH  39  62
ATOM     62  C   UNL A   1      42.283  31.063  33.827  1.00  0.00     0.023 A 
ATOM     63  C   UNL A   1      42.061  29.667  33.860  1.00  0.00     0.031 A 
ATOM     64  C   UNL A   1      42.391  31.735  35.059  1.00  0.00     0.131 A 
ATOM     65  C   UNL A   1      41.944  29.002  35.097  1.00  0.00     0.055 A 
ATOM     66  C   UNL A   1      42.295  31.070  36.280  1.00  0.00     0.041 A 
ATOM     67  F   UNL A   1      42.630  33.057  35.095  1.00  0.00    -0.206 F 
ATOM     68  C   UNL A   1      42.064  29.700  36.303  1.00  0.00     0.022 A 
BRANCH  65  69
ATOM     69  S   UNL A   1      41.621  27.210  35.162  1.00  0.00     0.124 S 
ATOM     70  O   UNL A   1      40.589  27.010  34.152  1.00  0.00    -0.237 OA
ATOM     71  O   UNL A   1      42.933  26.642  34.862  1.00  0.00    -0.237 OA
ATOM     72  O   UNL A   1      41.172  26.997  36.540  1.00  0.00    -0.744 OA
ENDBRANCH  65  69
ENDBRANCH  39  62
ENDBRANCH  13  14
ENDBRANCH   6   8
ENDBRANCH   3   4
ENDBRANCH   2   3
ENDBRANCH   1   2
BRANCH   1  73
ATOM     73  C   UNL A   1      37.164  22.102  24.534  1.00  0.00     0.002 C 
BRANCH  73  74
ATOM     74  C   UNL A   1      36.300  20.937  25.036  1.00  0.00     0.021 C 
BRANCH  74  75
ATOM     75  C   UNL A   1      35.192  21.304  26.025  1.00  0.00     0.116 C 
BRANCH  75  76
ATOM     76  N   UNL A   1      34.009  20.477  25.860  1.00  0.00    -0.352 N 
ATOM     77  C   UNL A   1      32.764  20.819  25.397  1.00  0.00     0.251 C 
ATOM     78  H   UNL A   1      34.116  19.533  26.119  1.00  0.00     0.163 HD
ATOM     79  O   UNL A   1      31.833  20.020  25.484  1.00  0.00    -0.269 OA
BRANCH  77  80
ATOM     80  C   UNL A   1      32.502  22.168  24.841  1.00  0.00     0.039 A 
ATOM     81  C   UNL A   1      32.300  22.266  23.465  1.00  0.00     0.016 A 
ATOM     82  C   UNL A   1      32.494  23.330  25.627  1.00  0.00     0.016 A 
ATOM     83  C   UNL A   1      32.011  23.507  22.896  1.00  0.00     0.027 A 
ATOM     84  C   UNL A   1      32.217  24.586  25.046  1.00  0.00     0.027 A 
ATOM     85  C   UNL A   1      31.944  24.676  23.681  1.00  0.00     0.045 A 
BRANCH  85  86
ATOM     86  N   UNL A   1      31.500  25.900  23.077  1.00  0.00    -0.299 N 
ATOM     87  C   UNL A   1      32.277  26.333  21.951  1.00  0.00     0.259 C 
ATOM     88  C   UNL A   1      31.138  27.060  23.933  1.00  0.00     0.152 C 
ATOM     89  C   UNL A   1      32.526  27.802  22.091  1.00  0.00     0.248 C 
ATOM     90  O   UNL A   1      32.729  25.621  21.057  1.00  0.00    -0.271 OA
ATOM     91  C   UNL A   1      32.279  27.916  23.544  1.00  0.00     0.021 C 
ATOM     92  N   UNL A   1      33.927  28.241  21.991  1.00  0.00    -0.170 NA
ATOM     93  C   UNL A   1      33.316  28.568  24.059  1.00  0.00     0.097 C 
ATOM     94  N   UNL A   1      34.272  28.786  23.084  1.00  0.00    -0.154 NA
BRANCH  88  95
ATOM     95  C   UNL A   1      29.808  27.762  23.581  1.00  0.00    -0.020 A 
ATOM     96  C   UNL A   1      28.557  27.123  23.796  1.00  0.00     0.006 A 
ATOM     97  C   UNL A   1      29.774  29.021  22.960  1.00  0.00     0.022 A 
ATOM     98  C   UNL A   1      27.339  27.713  23.454  1.00  0.00     0.002 A 
ATOM     99  C   UNL A   1      28.545  29.595  22.587  1.00  0.00     0.018 A 
ATOM    100  C   UNL A   1      27.331  28.953  22.839  1.00  0.00     0.016 A 
ATOM    101  Br  UNL A   1      28.511  31.262  21.692  1.00  0.00    -0.051 Br
ENDBRANCH  88  95
BRANCH  93 102
ATOM    102  C   UNL A   1      33.624  28.897  25.448  1.00  0.00     0.002 A 
ATOM    103  C   UNL A   1      32.928  29.922  26.104  1.00  0.00     0.010 A 
ATOM    104  C   UNL A   1      34.755  28.339  26.056  1.00  0.00     0.010 A 
ATOM    105  C   UNL A   1      33.412  30.439  27.310  1.00  0.00     0.001 A 
ATOM    106  C   UNL A   1      35.234  28.854  27.262  1.00  0.00     0.001 A 
ATOM    107  C   UNL A   1      34.578  29.920  27.875  1.00  0.00     0.000 A 
ENDBRANCH  93 102
ENDBRANCH  85  86
ENDBRANCH  77  80
ENDBRANCH  75  76
ENDBRANCH  74  75
ENDBRANCH  73  74
ENDBRANCH   1  73
TORSDOF 19
ENDMDL
MODEL 2
REMARK VINA RESULT:     -12.2      1.777      2.114
REMARK SMILES O=C(NCCCCCCNC(=O)c1ccc(N2C(=O)[C@@H]3N=NC(c4ccccc4)=C3[C@H]2c2cccc(Br)c2)cc1)c1ccc(-c2c3nc(c(-c4cc(S(=O)(=O)[O-])ccc4F)c4ccc([nH]4)c(-c4cc(S(=O)(=O)[O-])ccc4F)c4nc(c(-c5cc(S(=O)(=O)[O-])ccc5F)c5ccc2[nH]5)C=C4)C=C3)cc1
REMARK SMILES IDX 6 1 5 2 4 3 3 4 1 5 2 6 41 8 42 9 103 10 43 11 102 12 44 13
REMARK SMILES IDX 45 14 46 15 96 16 47 17 101 18 95 19 97 20 48 21 100 22
REMARK SMILES IDX 94 23 93 24 49 26 81 27 61 28 80 29 62 30 65 31 79 32 98 33
REMARK SMILES IDX 63 34 64 35 78 37 99 38 66 39 50 40 51 41 59 42 52 43 58 44
REMARK SMILES IDX 60 45 57 46 53 47 54 48 55 49 56 50 82 51 83 52 91 53 84 54
REMARK SMILES IDX 90 55 92 56 89 57 85 58 86 59 87 60 88 61 67 62 68 63 76 64
REMARK SMILES IDX 69 65 75 66 77 67 74 68 70 69 71 70 72 71 73 72 7 73 8 74
REMARK SMILES IDX 9 75 10 76 11 77 12 79 13 80 14 81 40 82 15 83 39 84 16 85
REMARK SMILES IDX 17 86 18 87 31 88 20 89 19 90 30 91 21 92 23 93 22 94 32 95
REMARK SMILES IDX 33 96 38 97 34 98 36 99 35 100 37 101 24 102 25 103 29 104
REMARK SMILES IDX 26 105 28 106 27 107
REMARK H PARENT 3 7 97 25 65 36 10 78
REMARK Flexibility Score: inf
ROOT
ATOM      1  C   UNL A   1      37.273  23.471  25.732  1.00  0.00     0.002 C 
ENDROOT
BRANCH   1   2
ATOM      2  C   UNL A   1      38.508  24.038  26.444  1.00  0.00     0.021 C 
BRANCH   2   3
ATOM      3  C   UNL A   1      39.519  23.001  26.927  1.00  0.00     0.116 C 
BRANCH   3   4
ATOM      4  N   UNL A   1      40.823  23.080  26.303  1.00  0.00    -0.352 N 
ATOM      5  O   UNL A   1      42.896  23.636  25.778  1.00  0.00    -0.269 OA
ATOM      6  C   UNL A   1      41.853  23.980  26.341  1.00  0.00     0.251 C 
ATOM      7  H   UNL A   1      41.011  22.312  25.716  1.00  0.00     0.163 HD
BRANCH   6   8
ATOM      8  C   UNL A   1      41.779  25.339  26.947  1.00  0.00     0.039 A 
ATOM      9  C   UNL A   1      40.912  26.361  26.558  1.00  0.00     0.014 A 
ATOM     10  C   UNL A   1      42.665  25.580  28.015  1.00  0.00     0.014 A 
ATOM     11  C   UNL A   1      40.977  27.613  27.171  1.00  0.00     0.010 A 
ATOM     12  C   UNL A   1      42.725  26.823  28.637  1.00  0.00     0.010 A 
ATOM     13  C   UNL A   1      41.894  27.851  28.200  1.00  0.00    -0.014 A 
BRANCH  13  14
ATOM     14  C   UNL A   1      41.809  29.116  28.935  1.00  0.00     0.031 A 
ATOM     15  C   UNL A   1      42.833  30.126  28.543  1.00  0.00     0.074 A 
ATOM     16  C   UNL A   1      40.801  29.455  29.766  1.00  0.00     0.049 A 
ATOM     17  N   UNL A   1      43.753  30.661  29.277  1.00  0.00    -0.248 NA
ATOM     18  C   UNL A   1      42.915  30.505  27.123  1.00  0.00     0.031 C 
ATOM     19  C   UNL A   1      39.575  28.703  30.032  1.00  0.00     0.029 A 
ATOM     20  N   UNL A   1      40.613  30.614  30.469  1.00  0.00    -0.354 N 
ATOM     21  C   UNL A   1      44.391  31.605  28.475  1.00  0.00     0.074 A 
ATOM     22  C   UNL A   1      43.954  31.340  27.130  1.00  0.00     0.031 C 
ATOM     23  C   UNL A   1      38.684  29.509  30.651  1.00  0.00     0.029 A 
ATOM     24  C   UNL A   1      39.311  30.791  30.934  1.00  0.00     0.049 A 
ATOM     25  H   UNL A   1      41.332  31.264  30.632  1.00  0.00     0.167 HD
ATOM     26  C   UNL A   1      45.061  32.664  29.009  1.00  0.00     0.034 A 
ATOM     27  C   UNL A   1      38.761  31.925  31.452  1.00  0.00     0.034 A 
ATOM     28  C   UNL A   1      45.377  32.433  30.400  1.00  0.00     0.049 A 
ATOM     29  C   UNL A   1      39.876  32.775  31.937  1.00  0.00     0.074 A 
ATOM     30  C   UNL A   1      46.078  31.462  31.088  1.00  0.00     0.029 A 
ATOM     31  N   UNL A   1      44.649  33.103  31.358  1.00  0.00    -0.354 N 
ATOM     32  N   UNL A   1      40.642  32.453  32.941  1.00  0.00    -0.248 NA
ATOM     33  C   UNL A   1      40.430  33.768  31.030  1.00  0.00     0.031 C 
ATOM     34  C   UNL A   1      45.343  31.265  32.294  1.00  0.00     0.029 A 
ATOM     35  C   UNL A   1      44.286  32.176  32.303  1.00  0.00     0.049 A 
ATOM     36  H   UNL A   1      44.430  34.063  31.363  1.00  0.00     0.167 HD
ATOM     37  C   UNL A   1      41.915  32.849  32.560  1.00  0.00     0.074 A 
ATOM     38  C   UNL A   1      41.706  33.746  31.426  1.00  0.00     0.031 C 
ATOM     39  C   UNL A   1      43.025  32.198  33.016  1.00  0.00     0.034 A 
BRANCH  26  40
ATOM     40  C   UNL A   1      45.121  34.052  28.398  1.00  0.00     0.023 A 
ATOM     41  C   UNL A   1      46.395  34.641  28.269  1.00  0.00     0.031 A 
ATOM     42  C   UNL A   1      44.026  34.928  28.234  1.00  0.00     0.131 A 
ATOM     43  C   UNL A   1      46.541  36.032  28.132  1.00  0.00     0.055 A 
ATOM     44  C   UNL A   1      44.176  36.303  28.020  1.00  0.00     0.041 A 
ATOM     45  F   UNL A   1      42.754  34.535  28.363  1.00  0.00    -0.206 F 
ATOM     46  C   UNL A   1      45.438  36.870  28.009  1.00  0.00     0.022 A 
BRANCH  43  47
ATOM     47  S   UNL A   1      48.196  36.742  28.334  1.00  0.00     0.124 S 
ATOM     48  O   UNL A   1      48.243  36.958  29.777  1.00  0.00    -0.237 OA
ATOM     49  O   UNL A   1      49.044  35.677  27.812  1.00  0.00    -0.237 OA
ATOM     50  O   UNL A   1      48.145  37.955  27.523  1.00  0.00    -0.744 OA
ENDBRANCH  43  47
ENDBRANCH  26  40
BRANCH  27  51
ATOM     51  C   UNL A   1      37.368  32.426  31.277  1.00  0.00     0.023 A 
ATOM     52  C   UNL A   1      36.900  33.012  30.079  1.00  0.00     0.031 A 
ATOM     53  C   UNL A   1      36.388  32.104  32.243  1.00  0.00     0.131 A 
ATOM     54  C   UNL A   1      35.516  33.254  29.893  1.00  0.00     0.055 A 
ATOM     55  C   UNL A   1      35.026  32.352  32.058  1.00  0.00     0.041 A 
ATOM     56  F   UNL A   1      36.710  31.453  33.371  1.00  0.00    -0.206 F 
ATOM     57  C   UNL A   1      34.583  32.921  30.877  1.00  0.00     0.022 A 
BRANCH  54  58
ATOM     58  S   UNL A   1      34.888  33.922  28.316  1.00  0.00     0.124 S 
ATOM     59  O   UNL A   1      35.046  35.360  28.502  1.00  0.00    -0.237 OA
ATOM     60  O   UNL A   1      35.764  33.293  27.335  1.00  0.00    -0.237 OA
ATOM     61  O   UNL A   1      33.499  33.458  28.278  1.00  0.00    -0.744 OA
ENDBRANCH  54  58
ENDBRANCH  27  51
BRANCH  39  62
ATOM     62  C   UNL A   1      42.889  31.262  34.197  1.00  0.00     0.023 A 
ATOM     63  C   UNL A   1      42.725  29.861  34.107  1.00  0.00     0.031 A 
ATOM     64  C   UNL A   1      43.060  31.816  35.480  1.00  0.00     0.131 A 
ATOM     65  C   UNL A   1      42.723  29.075  35.276  1.00  0.00     0.055 A 
ATOM     66  C   UNL A   1      43.078  31.034  36.632  1.00  0.00     0.041 A 
ATOM     67  F   UNL A   1      43.250  33.139  35.631  1.00  0.00    -0.206 F 
ATOM     68  C   UNL A   1      42.903  29.659  36.535  1.00  0.00     0.022 A 
BRANCH  65  69
ATOM     69  S   UNL A   1      42.475  27.273  35.185  1.00  0.00     0.124 S 
ATOM     70  O   UNL A   1      43.691  26.729  35.775  1.00  0.00    -0.237 OA
ATOM     71  O   UNL A   1      41.248  27.083  35.954  1.00  0.00    -0.237 OA
ATOM     72  O   UNL A   1      42.332  27.023  33.749  1.00  0.00    -0.744 OA
ENDBRANCH  65  69
ENDBRANCH  39  62
ENDBRANCH  13  14
ENDBRANCH   6   8
ENDBRANCH   3   4
ENDBRANCH   2   3
ENDBRANCH   1   2
BRANCH   1  73
ATOM     73  C   UNL A   1      37.424  22.077  25.115  1.00  0.00     0.002 C 
BRANCH  73  74
ATOM     74  C   UNL A   1      36.137  21.255  24.971  1.00  0.00     0.021 C 
BRANCH  74  75
ATOM     75  C   UNL A   1      35.140  21.368  26.126  1.00  0.00     0.116 C 
BRANCH  75  76
ATOM     76  N   UNL A   1      33.952  20.559  25.911  1.00  0.00    -0.352 N 
ATOM     77  C   UNL A   1      32.723  20.927  25.423  1.00  0.00     0.251 C 
ATOM     78  H   UNL A   1      34.041  19.609  26.151  1.00  0.00     0.163 HD
ATOM     79  O   UNL A   1      31.782  20.137  25.467  1.00  0.00    -0.269 OA
BRANCH  77  80
ATOM     80  C   UNL A   1      32.492  22.291  24.892  1.00  0.00     0.039 A 
ATOM     81  C   UNL A   1      32.265  22.416  23.522  1.00  0.00     0.016 A 
ATOM     82  C   UNL A   1      32.536  23.441  25.694  1.00  0.00     0.016 A 
ATOM     83  C   UNL A   1      32.003  23.673  22.977  1.00  0.00     0.027 A 
ATOM     84  C   UNL A   1      32.286  24.714  25.137  1.00  0.00     0.027 A 
ATOM     85  C   UNL A   1      31.988  24.832  23.779  1.00  0.00     0.045 A 
BRANCH  85  86
ATOM     86  N   UNL A   1      31.570  26.078  23.203  1.00  0.00    -0.299 N 
ATOM     87  C   UNL A   1      32.349  26.514  22.080  1.00  0.00     0.259 C 
ATOM     88  C   UNL A   1      31.241  27.229  24.083  1.00  0.00     0.152 C 
ATOM     89  C   UNL A   1      32.635  27.974  22.246  1.00  0.00     0.248 C 
ATOM     90  O   UNL A   1      32.779  25.809  21.169  1.00  0.00    -0.271 OA
ATOM     91  C   UNL A   1      32.399  28.066  23.703  1.00  0.00     0.021 C 
ATOM     92  N   UNL A   1      34.045  28.382  22.145  1.00  0.00    -0.170 NA
ATOM     93  C   UNL A   1      33.455  28.682  24.224  1.00  0.00     0.097 C 
ATOM     94  N   UNL A   1      34.409  28.896  23.246  1.00  0.00    -0.154 NA
BRANCH  88  95
ATOM     95  C   UNL A   1      29.925  27.970  23.754  1.00  0.00    -0.020 A 
ATOM     96  C   UNL A   1      28.716  27.260  23.526  1.00  0.00     0.006 A 
ATOM     97  C   UNL A   1      29.880  29.362  23.582  1.00  0.00     0.022 A 
ATOM     98  C   UNL A   1      27.520  27.894  23.189  1.00  0.00     0.002 A 
ATOM     99  C   UNL A   1      28.679  29.993  23.208  1.00  0.00     0.018 A 
ATOM    100  C   UNL A   1      27.501  29.268  23.021  1.00  0.00     0.016 A 
ATOM    101  Br  UNL A   1      28.641  31.862  22.915  1.00  0.00    -0.051 Br
ENDBRANCH  88  95
BRANCH  93 102
ATOM    102  C   UNL A   1      33.779  28.977  25.617  1.00  0.00     0.002 A 
ATOM    103  C   UNL A   1      32.916  29.762  26.394  1.00  0.00     0.010 A 
ATOM    104  C   UNL A   1      35.049  28.658  26.112  1.00  0.00     0.010 A 
ATOM    105  C   UNL A   1      33.356  30.293  27.611  1.00  0.00     0.001 A 
ATOM    106  C   UNL A   1      35.483  29.186  27.330  1.00  0.00     0.001 A 
ATOM    107  C   UNL A   1      34.647  30.023  28.065  1.00  0.00     0.000 A 
ENDBRANCH  93 102
ENDBRANCH  85  86
ENDBRANCH  77  80
ENDBRANCH  75  76
ENDBRANCH  74  75
ENDBRANCH  73  74
ENDBRANCH   1  73
TORSDOF 19
ENDMDL
MODEL 3
REMARK VINA RESULT:     -11.4      7.615     15.505
REMARK SMILES O=C(NCCCCCCNC(=O)c1ccc(N2C(=O)[C@@H]3N=NC(c4ccccc4)=C3[C@H]2c2cccc(Br)c2)cc1)c1ccc(-c2c3nc(c(-c4cc(S(=O)(=O)[O-])ccc4F)c4ccc([nH]4)c(-c4cc(S(=O)(=O)[O-])ccc4F)c4nc(c(-c5cc(S(=O)(=O)[O-])ccc5F)c5ccc2[nH]5)C=C4)C=C3)cc1
REMARK SMILES IDX 6 1 5 2 4 3 3 4 1 5 2 6 41 8 42 9 103 10 43 11 102 12 44 13
REMARK SMILES IDX 45 14 46 15 96 16 47 17 101 18 95 19 97 20 48 21 100 22
REMARK SMILES IDX 94 23 93 24 49 26 81 27 61 28 80 29 62 30 65 31 79 32 98 33
REMARK SMILES IDX 63 34 64 35 78 37 99 38 66 39 50 40 51 41 59 42 52 43 58 44
REMARK SMILES IDX 60 45 57 46 53 47 54 48 55 49 56 50 82 51 83 52 91 53 84 54
REMARK SMILES IDX 90 55 92 56 89 57 85 58 86 59 87 60 88 61 67 62 68 63 76 64
REMARK SMILES IDX 69 65 75 66 77 67 74 68 70 69 71 70 72 71 73 72 7 73 8 74
REMARK SMILES IDX 9 75 10 76 11 77 12 79 13 80 14 81 40 82 15 83 39 84 16 85
REMARK SMILES IDX 17 86 18 87 31 88 20 89 19 90 30 91 21 92 23 93 22 94 32 95
REMARK SMILES IDX 33 96 38 97 34 98 36 99 35 100 37 101 24 102 25 103 29 104
REMARK SMILES IDX 26 105 28 106 27 107
REMARK H PARENT 3 7 97 25 65 36 10 78
REMARK Flexibility Score: inf
ROOT
ATOM      1  C   UNL A   1      42.616  38.568  27.070  1.00  0.00     0.002 C 
ENDROOT
BRANCH   1   2
ATOM      2  C   UNL A   1      43.908  38.745  27.877  1.00  0.00     0.021 C 
BRANCH   2   3
ATOM      3  C   UNL A   1      45.203  38.618  27.078  1.00  0.00     0.116 C 
BRANCH   3   4
ATOM      4  N   UNL A   1      46.369  38.250  27.854  1.00  0.00    -0.352 N 
ATOM      5  O   UNL A   1      47.876  37.136  29.024  1.00  0.00    -0.269 OA
ATOM      6  C   UNL A   1      46.710  37.169  28.620  1.00  0.00     0.251 C 
ATOM      7  H   UNL A   1      47.076  38.934  27.824  1.00  0.00     0.163 HD
BRANCH   6   8
ATOM      8  C   UNL A   1      45.774  36.090  29.041  1.00  0.00     0.039 A 
ATOM      9  C   UNL A   1      45.222  35.938  30.314  1.00  0.00     0.014 A 
ATOM     10  C   UNL A   1      45.421  35.162  28.041  1.00  0.00     0.014 A 
ATOM     11  C   UNL A   1      44.397  34.849  30.599  1.00  0.00     0.010 A 
ATOM     12  C   UNL A   1      44.590  34.082  28.318  1.00  0.00     0.010 A 
ATOM     13  C   UNL A   1      44.092  33.912  29.607  1.00  0.00    -0.014 A 
BRANCH  13  14
ATOM     14  C   UNL A   1      43.085  32.888  29.897  1.00  0.00     0.031 A 
ATOM     15  C   UNL A   1      41.719  33.426  30.164  1.00  0.00     0.074 A 
ATOM     16  C   UNL A   1      43.279  31.560  29.763  1.00  0.00     0.049 A 
ATOM     17  N   UNL A   1      41.011  33.315  31.239  1.00  0.00    -0.248 NA
ATOM     18  C   UNL A   1      41.112  34.293  29.141  1.00  0.00     0.031 C 
ATOM     19  C   UNL A   1      44.461  30.881  29.231  1.00  0.00     0.029 A 
ATOM     20  N   UNL A   1      42.401  30.531  29.975  1.00  0.00    -0.354 N 
ATOM     21  C   UNL A   1      39.781  33.909  30.957  1.00  0.00     0.074 A 
ATOM     22  C   UNL A   1      39.966  34.636  29.730  1.00  0.00     0.031 C 
ATOM     23  C   UNL A   1      44.150  29.594  28.957  1.00  0.00     0.029 A 
ATOM     24  C   UNL A   1      42.791  29.323  29.401  1.00  0.00     0.049 A 
ATOM     25  H   UNL A   1      41.567  30.635  30.487  1.00  0.00     0.167 HD
ATOM     26  C   UNL A   1      38.653  33.578  31.645  1.00  0.00     0.034 A 
ATOM     27  C   UNL A   1      42.040  28.199  29.239  1.00  0.00     0.034 A 
ATOM     28  C   UNL A   1      38.974  32.928  32.894  1.00  0.00     0.049 A 
ATOM     29  C   UNL A   1      40.931  28.263  30.221  1.00  0.00     0.074 A 
ATOM     30  C   UNL A   1      39.718  33.275  34.005  1.00  0.00     0.029 A 
ATOM     31  N   UNL A   1      38.784  31.568  32.994  1.00  0.00    -0.354 N 
ATOM     32  N   UNL A   1      41.107  28.194  31.511  1.00  0.00    -0.248 NA
ATOM     33  C   UNL A   1      39.670  28.855  29.800  1.00  0.00     0.031 C 
ATOM     34  C   UNL A   1      40.364  32.068  34.404  1.00  0.00     0.029 A 
ATOM     35  C   UNL A   1      39.919  31.047  33.562  1.00  0.00     0.049 A 
ATOM     36  H   UNL A   1      37.986  31.066  32.711  1.00  0.00     0.167 HD
ATOM     37  C   UNL A   1      40.215  29.113  32.042  1.00  0.00     0.074 A 
ATOM     38  C   UNL A   1      39.286  29.408  30.954  1.00  0.00     0.031 C 
ATOM     39  C   UNL A   1      40.478  29.756  33.218  1.00  0.00     0.034 A 
BRANCH  26  40
ATOM     40  C   UNL A   1      37.260  33.509  31.045  1.00  0.00     0.023 A 
ATOM     41  C   UNL A   1      36.224  34.149  31.754  1.00  0.00     0.031 A 
ATOM     42  C   UNL A   1      36.844  32.619  30.029  1.00  0.00     0.131 A 
ATOM     43  C   UNL A   1      34.879  33.800  31.545  1.00  0.00     0.055 A 
ATOM     44  C   UNL A   1      35.499  32.334  29.773  1.00  0.00     0.041 A 
ATOM     45  F   UNL A   1      37.701  31.906  29.292  1.00  0.00    -0.206 F 
ATOM     46  C   UNL A   1      34.507  32.894  30.559  1.00  0.00     0.022 A 
BRANCH  43  47
ATOM     47  S   UNL A   1      33.646  34.397  32.733  1.00  0.00     0.124 S 
ATOM     48  O   UNL A   1      33.149  33.142  33.288  1.00  0.00    -0.237 OA
ATOM     49  O   UNL A   1      34.461  35.218  33.621  1.00  0.00    -0.237 OA
ATOM     50  O   UNL A   1      32.699  35.130  31.898  1.00  0.00    -0.744 OA
ENDBRANCH  43  47
ENDBRANCH  26  40
BRANCH  27  51
ATOM     51  C   UNL A   1      42.063  27.242  28.094  1.00  0.00     0.023 A 
ATOM     52  C   UNL A   1      42.367  25.869  28.238  1.00  0.00     0.031 A 
ATOM     53  C   UNL A   1      41.536  27.641  26.845  1.00  0.00     0.131 A 
ATOM     54  C   UNL A   1      42.147  24.972  27.163  1.00  0.00     0.055 A 
ATOM     55  C   UNL A   1      41.328  26.754  25.787  1.00  0.00     0.041 A 
ATOM     56  F   UNL A   1      41.119  28.900  26.636  1.00  0.00    -0.206 F 
ATOM     57  C   UNL A   1      41.626  25.411  25.945  1.00  0.00     0.022 A 
BRANCH  54  58
ATOM     58  S   UNL A   1      42.445  23.183  27.365  1.00  0.00     0.124 S 
ATOM     59  O   UNL A   1      43.644  23.159  28.195  1.00  0.00    -0.237 OA
ATOM     60  O   UNL A   1      41.211  22.726  27.992  1.00  0.00    -0.237 OA
ATOM     61  O   UNL A   1      42.641  22.713  25.992  1.00  0.00    -0.744 OA
ENDBRANCH  54  58
ENDBRANCH  27  51
BRANCH  39  62
ATOM     62  C   UNL A   1      41.577  29.224  34.112  1.00  0.00     0.023 A 
ATOM     63  C   UNL A   1      41.418  28.196  35.069  1.00  0.00     0.031 A 
ATOM     64  C   UNL A   1      42.879  29.710  33.888  1.00  0.00     0.131 A 
ATOM     65  C   UNL A   1      42.539  27.704  35.767  1.00  0.00     0.055 A 
ATOM     66  C   UNL A   1      43.988  29.207  34.566  1.00  0.00     0.041 A 
ATOM     67  F   UNL A   1      43.101  30.668  32.971  1.00  0.00    -0.206 F 
ATOM     68  C   UNL A   1      43.820  28.205  35.513  1.00  0.00     0.022 A 
BRANCH  65  69
ATOM     69  S   UNL A   1      42.351  26.406  37.030  1.00  0.00     0.124 S 
ATOM     70  O   UNL A   1      43.342  26.761  38.039  1.00  0.00    -0.237 OA
ATOM     71  O   UNL A   1      40.952  26.549  37.426  1.00  0.00    -0.237 OA
ATOM     72  O   UNL A   1      42.647  25.173  36.296  1.00  0.00    -0.744 OA
ENDBRANCH  65  69
ENDBRANCH  39  62
ENDBRANCH  13  14
ENDBRANCH   6   8
ENDBRANCH   3   4
ENDBRANCH   2   3
ENDBRANCH   1   2
BRANCH   1  73
ATOM     73  C   UNL A   1      41.549  39.652  27.249  1.00  0.00     0.002 C 
BRANCH  73  74
ATOM     74  C   UNL A   1      41.399  40.654  26.097  1.00  0.00     0.021 C 
BRANCH  74  75
ATOM     75  C   UNL A   1      42.703  41.126  25.449  1.00  0.00     0.116 C 
BRANCH  75  76
ATOM     76  N   UNL A   1      43.430  42.061  26.289  1.00  0.00    -0.352 N 
ATOM     77  C   UNL A   1      44.355  43.012  25.938  1.00  0.00     0.251 C 
ATOM     78  H   UNL A   1      43.231  42.005  27.251  1.00  0.00     0.163 HD
ATOM     79  O   UNL A   1      44.992  43.603  26.807  1.00  0.00    -0.269 OA
BRANCH  77  80
ATOM     80  C   UNL A   1      44.645  43.302  24.513  1.00  0.00     0.039 A 
ATOM     81  C   UNL A   1      43.595  43.774  23.728  1.00  0.00     0.016 A 
ATOM     82  C   UNL A   1      45.901  43.081  23.929  1.00  0.00     0.016 A 
ATOM     83  C   UNL A   1      43.823  44.100  22.391  1.00  0.00     0.027 A 
ATOM     84  C   UNL A   1      46.126  43.396  22.572  1.00  0.00     0.027 A 
ATOM     85  C   UNL A   1      45.094  43.937  21.803  1.00  0.00     0.045 A 
BRANCH  85  86
ATOM     86  N   UNL A   1      45.318  44.421  20.471  1.00  0.00    -0.299 N 
ATOM     87  C   UNL A   1      46.254  43.655  19.700  1.00  0.00     0.259 C 
ATOM     88  C   UNL A   1      45.519  45.874  20.235  1.00  0.00     0.152 C 
ATOM     89  C   UNL A   1      47.171  44.606  18.996  1.00  0.00     0.248 C 
ATOM     90  O   UNL A   1      46.347  42.429  19.670  1.00  0.00    -0.271 OA
ATOM     91  C   UNL A   1      46.946  45.786  19.858  1.00  0.00     0.021 C 
ATOM     92  N   UNL A   1      48.613  44.377  19.172  1.00  0.00    -0.170 NA
ATOM     93  C   UNL A   1      48.146  46.241  20.205  1.00  0.00     0.097 C 
ATOM     94  N   UNL A   1      49.129  45.390  19.736  1.00  0.00    -0.154 NA
BRANCH  88  95
ATOM     95  C   UNL A   1      44.704  46.483  19.071  1.00  0.00    -0.020 A 
ATOM     96  C   UNL A   1      43.803  45.692  18.308  1.00  0.00     0.006 A 
ATOM     97  C   UNL A   1      44.875  47.815  18.662  1.00  0.00     0.022 A 
ATOM     98  C   UNL A   1      43.081  46.200  17.228  1.00  0.00     0.002 A 
ATOM     99  C   UNL A   1      44.170  48.312  17.551  1.00  0.00     0.018 A 
ATOM    100  C   UNL A   1      43.270  47.516  16.840  1.00  0.00     0.016 A 
ATOM    101  Br  UNL A   1      44.455  50.089  16.965  1.00  0.00    -0.051 Br
ENDBRANCH  88  95
BRANCH  93 102
ATOM    102  C   UNL A   1      48.514  47.338  21.095  1.00  0.00     0.002 A 
ATOM    103  C   UNL A   1      48.629  48.644  20.598  1.00  0.00     0.010 A 
ATOM    104  C   UNL A   1      48.960  47.056  22.391  1.00  0.00     0.010 A 
ATOM    105  C   UNL A   1      49.264  49.630  21.360  1.00  0.00     0.001 A 
ATOM    106  C   UNL A   1      49.588  48.044  23.151  1.00  0.00     0.001 A 
ATOM    107  C   UNL A   1      49.764  49.322  22.625  1.00  0.00     0.000 A 
ENDBRANCH  93 102
ENDBRANCH  85  86
ENDBRANCH  77  80
ENDBRANCH  75  76
ENDBRANCH  74  75
ENDBRANCH  73  74
ENDBRANCH   1  73
TORSDOF 19
ENDMDL
