MODEL 1
REMARK VINA RESULT:     -12.4      0.000      0.000
REMARK SMILES O=C1C[C@@H](c2cccc(O)c2)c2c(c(C(=O)NCCCCCCNC(=O)c3ccc(-c4c5nc(c(-c6cc(S(=O)(=O)[O-])ccc6F)c6ccc([nH]6)c(-c6cc(S(=O)(=O)[O-])ccc6F)c6nc(c(-c7cc(S(=O)(=O)[O-])ccc7F)c7ccc4[nH]7)C=C6)C=C5)cc3)cn2-c2cccc(C(F)(F)F)c2)N1
REMARK SMILES IDX 21 1 20 2 19 3 18 4 17 5 15 6 16 7 14 9 1 10 2 11 3 12
REMARK SMILES IDX 102 13 4 14 13 15 12 17 91 18 90 19 5 20 6 21 11 22 7 23
REMARK SMILES IDX 9 24 8 25 10 26 92 28 93 29 101 30 94 31 96 32 95 33 97 34
REMARK SMILES IDX 98 35 99 36 100 37 22 38 23 39 24 40 25 41 26 43 27 44 28 45
REMARK SMILES IDX 89 46 29 47 88 48 30 49 31 50 32 51 82 52 33 53 87 54 81 55
REMARK SMILES IDX 83 56 34 57 86 58 80 59 79 60 35 62 67 63 47 64 66 65 48 66
REMARK SMILES IDX 51 67 65 68 84 69 49 70 50 71 64 73 85 74 52 75 36 76 37 77
REMARK SMILES IDX 45 78 38 79 44 80 46 81 43 82 39 83 40 84 41 85 42 86 68 87
REMARK SMILES IDX 69 88 77 89 70 90 76 91 78 92 75 93 71 94 72 95 73 96 74 97
REMARK SMILES IDX 53 98 54 99 62 100 55 101 61 102 63 103 60 104 56 105 57 106
REMARK SMILES IDX 58 107 59 108
REMARK H PARENT 17 8 102 16 10 27 24 42 83 61 51 72
REMARK Flexibility Score: inf
ROOT
ATOM      1  C   UNL A   1      38.689  24.058  26.594  1.00  0.00     0.002 C 
ENDROOT
BRANCH   1   2
ATOM      2  C   UNL A   1      37.367  23.888  25.833  1.00  0.00     0.002 C 
BRANCH   2   3
ATOM      3  C   UNL A   1      36.911  22.452  25.578  1.00  0.00     0.021 C 
BRANCH   3   4
ATOM      4  C   UNL A   1      36.007  22.255  24.366  1.00  0.00     0.116 C 
BRANCH   4   5
ATOM      5  N   UNL A   1      34.663  21.844  24.714  1.00  0.00    -0.352 N 
ATOM      6  C   UNL A   1      33.517  22.557  24.967  1.00  0.00     0.254 C 
ATOM      7  O   UNL A   1      32.524  21.917  25.313  1.00  0.00    -0.269 OA
ATOM      8  H   UNL A   1      34.548  20.869  24.782  1.00  0.00     0.163 HD
BRANCH   6   9
ATOM      9  C   UNL A   1      33.461  24.016  24.870  1.00  0.00     0.081 A 
ATOM     10  O   UNL A   1      32.828  24.718  20.177  1.00  0.00    -0.275 OA
ATOM     11  C   UNL A   1      33.024  25.143  21.315  1.00  0.00     0.225 C 
ATOM     12  C   UNL A   1      33.422  26.594  21.570  1.00  0.00     0.115 C 
ATOM     13  N   UNL A   1      33.040  24.297  22.397  1.00  0.00    -0.324 N 
ATOM     14  C   UNL A   1      32.959  27.156  22.929  1.00  0.00     0.078 C 
ATOM     15  C   UNL A   1      33.202  24.751  23.685  1.00  0.00     0.076 A 
ATOM     16  H   UNL A   1      32.930  23.330  22.244  1.00  0.00     0.170 HD
ATOM     17  C   UNL A   1      33.129  26.094  23.975  1.00  0.00     0.055 A 
ATOM     18  N   UNL A   1      33.350  26.237  25.329  1.00  0.00    -0.317 N 
ATOM     19  C   UNL A   1      33.752  24.997  25.803  1.00  0.00     0.107 A 
BRANCH  14  20
ATOM     20  C   UNL A   1      31.551  27.714  22.841  1.00  0.00    -0.035 A 
ATOM     21  C   UNL A   1      30.434  27.013  23.325  1.00  0.00     0.005 A 
ATOM     22  C   UNL A   1      31.357  29.002  22.313  1.00  0.00     0.050 A 
ATOM     23  C   UNL A   1      29.169  27.605  23.326  1.00  0.00     0.004 A 
ATOM     24  C   UNL A   1      30.101  29.593  22.353  1.00  0.00     0.115 A 
ATOM     25  C   UNL A   1      29.002  28.905  22.855  1.00  0.00     0.046 A 
BRANCH  24  26
ATOM     26  O   UNL A   1      29.997  30.886  21.936  1.00  0.00    -0.508 OA
ATOM     27  H   UNL A   1      29.156  31.246  21.730  1.00  0.00     0.293 HD
ENDBRANCH  24  26
ENDBRANCH  14  20
BRANCH  18  28
ATOM     28  C   UNL A   1      33.177  27.363  26.177  1.00  0.00     0.046 A 
ATOM     29  C   UNL A   1      31.883  27.775  26.520  1.00  0.00     0.026 A 
ATOM     30  C   UNL A   1      34.273  28.161  26.524  1.00  0.00     0.039 A 
ATOM     31  C   UNL A   1      31.691  28.952  27.244  1.00  0.00     0.003 A 
ATOM     32  C   UNL A   1      34.088  29.354  27.247  1.00  0.00     0.058 A 
ATOM     33  C   UNL A   1      32.787  29.733  27.610  1.00  0.00     0.013 A 
BRANCH  32  34
ATOM     34  C   UNL A   1      35.253  30.245  27.616  1.00  0.00     0.416 C 
ATOM     35  F   UNL A   1      35.038  31.545  27.271  1.00  0.00    -0.166 F 
ATOM     36  F   UNL A   1      35.488  30.254  28.958  1.00  0.00    -0.166 F 
ATOM     37  F   UNL A   1      36.431  29.897  27.031  1.00  0.00    -0.166 F 
ENDBRANCH  32  34
ENDBRANCH  18  28
ENDBRANCH   6   9
ENDBRANCH   4   5
ENDBRANCH   3   4
ENDBRANCH   2   3
ENDBRANCH   1   2
BRANCH   1  38
ATOM     38  C   UNL A   1      39.625  22.841  26.663  1.00  0.00     0.021 C 
BRANCH  38  39
ATOM     39  C   UNL A   1      41.008  23.135  27.224  1.00  0.00     0.116 C 
BRANCH  39  40
ATOM     40  N   UNL A   1      41.976  23.464  26.176  1.00  0.00    -0.352 N 
ATOM     41  C   UNL A   1      42.464  24.702  25.795  1.00  0.00     0.251 C 
ATOM     42  H   UNL A   1      42.329  22.696  25.671  1.00  0.00     0.163 HD
ATOM     43  O   UNL A   1      42.935  24.859  24.677  1.00  0.00    -0.269 OA
BRANCH  41  44
ATOM     44  C   UNL A   1      42.421  25.816  26.762  1.00  0.00     0.039 A 
ATOM     45  C   UNL A   1      43.261  25.878  27.879  1.00  0.00     0.014 A 
ATOM     46  C   UNL A   1      41.493  26.822  26.525  1.00  0.00     0.014 A 
ATOM     47  C   UNL A   1      43.185  26.991  28.717  1.00  0.00     0.010 A 
ATOM     48  C   UNL A   1      41.571  27.999  27.210  1.00  0.00     0.010 A 
ATOM     49  C   UNL A   1      42.332  28.047  28.368  1.00  0.00    -0.014 A 
BRANCH  49  50
ATOM     50  C   UNL A   1      42.250  29.291  29.118  1.00  0.00     0.031 A 
ATOM     51  C   UNL A   1      43.285  30.281  28.732  1.00  0.00     0.074 A 
ATOM     52  C   UNL A   1      41.140  29.635  29.809  1.00  0.00     0.049 A 
ATOM     53  N   UNL A   1      44.345  30.617  29.387  1.00  0.00    -0.248 NA
ATOM     54  C   UNL A   1      43.258  30.796  27.350  1.00  0.00     0.031 C 
ATOM     55  C   UNL A   1      39.879  28.893  29.929  1.00  0.00     0.029 A 
ATOM     56  N   UNL A   1      40.850  30.800  30.442  1.00  0.00    -0.354 N 
ATOM     57  C   UNL A   1      44.948  31.609  28.621  1.00  0.00     0.074 A 
ATOM     58  C   UNL A   1      44.429  31.430  27.296  1.00  0.00     0.031 C 
ATOM     59  C   UNL A   1      38.908  29.717  30.384  1.00  0.00     0.029 A 
ATOM     60  C   UNL A   1      39.498  31.001  30.724  1.00  0.00     0.049 A 
ATOM     61  H   UNL A   1      41.543  31.455  30.686  1.00  0.00     0.167 HD
ATOM     62  C   UNL A   1      45.556  32.682  29.207  1.00  0.00     0.034 A 
ATOM     63  C   UNL A   1      38.917  32.156  31.155  1.00  0.00     0.034 A 
ATOM     64  C   UNL A   1      45.721  32.448  30.633  1.00  0.00     0.049 A 
ATOM     65  C   UNL A   1      40.014  32.996  31.709  1.00  0.00     0.074 A 
ATOM     66  C   UNL A   1      46.305  31.446  31.387  1.00  0.00     0.029 A 
ATOM     67  N   UNL A   1      44.868  33.100  31.502  1.00  0.00    -0.354 N 
ATOM     68  N   UNL A   1      40.701  32.669  32.770  1.00  0.00    -0.248 NA
ATOM     69  C   UNL A   1      40.689  33.911  30.798  1.00  0.00     0.031 C 
ATOM     70  C   UNL A   1      45.395  31.219  32.463  1.00  0.00     0.029 A 
ATOM     71  C   UNL A   1      44.373  32.166  32.379  1.00  0.00     0.049 A 
ATOM     72  H   UNL A   1      44.655  34.062  31.494  1.00  0.00     0.167 HD
ATOM     73  C   UNL A   1      42.019  32.962  32.453  1.00  0.00     0.074 A 
ATOM     74  C   UNL A   1      41.939  33.809  31.262  1.00  0.00     0.031 C 
ATOM     75  C   UNL A   1      43.055  32.244  32.986  1.00  0.00     0.034 A 
BRANCH  62  76
ATOM     76  C   UNL A   1      45.625  34.083  28.616  1.00  0.00     0.023 A 
ATOM     77  C   UNL A   1      44.393  34.733  28.410  1.00  0.00     0.031 A 
ATOM     78  C   UNL A   1      46.739  34.705  28.008  1.00  0.00     0.131 A 
ATOM     79  C   UNL A   1      44.277  35.813  27.521  1.00  0.00     0.055 A 
ATOM     80  C   UNL A   1      46.630  35.824  27.174  1.00  0.00     0.041 A 
ATOM     81  F   UNL A   1      47.991  34.251  28.116  1.00  0.00    -0.206 F 
ATOM     82  C   UNL A   1      45.388  36.360  26.891  1.00  0.00     0.022 A 
BRANCH  79  83
ATOM     83  S   UNL A   1      42.615  36.356  27.063  1.00  0.00     0.124 S 
ATOM     84  O   UNL A   1      41.903  36.189  28.326  1.00  0.00    -0.237 OA
ATOM     85  O   UNL A   1      42.859  37.729  26.635  1.00  0.00    -0.237 OA
ATOM     86  O   UNL A   1      42.238  35.427  26.001  1.00  0.00    -0.744 OA
ENDBRANCH  79  83
ENDBRANCH  62  76
BRANCH  63  87
ATOM     87  C   UNL A   1      37.558  32.697  30.846  1.00  0.00     0.023 A 
ATOM     88  C   UNL A   1      36.659  33.128  31.851  1.00  0.00     0.031 A 
ATOM     89  C   UNL A   1      37.219  33.039  29.517  1.00  0.00     0.131 A 
ATOM     90  C   UNL A   1      35.499  33.868  31.510  1.00  0.00     0.055 A 
ATOM     91  C   UNL A   1      36.074  33.770  29.186  1.00  0.00     0.041 A 
ATOM     92  F   UNL A   1      38.040  32.754  28.494  1.00  0.00    -0.206 F 
ATOM     93  C   UNL A   1      35.215  34.199  30.184  1.00  0.00     0.022 A 
BRANCH  90  94
ATOM     94  S   UNL A   1      34.384  34.519  32.802  1.00  0.00     0.124 S 
ATOM     95  O   UNL A   1      33.225  34.943  32.025  1.00  0.00    -0.237 OA
ATOM     96  O   UNL A   1      34.196  33.364  33.672  1.00  0.00    -0.237 OA
ATOM     97  O   UNL A   1      35.156  35.611  33.398  1.00  0.00    -0.744 OA
ENDBRANCH  90  94
ENDBRANCH  63  87
BRANCH  75  98
ATOM     98  C   UNL A   1      42.774  31.315  34.155  1.00  0.00     0.023 A 
ATOM     99  C   UNL A   1      42.408  29.951  34.050  1.00  0.00     0.031 A 
ATOM    100  C   UNL A   1      42.997  31.825  35.447  1.00  0.00     0.131 A 
ATOM    101  C   UNL A   1      42.264  29.164  35.213  1.00  0.00     0.055 A 
ATOM    102  C   UNL A   1      42.878  31.037  36.591  1.00  0.00     0.041 A 
ATOM    103  F   UNL A   1      43.370  33.103  35.619  1.00  0.00    -0.206 F 
ATOM    104  C   UNL A   1      42.503  29.706  36.479  1.00  0.00     0.022 A 
BRANCH 101 105
ATOM    105  S   UNL A   1      41.725  27.425  35.109  1.00  0.00     0.124 S 
ATOM    106  O   UNL A   1      40.713  27.439  34.061  1.00  0.00    -0.237 OA
ATOM    107  O   UNL A   1      42.970  26.730  34.786  1.00  0.00    -0.237 OA
ATOM    108  O   UNL A   1      41.209  27.151  36.451  1.00  0.00    -0.744 OA
ENDBRANCH 101 105
ENDBRANCH  75  98
ENDBRANCH  49  50
ENDBRANCH  41  44
ENDBRANCH  39  40
ENDBRANCH  38  39
ENDBRANCH   1  38
TORSDOF 20
ENDMDL
MODEL 2
REMARK VINA RESULT:     -11.9      3.438      9.378
REMARK SMILES O=C1C[C@@H](c2cccc(O)c2)c2c(c(C(=O)NCCCCCCNC(=O)c3ccc(-c4c5nc(c(-c6cc(S(=O)(=O)[O-])ccc6F)c6ccc([nH]6)c(-c6cc(S(=O)(=O)[O-])ccc6F)c6nc(c(-c7cc(S(=O)(=O)[O-])ccc7F)c7ccc4[nH]7)C=C6)C=C5)cc3)cn2-c2cccc(C(F)(F)F)c2)N1
REMARK SMILES IDX 21 1 20 2 19 3 18 4 17 5 15 6 16 7 14 9 1 10 2 11 3 12
REMARK SMILES IDX 102 13 4 14 13 15 12 17 91 18 90 19 5 20 6 21 11 22 7 23
REMARK SMILES IDX 9 24 8 25 10 26 92 28 93 29 101 30 94 31 96 32 95 33 97 34
REMARK SMILES IDX 98 35 99 36 100 37 22 38 23 39 24 40 25 41 26 43 27 44 28 45
REMARK SMILES IDX 89 46 29 47 88 48 30 49 31 50 32 51 82 52 33 53 87 54 81 55
REMARK SMILES IDX 83 56 34 57 86 58 80 59 79 60 35 62 67 63 47 64 66 65 48 66
REMARK SMILES IDX 51 67 65 68 84 69 49 70 50 71 64 73 85 74 52 75 36 76 37 77
REMARK SMILES IDX 45 78 38 79 44 80 46 81 43 82 39 83 40 84 41 85 42 86 68 87
REMARK SMILES IDX 69 88 77 89 70 90 76 91 78 92 75 93 71 94 72 95 73 96 74 97
REMARK SMILES IDX 53 98 54 99 62 100 55 101 61 102 63 103 60 104 56 105 57 106
REMARK SMILES IDX 58 107 59 108
REMARK H PARENT 17 8 102 16 10 27 24 42 83 61 51 72
REMARK Flexibility Score: inf
ROOT
ATOM      1  C   UNL A   1      34.761  29.336  27.319  1.00  0.00     0.002 C 
ENDROOT
BRANCH   1   2
ATOM      2  C   UNL A   1      34.028  28.518  26.247  1.00  0.00     0.002 C 
BRANCH   2   3
ATOM      3  C   UNL A   1      32.839  29.198  25.569  1.00  0.00     0.021 C 
BRANCH   3   4
ATOM      4  C   UNL A   1      31.468  28.634  25.926  1.00  0.00     0.116 C 
BRANCH   4   5
ATOM      5  N   UNL A   1      30.774  28.054  24.796  1.00  0.00    -0.352 N 
ATOM      6  C   UNL A   1      30.908  26.849  24.151  1.00  0.00     0.254 C 
ATOM      7  O   UNL A   1      30.207  26.666  23.156  1.00  0.00    -0.269 OA
ATOM      8  H   UNL A   1      30.074  28.633  24.417  1.00  0.00     0.163 HD
BRANCH   6   9
ATOM      9  C   UNL A   1      31.857  25.825  24.587  1.00  0.00     0.081 A 
ATOM     10  O   UNL A   1      29.156  23.034  27.387  1.00  0.00    -0.275 OA
ATOM     11  C   UNL A   1      30.244  23.351  26.906  1.00  0.00     0.225 C 
ATOM     12  C   UNL A   1      31.552  22.767  27.432  1.00  0.00     0.115 C 
ATOM     13  N   UNL A   1      30.344  24.356  25.975  1.00  0.00    -0.324 N 
ATOM     14  C   UNL A   1      32.676  22.664  26.381  1.00  0.00     0.078 C 
ATOM     15  C   UNL A   1      31.537  24.694  25.382  1.00  0.00     0.076 A 
ATOM     16  H   UNL A   1      29.531  24.852  25.724  1.00  0.00     0.170 HD
ATOM     17  C   UNL A   1      32.648  23.893  25.522  1.00  0.00     0.055 A 
ATOM     18  N   UNL A   1      33.683  24.498  24.840  1.00  0.00    -0.317 N 
ATOM     19  C   UNL A   1      33.235  25.757  24.464  1.00  0.00     0.107 A 
BRANCH  14  20
ATOM     20  C   UNL A   1      32.582  21.365  25.603  1.00  0.00    -0.035 A 
ATOM     21  C   UNL A   1      32.300  21.334  24.227  1.00  0.00     0.005 A 
ATOM     22  C   UNL A   1      32.846  20.152  26.261  1.00  0.00     0.050 A 
ATOM     23  C   UNL A   1      32.330  20.129  23.522  1.00  0.00     0.004 A 
ATOM     24  C   UNL A   1      32.909  18.966  25.542  1.00  0.00     0.115 A 
ATOM     25  C   UNL A   1      32.652  18.942  24.177  1.00  0.00     0.046 A 
BRANCH  24  26
ATOM     26  O   UNL A   1      33.285  17.840  26.212  1.00  0.00    -0.508 OA
ATOM     27  H   UNL A   1      33.169  16.998  25.817  1.00  0.00     0.293 HD
ENDBRANCH  24  26
ENDBRANCH  14  20
BRANCH  18  28
ATOM     28  C   UNL A   1      34.966  24.005  24.485  1.00  0.00     0.046 A 
ATOM     29  C   UNL A   1      35.125  23.296  23.288  1.00  0.00     0.026 A 
ATOM     30  C   UNL A   1      36.024  24.066  25.399  1.00  0.00     0.039 A 
ATOM     31  C   UNL A   1      36.347  22.694  22.987  1.00  0.00     0.003 A 
ATOM     32  C   UNL A   1      37.257  23.455  25.108  1.00  0.00     0.058 A 
ATOM     33  C   UNL A   1      37.408  22.777  23.888  1.00  0.00     0.013 A 
BRANCH  32  34
ATOM     34  C   UNL A   1      38.409  23.489  26.087  1.00  0.00     0.416 C 
ATOM     35  F   UNL A   1      39.291  22.472  25.882  1.00  0.00    -0.166 F 
ATOM     36  F   UNL A   1      39.139  24.635  25.982  1.00  0.00    -0.166 F 
ATOM     37  F   UNL A   1      38.037  23.400  27.392  1.00  0.00    -0.166 F 
ENDBRANCH  32  34
ENDBRANCH  18  28
ENDBRANCH   6   9
ENDBRANCH   4   5
ENDBRANCH   3   4
ENDBRANCH   2   3
ENDBRANCH   1   2
BRANCH   1  38
ATOM     38  C   UNL A   1      34.255  30.763  27.586  1.00  0.00     0.021 C 
BRANCH  38  39
ATOM     39  C   UNL A   1      35.322  31.735  28.066  1.00  0.00     0.116 C 
BRANCH  39  40
ATOM     40  N   UNL A   1      35.110  32.154  29.452  1.00  0.00    -0.352 N 
ATOM     41  C   UNL A   1      35.760  31.735  30.600  1.00  0.00     0.251 C 
ATOM     42  H   UNL A   1      34.406  32.829  29.587  1.00  0.00     0.163 HD
ATOM     43  O   UNL A   1      35.221  31.860  31.692  1.00  0.00    -0.269 OA
BRANCH  41  44
ATOM     44  C   UNL A   1      37.112  31.156  30.486  1.00  0.00     0.039 A 
ATOM     45  C   UNL A   1      38.251  31.937  30.257  1.00  0.00     0.014 A 
ATOM     46  C   UNL A   1      37.220  29.776  30.609  1.00  0.00     0.014 A 
ATOM     47  C   UNL A   1      39.496  31.310  30.209  1.00  0.00     0.010 A 
ATOM     48  C   UNL A   1      38.444  29.199  30.780  1.00  0.00     0.010 A 
ATOM     49  C   UNL A   1      39.577  29.936  30.472  1.00  0.00    -0.014 A 
BRANCH  49  50
ATOM     50  C   UNL A   1      40.835  29.207  30.543  1.00  0.00     0.031 A 
ATOM     51  C   UNL A   1      41.260  28.898  31.930  1.00  0.00     0.074 A 
ATOM     52  C   UNL A   1      41.349  28.568  29.467  1.00  0.00     0.049 A 
ATOM     53  N   UNL A   1      42.200  29.458  32.613  1.00  0.00    -0.248 NA
ATOM     54  C   UNL A   1      40.392  28.017  32.732  1.00  0.00     0.031 C 
ATOM     55  C   UNL A   1      40.788  28.473  28.114  1.00  0.00     0.029 A 
ATOM     56  N   UNL A   1      42.424  27.744  29.393  1.00  0.00    -0.354 N 
ATOM     57  C   UNL A   1      42.224  28.777  33.826  1.00  0.00     0.074 A 
ATOM     58  C   UNL A   1      40.931  28.167  33.942  1.00  0.00     0.031 C 
ATOM     59  C   UNL A   1      41.392  27.466  27.442  1.00  0.00     0.029 A 
ATOM     60  C   UNL A   1      42.476  26.939  28.254  1.00  0.00     0.049 A 
ATOM     61  H   UNL A   1      43.118  27.716  30.091  1.00  0.00     0.167 HD
ATOM     62  C   UNL A   1      43.402  28.504  34.460  1.00  0.00     0.034 A 
ATOM     63  C   UNL A   1      43.319  25.890  28.033  1.00  0.00     0.034 A 
ATOM     64  C   UNL A   1      44.485  29.264  33.857  1.00  0.00     0.049 A 
ATOM     65  C   UNL A   1      44.450  26.054  28.986  1.00  0.00     0.074 A 
ATOM     66  C   UNL A   1      44.697  30.607  33.600  1.00  0.00     0.029 A 
ATOM     67  N   UNL A   1      45.363  28.596  33.025  1.00  0.00    -0.354 N 
ATOM     68  N   UNL A   1      45.295  27.048  28.931  1.00  0.00    -0.248 NA
ATOM     69  C   UNL A   1      44.329  25.421  30.293  1.00  0.00     0.031 C 
ATOM     70  C   UNL A   1      45.269  30.644  32.293  1.00  0.00     0.029 A 
ATOM     71  C   UNL A   1      45.485  29.332  31.871  1.00  0.00     0.049 A 
ATOM     72  H   UNL A   1      45.821  27.747  33.225  1.00  0.00     0.167 HD
ATOM     73  C   UNL A   1      45.468  27.448  30.248  1.00  0.00     0.074 A 
ATOM     74  C   UNL A   1      44.921  26.352  31.049  1.00  0.00     0.031 C 
ATOM     75  C   UNL A   1      45.745  28.750  30.565  1.00  0.00     0.034 A 
BRANCH  62  76
ATOM     76  C   UNL A   1      43.673  27.278  35.320  1.00  0.00     0.023 A 
ATOM     77  C   UNL A   1      44.177  27.523  36.612  1.00  0.00     0.031 A 
ATOM     78  C   UNL A   1      43.733  25.929  34.900  1.00  0.00     0.131 A 
ATOM     79  C   UNL A   1      44.844  26.522  37.337  1.00  0.00     0.055 A 
ATOM     80  C   UNL A   1      44.340  24.919  35.655  1.00  0.00     0.041 A 
ATOM     81  F   UNL A   1      43.276  25.501  33.720  1.00  0.00    -0.206 F 
ATOM     82  C   UNL A   1      44.939  25.219  36.863  1.00  0.00     0.022 A 
BRANCH  79  83
ATOM     83  S   UNL A   1      45.751  27.017  38.821  1.00  0.00     0.124 S 
ATOM     84  O   UNL A   1      46.137  25.719  39.363  1.00  0.00    -0.237 OA
ATOM     85  O   UNL A   1      46.826  27.825  38.255  1.00  0.00    -0.237 OA
ATOM     86  O   UNL A   1      44.756  27.752  39.594  1.00  0.00    -0.744 OA
ENDBRANCH  79  83
ENDBRANCH  62  76
BRANCH  63  87
ATOM     87  C   UNL A   1      43.063  24.620  27.286  1.00  0.00     0.023 A 
ATOM     88  C   UNL A   1      43.960  24.107  26.318  1.00  0.00     0.031 A 
ATOM     89  C   UNL A   1      42.035  23.748  27.709  1.00  0.00     0.131 A 
ATOM     90  C   UNL A   1      43.812  22.785  25.829  1.00  0.00     0.055 A 
ATOM     91  C   UNL A   1      41.894  22.444  27.224  1.00  0.00     0.041 A 
ATOM     92  F   UNL A   1      41.179  24.098  28.683  1.00  0.00    -0.206 F 
ATOM     93  C   UNL A   1      42.790  21.952  26.290  1.00  0.00     0.022 A 
BRANCH  90  94
ATOM     94  S   UNL A   1      45.019  22.074  24.658  1.00  0.00     0.124 S 
ATOM     95  O   UNL A   1      45.005  23.047  23.571  1.00  0.00    -0.237 OA
ATOM     96  O   UNL A   1      46.237  22.009  25.457  1.00  0.00    -0.237 OA
ATOM     97  O   UNL A   1      44.441  20.772  24.323  1.00  0.00    -0.744 OA
ENDBRANCH  90  94
ENDBRANCH  63  87
BRANCH  75  98
ATOM     98  C   UNL A   1      46.155  29.701  29.452  1.00  0.00     0.023 A 
ATOM     99  C   UNL A   1      45.265  30.410  28.609  1.00  0.00     0.031 A 
ATOM    100  C   UNL A   1      47.528  29.978  29.319  1.00  0.00     0.131 A 
ATOM    101  C   UNL A   1      45.765  31.338  27.671  1.00  0.00     0.055 A 
ATOM    102  C   UNL A   1      48.016  30.914  28.408  1.00  0.00     0.041 A 
ATOM    103  F   UNL A   1      48.426  29.361  30.103  1.00  0.00    -0.206 F 
ATOM    104  C   UNL A   1      47.137  31.591  27.574  1.00  0.00     0.022 A 
BRANCH 101 105
ATOM    105  S   UNL A   1      44.646  32.211  26.526  1.00  0.00     0.124 S 
ATOM    106  O   UNL A   1      43.698  31.182  26.118  1.00  0.00    -0.237 OA
ATOM    107  O   UNL A   1      44.109  33.279  27.366  1.00  0.00    -0.237 OA
ATOM    108  O   UNL A   1      45.542  32.669  25.463  1.00  0.00    -0.744 OA
ENDBRANCH 101 105
ENDBRANCH  75  98
ENDBRANCH  49  50
ENDBRANCH  41  44
ENDBRANCH  39  40
ENDBRANCH  38  39
ENDBRANCH   1  38
TORSDOF 20
ENDMDL
MODEL 3
REMARK VINA RESULT:     -11.8      2.727      3.985
REMARK SMILES O=C1C[C@@H](c2cccc(O)c2)c2c(c(C(=O)NCCCCCCNC(=O)c3ccc(-c4c5nc(c(-c6cc(S(=O)(=O)[O-])ccc6F)c6ccc([nH]6)c(-c6cc(S(=O)(=O)[O-])ccc6F)c6nc(c(-c7cc(S(=O)(=O)[O-])ccc7F)c7ccc4[nH]7)C=C6)C=C5)cc3)cn2-c2cccc(C(F)(F)F)c2)N1
REMARK SMILES IDX 21 1 20 2 19 3 18 4 17 5 15 6 16 7 14 9 1 10 2 11 3 12
REMARK SMILES IDX 102 13 4 14 13 15 12 17 91 18 90 19 5 20 6 21 11 22 7 23
REMARK SMILES IDX 9 24 8 25 10 26 92 28 93 29 101 30 94 31 96 32 95 33 97 34
REMARK SMILES IDX 98 35 99 36 100 37 22 38 23 39 24 40 25 41 26 43 27 44 28 45
REMARK SMILES IDX 89 46 29 47 88 48 30 49 31 50 32 51 82 52 33 53 87 54 81 55
REMARK SMILES IDX 83 56 34 57 86 58 80 59 79 60 35 62 67 63 47 64 66 65 48 66
REMARK SMILES IDX 51 67 65 68 84 69 49 70 50 71 64 73 85 74 52 75 36 76 37 77
REMARK SMILES IDX 45 78 38 79 44 80 46 81 43 82 39 83 40 84 41 85 42 86 68 87
REMARK SMILES IDX 69 88 77 89 70 90 76 91 78 92 75 93 71 94 72 95 73 96 74 97
REMARK SMILES IDX 53 98 54 99 62 100 55 101 61 102 63 103 60 104 56 105 57 106
REMARK SMILES IDX 58 107 59 108
REMARK H PARENT 17 8 102 16 10 27 24 42 83 61 51 72
REMARK Flexibility Score: inf
ROOT
ATOM      1  C   UNL A   1      41.431  22.185  27.967  1.00  0.00     0.002 C 
ENDROOT
BRANCH   1   2
ATOM      2  C   UNL A   1      40.723  23.008  26.882  1.00  0.00     0.002 C 
BRANCH   2   3
ATOM      3  C   UNL A   1      39.408  23.673  27.285  1.00  0.00     0.021 C 
BRANCH   3   4
ATOM      4  C   UNL A   1      38.276  23.560  26.269  1.00  0.00     0.116 C 
BRANCH   4   5
ATOM      5  N   UNL A   1      38.072  22.211  25.784  1.00  0.00    -0.352 N 
ATOM      6  C   UNL A   1      37.050  21.630  25.077  1.00  0.00     0.254 C 
ATOM      7  O   UNL A   1      37.130  20.420  24.867  1.00  0.00    -0.269 OA
ATOM      8  H   UNL A   1      38.807  21.593  26.004  1.00  0.00     0.163 HD
BRANCH   6   9
ATOM      9  C   UNL A   1      35.888  22.386  24.609  1.00  0.00     0.081 A 
ATOM     10  O   UNL A   1      32.502  19.014  24.324  1.00  0.00    -0.275 OA
ATOM     11  C   UNL A   1      32.895  20.167  24.147  1.00  0.00     0.225 C 
ATOM     12  C   UNL A   1      32.100  21.163  23.307  1.00  0.00     0.115 C 
ATOM     13  N   UNL A   1      34.138  20.567  24.571  1.00  0.00    -0.324 N 
ATOM     14  C   UNL A   1      32.278  22.638  23.724  1.00  0.00     0.078 C 
ATOM     15  C   UNL A   1      34.582  21.862  24.436  1.00  0.00     0.076 A 
ATOM     16  H   UNL A   1      34.733  19.903  24.988  1.00  0.00     0.170 HD
ATOM     17  C   UNL A   1      33.717  22.871  24.075  1.00  0.00     0.055 A 
ATOM     18  N   UNL A   1      34.450  24.036  24.001  1.00  0.00    -0.317 N 
ATOM     19  C   UNL A   1      35.786  23.679  24.123  1.00  0.00     0.107 A 
BRANCH  14  20
ATOM     20  C   UNL A   1      31.305  23.018  24.825  1.00  0.00    -0.035 A 
ATOM     21  C   UNL A   1      30.752  22.066  25.697  1.00  0.00     0.005 A 
ATOM     22  C   UNL A   1      30.991  24.372  25.022  1.00  0.00     0.050 A 
ATOM     23  C   UNL A   1      29.947  22.466  26.767  1.00  0.00     0.004 A 
ATOM     24  C   UNL A   1      30.219  24.760  26.110  1.00  0.00     0.115 A 
ATOM     25  C   UNL A   1      29.693  23.818  26.986  1.00  0.00     0.046 A 
BRANCH  24  26
ATOM     26  O   UNL A   1      30.046  26.096  26.318  1.00  0.00    -0.508 OA
ATOM     27  H   UNL A   1      30.766  26.685  26.206  1.00  0.00     0.293 HD
ENDBRANCH  24  26
ENDBRANCH  14  20
BRANCH  18  28
ATOM     28  C   UNL A   1      34.026  25.386  23.884  1.00  0.00     0.046 A 
ATOM     29  C   UNL A   1      33.824  25.937  22.613  1.00  0.00     0.026 A 
ATOM     30  C   UNL A   1      33.982  26.213  25.012  1.00  0.00     0.039 A 
ATOM     31  C   UNL A   1      33.533  27.295  22.475  1.00  0.00     0.003 A 
ATOM     32  C   UNL A   1      33.698  27.585  24.882  1.00  0.00     0.058 A 
ATOM     33  C   UNL A   1      33.465  28.112  23.603  1.00  0.00     0.013 A 
BRANCH  32  34
ATOM     34  C   UNL A   1      33.665  28.504  26.083  1.00  0.00     0.416 C 
ATOM     35  F   UNL A   1      34.855  28.531  26.745  1.00  0.00    -0.166 F 
ATOM     36  F   UNL A   1      33.409  29.796  25.734  1.00  0.00    -0.166 F 
ATOM     37  F   UNL A   1      32.730  28.174  27.014  1.00  0.00    -0.166 F 
ENDBRANCH  32  34
ENDBRANCH  18  28
ENDBRANCH   6   9
ENDBRANCH   4   5
ENDBRANCH   3   4
ENDBRANCH   2   3
ENDBRANCH   1   2
BRANCH   1  38
ATOM     38  C   UNL A   1      42.105  20.874  27.529  1.00  0.00     0.021 C 
BRANCH  38  39
ATOM     39  C   UNL A   1      42.315  20.738  26.029  1.00  0.00     0.116 C 
BRANCH  39  40
ATOM     40  N   UNL A   1      43.719  20.519  25.680  1.00  0.00    -0.352 N 
ATOM     41  C   UNL A   1      44.715  21.450  25.440  1.00  0.00     0.251 C 
ATOM     42  H   UNL A   1      43.994  19.577  25.605  1.00  0.00     0.163 HD
ATOM     43  O   UNL A   1      45.699  21.142  24.780  1.00  0.00    -0.269 OA
BRANCH  41  44
ATOM     44  C   UNL A   1      44.577  22.807  26.004  1.00  0.00     0.039 A 
ATOM     45  C   UNL A   1      43.946  23.849  25.315  1.00  0.00     0.014 A 
ATOM     46  C   UNL A   1      45.113  23.023  27.267  1.00  0.00     0.014 A 
ATOM     47  C   UNL A   1      43.820  25.089  25.943  1.00  0.00     0.010 A 
ATOM     48  C   UNL A   1      44.798  24.156  27.958  1.00  0.00     0.010 A 
ATOM     49  C   UNL A   1      44.252  25.227  27.269  1.00  0.00    -0.014 A 
BRANCH  49  50
ATOM     50  C   UNL A   1      44.077  26.446  28.044  1.00  0.00     0.031 A 
ATOM     51  C   UNL A   1      45.105  27.477  27.762  1.00  0.00     0.074 A 
ATOM     52  C   UNL A   1      42.909  26.737  28.660  1.00  0.00     0.049 A 
ATOM     53  N   UNL A   1      46.104  27.825  28.501  1.00  0.00    -0.248 NA
ATOM     54  C   UNL A   1      45.162  28.031  26.396  1.00  0.00     0.031 C 
ATOM     55  C   UNL A   1      41.667  25.954  28.667  1.00  0.00     0.029 A 
ATOM     56  N   UNL A   1      42.537  27.874  29.302  1.00  0.00    -0.354 N 
ATOM     57  C   UNL A   1      46.730  28.856  27.809  1.00  0.00     0.074 A 
ATOM     58  C   UNL A   1      46.314  28.701  26.445  1.00  0.00     0.031 C 
ATOM     59  C   UNL A   1      40.640  26.736  29.072  1.00  0.00     0.029 A 
ATOM     60  C   UNL A   1      41.164  28.026  29.489  1.00  0.00     0.049 A 
ATOM     61  H   UNL A   1      43.190  28.542  29.613  1.00  0.00     0.167 HD
ATOM     62  C   UNL A   1      47.259  29.929  28.466  1.00  0.00     0.034 A 
ATOM     63  C   UNL A   1      40.516  29.151  29.907  1.00  0.00     0.034 A 
ATOM     64  C   UNL A   1      47.328  29.658  29.894  1.00  0.00     0.049 A 
ATOM     65  C   UNL A   1      41.543  30.006  30.563  1.00  0.00     0.074 A 
ATOM     66  C   UNL A   1      47.887  28.652  30.661  1.00  0.00     0.029 A 
ATOM     67  N   UNL A   1      46.393  30.260  30.715  1.00  0.00    -0.354 N 
ATOM     68  N   UNL A   1      42.161  29.669  31.662  1.00  0.00    -0.248 NA
ATOM     69  C   UNL A   1      42.253  30.967  29.729  1.00  0.00     0.031 C 
ATOM     70  C   UNL A   1      46.908  28.368  31.661  1.00  0.00     0.029 A 
ATOM     71  C   UNL A   1      45.866  29.286  31.528  1.00  0.00     0.049 A 
ATOM     72  H   UNL A   1      46.151  31.214  30.718  1.00  0.00     0.167 HD
ATOM     73  C   UNL A   1      43.489  30.010  31.450  1.00  0.00     0.074 A 
ATOM     74  C   UNL A   1      43.469  30.889  30.280  1.00  0.00     0.031 C 
ATOM     75  C   UNL A   1      44.505  29.307  32.038  1.00  0.00     0.034 A 
BRANCH  62  76
ATOM     76  C   UNL A   1      47.326  31.348  27.920  1.00  0.00     0.023 A 
ATOM     77  C   UNL A   1      46.093  31.966  27.641  1.00  0.00     0.031 A 
ATOM     78  C   UNL A   1      48.462  32.021  27.413  1.00  0.00     0.131 A 
ATOM     79  C   UNL A   1      46.008  33.068  26.775  1.00  0.00     0.055 A 
ATOM     80  C   UNL A   1      48.378  33.160  26.604  1.00  0.00     0.041 A 
ATOM     81  F   UNL A   1      49.716  31.601  27.603  1.00  0.00    -0.206 F 
ATOM     82  C   UNL A   1      47.145  33.667  26.244  1.00  0.00     0.022 A 
BRANCH  79  83
ATOM     83  S   UNL A   1      44.367  33.574  26.208  1.00  0.00     0.124 S 
ATOM     84  O   UNL A   1      44.698  34.717  25.365  1.00  0.00    -0.237 OA
ATOM     85  O   UNL A   1      43.910  32.373  25.518  1.00  0.00    -0.237 OA
ATOM     86  O   UNL A   1      43.665  33.888  27.449  1.00  0.00    -0.744 OA
ENDBRANCH  79  83
ENDBRANCH  62  76
BRANCH  63  87
ATOM     87  C   UNL A   1      39.166  29.660  29.514  1.00  0.00     0.023 A 
ATOM     88  C   UNL A   1      38.321  30.360  30.409  1.00  0.00     0.031 A 
ATOM     89  C   UNL A   1      38.791  29.686  28.151  1.00  0.00     0.131 A 
ATOM     90  C   UNL A   1      37.177  31.045  29.930  1.00  0.00     0.055 A 
ATOM     91  C   UNL A   1      37.661  30.364  27.685  1.00  0.00     0.041 A 
ATOM     92  F   UNL A   1      39.563  29.127  27.205  1.00  0.00    -0.206 F 
ATOM     93  C   UNL A   1      36.855  31.058  28.572  1.00  0.00     0.022 A 
BRANCH  90  94
ATOM     94  S   UNL A   1      36.134  32.037  31.056  1.00  0.00     0.124 S 
ATOM     95  O   UNL A   1      36.915  33.260  31.202  1.00  0.00    -0.237 OA
ATOM     96  O   UNL A   1      34.883  32.148  30.316  1.00  0.00    -0.237 OA
ATOM     97  O   UNL A   1      36.056  31.210  32.262  1.00  0.00    -0.744 OA
ENDBRANCH  90  94
ENDBRANCH  63  87
BRANCH  75  98
ATOM     98  C   UNL A   1      44.170  28.337  33.159  1.00  0.00     0.023 A 
ATOM     99  C   UNL A   1      44.227  26.925  33.065  1.00  0.00     0.031 A 
ATOM    100  C   UNL A   1      43.880  28.889  34.419  1.00  0.00     0.131 A 
ATOM    101  C   UNL A   1      43.982  26.129  34.205  1.00  0.00     0.055 A 
ATOM    102  C   UNL A   1      43.662  28.099  35.548  1.00  0.00     0.041 A 
ATOM    103  F   UNL A   1      43.833  30.220  34.585  1.00  0.00    -0.206 F 
ATOM    104  C   UNL A   1      43.704  26.716  35.443  1.00  0.00     0.022 A 
BRANCH 101 105
ATOM    105  S   UNL A   1      43.980  24.308  34.096  1.00  0.00     0.124 S 
ATOM    106  O   UNL A   1      42.696  23.929  34.673  1.00  0.00    -0.237 OA
ATOM    107  O   UNL A   1      44.128  24.080  32.661  1.00  0.00    -0.237 OA
ATOM    108  O   UNL A   1      45.144  23.922  34.894  1.00  0.00    -0.744 OA
ENDBRANCH 101 105
ENDBRANCH  75  98
ENDBRANCH  49  50
ENDBRANCH  41  44
ENDBRANCH  39  40
ENDBRANCH  38  39
ENDBRANCH   1  38
TORSDOF 20
ENDMDL
