MODEL 1
REMARK VINA RESULT:     -12.8      0.000      0.000
REMARK SMILES Cc1ccccc1C(=O)Nc1ccc(OCC(=O)NCCCCCCNC(=O)c2ccc(-c3c4nc(c(-c5cc(S(=O)(=O)[O-])ccc5F)c5ccc([nH]5)c(-c5cc(S(=O)(=O)[O-])ccc5F)c5nc(c(-c6cc(S(=O)(=O)[O-])ccc6F)c6ccc3[nH]6)C=C5)C=C4)cc2)c(-c2nc3ccccc3s2)c1
REMARK SMILES IDX 22 1 21 2 20 3 19 4 17 5 18 6 16 8 15 9 14 10 11 11 12 12
REMARK SMILES IDX 102 13 13 14 92 15 10 16 8 17 9 18 7 20 1 21 2 22 3 23 4 24
REMARK SMILES IDX 6 25 5 26 93 27 94 28 101 29 95 30 100 31 96 32 99 33 97 34
REMARK SMILES IDX 98 35 23 36 24 37 25 38 26 39 27 40 28 42 29 43 30 44 91 45
REMARK SMILES IDX 31 46 90 47 32 48 33 49 34 50 84 51 35 52 89 53 83 54 85 55
REMARK SMILES IDX 36 56 88 57 82 58 81 59 37 61 69 62 49 63 68 64 50 65 53 66
REMARK SMILES IDX 67 67 86 68 51 69 52 70 66 72 87 73 54 74 38 75 39 76 47 77
REMARK SMILES IDX 40 78 46 79 48 80 45 81 41 82 42 83 43 84 44 85 70 86 71 87
REMARK SMILES IDX 79 88 72 89 78 90 80 91 77 92 73 93 74 94 75 95 76 96 55 97
REMARK SMILES IDX 56 98 64 99 57 100 63 101 65 102 62 103 58 104 59 105 60 106
REMARK SMILES IDX 61 107
REMARK H PARENT 19 7 10 19 26 41 85 60 53 71
REMARK Flexibility Score: inf
ROOT
ATOM      1  C   UNL A   1      40.949  22.834  26.943  1.00  0.00     0.002 C 
ENDROOT
BRANCH   1   2
ATOM      2  C   UNL A   1      39.882  22.157  26.073  1.00  0.00     0.021 C 
BRANCH   2   3
ATOM      3  C   UNL A   1      38.438  22.572  26.338  1.00  0.00     0.116 C 
BRANCH   3   4
ATOM      4  N   UNL A   1      37.506  21.514  26.027  1.00  0.00    -0.353 N 
ATOM      5  C   UNL A   1      36.610  21.384  25.015  1.00  0.00     0.257 C 
ATOM      6  O   UNL A   1      35.993  20.319  24.962  1.00  0.00    -0.271 OA
ATOM      7  H   UNL A   1      37.522  20.757  26.657  1.00  0.00     0.163 HD
BRANCH   5   8
ATOM      8  C   UNL A   1      36.432  22.508  23.964  1.00  0.00     0.329 C 
BRANCH   8   9
ATOM      9  O   UNL A   1      35.181  22.742  23.316  1.00  0.00    -0.483 OA
BRANCH   9  10
ATOM     10  C   UNL A   1      34.306  23.463  24.087  1.00  0.00     0.130 A 
ATOM     11  C   UNL A   1      32.712  25.002  25.779  1.00  0.00     0.042 A 
ATOM     12  C   UNL A   1      33.738  25.609  25.057  1.00  0.00     0.030 A 
ATOM     13  C   UNL A   1      32.404  23.659  25.544  1.00  0.00     0.041 A 
ATOM     14  C   UNL A   1      34.560  24.832  24.242  1.00  0.00     0.049 A 
ATOM     15  C   UNL A   1      33.163  22.867  24.654  1.00  0.00     0.055 A 
BRANCH  11  16
ATOM     16  N   UNL A   1      32.044  25.782  26.733  1.00  0.00    -0.322 N 
ATOM     17  C   UNL A   1      31.411  26.999  26.608  1.00  0.00     0.255 C 
ATOM     18  O   UNL A   1      31.174  27.647  27.629  1.00  0.00    -0.269 OA
ATOM     19  H   UNL A   1      32.025  25.397  27.639  1.00  0.00     0.170 HD
BRANCH  17  20
ATOM     20  C   UNL A   1      30.932  27.532  25.296  1.00  0.00     0.043 A 
ATOM     21  C   UNL A   1      32.817  29.264  24.951  1.00  0.00     0.045 C 
ATOM     22  C   UNL A   1      31.550  28.561  24.556  1.00  0.00    -0.038 A 
ATOM     23  C   UNL A   1      30.980  28.950  23.327  1.00  0.00     0.004 A 
ATOM     24  C   UNL A   1      29.890  28.271  22.788  1.00  0.00     0.000 A 
ATOM     25  C   UNL A   1      29.852  26.833  24.720  1.00  0.00     0.014 A 
ATOM     26  C   UNL A   1      29.341  27.194  23.472  1.00  0.00     0.001 A 
ENDBRANCH  17  20
ENDBRANCH  11  16
BRANCH  15  27
ATOM     27  C   UNL A   1      32.736  21.458  24.463  1.00  0.00     0.128 A 
ATOM     28  N   UNL A   1      32.737  20.557  25.433  1.00  0.00    -0.236 NA
ATOM     29  S   UNL A   1      32.178  20.814  22.960  1.00  0.00    -0.114 S 
ATOM     30  C   UNL A   1      32.705  19.285  24.890  1.00  0.00     0.082 A 
ATOM     31  C   UNL A   1      32.541  19.234  23.509  1.00  0.00     0.055 A 
ATOM     32  C   UNL A   1      32.872  18.079  25.594  1.00  0.00     0.030 A 
ATOM     33  C   UNL A   1      32.655  18.041  22.782  1.00  0.00     0.021 A 
ATOM     34  C   UNL A   1      32.974  16.877  24.886  1.00  0.00     0.002 A 
ATOM     35  C   UNL A   1      32.898  16.865  23.495  1.00  0.00     0.002 A 
ENDBRANCH  15  27
ENDBRANCH   9  10
ENDBRANCH   8   9
ENDBRANCH   5   8
ENDBRANCH   3   4
ENDBRANCH   2   3
ENDBRANCH   1   2
BRANCH   1  36
ATOM     36  C   UNL A   1      40.471  23.888  27.951  1.00  0.00     0.002 C 
BRANCH  36  37
ATOM     37  C   UNL A   1      40.843  25.341  27.663  1.00  0.00     0.021 C 
BRANCH  37  38
ATOM     38  C   UNL A   1      40.772  25.740  26.196  1.00  0.00     0.116 C 
BRANCH  38  39
ATOM     39  N   UNL A   1      42.011  26.254  25.632  1.00  0.00    -0.352 N 
ATOM     40  C   UNL A   1      42.453  27.567  25.591  1.00  0.00     0.251 C 
ATOM     41  H   UNL A   1      42.610  25.585  25.228  1.00  0.00     0.163 HD
ATOM     42  O   UNL A   1      43.495  27.872  25.030  1.00  0.00    -0.269 OA
BRANCH  40  43
ATOM     43  C   UNL A   1      41.703  28.591  26.365  1.00  0.00     0.039 A 
ATOM     44  C   UNL A   1      42.426  29.347  27.295  1.00  0.00     0.014 A 
ATOM     45  C   UNL A   1      40.311  28.633  26.356  1.00  0.00     0.014 A 
ATOM     46  C   UNL A   1      41.755  29.941  28.360  1.00  0.00     0.010 A 
ATOM     47  C   UNL A   1      39.652  29.138  27.462  1.00  0.00     0.010 A 
ATOM     48  C   UNL A   1      40.380  29.735  28.494  1.00  0.00    -0.014 A 
BRANCH  48  49
ATOM     49  C   UNL A   1      39.666  29.987  29.740  1.00  0.00     0.031 A 
ATOM     50  C   UNL A   1      38.794  31.167  29.893  1.00  0.00     0.074 A 
ATOM     51  C   UNL A   1      39.819  29.157  30.795  1.00  0.00     0.049 A 
ATOM     52  N   UNL A   1      38.656  31.816  31.001  1.00  0.00    -0.248 NA
ATOM     53  C   UNL A   1      38.024  31.726  28.789  1.00  0.00     0.031 C 
ATOM     54  C   UNL A   1      39.063  29.164  32.044  1.00  0.00     0.029 A 
ATOM     55  N   UNL A   1      40.870  28.282  31.037  1.00  0.00    -0.354 N 
ATOM     56  C   UNL A   1      37.591  32.668  30.843  1.00  0.00     0.074 A 
ATOM     57  C   UNL A   1      37.282  32.636  29.430  1.00  0.00     0.031 C 
ATOM     58  C   UNL A   1      39.786  28.547  32.993  1.00  0.00     0.029 A 
ATOM     59  C   UNL A   1      41.081  28.228  32.421  1.00  0.00     0.049 A 
ATOM     60  H   UNL A   1      41.377  27.787  30.355  1.00  0.00     0.167 HD
ATOM     61  C   UNL A   1      36.966  33.197  31.931  1.00  0.00     0.034 A 
ATOM     62  C   UNL A   1      42.289  28.557  32.965  1.00  0.00     0.034 A 
ATOM     63  C   UNL A   1      37.544  32.730  33.187  1.00  0.00     0.049 A 
ATOM     64  C   UNL A   1      42.224  29.730  33.919  1.00  0.00     0.074 A 
ATOM     65  C   UNL A   1      37.152  31.755  34.090  1.00  0.00     0.029 A 
ATOM     66  N   UNL A   1      38.841  33.087  33.533  1.00  0.00    -0.354 N 
ATOM     67  N   UNL A   1      41.216  30.555  34.003  1.00  0.00    -0.248 NA
ATOM     68  C   UNL A   1      43.302  30.079  34.837  1.00  0.00     0.031 C 
ATOM     69  C   UNL A   1      38.238  31.503  34.965  1.00  0.00     0.029 A 
ATOM     70  C   UNL A   1      39.280  32.341  34.611  1.00  0.00     0.049 A 
ATOM     71  H   UNL A   1      39.375  33.777  33.075  1.00  0.00     0.167 HD
ATOM     72  C   UNL A   1      41.489  31.532  34.930  1.00  0.00     0.074 A 
ATOM     73  C   UNL A   1      42.802  31.172  35.440  1.00  0.00     0.031 C 
ATOM     74  C   UNL A   1      40.607  32.550  35.179  1.00  0.00     0.034 A 
BRANCH  61  75
ATOM     75  C   UNL A   1      35.623  33.870  31.824  1.00  0.00     0.023 A 
ATOM     76  C   UNL A   1      35.091  34.182  30.558  1.00  0.00     0.031 A 
ATOM     77  C   UNL A   1      34.845  34.259  32.932  1.00  0.00     0.131 A 
ATOM     78  C   UNL A   1      33.914  34.938  30.427  1.00  0.00     0.055 A 
ATOM     79  C   UNL A   1      33.700  35.055  32.806  1.00  0.00     0.041 A 
ATOM     80  F   UNL A   1      35.166  33.868  34.176  1.00  0.00    -0.206 F 
ATOM     81  C   UNL A   1      33.237  35.414  31.546  1.00  0.00     0.022 A 
BRANCH  78  82
ATOM     82  S   UNL A   1      33.284  35.295  28.764  1.00  0.00     0.124 S 
ATOM     83  O   UNL A   1      32.458  36.476  28.992  1.00  0.00    -0.237 OA
ATOM     84  O   UNL A   1      34.512  35.502  28.006  1.00  0.00    -0.237 OA
ATOM     85  O   UNL A   1      32.541  34.083  28.417  1.00  0.00    -0.744 OA
ENDBRANCH  78  82
ENDBRANCH  61  75
BRANCH  62  86
ATOM     86  C   UNL A   1      43.440  28.220  32.079  1.00  0.00     0.023 A 
ATOM     87  C   UNL A   1      43.770  26.853  31.940  1.00  0.00     0.031 A 
ATOM     88  C   UNL A   1      43.914  29.113  31.109  1.00  0.00     0.131 A 
ATOM     89  C   UNL A   1      44.407  26.395  30.779  1.00  0.00     0.055 A 
ATOM     90  C   UNL A   1      44.606  28.657  29.981  1.00  0.00     0.041 A 
ATOM     91  F   UNL A   1      43.604  30.416  31.168  1.00  0.00    -0.206 F 
ATOM     92  C   UNL A   1      44.815  27.289  29.789  1.00  0.00     0.022 A 
BRANCH  89  93
ATOM     93  S   UNL A   1      44.450  24.607  30.443  1.00  0.00     0.124 S 
ATOM     94  O   UNL A   1      44.549  24.045  31.785  1.00  0.00    -0.237 OA
ATOM     95  O   UNL A   1      43.187  24.371  29.745  1.00  0.00    -0.237 OA
ATOM     96  O   UNL A   1      45.635  24.451  29.602  1.00  0.00    -0.744 OA
ENDBRANCH  89  93
ENDBRANCH  62  86
BRANCH  74  97
ATOM     97  C   UNL A   1      40.841  33.782  36.041  1.00  0.00     0.023 A 
ATOM     98  C   UNL A   1      41.824  34.748  35.783  1.00  0.00     0.031 A 
ATOM     99  C   UNL A   1      40.009  34.057  37.159  1.00  0.00     0.131 A 
ATOM    100  C   UNL A   1      42.002  35.862  36.629  1.00  0.00     0.055 A 
ATOM    101  C   UNL A   1      40.141  35.198  37.958  1.00  0.00     0.041 A 
ATOM    102  F   UNL A   1      39.014  33.236  37.525  1.00  0.00    -0.206 F 
ATOM    103  C   UNL A   1      41.155  36.106  37.704  1.00  0.00     0.022 A 
BRANCH 100 104
ATOM    104  S   UNL A   1      43.406  36.965  36.317  1.00  0.00     0.124 S 
ATOM    105  O   UNL A   1      43.444  37.759  37.541  1.00  0.00    -0.237 OA
ATOM    106  O   UNL A   1      44.508  36.025  36.137  1.00  0.00    -0.237 OA
ATOM    107  O   UNL A   1      43.012  37.697  35.115  1.00  0.00    -0.744 OA
ENDBRANCH 100 104
ENDBRANCH  74  97
ENDBRANCH  48  49
ENDBRANCH  40  43
ENDBRANCH  38  39
ENDBRANCH  37  38
ENDBRANCH  36  37
ENDBRANCH   1  36
TORSDOF 21
ENDMDL
MODEL 2
REMARK VINA RESULT:     -12.4      3.020      6.667
REMARK SMILES Cc1ccccc1C(=O)Nc1ccc(OCC(=O)NCCCCCCNC(=O)c2ccc(-c3c4nc(c(-c5cc(S(=O)(=O)[O-])ccc5F)c5ccc([nH]5)c(-c5cc(S(=O)(=O)[O-])ccc5F)c5nc(c(-c6cc(S(=O)(=O)[O-])ccc6F)c6ccc3[nH]6)C=C5)C=C4)cc2)c(-c2nc3ccccc3s2)c1
REMARK SMILES IDX 22 1 21 2 20 3 19 4 17 5 18 6 16 8 15 9 14 10 11 11 12 12
REMARK SMILES IDX 102 13 13 14 92 15 10 16 8 17 9 18 7 20 1 21 2 22 3 23 4 24
REMARK SMILES IDX 6 25 5 26 93 27 94 28 101 29 95 30 100 31 96 32 99 33 97 34
REMARK SMILES IDX 98 35 23 36 24 37 25 38 26 39 27 40 28 42 29 43 30 44 91 45
REMARK SMILES IDX 31 46 90 47 32 48 33 49 34 50 84 51 35 52 89 53 83 54 85 55
REMARK SMILES IDX 36 56 88 57 82 58 81 59 37 61 69 62 49 63 68 64 50 65 53 66
REMARK SMILES IDX 67 67 86 68 51 69 52 70 66 72 87 73 54 74 38 75 39 76 47 77
REMARK SMILES IDX 40 78 46 79 48 80 45 81 41 82 42 83 43 84 44 85 70 86 71 87
REMARK SMILES IDX 79 88 72 89 78 90 80 91 77 92 73 93 74 94 75 95 76 96 55 97
REMARK SMILES IDX 56 98 64 99 57 100 63 101 65 102 62 103 58 104 59 105 60 106
REMARK SMILES IDX 61 107
REMARK H PARENT 19 7 10 19 26 41 85 60 53 71
REMARK Flexibility Score: inf
ROOT
ATOM      1  C   UNL A   1      40.487  23.931  27.757  1.00  0.00     0.002 C 
ENDROOT
BRANCH   1   2
ATOM      2  C   UNL A   1      39.871  22.739  27.014  1.00  0.00     0.021 C 
BRANCH   2   3
ATOM      3  C   UNL A   1      38.678  23.052  26.116  1.00  0.00     0.116 C 
BRANCH   3   4
ATOM      4  N   UNL A   1      37.825  21.901  25.930  1.00  0.00    -0.353 N 
ATOM      5  C   UNL A   1      36.865  21.643  25.005  1.00  0.00     0.257 C 
ATOM      6  O   UNL A   1      36.347  20.527  25.049  1.00  0.00    -0.271 OA
ATOM      7  H   UNL A   1      37.963  21.181  26.587  1.00  0.00     0.163 HD
BRANCH   5   8
ATOM      8  C   UNL A   1      36.498  22.695  23.928  1.00  0.00     0.329 C 
BRANCH   8   9
ATOM      9  O   UNL A   1      35.190  22.763  23.357  1.00  0.00    -0.483 OA
BRANCH   9  10
ATOM     10  C   UNL A   1      34.312  23.489  24.119  1.00  0.00     0.130 A 
ATOM     11  C   UNL A   1      32.708  25.037  25.795  1.00  0.00     0.042 A 
ATOM     12  C   UNL A   1      33.741  25.639  25.077  1.00  0.00     0.030 A 
ATOM     13  C   UNL A   1      32.400  23.693  25.563  1.00  0.00     0.041 A 
ATOM     14  C   UNL A   1      34.566  24.858  24.271  1.00  0.00     0.049 A 
ATOM     15  C   UNL A   1      33.164  22.897  24.681  1.00  0.00     0.055 A 
BRANCH  11  16
ATOM     16  N   UNL A   1      32.035  25.821  26.741  1.00  0.00    -0.322 N 
ATOM     17  C   UNL A   1      31.395  27.034  26.604  1.00  0.00     0.255 C 
ATOM     18  O   UNL A   1      31.153  27.689  27.619  1.00  0.00    -0.269 OA
ATOM     19  H   UNL A   1      32.017  25.445  27.650  1.00  0.00     0.170 HD
BRANCH  17  20
ATOM     20  C   UNL A   1      30.913  27.551  25.287  1.00  0.00     0.043 A 
ATOM     21  C   UNL A   1      32.715  29.379  24.987  1.00  0.00     0.045 C 
ATOM     22  C   UNL A   1      31.492  28.616  24.565  1.00  0.00    -0.038 A 
ATOM     23  C   UNL A   1      30.926  28.985  23.328  1.00  0.00     0.004 A 
ATOM     24  C   UNL A   1      29.881  28.256  22.765  1.00  0.00     0.000 A 
ATOM     25  C   UNL A   1      29.880  26.804  24.686  1.00  0.00     0.014 A 
ATOM     26  C   UNL A   1      29.375  27.147  23.431  1.00  0.00     0.001 A 
ENDBRANCH  17  20
ENDBRANCH  11  16
BRANCH  15  27
ATOM     27  C   UNL A   1      32.736  21.488  24.492  1.00  0.00     0.128 A 
ATOM     28  N   UNL A   1      32.754  20.584  25.460  1.00  0.00    -0.236 NA
ATOM     29  S   UNL A   1      32.155  20.847  22.997  1.00  0.00    -0.114 S 
ATOM     30  C   UNL A   1      32.716  19.313  24.913  1.00  0.00     0.082 A 
ATOM     31  C   UNL A   1      32.529  19.267  23.534  1.00  0.00     0.055 A 
ATOM     32  C   UNL A   1      32.896  18.106  25.610  1.00  0.00     0.030 A 
ATOM     33  C   UNL A   1      32.633  18.076  22.802  1.00  0.00     0.021 A 
ATOM     34  C   UNL A   1      32.988  16.906  24.896  1.00  0.00     0.002 A 
ATOM     35  C   UNL A   1      32.889  16.898  23.507  1.00  0.00     0.002 A 
ENDBRANCH  15  27
ENDBRANCH   9  10
ENDBRANCH   8   9
ENDBRANCH   5   8
ENDBRANCH   3   4
ENDBRANCH   2   3
ENDBRANCH   1   2
BRANCH   1  36
ATOM     36  C   UNL A   1      39.558  25.105  28.098  1.00  0.00     0.002 C 
BRANCH  36  37
ATOM     37  C   UNL A   1      40.043  26.504  27.718  1.00  0.00     0.021 C 
BRANCH  37  38
ATOM     38  C   UNL A   1      41.520  26.593  27.362  1.00  0.00     0.116 C 
BRANCH  38  39
ATOM     39  N   UNL A   1      42.438  26.243  28.434  1.00  0.00    -0.352 N 
ATOM     40  C   UNL A   1      42.786  26.997  29.545  1.00  0.00     0.251 C 
ATOM     41  H   UNL A   1      42.869  25.360  28.362  1.00  0.00     0.163 HD
ATOM     42  O   UNL A   1      43.622  26.605  30.345  1.00  0.00    -0.269 OA
BRANCH  40  43
ATOM     43  C   UNL A   1      42.020  28.240  29.824  1.00  0.00     0.039 A 
ATOM     44  C   UNL A   1      42.333  29.369  29.059  1.00  0.00     0.014 A 
ATOM     45  C   UNL A   1      41.213  28.358  30.953  1.00  0.00     0.014 A 
ATOM     46  C   UNL A   1      42.044  30.635  29.561  1.00  0.00     0.010 A 
ATOM     47  C   UNL A   1      41.010  29.612  31.500  1.00  0.00     0.010 A 
ATOM     48  C   UNL A   1      41.482  30.747  30.835  1.00  0.00    -0.014 A 
BRANCH  48  49
ATOM     49  C   UNL A   1      41.489  31.994  31.590  1.00  0.00     0.031 A 
ATOM     50  C   UNL A   1      42.527  32.266  32.601  1.00  0.00     0.074 A 
ATOM     51  C   UNL A   1      40.517  32.913  31.399  1.00  0.00     0.049 A 
ATOM     52  N   UNL A   1      42.310  32.923  33.691  1.00  0.00    -0.248 NA
ATOM     53  C   UNL A   1      43.899  31.788  32.471  1.00  0.00     0.031 C 
ATOM     54  C   UNL A   1      40.462  34.268  31.940  1.00  0.00     0.029 A 
ATOM     55  N   UNL A   1      39.253  32.708  30.863  1.00  0.00    -0.354 N 
ATOM     56  C   UNL A   1      43.534  33.205  34.247  1.00  0.00     0.074 A 
ATOM     57  C   UNL A   1      44.485  32.411  33.499  1.00  0.00     0.031 C 
ATOM     58  C   UNL A   1      39.185  34.684  31.940  1.00  0.00     0.029 A 
ATOM     59  C   UNL A   1      38.360  33.570  31.513  1.00  0.00     0.049 A 
ATOM     60  H   UNL A   1      39.025  32.068  30.151  1.00  0.00     0.167 HD
ATOM     61  C   UNL A   1      43.657  34.193  35.175  1.00  0.00     0.034 A 
ATOM     62  C   UNL A   1      37.273  33.088  32.182  1.00  0.00     0.034 A 
ATOM     63  C   UNL A   1      42.391  34.869  35.440  1.00  0.00     0.049 A 
ATOM     64  C   UNL A   1      37.276  33.421  33.659  1.00  0.00     0.074 A 
ATOM     65  C   UNL A   1      41.863  36.071  34.996  1.00  0.00     0.029 A 
ATOM     66  N   UNL A   1      41.347  34.182  36.047  1.00  0.00    -0.354 N 
ATOM     67  N   UNL A   1      38.320  33.845  34.315  1.00  0.00    -0.248 NA
ATOM     68  C   UNL A   1      36.105  33.278  34.517  1.00  0.00     0.031 C 
ATOM     69  C   UNL A   1      40.481  36.088  35.312  1.00  0.00     0.029 A 
ATOM     70  C   UNL A   1      40.174  34.911  35.969  1.00  0.00     0.049 A 
ATOM     71  H   UNL A   1      41.430  33.298  36.474  1.00  0.00     0.167 HD
ATOM     72  C   UNL A   1      38.002  34.010  35.642  1.00  0.00     0.074 A 
ATOM     73  C   UNL A   1      36.593  33.662  35.709  1.00  0.00     0.031 C 
ATOM     74  C   UNL A   1      38.938  34.409  36.560  1.00  0.00     0.034 A 
BRANCH  61  75
ATOM     75  C   UNL A   1      45.001  34.744  35.574  1.00  0.00     0.023 A 
ATOM     76  C   UNL A   1      45.475  35.935  34.989  1.00  0.00     0.031 A 
ATOM     77  C   UNL A   1      45.869  34.120  36.490  1.00  0.00     0.131 A 
ATOM     78  C   UNL A   1      46.781  36.394  35.226  1.00  0.00     0.055 A 
ATOM     79  C   UNL A   1      47.187  34.548  36.690  1.00  0.00     0.041 A 
ATOM     80  F   UNL A   1      45.461  33.079  37.233  1.00  0.00    -0.206 F 
ATOM     81  C   UNL A   1      47.657  35.684  36.042  1.00  0.00     0.022 A 
BRANCH  78  82
ATOM     82  S   UNL A   1      47.319  37.941  34.445  1.00  0.00     0.124 S 
ATOM     83  O   UNL A   1      47.303  37.594  33.027  1.00  0.00    -0.237 OA
ATOM     84  O   UNL A   1      46.300  38.883  34.892  1.00  0.00    -0.237 OA
ATOM     85  O   UNL A   1      48.652  38.158  35.010  1.00  0.00    -0.744 OA
ENDBRANCH  78  82
ENDBRANCH  61  75
BRANCH  62  86
ATOM     86  C   UNL A   1      36.712  31.848  31.573  1.00  0.00     0.023 A 
ATOM     87  C   UNL A   1      35.922  32.000  30.412  1.00  0.00     0.031 A 
ATOM     88  C   UNL A   1      37.250  30.582  31.841  1.00  0.00     0.131 A 
ATOM     89  C   UNL A   1      35.824  30.956  29.482  1.00  0.00     0.055 A 
ATOM     90  C   UNL A   1      37.096  29.523  30.938  1.00  0.00     0.041 A 
ATOM     91  F   UNL A   1      38.038  30.386  32.908  1.00  0.00    -0.206 F 
ATOM     92  C   UNL A   1      36.421  29.720  29.731  1.00  0.00     0.022 A 
BRANCH  89  93
ATOM     93  S   UNL A   1      35.153  31.308  27.827  1.00  0.00     0.124 S 
ATOM     94  O   UNL A   1      35.781  30.271  27.015  1.00  0.00    -0.237 OA
ATOM     95  O   UNL A   1      33.710  31.179  28.020  1.00  0.00    -0.237 OA
ATOM     96  O   UNL A   1      35.601  32.674  27.565  1.00  0.00    -0.744 OA
ENDBRANCH  89  93
ENDBRANCH  62  86
BRANCH  74  97
ATOM     97  C   UNL A   1      38.780  34.469  38.071  1.00  0.00     0.023 A 
ATOM     98  C   UNL A   1      38.331  33.401  38.859  1.00  0.00     0.031 A 
ATOM     99  C   UNL A   1      39.146  35.636  38.796  1.00  0.00     0.131 A 
ATOM    100  C   UNL A   1      38.191  33.523  40.257  1.00  0.00     0.055 A 
ATOM    101  C   UNL A   1      39.072  35.734  40.190  1.00  0.00     0.041 A 
ATOM    102  F   UNL A   1      39.607  36.738  38.185  1.00  0.00    -0.206 F 
ATOM    103  C   UNL A   1      38.577  34.676  40.931  1.00  0.00     0.022 A 
BRANCH 100 104
ATOM    104  S   UNL A   1      37.442  32.149  41.172  1.00  0.00     0.124 S 
ATOM    105  O   UNL A   1      37.318  32.712  42.513  1.00  0.00    -0.237 OA
ATOM    106  O   UNL A   1      36.188  31.943  40.454  1.00  0.00    -0.237 OA
ATOM    107  O   UNL A   1      38.419  31.070  41.039  1.00  0.00    -0.744 OA
ENDBRANCH 100 104
ENDBRANCH  74  97
ENDBRANCH  48  49
ENDBRANCH  40  43
ENDBRANCH  38  39
ENDBRANCH  37  38
ENDBRANCH  36  37
ENDBRANCH   1  36
TORSDOF 21
ENDMDL
MODEL 3
REMARK VINA RESULT:     -11.7      3.370      7.453
REMARK SMILES Cc1ccccc1C(=O)Nc1ccc(OCC(=O)NCCCCCCNC(=O)c2ccc(-c3c4nc(c(-c5cc(S(=O)(=O)[O-])ccc5F)c5ccc([nH]5)c(-c5cc(S(=O)(=O)[O-])ccc5F)c5nc(c(-c6cc(S(=O)(=O)[O-])ccc6F)c6ccc3[nH]6)C=C5)C=C4)cc2)c(-c2nc3ccccc3s2)c1
REMARK SMILES IDX 22 1 21 2 20 3 19 4 17 5 18 6 16 8 15 9 14 10 11 11 12 12
REMARK SMILES IDX 102 13 13 14 92 15 10 16 8 17 9 18 7 20 1 21 2 22 3 23 4 24
REMARK SMILES IDX 6 25 5 26 93 27 94 28 101 29 95 30 100 31 96 32 99 33 97 34
REMARK SMILES IDX 98 35 23 36 24 37 25 38 26 39 27 40 28 42 29 43 30 44 91 45
REMARK SMILES IDX 31 46 90 47 32 48 33 49 34 50 84 51 35 52 89 53 83 54 85 55
REMARK SMILES IDX 36 56 88 57 82 58 81 59 37 61 69 62 49 63 68 64 50 65 53 66
REMARK SMILES IDX 67 67 86 68 51 69 52 70 66 72 87 73 54 74 38 75 39 76 47 77
REMARK SMILES IDX 40 78 46 79 48 80 45 81 41 82 42 83 43 84 44 85 70 86 71 87
REMARK SMILES IDX 79 88 72 89 78 90 80 91 77 92 73 93 74 94 75 95 76 96 55 97
REMARK SMILES IDX 56 98 64 99 57 100 63 101 65 102 62 103 58 104 59 105 60 106
REMARK SMILES IDX 61 107
REMARK H PARENT 19 7 10 19 26 41 85 60 53 71
REMARK Flexibility Score: inf
ROOT
ATOM      1  C   UNL A   1      40.484  24.606  26.403  1.00  0.00     0.002 C 
ENDROOT
BRANCH   1   2
ATOM      2  C   UNL A   1      39.253  23.919  27.010  1.00  0.00     0.021 C 
BRANCH   2   3
ATOM      3  C   UNL A   1      38.045  23.775  26.090  1.00  0.00     0.116 C 
BRANCH   3   4
ATOM      4  N   UNL A   1      37.497  22.439  26.122  1.00  0.00    -0.353 N 
ATOM      5  C   UNL A   1      36.333  21.940  25.633  1.00  0.00     0.257 C 
ATOM      6  O   UNL A   1      36.167  20.725  25.745  1.00  0.00    -0.271 OA
ATOM      7  H   UNL A   1      38.065  21.776  26.579  1.00  0.00     0.163 HD
BRANCH   5   8
ATOM      8  C   UNL A   1      35.310  22.863  24.925  1.00  0.00     0.329 C 
BRANCH   8   9
ATOM      9  O   UNL A   1      34.726  22.517  23.669  1.00  0.00    -0.483 OA
BRANCH   9  10
ATOM     10  C   UNL A   1      33.497  23.093  23.474  1.00  0.00     0.130 A 
ATOM     11  C   UNL A   1      31.057  24.421  23.240  1.00  0.00     0.042 A 
ATOM     12  C   UNL A   1      32.245  25.118  23.028  1.00  0.00     0.030 A 
ATOM     13  C   UNL A   1      31.094  23.037  23.431  1.00  0.00     0.041 A 
ATOM     14  C   UNL A   1      33.466  24.463  23.184  1.00  0.00     0.049 A 
ATOM     15  C   UNL A   1      32.315  22.329  23.503  1.00  0.00     0.055 A 
BRANCH  11  16
ATOM     16  N   UNL A   1      29.869  25.163  23.270  1.00  0.00    -0.322 N 
ATOM     17  C   UNL A   1      29.490  26.212  24.080  1.00  0.00     0.255 C 
ATOM     18  O   UNL A   1      28.293  26.501  24.148  1.00  0.00    -0.269 OA
ATOM     19  H   UNL A   1      29.196  24.891  22.605  1.00  0.00     0.170 HD
BRANCH  17  20
ATOM     20  C   UNL A   1      30.474  27.061  24.818  1.00  0.00     0.043 A 
ATOM     21  C   UNL A   1      30.601  28.975  23.087  1.00  0.00     0.045 C 
ATOM     22  C   UNL A   1      30.989  28.294  24.368  1.00  0.00    -0.038 A 
ATOM     23  C   UNL A   1      31.909  28.985  25.184  1.00  0.00     0.004 A 
ATOM     24  C   UNL A   1      32.231  28.524  26.459  1.00  0.00     0.000 A 
ATOM     25  C   UNL A   1      30.784  26.629  26.123  1.00  0.00     0.014 A 
ATOM     26  C   UNL A   1      31.648  27.360  26.940  1.00  0.00     0.001 A 
ENDBRANCH  17  20
ENDBRANCH  11  16
BRANCH  15  27
ATOM     27  C   UNL A   1      32.238  20.858  23.688  1.00  0.00     0.128 A 
ATOM     28  N   UNL A   1      32.174  20.273  24.874  1.00  0.00    -0.236 NA
ATOM     29  S   UNL A   1      32.216  19.722  22.386  1.00  0.00    -0.114 S 
ATOM     30  C   UNL A   1      32.534  18.942  24.759  1.00  0.00     0.082 A 
ATOM     31  C   UNL A   1      32.735  18.493  23.457  1.00  0.00     0.055 A 
ATOM     32  C   UNL A   1      32.755  18.049  25.823  1.00  0.00     0.030 A 
ATOM     33  C   UNL A   1      33.263  17.225  23.173  1.00  0.00     0.021 A 
ATOM     34  C   UNL A   1      33.269  16.775  25.556  1.00  0.00     0.002 A 
ATOM     35  C   UNL A   1      33.548  16.383  24.249  1.00  0.00     0.002 A 
ENDBRANCH  15  27
ENDBRANCH   9  10
ENDBRANCH   8   9
ENDBRANCH   5   8
ENDBRANCH   3   4
ENDBRANCH   2   3
ENDBRANCH   1   2
BRANCH   1  36
ATOM     36  C   UNL A   1      40.698  26.089  26.738  1.00  0.00     0.002 C 
BRANCH  36  37
ATOM     37  C   UNL A   1      39.626  26.768  27.589  1.00  0.00     0.021 C 
BRANCH  37  38
ATOM     38  C   UNL A   1      39.980  26.918  29.062  1.00  0.00     0.116 C 
BRANCH  38  39
ATOM     39  N   UNL A   1      41.400  26.840  29.369  1.00  0.00    -0.352 N 
ATOM     40  C   UNL A   1      42.193  27.785  30.003  1.00  0.00     0.251 C 
ATOM     41  H   UNL A   1      41.856  26.013  29.090  1.00  0.00     0.163 HD
ATOM     42  O   UNL A   1      43.394  27.617  30.145  1.00  0.00    -0.269 OA
BRANCH  40  43
ATOM     43  C   UNL A   1      41.530  28.957  30.633  1.00  0.00     0.039 A 
ATOM     44  C   UNL A   1      41.787  30.213  30.074  1.00  0.00     0.014 A 
ATOM     45  C   UNL A   1      40.890  28.853  31.866  1.00  0.00     0.014 A 
ATOM     46  C   UNL A   1      41.627  31.354  30.857  1.00  0.00     0.010 A 
ATOM     47  C   UNL A   1      40.821  29.971  32.677  1.00  0.00     0.010 A 
ATOM     48  C   UNL A   1      41.250  31.211  32.194  1.00  0.00    -0.014 A 
BRANCH  48  49
ATOM     49  C   UNL A   1      41.416  32.275  33.176  1.00  0.00     0.031 A 
ATOM     50  C   UNL A   1      42.506  32.232  34.169  1.00  0.00     0.074 A 
ATOM     51  C   UNL A   1      40.548  33.309  33.216  1.00  0.00     0.049 A 
ATOM     52  N   UNL A   1      42.394  32.679  35.375  1.00  0.00    -0.248 NA
ATOM     53  C   UNL A   1      43.812  31.650  33.881  1.00  0.00     0.031 C 
ATOM     54  C   UNL A   1      40.660  34.529  34.012  1.00  0.00     0.029 A 
ATOM     55  N   UNL A   1      39.255  33.348  32.713  1.00  0.00    -0.354 N 
ATOM     56  C   UNL A   1      43.657  32.716  35.914  1.00  0.00     0.074 A 
ATOM     57  C   UNL A   1      44.492  31.992  34.980  1.00  0.00     0.031 C 
ATOM     58  C   UNL A   1      39.438  35.067  34.156  1.00  0.00     0.029 A 
ATOM     59  C   UNL A   1      38.482  34.151  33.561  1.00  0.00     0.049 A 
ATOM     60  H   UNL A   1      38.937  32.889  31.902  1.00  0.00     0.167 HD
ATOM     61  C   UNL A   1      43.915  33.482  37.009  1.00  0.00     0.034 A 
ATOM     62  C   UNL A   1      37.367  33.661  34.177  1.00  0.00     0.034 A 
ATOM     63  C   UNL A   1      42.740  34.219  37.463  1.00  0.00     0.049 A 
ATOM     64  C   UNL A   1      37.448  33.692  35.688  1.00  0.00     0.074 A 
ATOM     65  C   UNL A   1      42.337  35.533  37.287  1.00  0.00     0.029 A 
ATOM     66  N   UNL A   1      41.644  33.537  37.975  1.00  0.00    -0.354 N 
ATOM     67  N   UNL A   1      38.551  33.867  36.362  1.00  0.00    -0.248 NA
ATOM     68  C   UNL A   1      36.293  33.503  36.558  1.00  0.00     0.031 C 
ATOM     69  C   UNL A   1      40.975  35.631  37.668  1.00  0.00     0.029 A 
ATOM     70  C   UNL A   1      40.558  34.384  38.098  1.00  0.00     0.049 A 
ATOM     71  H   UNL A   1      41.640  32.582  38.218  1.00  0.00     0.167 HD
ATOM     72  C   UNL A   1      38.291  33.797  37.710  1.00  0.00     0.074 A 
ATOM     73  C   UNL A   1      36.854  33.591  37.777  1.00  0.00     0.031 C 
ATOM     74  C   UNL A   1      39.291  33.906  38.640  1.00  0.00     0.034 A 
BRANCH  61  75
ATOM     75  C   UNL A   1      45.323  33.800  37.440  1.00  0.00     0.023 A 
ATOM     76  C   UNL A   1      46.065  34.778  36.751  1.00  0.00     0.031 A 
ATOM     77  C   UNL A   1      45.992  33.147  38.493  1.00  0.00     0.131 A 
ATOM     78  C   UNL A   1      47.425  34.994  37.031  1.00  0.00     0.055 A 
ATOM     79  C   UNL A   1      47.359  33.323  38.740  1.00  0.00     0.041 A 
ATOM     80  F   UNL A   1      45.337  32.321  39.325  1.00  0.00    -0.206 F 
ATOM     81  C   UNL A   1      48.089  34.241  37.995  1.00  0.00     0.022 A 
BRANCH  78  82
ATOM     82  S   UNL A   1      48.316  36.277  36.108  1.00  0.00     0.124 S 
ATOM     83  O   UNL A   1      48.440  37.342  37.099  1.00  0.00    -0.237 OA
ATOM     84  O   UNL A   1      49.548  35.592  35.739  1.00  0.00    -0.237 OA
ATOM     85  O   UNL A   1      47.417  36.577  34.993  1.00  0.00    -0.744 OA
ENDBRANCH  78  82
ENDBRANCH  61  75
BRANCH  62  86
ATOM     86  C   UNL A   1      36.655  32.632  33.366  1.00  0.00     0.023 A 
ATOM     87  C   UNL A   1      35.832  33.095  32.315  1.00  0.00     0.031 A 
ATOM     88  C   UNL A   1      37.071  31.295  33.336  1.00  0.00     0.131 A 
ATOM     89  C   UNL A   1      35.585  32.281  31.201  1.00  0.00     0.055 A 
ATOM     90  C   UNL A   1      36.769  30.466  32.248  1.00  0.00     0.041 A 
ATOM     91  F   UNL A   1      37.883  30.809  34.286  1.00  0.00    -0.206 F 
ATOM     92  C   UNL A   1      36.063  30.971  31.154  1.00  0.00     0.022 A 
BRANCH  89  93
ATOM     93  S   UNL A   1      34.879  33.030  29.700  1.00  0.00     0.124 S 
ATOM     94  O   UNL A   1      36.022  33.750  29.150  1.00  0.00    -0.237 OA
ATOM     95  O   UNL A   1      34.428  31.871  28.933  1.00  0.00    -0.237 OA
ATOM     96  O   UNL A   1      33.795  33.862  30.217  1.00  0.00    -0.744 OA
ENDBRANCH  89  93
ENDBRANCH  62  86
BRANCH  74  97
ATOM     97  C   UNL A   1      39.182  33.681  40.141  1.00  0.00     0.023 A 
ATOM     98  C   UNL A   1      39.365  32.441  40.766  1.00  0.00     0.031 A 
ATOM     99  C   UNL A   1      38.936  34.768  41.024  1.00  0.00     0.131 A 
ATOM    100  C   UNL A   1      39.238  32.293  42.163  1.00  0.00     0.055 A 
ATOM    101  C   UNL A   1      38.876  34.633  42.415  1.00  0.00     0.041 A 
ATOM    102  F   UNL A   1      38.753  36.019  40.579  1.00  0.00    -0.206 F 
ATOM    103  C   UNL A   1      39.013  33.384  42.995  1.00  0.00     0.022 A 
BRANCH 100 104
ATOM    104  S   UNL A   1      39.321  30.623  42.864  1.00  0.00     0.124 S 
ATOM    105  O   UNL A   1      38.721  30.819  44.180  1.00  0.00    -0.237 OA
ATOM    106  O   UNL A   1      38.529  29.846  41.916  1.00  0.00    -0.237 OA
ATOM    107  O   UNL A   1      40.751  30.322  42.872  1.00  0.00    -0.744 OA
ENDBRANCH 100 104
ENDBRANCH  74  97
ENDBRANCH  48  49
ENDBRANCH  40  43
ENDBRANCH  38  39
ENDBRANCH  37  38
ENDBRANCH  36  37
ENDBRANCH   1  36
TORSDOF 21
ENDMDL
