MODEL 1
REMARK VINA RESULT:     -11.4      0.000      0.000
REMARK SMILES CCc1nc2sc(C(=O)NCC(=O)NCCCCCCNC(=O)c3ccc(-c4c5nc(c(-c6cc(S(=O)(=O)[O-])ccc6F)c6ccc([nH]6)c(-c6cc(S(=O)(=O)[O-])ccc6F)c6nc(c(-c7cc(S(=O)(=O)[O-])ccc7F)c7ccc4[nH]7)C=C6)C=C5)cc3)c(N)c2c(C(F)(F)F)c1C
REMARK SMILES IDX 17 1 16 2 15 3 14 4 12 5 13 6 11 8 10 9 8 10 9 11 7 13 3 14
REMARK SMILES IDX 4 15 95 16 5 17 90 18 96 19 6 20 89 21 87 22 2 23 1 24 91 25
REMARK SMILES IDX 92 26 93 27 94 28 88 29 18 32 19 33 20 34 21 35 22 36 23 38
REMARK SMILES IDX 24 39 25 40 86 41 26 42 85 43 27 44 28 45 29 46 79 47 30 48
REMARK SMILES IDX 84 49 78 50 80 51 31 52 83 53 77 54 76 55 32 57 64 58 44 59
REMARK SMILES IDX 63 60 45 61 48 62 62 63 81 64 46 65 47 66 61 68 82 69 49 70
REMARK SMILES IDX 33 71 34 72 42 73 35 74 41 75 43 76 40 77 36 78 37 79 38 80
REMARK SMILES IDX 39 81 65 82 66 83 74 84 67 85 73 86 75 87 72 88 68 89 69 90
REMARK SMILES IDX 70 91 71 92 50 93 51 94 59 95 52 96 58 97 60 98 57 99 53 100
REMARK SMILES IDX 54 101 55 102 56 103
REMARK H PARENT 14 7 10 12 88 30 88 31 21 37 80 56 48 67
REMARK Flexibility Score: inf
ROOT
ATOM      1  C   UNL A   1      37.215  22.906  25.064  1.00  0.00     0.002 C 
ENDROOT
BRANCH   1   2
ATOM      2  C   UNL A   1      36.253  21.725  25.208  1.00  0.00     0.021 C 
BRANCH   2   3
ATOM      3  C   UNL A   1      35.015  22.044  26.033  1.00  0.00     0.116 C 
BRANCH   3   4
ATOM      4  N   UNL A   1      33.996  21.016  25.948  1.00  0.00    -0.355 N 
ATOM      5  C   UNL A   1      32.774  20.979  25.348  1.00  0.00     0.239 C 
ATOM      6  O   UNL A   1      32.155  19.911  25.451  1.00  0.00    -0.273 OA
ATOM      7  H   UNL A   1      34.233  20.182  26.416  1.00  0.00     0.163 HD
BRANCH   5   8
ATOM      8  C   UNL A   1      32.218  22.087  24.428  1.00  0.00     0.216 C 
BRANCH   8   9
ATOM      9  N   UNL A   1      32.843  22.421  23.169  1.00  0.00    -0.342 N 
ATOM     10  C   UNL A   1      33.232  23.598  22.580  1.00  0.00     0.264 C 
ATOM     11  O   UNL A   1      33.948  23.414  21.588  1.00  0.00    -0.268 OA
ATOM     12  H   UNL A   1      33.032  21.631  22.612  1.00  0.00     0.164 HD
BRANCH  10  13
ATOM     13  C   UNL A   1      32.799  24.941  22.995  1.00  0.00     0.118 A 
ATOM     14  C   UNL A   1      30.331  28.928  23.658  1.00  0.00     0.045 A 
ATOM     15  N   UNL A   1      30.315  27.821  22.893  1.00  0.00    -0.242 NA
ATOM     16  C   UNL A   1      31.303  29.178  24.641  1.00  0.00    -0.017 A 
ATOM     17  C   UNL A   1      31.309  26.944  23.091  1.00  0.00     0.127 A 
ATOM     18  C   UNL A   1      32.374  28.245  24.799  1.00  0.00     0.073 A 
ATOM     19  C   UNL A   1      31.263  30.415  25.501  1.00  0.00     0.047 C 
ATOM     20  S   UNL A   1      31.364  25.511  22.197  1.00  0.00    -0.108 S 
ATOM     21  C   UNL A   1      32.355  27.071  23.982  1.00  0.00     0.048 A 
ATOM     22  C   UNL A   1      33.206  25.899  23.914  1.00  0.00     0.066 A 
BRANCH  14  23
ATOM     23  C   UNL A   1      29.207  29.887  23.328  1.00  0.00     0.053 C 
ATOM     24  C   UNL A   1      29.434  30.622  22.015  1.00  0.00     0.011 C 
ENDBRANCH  14  23
BRANCH  18  25
ATOM     25  C   UNL A   1      33.486  28.441  25.805  1.00  0.00     0.417 C 
ATOM     26  F   UNL A   1      33.489  27.480  26.775  1.00  0.00    -0.166 F 
ATOM     27  F   UNL A   1      34.728  28.388  25.233  1.00  0.00    -0.166 F 
ATOM     28  F   UNL A   1      33.482  29.625  26.477  1.00  0.00    -0.166 F 
ENDBRANCH  18  25
BRANCH  22  29
ATOM     29  N   UNL A   1      34.253  25.784  24.755  1.00  0.00    -0.397 N 
ATOM     30  H   UNL A   1      34.146  25.311  25.612  1.00  0.00     0.156 HD
ATOM     31  H   UNL A   1      35.125  26.172  24.514  1.00  0.00     0.156 HD
ENDBRANCH  22  29
ENDBRANCH  10  13
ENDBRANCH   8   9
ENDBRANCH   5   8
ENDBRANCH   3   4
ENDBRANCH   2   3
ENDBRANCH   1   2
BRANCH   1  32
ATOM     32  C   UNL A   1      38.281  23.044  26.167  1.00  0.00     0.002 C 
BRANCH  32  33
ATOM     33  C   UNL A   1      39.297  21.900  26.295  1.00  0.00     0.021 C 
BRANCH  33  34
ATOM     34  C   UNL A   1      40.313  22.104  27.406  1.00  0.00     0.116 C 
BRANCH  34  35
ATOM     35  N   UNL A   1      41.690  22.107  26.915  1.00  0.00    -0.352 N 
ATOM     36  C   UNL A   1      42.525  23.199  26.728  1.00  0.00     0.251 C 
ATOM     37  H   UNL A   1      42.071  21.228  26.689  1.00  0.00     0.163 HD
ATOM     38  O   UNL A   1      43.478  23.131  25.973  1.00  0.00    -0.269 OA
BRANCH  36  39
ATOM     39  C   UNL A   1      42.225  24.435  27.478  1.00  0.00     0.039 A 
ATOM     40  C   UNL A   1      42.872  24.756  28.673  1.00  0.00     0.014 A 
ATOM     41  C   UNL A   1      41.285  25.299  26.925  1.00  0.00     0.014 A 
ATOM     42  C   UNL A   1      42.608  25.994  29.261  1.00  0.00     0.010 A 
ATOM     43  C   UNL A   1      41.176  26.580  27.393  1.00  0.00     0.010 A 
ATOM     44  C   UNL A   1      41.770  26.910  28.600  1.00  0.00    -0.014 A 
BRANCH  44  45
ATOM     45  C   UNL A   1      41.580  28.271  29.085  1.00  0.00     0.031 A 
ATOM     46  C   UNL A   1      42.557  29.244  28.539  1.00  0.00     0.074 A 
ATOM     47  C   UNL A   1      40.494  28.662  29.792  1.00  0.00     0.049 A 
ATOM     48  N   UNL A   1      43.538  29.794  29.172  1.00  0.00    -0.248 NA
ATOM     49  C   UNL A   1      42.569  29.508  27.090  1.00  0.00     0.031 C 
ATOM     50  C   UNL A   1      39.317  27.875  30.182  1.00  0.00     0.029 A 
ATOM     51  N   UNL A   1      40.169  29.904  30.243  1.00  0.00    -0.354 N 
ATOM     52  C   UNL A   1      44.126  30.674  28.274  1.00  0.00     0.074 A 
ATOM     53  C   UNL A   1      43.638  30.299  26.973  1.00  0.00     0.031 C 
ATOM     54  C   UNL A   1      38.327  28.699  30.597  1.00  0.00     0.029 A 
ATOM     55  C   UNL A   1      38.850  30.051  30.674  1.00  0.00     0.049 A 
ATOM     56  H   UNL A   1      40.818  30.644  30.264  1.00  0.00     0.167 HD
ATOM     57  C   UNL A   1      44.759  31.797  28.715  1.00  0.00     0.034 A 
ATOM     58  C   UNL A   1      38.240  31.198  31.082  1.00  0.00     0.034 A 
ATOM     59  C   UNL A   1      45.017  31.724  30.136  1.00  0.00     0.049 A 
ATOM     60  C   UNL A   1      39.333  32.094  31.535  1.00  0.00     0.074 A 
ATOM     61  C   UNL A   1      45.720  30.852  30.947  1.00  0.00     0.029 A 
ATOM     62  N   UNL A   1      44.156  32.392  30.977  1.00  0.00    -0.354 N 
ATOM     63  N   UNL A   1      40.104  31.816  32.552  1.00  0.00    -0.248 NA
ATOM     64  C   UNL A   1      39.894  33.019  30.563  1.00  0.00     0.031 C 
ATOM     65  C   UNL A   1      44.893  30.676  32.096  1.00  0.00     0.029 A 
ATOM     66  C   UNL A   1      43.784  31.516  31.970  1.00  0.00     0.049 A 
ATOM     67  H   UNL A   1      43.859  33.326  30.884  1.00  0.00     0.167 HD
ATOM     68  C   UNL A   1      41.380  32.156  32.132  1.00  0.00     0.074 A 
ATOM     69  C   UNL A   1      41.178  32.970  30.932  1.00  0.00     0.031 C 
ATOM     70  C   UNL A   1      42.485  31.516  32.619  1.00  0.00     0.034 A 
BRANCH  57  71
ATOM     71  C   UNL A   1      44.814  33.102  27.960  1.00  0.00     0.023 A 
ATOM     72  C   UNL A   1      43.939  34.129  28.360  1.00  0.00     0.031 A 
ATOM     73  C   UNL A   1      45.462  33.290  26.718  1.00  0.00     0.131 A 
ATOM     74  C   UNL A   1      43.690  35.231  27.523  1.00  0.00     0.055 A 
ATOM     75  C   UNL A   1      45.257  34.415  25.916  1.00  0.00     0.041 A 
ATOM     76  F   UNL A   1      46.247  32.356  26.165  1.00  0.00    -0.206 F 
ATOM     77  C   UNL A   1      44.346  35.381  26.303  1.00  0.00     0.022 A 
BRANCH  74  78
ATOM     78  S   UNL A   1      42.386  36.396  27.992  1.00  0.00     0.124 S 
ATOM     79  O   UNL A   1      41.333  35.496  28.449  1.00  0.00    -0.237 OA
ATOM     80  O   UNL A   1      43.048  37.190  29.022  1.00  0.00    -0.237 OA
ATOM     81  O   UNL A   1      42.103  37.107  26.747  1.00  0.00    -0.744 OA
ENDBRANCH  74  78
ENDBRANCH  57  71
BRANCH  58  82
ATOM     82  C   UNL A   1      36.864  31.685  30.754  1.00  0.00     0.023 A 
ATOM     83  C   UNL A   1      36.106  32.485  31.644  1.00  0.00     0.031 A 
ATOM     84  C   UNL A   1      36.379  31.595  29.430  1.00  0.00     0.131 A 
ATOM     85  C   UNL A   1      34.941  33.159  31.195  1.00  0.00     0.055 A 
ATOM     86  C   UNL A   1      35.235  32.268  28.992  1.00  0.00     0.041 A 
ATOM     87  F   UNL A   1      37.055  30.920  28.487  1.00  0.00    -0.206 F 
ATOM     88  C   UNL A   1      34.517  33.063  29.869  1.00  0.00     0.022 A 
BRANCH  85  89
ATOM     89  S   UNL A   1      34.013  34.272  32.305  1.00  0.00     0.124 S 
ATOM     90  O   UNL A   1      35.079  35.072  32.899  1.00  0.00    -0.237 OA
ATOM     91  O   UNL A   1      33.118  34.967  31.386  1.00  0.00    -0.237 OA
ATOM     92  O   UNL A   1      33.346  33.354  33.229  1.00  0.00    -0.744 OA
ENDBRANCH  85  89
ENDBRANCH  58  82
BRANCH  70  93
ATOM     93  C   UNL A   1      42.324  30.600  33.819  1.00  0.00     0.023 A 
ATOM     94  C   UNL A   1      42.299  29.185  33.773  1.00  0.00     0.031 A 
ATOM     95  C   UNL A   1      42.350  31.210  35.085  1.00  0.00     0.131 A 
ATOM     96  C   UNL A   1      42.301  28.441  34.975  1.00  0.00     0.055 A 
ATOM     97  C   UNL A   1      42.373  30.472  36.267  1.00  0.00     0.041 A 
ATOM     98  F   UNL A   1      42.402  32.548  35.191  1.00  0.00    -0.206 F 
ATOM     99  C   UNL A   1      42.347  29.083  36.217  1.00  0.00     0.022 A 
BRANCH  96 100
ATOM    100  S   UNL A   1      42.268  26.614  34.950  1.00  0.00     0.124 S 
ATOM    101  O   UNL A   1      40.848  26.306  34.830  1.00  0.00    -0.237 OA
ATOM    102  O   UNL A   1      43.094  26.292  33.790  1.00  0.00    -0.237 OA
ATOM    103  O   UNL A   1      42.863  26.243  36.236  1.00  0.00    -0.744 OA
ENDBRANCH  96 100
ENDBRANCH  70  93
ENDBRANCH  44  45
ENDBRANCH  36  39
ENDBRANCH  34  35
ENDBRANCH  33  34
ENDBRANCH  32  33
ENDBRANCH   1  32
TORSDOF 21
ENDMDL
MODEL 2
REMARK VINA RESULT:     -11.3      2.280      6.854
REMARK SMILES CCc1nc2sc(C(=O)NCC(=O)NCCCCCCNC(=O)c3ccc(-c4c5nc(c(-c6cc(S(=O)(=O)[O-])ccc6F)c6ccc([nH]6)c(-c6cc(S(=O)(=O)[O-])ccc6F)c6nc(c(-c7cc(S(=O)(=O)[O-])ccc7F)c7ccc4[nH]7)C=C6)C=C5)cc3)c(N)c2c(C(F)(F)F)c1C
REMARK SMILES IDX 17 1 16 2 15 3 14 4 12 5 13 6 11 8 10 9 8 10 9 11 7 13 3 14
REMARK SMILES IDX 4 15 95 16 5 17 90 18 96 19 6 20 89 21 87 22 2 23 1 24 91 25
REMARK SMILES IDX 92 26 93 27 94 28 88 29 18 32 19 33 20 34 21 35 22 36 23 38
REMARK SMILES IDX 24 39 25 40 86 41 26 42 85 43 27 44 28 45 29 46 79 47 30 48
REMARK SMILES IDX 84 49 78 50 80 51 31 52 83 53 77 54 76 55 32 57 64 58 44 59
REMARK SMILES IDX 63 60 45 61 48 62 62 63 81 64 46 65 47 66 61 68 82 69 49 70
REMARK SMILES IDX 33 71 34 72 42 73 35 74 41 75 43 76 40 77 36 78 37 79 38 80
REMARK SMILES IDX 39 81 65 82 66 83 74 84 67 85 73 86 75 87 72 88 68 89 69 90
REMARK SMILES IDX 70 91 71 92 50 93 51 94 59 95 52 96 58 97 60 98 57 99 53 100
REMARK SMILES IDX 54 101 55 102 56 103
REMARK H PARENT 14 7 10 12 88 30 88 31 21 37 80 56 48 67
REMARK Flexibility Score: inf
ROOT
ATOM      1  C   UNL A   1      35.556  23.414  25.681  1.00  0.00     0.002 C 
ENDROOT
BRANCH   1   2
ATOM      2  C   UNL A   1      34.942  22.013  25.642  1.00  0.00     0.021 C 
BRANCH   2   3
ATOM      3  C   UNL A   1      34.056  21.701  26.838  1.00  0.00     0.116 C 
BRANCH   3   4
ATOM      4  N   UNL A   1      32.683  21.416  26.469  1.00  0.00    -0.355 N 
ATOM      5  C   UNL A   1      31.711  22.172  25.888  1.00  0.00     0.239 C 
ATOM      6  O   UNL A   1      30.632  21.599  25.685  1.00  0.00    -0.273 OA
ATOM      7  H   UNL A   1      32.398  20.497  26.679  1.00  0.00     0.163 HD
BRANCH   5   8
ATOM      8  C   UNL A   1      31.929  23.591  25.322  1.00  0.00     0.216 C 
BRANCH   8   9
ATOM      9  N   UNL A   1      32.321  23.817  23.950  1.00  0.00    -0.342 N 
ATOM     10  C   UNL A   1      32.585  24.940  23.205  1.00  0.00     0.264 C 
ATOM     11  O   UNL A   1      33.121  24.671  22.123  1.00  0.00    -0.268 OA
ATOM     12  H   UNL A   1      32.422  22.982  23.437  1.00  0.00     0.164 HD
BRANCH  10  13
ATOM     13  C   UNL A   1      32.211  26.313  23.575  1.00  0.00     0.118 A 
ATOM     14  C   UNL A   1      30.050  30.514  23.898  1.00  0.00     0.045 A 
ATOM     15  N   UNL A   1      30.071  29.424  23.109  1.00  0.00    -0.242 NA
ATOM     16  C   UNL A   1      30.844  30.655  25.049  1.00  0.00    -0.017 A 
ATOM     17  C   UNL A   1      30.925  28.452  23.459  1.00  0.00     0.127 A 
ATOM     18  C   UNL A   1      31.774  29.619  25.372  1.00  0.00     0.073 A 
ATOM     19  C   UNL A   1      30.762  31.879  25.925  1.00  0.00     0.047 C 
ATOM     20  S   UNL A   1      31.009  27.032  22.547  1.00  0.00    -0.108 S 
ATOM     21  C   UNL A   1      31.796  28.464  24.529  1.00  0.00     0.048 A 
ATOM     22  C   UNL A   1      32.530  27.215  24.583  1.00  0.00     0.066 A 
BRANCH  14  23
ATOM     23  C   UNL A   1      29.102  31.583  23.398  1.00  0.00     0.053 C 
ATOM     24  C   UNL A   1      27.644  31.244  23.672  1.00  0.00     0.011 C 
ENDBRANCH  14  23
BRANCH  18  25
ATOM     25  C   UNL A   1      32.695  29.692  26.570  1.00  0.00     0.417 C 
ATOM     26  F   UNL A   1      33.947  30.123  26.240  1.00  0.00    -0.166 F 
ATOM     27  F   UNL A   1      32.247  30.563  27.525  1.00  0.00    -0.166 F 
ATOM     28  F   UNL A   1      32.886  28.527  27.247  1.00  0.00    -0.166 F 
ENDBRANCH  18  25
BRANCH  22  29
ATOM     29  N   UNL A   1      33.388  26.986  25.597  1.00  0.00    -0.397 N 
ATOM     30  H   UNL A   1      33.665  26.066  25.808  1.00  0.00     0.156 HD
ATOM     31  H   UNL A   1      33.737  27.739  26.126  1.00  0.00     0.156 HD
ENDBRANCH  22  29
ENDBRANCH  10  13
ENDBRANCH   8   9
ENDBRANCH   5   8
ENDBRANCH   3   4
ENDBRANCH   2   3
ENDBRANCH   1   2
BRANCH   1  32
ATOM     32  C   UNL A   1      36.989  23.537  25.130  1.00  0.00     0.002 C 
BRANCH  32  33
ATOM     33  C   UNL A   1      38.131  23.163  26.086  1.00  0.00     0.021 C 
BRANCH  33  34
ATOM     34  C   UNL A   1      38.846  24.364  26.685  1.00  0.00     0.116 C 
BRANCH  34  35
ATOM     35  N   UNL A   1      40.058  24.720  25.949  1.00  0.00    -0.352 N 
ATOM     36  C   UNL A   1      40.747  25.924  25.976  1.00  0.00     0.251 C 
ATOM     37  H   UNL A   1      40.431  24.022  25.364  1.00  0.00     0.163 HD
ATOM     38  O   UNL A   1      41.489  26.236  25.062  1.00  0.00    -0.269 OA
BRANCH  36  39
ATOM     39  C   UNL A   1      40.556  26.804  27.147  1.00  0.00     0.039 A 
ATOM     40  C   UNL A   1      40.713  26.346  28.456  1.00  0.00     0.014 A 
ATOM     41  C   UNL A   1      40.243  28.136  26.893  1.00  0.00     0.014 A 
ATOM     42  C   UNL A   1      40.621  27.268  29.499  1.00  0.00     0.010 A 
ATOM     43  C   UNL A   1      40.347  29.065  27.892  1.00  0.00     0.010 A 
ATOM     44  C   UNL A   1      40.456  28.633  29.204  1.00  0.00    -0.014 A 
BRANCH  44  45
ATOM     45  C   UNL A   1      40.507  29.659  30.239  1.00  0.00     0.031 A 
ATOM     46  C   UNL A   1      39.220  30.366  30.448  1.00  0.00     0.074 A 
ATOM     47  C   UNL A   1      41.557  29.813  31.079  1.00  0.00     0.049 A 
ATOM     48  N   UNL A   1      38.936  31.576  30.102  1.00  0.00    -0.248 NA
ATOM     49  C   UNL A   1      38.056  29.602  30.930  1.00  0.00     0.031 C 
ATOM     50  C   UNL A   1      42.790  29.020  31.167  1.00  0.00     0.029 A 
ATOM     51  N   UNL A   1      41.701  30.681  32.117  1.00  0.00    -0.354 N 
ATOM     52  C   UNL A   1      37.648  31.812  30.561  1.00  0.00     0.074 A 
ATOM     53  C   UNL A   1      37.089  30.519  30.858  1.00  0.00     0.031 C 
ATOM     54  C   UNL A   1      43.432  29.292  32.327  1.00  0.00     0.029 A 
ATOM     55  C   UNL A   1      42.760  30.399  32.981  1.00  0.00     0.049 A 
ATOM     56  H   UNL A   1      41.102  31.450  32.248  1.00  0.00     0.167 HD
ATOM     57  C   UNL A   1      37.251  33.070  30.902  1.00  0.00     0.034 A 
ATOM     58  C   UNL A   1      43.071  31.044  34.140  1.00  0.00     0.034 A 
ATOM     59  C   UNL A   1      38.174  34.061  30.395  1.00  0.00     0.049 A 
ATOM     60  C   UNL A   1      42.480  32.400  34.016  1.00  0.00     0.074 A 
ATOM     61  C   UNL A   1      38.627  34.405  29.135  1.00  0.00     0.029 A 
ATOM     62  N   UNL A   1      39.104  34.575  31.271  1.00  0.00    -0.354 N 
ATOM     63  N   UNL A   1      42.862  33.261  33.111  1.00  0.00    -0.248 NA
ATOM     64  C   UNL A   1      41.139  32.602  34.541  1.00  0.00     0.031 C 
ATOM     65  C   UNL A   1      40.027  34.631  29.300  1.00  0.00     0.029 A 
ATOM     66  C   UNL A   1      40.333  34.507  30.657  1.00  0.00     0.049 A 
ATOM     67  H   UNL A   1      38.922  34.926  32.173  1.00  0.00     0.167 HD
ATOM     68  C   UNL A   1      41.685  33.817  32.634  1.00  0.00     0.074 A 
ATOM     69  C   UNL A   1      40.664  33.435  33.610  1.00  0.00     0.031 C 
ATOM     70  C   UNL A   1      41.587  34.288  31.355  1.00  0.00     0.034 A 
BRANCH  57  71
ATOM     71  C   UNL A   1      36.255  33.390  31.989  1.00  0.00     0.023 A 
ATOM     72  C   UNL A   1      35.150  34.194  31.650  1.00  0.00     0.031 A 
ATOM     73  C   UNL A   1      36.474  33.189  33.370  1.00  0.00     0.131 A 
ATOM     74  C   UNL A   1      34.372  34.805  32.649  1.00  0.00     0.055 A 
ATOM     75  C   UNL A   1      35.662  33.750  34.358  1.00  0.00     0.041 A 
ATOM     76  F   UNL A   1      37.538  32.527  33.843  1.00  0.00    -0.206 F 
ATOM     77  C   UNL A   1      34.620  34.586  34.002  1.00  0.00     0.022 A 
BRANCH  74  78
ATOM     78  S   UNL A   1      33.113  36.007  32.149  1.00  0.00     0.124 S 
ATOM     79  O   UNL A   1      33.399  36.165  30.727  1.00  0.00    -0.237 OA
ATOM     80  O   UNL A   1      31.877  35.306  32.483  1.00  0.00    -0.237 OA
ATOM     81  O   UNL A   1      33.409  37.173  32.978  1.00  0.00    -0.744 OA
ENDBRANCH  74  78
ENDBRANCH  57  71
BRANCH  58  82
ATOM     82  C   UNL A   1      43.496  30.451  35.446  1.00  0.00     0.023 A 
ATOM     83  C   UNL A   1      43.157  29.131  35.832  1.00  0.00     0.031 A 
ATOM     84  C   UNL A   1      44.488  31.092  36.222  1.00  0.00     0.131 A 
ATOM     85  C   UNL A   1      43.806  28.511  36.930  1.00  0.00     0.055 A 
ATOM     86  C   UNL A   1      45.130  30.472  37.298  1.00  0.00     0.041 A 
ATOM     87  F   UNL A   1      44.935  32.317  35.905  1.00  0.00    -0.206 F 
ATOM     88  C   UNL A   1      44.801  29.173  37.650  1.00  0.00     0.022 A 
BRANCH  85  89
ATOM     89  S   UNL A   1      43.449  26.776  37.374  1.00  0.00     0.124 S 
ATOM     90  O   UNL A   1      41.998  26.714  37.228  1.00  0.00    -0.237 OA
ATOM     91  O   UNL A   1      44.231  26.027  36.396  1.00  0.00    -0.237 OA
ATOM     92  O   UNL A   1      43.932  26.671  38.752  1.00  0.00    -0.744 OA
ENDBRANCH  85  89
ENDBRANCH  58  82
BRANCH  70  93
ATOM     93  C   UNL A   1      42.857  34.432  30.534  1.00  0.00     0.023 A 
ATOM     94  C   UNL A   1      43.314  33.510  29.562  1.00  0.00     0.031 A 
ATOM     95  C   UNL A   1      43.548  35.650  30.652  1.00  0.00     0.131 A 
ATOM     96  C   UNL A   1      44.428  33.833  28.754  1.00  0.00     0.055 A 
ATOM     97  C   UNL A   1      44.632  35.973  29.839  1.00  0.00     0.041 A 
ATOM     98  F   UNL A   1      43.142  36.576  31.538  1.00  0.00    -0.206 F 
ATOM     99  C   UNL A   1      45.079  35.064  28.887  1.00  0.00     0.022 A 
BRANCH  96 100
ATOM    100  S   UNL A   1      45.043  32.665  27.491  1.00  0.00     0.124 S 
ATOM    101  O   UNL A   1      43.987  32.671  26.486  1.00  0.00    -0.237 OA
ATOM    102  O   UNL A   1      46.314  33.262  27.090  1.00  0.00    -0.237 OA
ATOM    103  O   UNL A   1      45.175  31.404  28.225  1.00  0.00    -0.744 OA
ENDBRANCH  96 100
ENDBRANCH  70  93
ENDBRANCH  44  45
ENDBRANCH  36  39
ENDBRANCH  34  35
ENDBRANCH  33  34
ENDBRANCH  32  33
ENDBRANCH   1  32
TORSDOF 21
ENDMDL
MODEL 3
REMARK VINA RESULT:     -11.0      9.451     15.128
REMARK SMILES CCc1nc2sc(C(=O)NCC(=O)NCCCCCCNC(=O)c3ccc(-c4c5nc(c(-c6cc(S(=O)(=O)[O-])ccc6F)c6ccc([nH]6)c(-c6cc(S(=O)(=O)[O-])ccc6F)c6nc(c(-c7cc(S(=O)(=O)[O-])ccc7F)c7ccc4[nH]7)C=C6)C=C5)cc3)c(N)c2c(C(F)(F)F)c1C
REMARK SMILES IDX 17 1 16 2 15 3 14 4 12 5 13 6 11 8 10 9 8 10 9 11 7 13 3 14
REMARK SMILES IDX 4 15 95 16 5 17 90 18 96 19 6 20 89 21 87 22 2 23 1 24 91 25
REMARK SMILES IDX 92 26 93 27 94 28 88 29 18 32 19 33 20 34 21 35 22 36 23 38
REMARK SMILES IDX 24 39 25 40 86 41 26 42 85 43 27 44 28 45 29 46 79 47 30 48
REMARK SMILES IDX 84 49 78 50 80 51 31 52 83 53 77 54 76 55 32 57 64 58 44 59
REMARK SMILES IDX 63 60 45 61 48 62 62 63 81 64 46 65 47 66 61 68 82 69 49 70
REMARK SMILES IDX 33 71 34 72 42 73 35 74 41 75 43 76 40 77 36 78 37 79 38 80
REMARK SMILES IDX 39 81 65 82 66 83 74 84 67 85 73 86 75 87 72 88 68 89 69 90
REMARK SMILES IDX 70 91 71 92 50 93 51 94 59 95 52 96 58 97 60 98 57 99 53 100
REMARK SMILES IDX 54 101 55 102 56 103
REMARK H PARENT 14 7 10 12 88 30 88 31 21 37 80 56 48 67
REMARK Flexibility Score: inf
ROOT
ATOM      1  C   UNL A   1      45.654  20.741  36.040  1.00  0.00     0.002 C 
ENDROOT
BRANCH   1   2
ATOM      2  C   UNL A   1      46.106  19.328  36.414  1.00  0.00     0.021 C 
BRANCH   2   3
ATOM      3  C   UNL A   1      46.278  19.117  37.910  1.00  0.00     0.116 C 
BRANCH   3   4
ATOM      4  N   UNL A   1      45.606  17.928  38.398  1.00  0.00    -0.355 N 
ATOM      5  C   UNL A   1      45.392  17.442  39.652  1.00  0.00     0.239 C 
ATOM      6  O   UNL A   1      44.746  16.387  39.717  1.00  0.00    -0.273 OA
ATOM      7  H   UNL A   1      45.233  17.362  37.684  1.00  0.00     0.163 HD
BRANCH   5   8
ATOM      8  C   UNL A   1      45.736  18.197  40.953  1.00  0.00     0.216 C 
BRANCH   8   9
ATOM      9  N   UNL A   1      44.714  18.653  41.867  1.00  0.00    -0.342 N 
ATOM     10  C   UNL A   1      44.025  18.064  42.898  1.00  0.00     0.264 C 
ATOM     11  O   UNL A   1      43.399  18.887  43.576  1.00  0.00    -0.268 OA
ATOM     12  H   UNL A   1      44.456  19.591  41.717  1.00  0.00     0.164 HD
BRANCH  10  13
ATOM     13  C   UNL A   1      43.941  16.617  43.148  1.00  0.00     0.118 A 
ATOM     14  C   UNL A   1      44.776  12.193  44.616  1.00  0.00     0.045 A 
ATOM     15  N   UNL A   1      45.398  13.382  44.522  1.00  0.00    -0.242 NA
ATOM     16  C   UNL A   1      43.449  11.977  44.208  1.00  0.00    -0.017 A 
ATOM     17  C   UNL A   1      44.691  14.385  43.983  1.00  0.00     0.127 A 
ATOM     18  C   UNL A   1      42.735  13.054  43.598  1.00  0.00     0.073 A 
ATOM     19  C   UNL A   1      42.778  10.635  44.365  1.00  0.00     0.047 C 
ATOM     20  S   UNL A   1      45.375  15.924  43.843  1.00  0.00    -0.108 S 
ATOM     21  C   UNL A   1      43.401  14.316  43.497  1.00  0.00     0.048 A 
ATOM     22  C   UNL A   1      42.982  15.619  43.021  1.00  0.00     0.066 A 
BRANCH  14  23
ATOM     23  C   UNL A   1      45.666  11.107  45.182  1.00  0.00     0.053 C 
ATOM     24  C   UNL A   1      46.354  10.291  44.097  1.00  0.00     0.011 C 
ENDBRANCH  14  23
BRANCH  18  25
ATOM     25  C   UNL A   1      41.316  12.912  43.095  1.00  0.00     0.417 C 
ATOM     26  F   UNL A   1      40.437  13.697  43.785  1.00  0.00    -0.166 F 
ATOM     27  F   UNL A   1      41.183  13.278  41.784  1.00  0.00    -0.166 F 
ATOM     28  F   UNL A   1      40.787  11.658  43.144  1.00  0.00    -0.166 F 
ENDBRANCH  18  25
BRANCH  22  29
ATOM     29  N   UNL A   1      41.725  15.794  42.567  1.00  0.00    -0.397 N 
ATOM     30  H   UNL A   1      41.536  15.724  41.603  1.00  0.00     0.156 HD
ATOM     31  H   UNL A   1      40.996  15.991  43.198  1.00  0.00     0.156 HD
ENDBRANCH  22  29
ENDBRANCH  10  13
ENDBRANCH   8   9
ENDBRANCH   5   8
ENDBRANCH   3   4
ENDBRANCH   2   3
ENDBRANCH   1   2
BRANCH   1  32
ATOM     32  C   UNL A   1      46.705  21.619  35.335  1.00  0.00     0.002 C 
BRANCH  32  33
ATOM     33  C   UNL A   1      47.914  22.058  36.174  1.00  0.00     0.021 C 
BRANCH  33  34
ATOM     34  C   UNL A   1      48.244  23.536  36.045  1.00  0.00     0.116 C 
BRANCH  34  35
ATOM     35  N   UNL A   1      47.434  24.373  36.928  1.00  0.00    -0.352 N 
ATOM     36  C   UNL A   1      46.530  25.362  36.570  1.00  0.00     0.251 C 
ATOM     37  H   UNL A   1      47.543  24.216  37.893  1.00  0.00     0.163 HD
ATOM     38  O   UNL A   1      46.215  26.232  37.361  1.00  0.00    -0.269 OA
BRANCH  36  39
ATOM     39  C   UNL A   1      45.961  25.320  35.207  1.00  0.00     0.039 A 
ATOM     40  C   UNL A   1      44.692  24.800  34.946  1.00  0.00     0.014 A 
ATOM     41  C   UNL A   1      46.734  25.856  34.181  1.00  0.00     0.014 A 
ATOM     42  C   UNL A   1      44.187  24.897  33.649  1.00  0.00     0.010 A 
ATOM     43  C   UNL A   1      46.165  26.124  32.967  1.00  0.00     0.010 A 
ATOM     44  C   UNL A   1      44.926  25.580  32.667  1.00  0.00    -0.014 A 
BRANCH  44  45
ATOM     45  C   UNL A   1      44.386  25.848  31.340  1.00  0.00     0.031 A 
ATOM     46  C   UNL A   1      44.548  24.721  30.388  1.00  0.00     0.074 A 
ATOM     47  C   UNL A   1      43.621  26.926  31.055  1.00  0.00     0.049 A 
ATOM     48  N   UNL A   1      45.363  24.663  29.390  1.00  0.00    -0.248 NA
ATOM     49  C   UNL A   1      43.866  23.446  30.669  1.00  0.00     0.031 C 
ATOM     50  C   UNL A   1      43.156  27.990  31.955  1.00  0.00     0.029 A 
ATOM     51  N   UNL A   1      43.009  27.255  29.885  1.00  0.00    -0.354 N 
ATOM     52  C   UNL A   1      45.108  23.453  28.759  1.00  0.00     0.074 A 
ATOM     53  C   UNL A   1      44.351  22.667  29.698  1.00  0.00     0.031 C 
ATOM     54  C   UNL A   1      42.167  28.698  31.361  1.00  0.00     0.029 A 
ATOM     55  C   UNL A   1      42.047  28.262  29.982  1.00  0.00     0.049 A 
ATOM     56  H   UNL A   1      43.229  26.815  29.033  1.00  0.00     0.167 HD
ATOM     57  C   UNL A   1      45.321  23.309  27.421  1.00  0.00     0.034 A 
ATOM     58  C   UNL A   1      41.227  28.715  28.994  1.00  0.00     0.034 A 
ATOM     59  C   UNL A   1      46.129  24.390  26.904  1.00  0.00     0.049 A 
ATOM     60  C   UNL A   1      41.914  28.387  27.720  1.00  0.00     0.074 A 
ATOM     61  C   UNL A   1      47.394  24.871  27.184  1.00  0.00     0.029 A 
ATOM     62  N   UNL A   1      45.481  25.420  26.259  1.00  0.00    -0.354 N 
ATOM     63  N   UNL A   1      43.065  28.904  27.381  1.00  0.00    -0.248 NA
ATOM     64  C   UNL A   1      41.588  27.121  27.084  1.00  0.00     0.031 C 
ATOM     65  C   UNL A   1      47.256  26.291  27.169  1.00  0.00     0.029 A 
ATOM     66  C   UNL A   1      45.948  26.599  26.790  1.00  0.00     0.049 A 
ATOM     67  H   UNL A   1      44.805  25.328  25.549  1.00  0.00     0.167 HD
ATOM     68  C   UNL A   1      43.789  27.843  26.860  1.00  0.00     0.074 A 
ATOM     69  C   UNL A   1      42.799  26.790  26.624  1.00  0.00     0.031 C 
ATOM     70  C   UNL A   1      45.152  27.806  26.934  1.00  0.00     0.034 A 
BRANCH  57  71
ATOM     71  C   UNL A   1      44.508  22.416  26.517  1.00  0.00     0.023 A 
ATOM     72  C   UNL A   1      43.123  22.332  26.749  1.00  0.00     0.031 A 
ATOM     73  C   UNL A   1      45.049  21.445  25.642  1.00  0.00     0.131 A 
ATOM     74  C   UNL A   1      42.359  21.294  26.186  1.00  0.00     0.055 A 
ATOM     75  C   UNL A   1      44.275  20.452  25.038  1.00  0.00     0.041 A 
ATOM     76  F   UNL A   1      46.362  21.342  25.402  1.00  0.00    -0.206 F 
ATOM     77  C   UNL A   1      42.927  20.354  25.330  1.00  0.00     0.022 A 
BRANCH  74  78
ATOM     78  S   UNL A   1      40.635  21.110  26.707  1.00  0.00     0.124 S 
ATOM     79  O   UNL A   1      40.767  21.033  28.157  1.00  0.00    -0.237 OA
ATOM     80  O   UNL A   1      40.029  22.328  26.179  1.00  0.00    -0.237 OA
ATOM     81  O   UNL A   1      40.213  19.874  26.052  1.00  0.00    -0.744 OA
ENDBRANCH  74  78
ENDBRANCH  57  71
BRANCH  58  82
ATOM     82  C   UNL A   1      39.771  29.051  29.077  1.00  0.00     0.023 A 
ATOM     83  C   UNL A   1      39.099  29.230  30.311  1.00  0.00     0.031 A 
ATOM     84  C   UNL A   1      39.078  29.477  27.922  1.00  0.00     0.131 A 
ATOM     85  C   UNL A   1      37.810  29.820  30.352  1.00  0.00     0.055 A 
ATOM     86  C   UNL A   1      37.811  30.066  27.970  1.00  0.00     0.041 A 
ATOM     87  F   UNL A   1      39.647  29.418  26.708  1.00  0.00    -0.206 F 
ATOM     88  C   UNL A   1      37.175  30.252  29.187  1.00  0.00     0.022 A 
BRANCH  85  89
ATOM     89  S   UNL A   1      36.976  30.147  31.944  1.00  0.00     0.124 S 
ATOM     90  O   UNL A   1      37.573  31.415  32.349  1.00  0.00    -0.237 OA
ATOM     91  O   UNL A   1      35.568  30.186  31.565  1.00  0.00    -0.237 OA
ATOM     92  O   UNL A   1      37.355  28.998  32.769  1.00  0.00    -0.744 OA
ENDBRANCH  85  89
ENDBRANCH  58  82
BRANCH  70  93
ATOM     93  C   UNL A   1      45.891  29.061  27.365  1.00  0.00     0.023 A 
ATOM     94  C   UNL A   1      46.110  29.464  28.705  1.00  0.00     0.031 A 
ATOM     95  C   UNL A   1      46.530  29.795  26.351  1.00  0.00     0.131 A 
ATOM     96  C   UNL A   1      46.946  30.570  28.980  1.00  0.00     0.055 A 
ATOM     97  C   UNL A   1      47.371  30.871  26.628  1.00  0.00     0.041 A 
ATOM     98  F   UNL A   1      46.383  29.441  25.063  1.00  0.00    -0.206 F 
ATOM     99  C   UNL A   1      47.581  31.265  27.944  1.00  0.00     0.022 A 
BRANCH  96 100
ATOM    100  S   UNL A   1      47.248  31.116  30.696  1.00  0.00     0.124 S 
ATOM    101  O   UNL A   1      46.331  30.293  31.476  1.00  0.00    -0.237 OA
ATOM    102  O   UNL A   1      48.670  30.840  30.878  1.00  0.00    -0.237 OA
ATOM    103  O   UNL A   1      46.909  32.541  30.667  1.00  0.00    -0.744 OA
ENDBRANCH  96 100
ENDBRANCH  70  93
ENDBRANCH  44  45
ENDBRANCH  36  39
ENDBRANCH  34  35
ENDBRANCH  33  34
ENDBRANCH  32  33
ENDBRANCH   1  32
TORSDOF 21
ENDMDL
