MODEL 1
REMARK VINA RESULT:     -10.9      0.000      0.000
REMARK SMILES C[C@H](CNC(=O)N1C[C@H]2CCCC[N@@H+]2C[C@@H]1C)C(=O)NCCCCCCNC(=O)c1ccc(-c2c3nc(c(-c4cc(S(=O)(=O)[O-])ccc4F)c4ccc([nH]4)c(-c4cc(S(=O)(=O)[O-])ccc4F)c4nc(c(-c5cc(S(=O)(=O)[O-])ccc5F)c5ccc2[nH]5)C=C4)C=C3)cc1
REMARK SMILES IDX 23 1 22 2 21 3 20 4 18 5 19 6 2 8 1 9 3 10 4 11 5 12 6 14
REMARK SMILES IDX 7 15 8 16 16 17 9 18 15 19 17 20 10 21 14 22 11 23 13 24
REMARK SMILES IDX 12 26 24 27 25 28 26 29 27 30 28 31 29 33 30 34 31 35 92 36
REMARK SMILES IDX 32 37 91 38 33 39 34 40 35 41 85 42 36 43 90 44 84 45 86 46
REMARK SMILES IDX 37 47 89 48 83 49 82 50 38 52 70 53 50 54 69 55 51 56 54 57
REMARK SMILES IDX 68 58 87 59 52 60 53 61 67 63 88 64 55 65 39 66 40 67 48 68
REMARK SMILES IDX 41 69 47 70 49 71 46 72 42 73 43 74 44 75 45 76 71 77 72 78
REMARK SMILES IDX 80 79 73 80 79 81 81 82 78 83 74 84 75 85 76 86 77 87 56 88
REMARK SMILES IDX 57 89 65 90 58 91 64 92 66 93 63 94 59 95 60 96 61 97 62 98
REMARK H PARENT 20 7 4 13 14 25 27 32 86 51 54 62
REMARK Flexibility Score: inf
ROOT
ATOM      1  C   UNL A   1      39.317  21.944  26.256  1.00  0.00     0.002 C 
ENDROOT
BRANCH   1   2
ATOM      2  C   UNL A   1      39.116  23.415  26.628  1.00  0.00     0.021 C 
BRANCH   2   3
ATOM      3  C   UNL A   1      37.809  24.011  26.107  1.00  0.00     0.116 C 
BRANCH   3   4
ATOM      4  N   UNL A   1      37.593  23.636  24.727  1.00  0.00    -0.356 N 
ATOM      5  C   UNL A   1      36.581  22.932  24.163  1.00  0.00     0.224 C 
ATOM      6  O   UNL A   1      36.685  22.637  22.969  1.00  0.00    -0.275 OA
ATOM      7  H   UNL A   1      38.289  23.941  24.100  1.00  0.00     0.163 HD
BRANCH   5   8
ATOM      8  C   UNL A   1      35.355  22.498  24.956  1.00  0.00     0.094 C 
ATOM      9  C   UNL A   1      35.429  21.059  25.461  1.00  0.00     0.020 C 
BRANCH   8  10
ATOM     10  C   UNL A   1      34.043  22.965  24.307  1.00  0.00     0.130 C 
BRANCH  10  11
ATOM     11  N   UNL A   1      34.138  23.627  23.012  1.00  0.00    -0.337 N 
ATOM     12  C   UNL A   1      33.433  24.660  22.477  1.00  0.00     0.318 C 
ATOM     13  H   UNL A   1      34.836  23.263  22.420  1.00  0.00     0.165 HD
ATOM     14  O   UNL A   1      33.422  24.767  21.254  1.00  0.00    -0.249 OA
BRANCH  12  15
ATOM     15  N   UNL A   1      32.751  25.481  23.326  1.00  0.00    -0.311 N 
ATOM     16  C   UNL A   1      33.338  26.761  23.704  1.00  0.00     0.186 C 
ATOM     17  C   UNL A   1      31.279  25.472  23.432  1.00  0.00     0.139 C 
ATOM     18  C   UNL A   1      33.036  27.013  25.181  1.00  0.00     0.203 C 
ATOM     19  C   UNL A   1      30.804  26.098  24.794  1.00  0.00     0.287 C 
ATOM     20  C   UNL A   1      30.665  24.067  23.341  1.00  0.00     0.037 C 
ATOM     21  C   UNL A   1      33.840  28.204  25.705  1.00  0.00     0.067 C 
ATOM     22  N   UNL A   1      31.585  27.229  25.365  1.00  0.00    -0.329 N 
ATOM     23  C   UNL A   1      33.560  28.411  27.187  1.00  0.00     0.012 C 
ATOM     24  C   UNL A   1      31.277  27.377  26.798  1.00  0.00     0.262 C 
ATOM     25  H   UNL A   1      31.321  28.082  24.873  1.00  0.00     0.348 HD
ATOM     26  C   UNL A   1      32.059  28.529  27.435  1.00  0.00     0.062 C 
ENDBRANCH  12  15
ENDBRANCH  10  11
ENDBRANCH   8  10
ENDBRANCH   5   8
ENDBRANCH   3   4
ENDBRANCH   2   3
ENDBRANCH   1   2
BRANCH   1  27
ATOM     27  C   UNL A   1      40.634  21.338  26.750  1.00  0.00     0.002 C 
BRANCH  27  28
ATOM     28  C   UNL A   1      40.959  19.955  26.182  1.00  0.00     0.021 C 
BRANCH  28  29
ATOM     29  C   UNL A   1      42.262  19.353  26.701  1.00  0.00     0.116 C 
BRANCH  29  30
ATOM     30  N   UNL A   1      43.199  19.106  25.617  1.00  0.00    -0.352 N 
ATOM     31  C   UNL A   1      43.916  20.006  24.869  1.00  0.00     0.251 C 
ATOM     32  H   UNL A   1      43.340  18.158  25.388  1.00  0.00     0.163 HD
ATOM     33  O   UNL A   1      44.446  19.643  23.825  1.00  0.00    -0.269 OA
BRANCH  31  34
ATOM     34  C   UNL A   1      44.031  21.407  25.323  1.00  0.00     0.039 A 
ATOM     35  C   UNL A   1      44.697  21.681  26.520  1.00  0.00     0.014 A 
ATOM     36  C   UNL A   1      43.470  22.448  24.576  1.00  0.00     0.014 A 
ATOM     37  C   UNL A   1      44.845  23.005  26.940  1.00  0.00     0.010 A 
ATOM     38  C   UNL A   1      43.683  23.769  24.959  1.00  0.00     0.010 A 
ATOM     39  C   UNL A   1      44.368  24.062  26.148  1.00  0.00    -0.014 A 
BRANCH  39  40
ATOM     40  C   UNL A   1      44.568  25.479  26.551  1.00  0.00     0.031 A 
ATOM     41  C   UNL A   1      45.937  26.099  26.470  1.00  0.00     0.074 A 
ATOM     42  C   UNL A   1      43.529  26.183  27.044  1.00  0.00     0.049 A 
ATOM     43  N   UNL A   1      46.326  27.293  26.835  1.00  0.00    -0.248 NA
ATOM     44  C   UNL A   1      47.015  25.256  25.931  1.00  0.00     0.031 C 
ATOM     45  C   UNL A   1      42.164  25.673  27.205  1.00  0.00     0.029 A 
ATOM     46  N   UNL A   1      43.457  27.471  27.511  1.00  0.00    -0.354 N 
ATOM     47  C   UNL A   1      47.696  27.338  26.592  1.00  0.00     0.074 A 
ATOM     48  C   UNL A   1      48.075  26.033  26.094  1.00  0.00     0.031 C 
ATOM     49  C   UNL A   1      41.388  26.646  27.707  1.00  0.00     0.029 A 
ATOM     50  C   UNL A   1      42.204  27.831  27.956  1.00  0.00     0.049 A 
ATOM     51  H   UNL A   1      44.228  28.082  27.526  1.00  0.00     0.167 HD
ATOM     52  C   UNL A   1      48.550  28.378  26.752  1.00  0.00     0.034 A 
ATOM     53  C   UNL A   1      41.768  28.976  28.516  1.00  0.00     0.034 A 
ATOM     54  C   UNL A   1      48.148  29.678  27.233  1.00  0.00     0.049 A 
ATOM     55  C   UNL A   1      42.747  30.108  28.707  1.00  0.00     0.074 A 
ATOM     56  C   UNL A   1      48.916  30.822  27.361  1.00  0.00     0.029 A 
ATOM     57  N   UNL A   1      46.873  30.004  27.677  1.00  0.00    -0.354 N 
ATOM     58  N   UNL A   1      44.024  30.157  28.404  1.00  0.00    -0.248 NA
ATOM     59  C   UNL A   1      42.224  31.344  29.305  1.00  0.00     0.031 C 
ATOM     60  C   UNL A   1      48.129  31.812  27.959  1.00  0.00     0.029 A 
ATOM     61  C   UNL A   1      46.845  31.317  28.120  1.00  0.00     0.049 A 
ATOM     62  H   UNL A   1      46.102  29.392  27.679  1.00  0.00     0.167 HD
ATOM     63  C   UNL A   1      44.445  31.442  28.741  1.00  0.00     0.074 A 
ATOM     64  C   UNL A   1      43.283  32.138  29.253  1.00  0.00     0.031 C 
ATOM     65  C   UNL A   1      45.679  31.998  28.633  1.00  0.00     0.034 A 
BRANCH  52  66
ATOM     66  C   UNL A   1      50.010  28.144  26.438  1.00  0.00     0.023 A 
ATOM     67  C   UNL A   1      50.506  28.191  25.124  1.00  0.00     0.031 A 
ATOM     68  C   UNL A   1      50.919  27.866  27.474  1.00  0.00     0.131 A 
ATOM     69  C   UNL A   1      51.857  27.901  24.874  1.00  0.00     0.055 A 
ATOM     70  C   UNL A   1      52.277  27.657  27.228  1.00  0.00     0.041 A 
ATOM     71  F   UNL A   1      50.502  27.784  28.748  1.00  0.00    -0.206 F 
ATOM     72  C   UNL A   1      52.752  27.662  25.920  1.00  0.00     0.022 A 
BRANCH  69  73
ATOM     73  S   UNL A   1      52.400  27.711  23.154  1.00  0.00     0.124 S 
ATOM     74  O   UNL A   1      52.816  29.072  22.823  1.00  0.00    -0.237 OA
ATOM     75  O   UNL A   1      53.470  26.725  23.267  1.00  0.00    -0.237 OA
ATOM     76  O   UNL A   1      51.197  27.250  22.463  1.00  0.00    -0.744 OA
ENDBRANCH  69  73
ENDBRANCH  52  66
BRANCH  53  77
ATOM     77  C   UNL A   1      40.349  29.119  28.957  1.00  0.00     0.023 A 
ATOM     78  C   UNL A   1      40.001  29.038  30.314  1.00  0.00     0.031 A 
ATOM     79  C   UNL A   1      39.309  29.271  28.022  1.00  0.00     0.131 A 
ATOM     80  C   UNL A   1      38.650  29.045  30.695  1.00  0.00     0.055 A 
ATOM     81  C   UNL A   1      37.970  29.343  28.410  1.00  0.00     0.041 A 
ATOM     82  F   UNL A   1      39.582  29.355  26.709  1.00  0.00    -0.206 F 
ATOM     83  C   UNL A   1      37.633  29.213  29.753  1.00  0.00     0.022 A 
BRANCH  80  84
ATOM     84  S   UNL A   1      38.235  28.715  32.429  1.00  0.00     0.124 S 
ATOM     85  O   UNL A   1      38.519  27.288  32.535  1.00  0.00    -0.237 OA
ATOM     86  O   UNL A   1      39.151  29.604  33.134  1.00  0.00    -0.237 OA
ATOM     87  O   UNL A   1      36.823  29.078  32.517  1.00  0.00    -0.744 OA
ENDBRANCH  80  84
ENDBRANCH  53  77
BRANCH  65  88
ATOM     88  C   UNL A   1      45.816  33.450  29.028  1.00  0.00     0.023 A 
ATOM     89  C   UNL A   1      45.597  34.494  28.113  1.00  0.00     0.031 A 
ATOM     90  C   UNL A   1      46.182  33.789  30.343  1.00  0.00     0.131 A 
ATOM     91  C   UNL A   1      45.804  35.824  28.508  1.00  0.00     0.055 A 
ATOM     92  C   UNL A   1      46.319  35.117  30.749  1.00  0.00     0.041 A 
ATOM     93  F   UNL A   1      46.407  32.834  31.259  1.00  0.00    -0.206 F 
ATOM     94  C   UNL A   1      46.144  36.143  29.826  1.00  0.00     0.022 A 
BRANCH  91  95
ATOM     95  S   UNL A   1      45.719  37.131  27.252  1.00  0.00     0.124 S 
ATOM     96  O   UNL A   1      46.434  38.223  27.903  1.00  0.00    -0.237 OA
ATOM     97  O   UNL A   1      46.394  36.514  26.115  1.00  0.00    -0.237 OA
ATOM     98  O   UNL A   1      44.283  37.345  27.077  1.00  0.00    -0.744 OA
ENDBRANCH  91  95
ENDBRANCH  65  88
ENDBRANCH  39  40
ENDBRANCH  31  34
ENDBRANCH  29  30
ENDBRANCH  28  29
ENDBRANCH  27  28
ENDBRANCH   1  27
TORSDOF 19
ENDMDL
MODEL 2
REMARK VINA RESULT:     -10.8      5.910     10.366
REMARK SMILES C[C@H](CNC(=O)N1C[C@H]2CCCC[N@@H+]2C[C@@H]1C)C(=O)NCCCCCCNC(=O)c1ccc(-c2c3nc(c(-c4cc(S(=O)(=O)[O-])ccc4F)c4ccc([nH]4)c(-c4cc(S(=O)(=O)[O-])ccc4F)c4nc(c(-c5cc(S(=O)(=O)[O-])ccc5F)c5ccc2[nH]5)C=C4)C=C3)cc1
REMARK SMILES IDX 23 1 22 2 21 3 20 4 18 5 19 6 2 8 1 9 3 10 4 11 5 12 6 14
REMARK SMILES IDX 7 15 8 16 16 17 9 18 15 19 17 20 10 21 14 22 11 23 13 24
REMARK SMILES IDX 12 26 24 27 25 28 26 29 27 30 28 31 29 33 30 34 31 35 92 36
REMARK SMILES IDX 32 37 91 38 33 39 34 40 35 41 85 42 36 43 90 44 84 45 86 46
REMARK SMILES IDX 37 47 89 48 83 49 82 50 38 52 70 53 50 54 69 55 51 56 54 57
REMARK SMILES IDX 68 58 87 59 52 60 53 61 67 63 88 64 55 65 39 66 40 67 48 68
REMARK SMILES IDX 41 69 47 70 49 71 46 72 42 73 43 74 44 75 45 76 71 77 72 78
REMARK SMILES IDX 80 79 73 80 79 81 81 82 78 83 74 84 75 85 76 86 77 87 56 88
REMARK SMILES IDX 57 89 65 90 58 91 64 92 66 93 63 94 59 95 60 96 61 97 62 98
REMARK H PARENT 20 7 4 13 14 25 27 32 86 51 54 62
REMARK Flexibility Score: inf
ROOT
ATOM      1  C   UNL A   1      33.546  29.175  26.814  1.00  0.00     0.002 C 
ENDROOT
BRANCH   1   2
ATOM      2  C   UNL A   1      33.005  29.565  25.436  1.00  0.00     0.021 C 
BRANCH   2   3
ATOM      3  C   UNL A   1      31.589  29.061  25.164  1.00  0.00     0.116 C 
BRANCH   3   4
ATOM      4  N   UNL A   1      31.342  27.827  25.875  1.00  0.00    -0.356 N 
ATOM      5  C   UNL A   1      30.652  26.724  25.494  1.00  0.00     0.224 C 
ATOM      6  O   UNL A   1      30.481  25.836  26.335  1.00  0.00    -0.275 OA
ATOM      7  H   UNL A   1      31.738  27.780  26.775  1.00  0.00     0.163 HD
BRANCH   5   8
ATOM      8  C   UNL A   1      30.088  26.566  24.088  1.00  0.00     0.094 C 
ATOM      9  C   UNL A   1      28.579  26.782  24.005  1.00  0.00     0.020 C 
BRANCH   8  10
ATOM     10  C   UNL A   1      30.682  25.356  23.350  1.00  0.00     0.130 C 
BRANCH  10  11
ATOM     11  N   UNL A   1      31.750  25.618  22.392  1.00  0.00    -0.337 N 
ATOM     12  C   UNL A   1      33.074  25.312  22.417  1.00  0.00     0.318 C 
ATOM     13  H   UNL A   1      31.460  26.101  21.584  1.00  0.00     0.165 HD
ATOM     14  O   UNL A   1      33.824  25.977  21.707  1.00  0.00    -0.249 OA
BRANCH  12  15
ATOM     15  N   UNL A   1      33.489  24.321  23.257  1.00  0.00    -0.311 N 
ATOM     16  C   UNL A   1      33.507  22.943  22.779  1.00  0.00     0.186 C 
ATOM     17  C   UNL A   1      34.442  24.558  24.359  1.00  0.00     0.139 C 
ATOM     18  C   UNL A   1      33.046  22.033  23.917  1.00  0.00     0.203 C 
ATOM     19  C   UNL A   1      34.344  23.426  25.447  1.00  0.00     0.287 C 
ATOM     20  C   UNL A   1      34.228  25.898  25.079  1.00  0.00     0.037 C 
ATOM     21  C   UNL A   1      32.793  20.612  23.408  1.00  0.00     0.067 C 
ATOM     22  N   UNL A   1      34.052  22.037  25.001  1.00  0.00    -0.329 N 
ATOM     23  C   UNL A   1      32.292  19.733  24.545  1.00  0.00     0.012 C 
ATOM     24  C   UNL A   1      33.569  21.237  26.139  1.00  0.00     0.262 C 
ATOM     25  H   UNL A   1      34.914  21.627  24.642  1.00  0.00     0.348 HD
ATOM     26  C   UNL A   1      33.251  19.796  25.730  1.00  0.00     0.062 C 
ENDBRANCH  12  15
ENDBRANCH  10  11
ENDBRANCH   8  10
ENDBRANCH   5   8
ENDBRANCH   3   4
ENDBRANCH   2   3
ENDBRANCH   1   2
BRANCH   1  27
ATOM     27  C   UNL A   1      34.114  30.343  27.627  1.00  0.00     0.002 C 
BRANCH  27  28
ATOM     28  C   UNL A   1      33.741  31.731  27.103  1.00  0.00     0.021 C 
BRANCH  28  29
ATOM     29  C   UNL A   1      32.526  32.355  27.784  1.00  0.00     0.116 C 
BRANCH  29  30
ATOM     30  N   UNL A   1      32.597  33.806  27.770  1.00  0.00    -0.352 N 
ATOM     31  C   UNL A   1      33.382  34.643  28.523  1.00  0.00     0.251 C 
ATOM     32  H   UNL A   1      31.997  34.253  27.128  1.00  0.00     0.163 HD
ATOM     33  O   UNL A   1      33.120  35.840  28.575  1.00  0.00    -0.269 OA
BRANCH  31  34
ATOM     34  C   UNL A   1      34.527  34.091  29.276  1.00  0.00     0.039 A 
ATOM     35  C   UNL A   1      34.285  33.341  30.429  1.00  0.00     0.014 A 
ATOM     36  C   UNL A   1      35.839  34.326  28.852  1.00  0.00     0.014 A 
ATOM     37  C   UNL A   1      35.357  32.782  31.127  1.00  0.00     0.010 A 
ATOM     38  C   UNL A   1      36.900  33.707  29.507  1.00  0.00     0.010 A 
ATOM     39  C   UNL A   1      36.671  32.934  30.655  1.00  0.00    -0.014 A 
BRANCH  39  40
ATOM     40  C   UNL A   1      37.819  32.297  31.354  1.00  0.00     0.031 A 
ATOM     41  C   UNL A   1      38.565  31.165  30.700  1.00  0.00     0.074 A 
ATOM     42  C   UNL A   1      38.148  32.702  32.597  1.00  0.00     0.049 A 
ATOM     43  N   UNL A   1      39.546  30.440  31.172  1.00  0.00    -0.248 NA
ATOM     44  C   UNL A   1      38.132  30.780  29.348  1.00  0.00     0.031 C 
ATOM     45  C   UNL A   1      37.472  33.765  33.345  1.00  0.00     0.029 A 
ATOM     46  N   UNL A   1      39.124  32.264  33.457  1.00  0.00    -0.354 N 
ATOM     47  C   UNL A   1      39.834  29.501  30.187  1.00  0.00     0.074 A 
ATOM     48  C   UNL A   1      38.888  29.719  29.112  1.00  0.00     0.031 C 
ATOM     49  C   UNL A   1      38.070  33.913  34.538  1.00  0.00     0.029 A 
ATOM     50  C   UNL A   1      39.136  32.923  34.666  1.00  0.00     0.049 A 
ATOM     51  H   UNL A   1      39.757  31.545  33.230  1.00  0.00     0.167 HD
ATOM     52  C   UNL A   1      40.808  28.558  30.174  1.00  0.00     0.034 A 
ATOM     53  C   UNL A   1      39.904  32.739  35.757  1.00  0.00     0.034 A 
ATOM     54  C   UNL A   1      41.752  28.369  31.249  1.00  0.00     0.049 A 
ATOM     55  C   UNL A   1      40.963  31.665  35.725  1.00  0.00     0.074 A 
ATOM     56  C   UNL A   1      42.825  27.496  31.306  1.00  0.00     0.029 A 
ATOM     57  N   UNL A   1      41.731  29.051  32.458  1.00  0.00    -0.354 N 
ATOM     58  N   UNL A   1      41.268  30.833  34.756  1.00  0.00    -0.248 NA
ATOM     59  C   UNL A   1      41.790  31.512  36.930  1.00  0.00     0.031 C 
ATOM     60  C   UNL A   1      43.399  27.591  32.578  1.00  0.00     0.029 A 
ATOM     61  C   UNL A   1      42.745  28.589  33.283  1.00  0.00     0.049 A 
ATOM     62  H   UNL A   1      41.090  29.760  32.695  1.00  0.00     0.167 HD
ATOM     63  C   UNL A   1      42.347  30.085  35.224  1.00  0.00     0.074 A 
ATOM     64  C   UNL A   1      42.647  30.576  36.552  1.00  0.00     0.031 C 
ATOM     65  C   UNL A   1      43.031  29.085  34.609  1.00  0.00     0.034 A 
BRANCH  52  66
ATOM     66  C   UNL A   1      40.880  27.636  28.978  1.00  0.00     0.023 A 
ATOM     67  C   UNL A   1      41.846  27.799  27.970  1.00  0.00     0.031 A 
ATOM     68  C   UNL A   1      39.964  26.578  28.846  1.00  0.00     0.131 A 
ATOM     69  C   UNL A   1      41.832  26.960  26.845  1.00  0.00     0.055 A 
ATOM     70  C   UNL A   1      40.005  25.696  27.764  1.00  0.00     0.041 A 
ATOM     71  F   UNL A   1      39.003  26.385  29.765  1.00  0.00    -0.206 F 
ATOM     72  C   UNL A   1      40.936  25.892  26.748  1.00  0.00     0.022 A 
BRANCH  69  73
ATOM     73  S   UNL A   1      42.916  27.363  25.447  1.00  0.00     0.124 S 
ATOM     74  O   UNL A   1      42.157  28.420  24.781  1.00  0.00    -0.237 OA
ATOM     75  O   UNL A   1      44.145  27.781  26.111  1.00  0.00    -0.237 OA
ATOM     76  O   UNL A   1      43.002  26.106  24.706  1.00  0.00    -0.744 OA
ENDBRANCH  69  73
ENDBRANCH  52  66
BRANCH  53  77
ATOM     77  C   UNL A   1      39.702  33.569  36.981  1.00  0.00     0.023 A 
ATOM     78  C   UNL A   1      40.514  34.684  37.242  1.00  0.00     0.031 A 
ATOM     79  C   UNL A   1      38.739  33.221  37.945  1.00  0.00     0.131 A 
ATOM     80  C   UNL A   1      40.393  35.372  38.459  1.00  0.00     0.055 A 
ATOM     81  C   UNL A   1      38.578  33.947  39.126  1.00  0.00     0.041 A 
ATOM     82  F   UNL A   1      37.933  32.164  37.749  1.00  0.00    -0.206 F 
ATOM     83  C   UNL A   1      39.420  35.020  39.396  1.00  0.00     0.022 A 
BRANCH  80  84
ATOM     84  S   UNL A   1      41.607  36.662  38.851  1.00  0.00     0.124 S 
ATOM     85  O   UNL A   1      42.412  36.690  37.635  1.00  0.00    -0.237 OA
ATOM     86  O   UNL A   1      40.752  37.821  39.081  1.00  0.00    -0.237 OA
ATOM     87  O   UNL A   1      42.284  36.143  40.037  1.00  0.00    -0.744 OA
ENDBRANCH  80  84
ENDBRANCH  53  77
BRANCH  65  88
ATOM     88  C   UNL A   1      44.206  28.498  35.353  1.00  0.00     0.023 A 
ATOM     89  C   UNL A   1      44.045  27.508  36.337  1.00  0.00     0.031 A 
ATOM     90  C   UNL A   1      45.510  28.948  35.076  1.00  0.00     0.131 A 
ATOM     91  C   UNL A   1      45.161  27.042  37.050  1.00  0.00     0.055 A 
ATOM     92  C   UNL A   1      46.623  28.433  35.740  1.00  0.00     0.041 A 
ATOM     93  F   UNL A   1      45.725  29.895  34.149  1.00  0.00    -0.206 F 
ATOM     94  C   UNL A   1      46.451  27.484  36.744  1.00  0.00     0.022 A 
BRANCH  91  95
ATOM     95  S   UNL A   1      44.895  25.923  38.453  1.00  0.00     0.124 S 
ATOM     96  O   UNL A   1      44.744  24.633  37.787  1.00  0.00    -0.237 OA
ATOM     97  O   UNL A   1      46.117  26.100  39.230  1.00  0.00    -0.237 OA
ATOM     98  O   UNL A   1      43.681  26.443  39.081  1.00  0.00    -0.744 OA
ENDBRANCH  91  95
ENDBRANCH  65  88
ENDBRANCH  39  40
ENDBRANCH  31  34
ENDBRANCH  29  30
ENDBRANCH  28  29
ENDBRANCH  27  28
ENDBRANCH   1  27
TORSDOF 19
ENDMDL
MODEL 3
REMARK VINA RESULT:     -10.6      5.749     10.074
REMARK SMILES C[C@H](CNC(=O)N1C[C@H]2CCCC[N@@H+]2C[C@@H]1C)C(=O)NCCCCCCNC(=O)c1ccc(-c2c3nc(c(-c4cc(S(=O)(=O)[O-])ccc4F)c4ccc([nH]4)c(-c4cc(S(=O)(=O)[O-])ccc4F)c4nc(c(-c5cc(S(=O)(=O)[O-])ccc5F)c5ccc2[nH]5)C=C4)C=C3)cc1
REMARK SMILES IDX 23 1 22 2 21 3 20 4 18 5 19 6 2 8 1 9 3 10 4 11 5 12 6 14
REMARK SMILES IDX 7 15 8 16 16 17 9 18 15 19 17 20 10 21 14 22 11 23 13 24
REMARK SMILES IDX 12 26 24 27 25 28 26 29 27 30 28 31 29 33 30 34 31 35 92 36
REMARK SMILES IDX 32 37 91 38 33 39 34 40 35 41 85 42 36 43 90 44 84 45 86 46
REMARK SMILES IDX 37 47 89 48 83 49 82 50 38 52 70 53 50 54 69 55 51 56 54 57
REMARK SMILES IDX 68 58 87 59 52 60 53 61 67 63 88 64 55 65 39 66 40 67 48 68
REMARK SMILES IDX 41 69 47 70 49 71 46 72 42 73 43 74 44 75 45 76 71 77 72 78
REMARK SMILES IDX 80 79 73 80 79 81 81 82 78 83 74 84 75 85 76 86 77 87 56 88
REMARK SMILES IDX 57 89 65 90 58 91 64 92 66 93 63 94 59 95 60 96 61 97 62 98
REMARK H PARENT 20 7 4 13 14 25 27 32 86 51 54 62
REMARK Flexibility Score: inf
ROOT
ATOM      1  C   UNL A   1      34.740  28.948  26.693  1.00  0.00     0.002 C 
ENDROOT
BRANCH   1   2
ATOM      2  C   UNL A   1      33.719  27.880  26.294  1.00  0.00     0.021 C 
BRANCH   2   3
ATOM      3  C   UNL A   1      32.266  28.311  26.489  1.00  0.00     0.116 C 
BRANCH   3   4
ATOM      4  N   UNL A   1      31.442  27.176  26.839  1.00  0.00    -0.356 N 
ATOM      5  C   UNL A   1      30.743  26.328  26.045  1.00  0.00     0.224 C 
ATOM      6  O   UNL A   1      30.011  25.500  26.596  1.00  0.00    -0.275 OA
ATOM      7  H   UNL A   1      31.380  26.989  27.804  1.00  0.00     0.163 HD
BRANCH   5   8
ATOM      8  C   UNL A   1      30.830  26.383  24.525  1.00  0.00     0.094 C 
ATOM      9  C   UNL A   1      29.958  27.470  23.901  1.00  0.00     0.020 C 
BRANCH   8  10
ATOM     10  C   UNL A   1      30.804  24.987  23.885  1.00  0.00     0.130 C 
BRANCH  10  11
ATOM     11  N   UNL A   1      31.461  24.834  22.592  1.00  0.00    -0.337 N 
ATOM     12  C   UNL A   1      32.682  24.339  22.257  1.00  0.00     0.318 C 
ATOM     13  H   UNL A   1      30.924  25.143  21.826  1.00  0.00     0.165 HD
ATOM     14  O   UNL A   1      33.157  24.683  21.179  1.00  0.00    -0.249 OA
BRANCH  12  15
ATOM     15  N   UNL A   1      33.316  23.532  23.155  1.00  0.00    -0.311 N 
ATOM     16  C   UNL A   1      34.205  24.129  24.145  1.00  0.00     0.186 C 
ATOM     17  C   UNL A   1      32.763  22.235  23.591  1.00  0.00     0.139 C 
ATOM     18  C   UNL A   1      35.415  23.211  24.322  1.00  0.00     0.203 C 
ATOM     19  C   UNL A   1      33.886  21.310  24.187  1.00  0.00     0.287 C 
ATOM     20  C   UNL A   1      32.080  21.448  22.462  1.00  0.00     0.037 C 
ATOM     21  C   UNL A   1      36.504  23.900  25.146  1.00  0.00     0.067 C 
ATOM     22  N   UNL A   1      34.992  21.943  24.955  1.00  0.00    -0.329 N 
ATOM     23  C   UNL A   1      37.717  22.987  25.273  1.00  0.00     0.012 C 
ATOM     24  C   UNL A   1      36.135  21.018  25.041  1.00  0.00     0.262 C 
ATOM     25  H   UNL A   1      34.654  22.149  25.895  1.00  0.00     0.348 HD
ATOM     26  C   UNL A   1      37.304  21.625  25.822  1.00  0.00     0.062 C 
ENDBRANCH  12  15
ENDBRANCH  10  11
ENDBRANCH   8  10
ENDBRANCH   5   8
ENDBRANCH   3   4
ENDBRANCH   2   3
ENDBRANCH   1   2
BRANCH   1  27
ATOM     27  C   UNL A   1      34.216  29.986  27.690  1.00  0.00     0.002 C 
BRANCH  27  28
ATOM     28  C   UNL A   1      33.810  31.325  27.069  1.00  0.00     0.021 C 
BRANCH  28  29
ATOM     29  C   UNL A   1      32.520  31.914  27.633  1.00  0.00     0.116 C 
BRANCH  29  30
ATOM     30  N   UNL A   1      32.549  33.367  27.617  1.00  0.00    -0.352 N 
ATOM     31  C   UNL A   1      33.300  34.227  28.377  1.00  0.00     0.251 C 
ATOM     32  H   UNL A   1      31.943  33.794  26.968  1.00  0.00     0.163 HD
ATOM     33  O   UNL A   1      33.003  35.416  28.424  1.00  0.00    -0.269 OA
BRANCH  31  34
ATOM     34  C   UNL A   1      34.453  33.711  29.144  1.00  0.00     0.039 A 
ATOM     35  C   UNL A   1      34.221  32.881  30.243  1.00  0.00     0.014 A 
ATOM     36  C   UNL A   1      35.760  34.056  28.786  1.00  0.00     0.014 A 
ATOM     37  C   UNL A   1      35.303  32.355  30.952  1.00  0.00     0.010 A 
ATOM     38  C   UNL A   1      36.837  33.472  29.448  1.00  0.00     0.010 A 
ATOM     39  C   UNL A   1      36.620  32.621  30.542  1.00  0.00    -0.014 A 
BRANCH  39  40
ATOM     40  C   UNL A   1      37.783  32.023  31.249  1.00  0.00     0.031 A 
ATOM     41  C   UNL A   1      38.570  30.915  30.603  1.00  0.00     0.074 A 
ATOM     42  C   UNL A   1      38.090  32.440  32.495  1.00  0.00     0.049 A 
ATOM     43  N   UNL A   1      39.571  30.222  31.083  1.00  0.00    -0.248 NA
ATOM     44  C   UNL A   1      38.160  30.514  29.248  1.00  0.00     0.031 C 
ATOM     45  C   UNL A   1      37.374  33.481  33.236  1.00  0.00     0.029 A 
ATOM     46  N   UNL A   1      39.073  32.035  33.362  1.00  0.00    -0.354 N 
ATOM     47  C   UNL A   1      39.897  29.292  30.101  1.00  0.00     0.074 A 
ATOM     48  C   UNL A   1      38.952  29.478  29.019  1.00  0.00     0.031 C 
ATOM     49  C   UNL A   1      37.958  33.650  34.433  1.00  0.00     0.029 A 
ATOM     50  C   UNL A   1      39.055  32.696  34.570  1.00  0.00     0.049 A 
ATOM     51  H   UNL A   1      39.731  31.337  33.141  1.00  0.00     0.167 HD
ATOM     52  C   UNL A   1      40.901  28.382  30.097  1.00  0.00     0.034 A 
ATOM     53  C   UNL A   1      39.821  32.539  35.667  1.00  0.00     0.034 A 
ATOM     54  C   UNL A   1      41.843  28.225  31.179  1.00  0.00     0.049 A 
ATOM     55  C   UNL A   1      40.915  31.499  35.645  1.00  0.00     0.074 A 
ATOM     56  C   UNL A   1      42.943  27.387  31.245  1.00  0.00     0.029 A 
ATOM     57  N   UNL A   1      41.791  28.908  32.387  1.00  0.00    -0.354 N 
ATOM     58  N   UNL A   1      41.254  30.676  34.678  1.00  0.00    -0.248 NA
ATOM     59  C   UNL A   1      41.737  31.374  36.856  1.00  0.00     0.031 C 
ATOM     60  C   UNL A   1      43.505  27.503  32.521  1.00  0.00     0.029 A 
ATOM     61  C   UNL A   1      42.813  28.480  33.220  1.00  0.00     0.049 A 
ATOM     62  H   UNL A   1      41.126  29.596  32.618  1.00  0.00     0.167 HD
ATOM     63  C   UNL A   1      42.353  29.964  35.155  1.00  0.00     0.074 A 
ATOM     64  C   UNL A   1      42.627  30.467  36.485  1.00  0.00     0.031 C 
ATOM     65  C   UNL A   1      43.073  28.987  34.547  1.00  0.00     0.034 A 
BRANCH  52  66
ATOM     66  C   UNL A   1      41.011  27.461  28.903  1.00  0.00     0.023 A 
ATOM     67  C   UNL A   1      42.019  27.616  27.935  1.00  0.00     0.031 A 
ATOM     68  C   UNL A   1      40.090  26.413  28.731  1.00  0.00     0.131 A 
ATOM     69  C   UNL A   1      42.042  26.778  26.809  1.00  0.00     0.055 A 
ATOM     70  C   UNL A   1      40.166  25.533  27.651  1.00  0.00     0.041 A 
ATOM     71  F   UNL A   1      39.091  26.229  29.610  1.00  0.00    -0.206 F 
ATOM     72  C   UNL A   1      41.139  25.720  26.673  1.00  0.00     0.022 A 
BRANCH  69  73
ATOM     73  S   UNL A   1      43.186  27.173  25.457  1.00  0.00     0.124 S 
ATOM     74  O   UNL A   1      44.250  27.877  26.167  1.00  0.00    -0.237 OA
ATOM     75  O   UNL A   1      43.528  25.853  24.937  1.00  0.00    -0.237 OA
ATOM     76  O   UNL A   1      42.385  28.008  24.563  1.00  0.00    -0.744 OA
ENDBRANCH  69  73
ENDBRANCH  52  66
BRANCH  53  77
ATOM     77  C   UNL A   1      39.583  33.363  36.889  1.00  0.00     0.023 A 
ATOM     78  C   UNL A   1      38.948  32.819  38.016  1.00  0.00     0.031 A 
ATOM     79  C   UNL A   1      39.927  34.726  36.924  1.00  0.00     0.131 A 
ATOM     80  C   UNL A   1      38.619  33.643  39.103  1.00  0.00     0.055 A 
ATOM     81  C   UNL A   1      39.656  35.528  38.034  1.00  0.00     0.041 A 
ATOM     82  F   UNL A   1      40.538  35.300  35.875  1.00  0.00    -0.206 F 
ATOM     83  C   UNL A   1      38.982  34.991  39.126  1.00  0.00     0.022 A 
BRANCH  80  84
ATOM     84  S   UNL A   1      37.603  32.955  40.439  1.00  0.00     0.124 S 
ATOM     85  O   UNL A   1      38.153  31.610  40.566  1.00  0.00    -0.237 OA
ATOM     86  O   UNL A   1      37.887  33.870  41.538  1.00  0.00    -0.237 OA
ATOM     87  O   UNL A   1      36.245  33.025  39.904  1.00  0.00    -0.744 OA
ENDBRANCH  80  84
ENDBRANCH  53  77
BRANCH  65  88
ATOM     88  C   UNL A   1      44.262  28.439  35.301  1.00  0.00     0.023 A 
ATOM     89  C   UNL A   1      44.133  27.409  36.248  1.00  0.00     0.031 A 
ATOM     90  C   UNL A   1      45.545  28.968  35.071  1.00  0.00     0.131 A 
ATOM     91  C   UNL A   1      45.256  26.981  36.972  1.00  0.00     0.055 A 
ATOM     92  C   UNL A   1      46.669  28.492  35.745  1.00  0.00     0.041 A 
ATOM     93  F   UNL A   1      45.728  29.956  34.180  1.00  0.00    -0.206 F 
ATOM     94  C   UNL A   1      46.526  27.502  36.713  1.00  0.00     0.022 A 
BRANCH  91  95
ATOM     95  S   UNL A   1      45.019  25.802  38.331  1.00  0.00     0.124 S 
ATOM     96  O   UNL A   1      43.946  26.431  39.094  1.00  0.00    -0.237 OA
ATOM     97  O   UNL A   1      44.664  24.576  37.622  1.00  0.00    -0.237 OA
ATOM     98  O   UNL A   1      46.322  25.777  38.994  1.00  0.00    -0.744 OA
ENDBRANCH  91  95
ENDBRANCH  65  88
ENDBRANCH  39  40
ENDBRANCH  31  34
ENDBRANCH  29  30
ENDBRANCH  28  29
ENDBRANCH  27  28
ENDBRANCH   1  27
TORSDOF 19
ENDMDL
