MODEL 1
REMARK VINA RESULT:     -11.9      0.000      0.000
REMARK SMILES O=C(NCCCCCCNC(=O)c1ccc2c(=O)n(CCC[NH+]3CCOCC3)c(=O)[nH]c2c1)c1ccc(-c2c3nc(c(-c4cc(S(=O)(=O)[O-])ccc4F)c4ccc([nH]4)c(-c4cc(S(=O)(=O)[O-])ccc4F)c4nc(c(-c5cc(S(=O)(=O)[O-])ccc5F)c5ccc2[nH]5)C=C4)C=C3)cc1
REMARK SMILES IDX 7 1 6 2 5 3 4 4 3 5 1 6 2 7 34 9 35 10 96 11 36 12 95 13
REMARK SMILES IDX 37 14 38 15 39 16 89 17 40 18 94 19 88 20 90 21 41 22 93 23
REMARK SMILES IDX 87 24 86 25 42 27 74 28 54 29 73 30 55 31 58 32 72 33 91 34
REMARK SMILES IDX 56 35 57 36 71 38 92 39 59 40 43 41 44 42 52 43 45 44 51 45
REMARK SMILES IDX 53 46 50 47 46 48 47 49 48 50 49 51 75 52 76 53 84 54 77 55
REMARK SMILES IDX 83 56 85 57 82 58 78 59 79 60 80 61 81 62 60 63 61 64 69 65
REMARK SMILES IDX 62 66 68 67 70 68 67 69 63 70 64 71 65 72 66 73 8 74 9 75
REMARK SMILES IDX 10 76 11 77 12 79 13 80 14 81 33 82 15 83 32 84 16 85 31 86
REMARK SMILES IDX 17 87 29 88 18 90 19 91 30 92 20 93 21 94 22 95 23 96 24 97
REMARK SMILES IDX 28 98 25 100 27 101 26 102
REMARK H PARENT 3 8 90 26 58 37 10 78 31 89 23 99
REMARK Flexibility Score: inf
ROOT
ATOM      1  C   UNL A   1      30.448  27.194  25.008  1.00  0.00     0.002 C 
ENDROOT
BRANCH   1   2
ATOM      2  C   UNL A   1      31.705  27.408  25.855  1.00  0.00     0.002 C 
BRANCH   2   3
ATOM      3  C   UNL A   1      31.783  28.755  26.577  1.00  0.00     0.021 C 
BRANCH   3   4
ATOM      4  C   UNL A   1      33.090  29.512  26.382  1.00  0.00     0.116 C 
BRANCH   4   5
ATOM      5  N   UNL A   1      32.969  30.914  26.735  1.00  0.00    -0.352 N 
ATOM      6  O   UNL A   1      33.389  32.808  27.862  1.00  0.00    -0.269 OA
ATOM      7  C   UNL A   1      33.772  31.689  27.531  1.00  0.00     0.251 C 
ATOM      8  H   UNL A   1      32.192  31.378  26.347  1.00  0.00     0.163 HD
BRANCH   7   9
ATOM      9  C   UNL A   1      35.087  31.188  27.990  1.00  0.00     0.039 A 
ATOM     10  C   UNL A   1      35.170  29.884  28.488  1.00  0.00     0.014 A 
ATOM     11  C   UNL A   1      36.219  32.010  27.999  1.00  0.00     0.014 A 
ATOM     12  C   UNL A   1      36.382  29.408  28.990  1.00  0.00     0.010 A 
ATOM     13  C   UNL A   1      37.446  31.505  28.420  1.00  0.00     0.010 A 
ATOM     14  C   UNL A   1      37.531  30.217  28.963  1.00  0.00    -0.014 A 
BRANCH  14  15
ATOM     15  C   UNL A   1      38.798  29.758  29.588  1.00  0.00     0.031 A 
ATOM     16  C   UNL A   1      39.186  30.276  30.949  1.00  0.00     0.074 A 
ATOM     17  C   UNL A   1      39.596  28.888  28.940  1.00  0.00     0.049 A 
ATOM     18  N   UNL A   1      40.236  29.990  31.672  1.00  0.00    -0.248 NA
ATOM     19  C   UNL A   1      38.287  31.266  31.571  1.00  0.00     0.031 C 
ATOM     20  C   UNL A   1      39.339  28.349  27.604  1.00  0.00     0.029 A 
ATOM     21  N   UNL A   1      40.775  28.295  29.318  1.00  0.00    -0.354 N 
ATOM     22  C   UNL A   1      40.133  30.771  32.818  1.00  0.00     0.074 A 
ATOM     23  C   UNL A   1      38.955  31.591  32.668  1.00  0.00     0.031 C 
ATOM     24  C   UNL A   1      40.305  27.468  27.295  1.00  0.00     0.029 A 
ATOM     25  C   UNL A   1      41.267  27.402  28.394  1.00  0.00     0.049 A 
ATOM     26  H   UNL A   1      41.226  28.491  30.172  1.00  0.00     0.167 HD
ATOM     27  C   UNL A   1      40.929  30.775  33.913  1.00  0.00     0.034 A 
ATOM     28  C   UNL A   1      42.355  26.606  28.438  1.00  0.00     0.034 A 
ATOM     29  C   UNL A   1      42.070  29.914  34.071  1.00  0.00     0.049 A 
ATOM     30  C   UNL A   1      43.209  26.608  29.684  1.00  0.00     0.074 A 
ATOM     31  C   UNL A   1      42.913  29.806  35.161  1.00  0.00     0.029 A 
ATOM     32  N   UNL A   1      42.517  29.003  33.126  1.00  0.00    -0.354 N 
ATOM     33  N   UNL A   1      43.052  27.294  30.791  1.00  0.00    -0.248 NA
ATOM     34  C   UNL A   1      44.375  25.712  29.699  1.00  0.00     0.031 C 
ATOM     35  C   UNL A   1      43.899  28.867  34.858  1.00  0.00     0.029 A 
ATOM     36  C   UNL A   1      43.629  28.335  33.607  1.00  0.00     0.049 A 
ATOM     37  H   UNL A   1      42.103  28.852  32.245  1.00  0.00     0.167 HD
ATOM     38  C   UNL A   1      44.067  26.878  31.650  1.00  0.00     0.074 A 
ATOM     39  C   UNL A   1      44.823  25.870  30.937  1.00  0.00     0.031 C 
ATOM     40  C   UNL A   1      44.346  27.294  32.911  1.00  0.00     0.034 A 
BRANCH  27  41
ATOM     41  C   UNL A   1      40.590  31.704  35.053  1.00  0.00     0.023 A 
ATOM     42  C   UNL A   1      39.551  31.376  35.941  1.00  0.00     0.031 A 
ATOM     43  C   UNL A   1      41.199  32.966  35.178  1.00  0.00     0.131 A 
ATOM     44  C   UNL A   1      39.124  32.314  36.890  1.00  0.00     0.055 A 
ATOM     45  C   UNL A   1      40.802  33.879  36.155  1.00  0.00     0.041 A 
ATOM     46  F   UNL A   1      42.197  33.327  34.354  1.00  0.00    -0.206 F 
ATOM     47  C   UNL A   1      39.749  33.559  37.007  1.00  0.00     0.022 A 
BRANCH  44  48
ATOM     48  S   UNL A   1      37.699  31.980  37.961  1.00  0.00     0.124 S 
ATOM     49  O   UNL A   1      37.425  30.575  37.667  1.00  0.00    -0.237 OA
ATOM     50  O   UNL A   1      38.247  32.245  39.288  1.00  0.00    -0.237 OA
ATOM     51  O   UNL A   1      36.682  32.919  37.496  1.00  0.00    -0.744 OA
ENDBRANCH  44  48
ENDBRANCH  27  41
BRANCH  28  52
ATOM     52  C   UNL A   1      42.626  25.667  27.308  1.00  0.00     0.023 A 
ATOM     53  C   UNL A   1      42.099  24.364  27.294  1.00  0.00     0.031 A 
ATOM     54  C   UNL A   1      43.489  26.040  26.262  1.00  0.00     0.131 A 
ATOM     55  C   UNL A   1      42.480  23.467  26.286  1.00  0.00     0.055 A 
ATOM     56  C   UNL A   1      43.813  25.167  25.223  1.00  0.00     0.041 A 
ATOM     57  F   UNL A   1      44.033  27.268  26.239  1.00  0.00    -0.206 F 
ATOM     58  C   UNL A   1      43.319  23.867  25.240  1.00  0.00     0.022 A 
BRANCH  55  59
ATOM     59  S   UNL A   1      42.002  21.719  26.363  1.00  0.00     0.124 S 
ATOM     60  O   UNL A   1      42.307  21.382  27.750  1.00  0.00    -0.237 OA
ATOM     61  O   UNL A   1      40.581  21.781  26.026  1.00  0.00    -0.237 OA
ATOM     62  O   UNL A   1      42.848  21.086  25.357  1.00  0.00    -0.744 OA
ENDBRANCH  55  59
ENDBRANCH  28  52
BRANCH  40  63
ATOM     63  C   UNL A   1      45.487  26.647  33.660  1.00  0.00     0.023 A 
ATOM     64  C   UNL A   1      45.224  25.572  34.531  1.00  0.00     0.031 A 
ATOM     65  C   UNL A   1      46.782  27.192  33.649  1.00  0.00     0.131 A 
ATOM     66  C   UNL A   1      46.230  25.102  35.383  1.00  0.00     0.055 A 
ATOM     67  C   UNL A   1      47.795  26.687  34.464  1.00  0.00     0.041 A 
ATOM     68  F   UNL A   1      47.078  28.231  32.850  1.00  0.00    -0.206 F 
ATOM     69  C   UNL A   1      47.516  25.648  35.348  1.00  0.00     0.022 A 
BRANCH  66  70
ATOM     70  S   UNL A   1      45.877  23.841  36.641  1.00  0.00     0.124 S 
ATOM     71  O   UNL A   1      47.154  23.756  37.346  1.00  0.00    -0.237 OA
ATOM     72  O   UNL A   1      44.788  24.455  37.396  1.00  0.00    -0.237 OA
ATOM     73  O   UNL A   1      45.513  22.660  35.866  1.00  0.00    -0.744 OA
ENDBRANCH  66  70
ENDBRANCH  40  63
ENDBRANCH  14  15
ENDBRANCH   7   9
ENDBRANCH   4   5
ENDBRANCH   3   4
ENDBRANCH   2   3
ENDBRANCH   1   2
BRANCH   1  74
ATOM     74  C   UNL A   1      30.005  28.407  24.184  1.00  0.00     0.021 C 
BRANCH  74  75
ATOM     75  C   UNL A   1      30.505  28.410  22.742  1.00  0.00     0.116 C 
BRANCH  75  76
ATOM     76  N   UNL A   1      31.774  29.113  22.618  1.00  0.00    -0.352 N 
ATOM     77  C   UNL A   1      33.038  28.593  22.645  1.00  0.00     0.251 C 
ATOM     78  H   UNL A   1      31.714  30.089  22.498  1.00  0.00     0.163 HD
ATOM     79  O   UNL A   1      34.037  29.305  22.693  1.00  0.00    -0.269 OA
BRANCH  77  80
ATOM     80  C   UNL A   1      33.182  27.135  22.621  1.00  0.00     0.041 A 
ATOM     81  C   UNL A   1      32.363  26.385  21.766  1.00  0.00     0.015 A 
ATOM     82  C   UNL A   1      34.082  26.526  23.504  1.00  0.00     0.040 A 
ATOM     83  C   UNL A   1      32.434  24.999  21.803  1.00  0.00     0.017 A 
ATOM     84  C   UNL A   1      34.110  25.140  23.563  1.00  0.00     0.056 A 
ATOM     85  C   UNL A   1      33.309  24.392  22.708  1.00  0.00     0.064 A 
ATOM     86  N   UNL A   1      34.910  24.477  24.489  1.00  0.00    -0.307 N 
ATOM     87  C   UNL A   1      33.423  22.936  22.770  1.00  0.00     0.264 A 
ATOM     88  C   UNL A   1      34.850  23.125  24.715  1.00  0.00     0.328 A 
ATOM     89  H   UNL A   1      35.554  25.007  25.011  1.00  0.00     0.171 HD
ATOM     90  O   UNL A   1      33.078  22.292  21.784  1.00  0.00    -0.268 OA
ATOM     91  N   UNL A   1      33.969  22.398  23.923  1.00  0.00    -0.260 N 
ATOM     92  O   UNL A   1      35.586  22.637  25.570  1.00  0.00    -0.248 OA
BRANCH  91  93
ATOM     93  C   UNL A   1      33.861  20.955  24.133  1.00  0.00     0.137 C 
BRANCH  93  94
ATOM     94  C   UNL A   1      32.662  20.499  24.975  1.00  0.00     0.083 C 
BRANCH  94  95
ATOM     95  C   UNL A   1      32.713  19.141  25.705  1.00  0.00     0.264 C 
BRANCH  95  96
ATOM     96  N   UNL A   1      32.401  17.886  25.028  1.00  0.00    -0.331 N 
ATOM     97  C   UNL A   1      32.700  16.622  25.689  1.00  0.00     0.291 C 
ATOM     98  C   UNL A   1      32.617  17.810  23.582  1.00  0.00     0.291 C 
ATOM     99  H   UNL A   1      31.395  17.993  25.153  1.00  0.00     0.348 HD
ATOM    100  C   UNL A   1      34.025  15.987  25.239  1.00  0.00     0.221 C 
ATOM    101  C   UNL A   1      33.939  17.144  23.174  1.00  0.00     0.221 C 
ATOM    102  O   UNL A   1      34.112  15.870  23.813  1.00  0.00    -0.370 OA
ENDBRANCH  95  96
ENDBRANCH  94  95
ENDBRANCH  93  94
ENDBRANCH  91  93
ENDBRANCH  77  80
ENDBRANCH  75  76
ENDBRANCH  74  75
ENDBRANCH   1  74
TORSDOF 20
ENDMDL
MODEL 2
REMARK VINA RESULT:     -11.9      1.275      2.099
REMARK SMILES O=C(NCCCCCCNC(=O)c1ccc2c(=O)n(CCC[NH+]3CCOCC3)c(=O)[nH]c2c1)c1ccc(-c2c3nc(c(-c4cc(S(=O)(=O)[O-])ccc4F)c4ccc([nH]4)c(-c4cc(S(=O)(=O)[O-])ccc4F)c4nc(c(-c5cc(S(=O)(=O)[O-])ccc5F)c5ccc2[nH]5)C=C4)C=C3)cc1
REMARK SMILES IDX 7 1 6 2 5 3 4 4 3 5 1 6 2 7 34 9 35 10 96 11 36 12 95 13
REMARK SMILES IDX 37 14 38 15 39 16 89 17 40 18 94 19 88 20 90 21 41 22 93 23
REMARK SMILES IDX 87 24 86 25 42 27 74 28 54 29 73 30 55 31 58 32 72 33 91 34
REMARK SMILES IDX 56 35 57 36 71 38 92 39 59 40 43 41 44 42 52 43 45 44 51 45
REMARK SMILES IDX 53 46 50 47 46 48 47 49 48 50 49 51 75 52 76 53 84 54 77 55
REMARK SMILES IDX 83 56 85 57 82 58 78 59 79 60 80 61 81 62 60 63 61 64 69 65
REMARK SMILES IDX 62 66 68 67 70 68 67 69 63 70 64 71 65 72 66 73 8 74 9 75
REMARK SMILES IDX 10 76 11 77 12 79 13 80 14 81 33 82 15 83 32 84 16 85 31 86
REMARK SMILES IDX 17 87 29 88 18 90 19 91 30 92 20 93 21 94 22 95 23 96 24 97
REMARK SMILES IDX 28 98 25 100 27 101 26 102
REMARK H PARENT 3 8 90 26 58 37 10 78 31 89 23 99
REMARK Flexibility Score: inf
ROOT
ATOM      1  C   UNL A   1      32.970  28.808  22.770  1.00  0.00     0.002 C 
ENDROOT
BRANCH   1   2
ATOM      2  C   UNL A   1      33.429  28.261  24.125  1.00  0.00     0.002 C 
BRANCH   2   3
ATOM      3  C   UNL A   1      33.987  29.306  25.094  1.00  0.00     0.021 C 
BRANCH   3   4
ATOM      4  C   UNL A   1      33.184  29.485  26.375  1.00  0.00     0.116 C 
BRANCH   4   5
ATOM      5  N   UNL A   1      33.046  30.882  26.743  1.00  0.00    -0.352 N 
ATOM      6  O   UNL A   1      33.432  32.766  27.899  1.00  0.00    -0.269 OA
ATOM      7  C   UNL A   1      33.829  31.653  27.562  1.00  0.00     0.251 C 
ATOM      8  H   UNL A   1      32.274  31.346  26.345  1.00  0.00     0.163 HD
BRANCH   7   9
ATOM      9  C   UNL A   1      35.139  31.155  28.039  1.00  0.00     0.039 A 
ATOM     10  C   UNL A   1      35.222  29.847  28.523  1.00  0.00     0.014 A 
ATOM     11  C   UNL A   1      36.265  31.985  28.077  1.00  0.00     0.014 A 
ATOM     12  C   UNL A   1      36.428  29.373  29.042  1.00  0.00     0.010 A 
ATOM     13  C   UNL A   1      37.488  31.483  28.515  1.00  0.00     0.010 A 
ATOM     14  C   UNL A   1      37.572  30.189  29.045  1.00  0.00    -0.014 A 
BRANCH  14  15
ATOM     15  C   UNL A   1      38.830  29.732  29.688  1.00  0.00     0.031 A 
ATOM     16  C   UNL A   1      39.204  30.260  31.049  1.00  0.00     0.074 A 
ATOM     17  C   UNL A   1      39.633  28.855  29.055  1.00  0.00     0.049 A 
ATOM     18  N   UNL A   1      40.245  29.976  31.786  1.00  0.00    -0.248 NA
ATOM     19  C   UNL A   1      38.302  31.257  31.653  1.00  0.00     0.031 C 
ATOM     20  C   UNL A   1      39.390  28.306  27.721  1.00  0.00     0.029 A 
ATOM     21  N   UNL A   1      40.806  28.262  29.452  1.00  0.00    -0.354 N 
ATOM     22  C   UNL A   1      40.133  30.766  32.925  1.00  0.00     0.074 A 
ATOM     23  C   UNL A   1      38.958  31.589  32.755  1.00  0.00     0.031 C 
ATOM     24  C   UNL A   1      40.356  27.420  27.430  1.00  0.00     0.029 A 
ATOM     25  C   UNL A   1      41.305  27.360  28.540  1.00  0.00     0.049 A 
ATOM     26  H   UNL A   1      41.248  28.463  30.309  1.00  0.00     0.167 HD
ATOM     27  C   UNL A   1      40.915  30.778  34.028  1.00  0.00     0.034 A 
ATOM     28  C   UNL A   1      42.391  26.561  28.602  1.00  0.00     0.034 A 
ATOM     29  C   UNL A   1      42.053  29.914  34.206  1.00  0.00     0.049 A 
ATOM     30  C   UNL A   1      43.231  26.571  29.857  1.00  0.00     0.074 A 
ATOM     31  C   UNL A   1      42.883  29.812  35.306  1.00  0.00     0.029 A 
ATOM     32  N   UNL A   1      42.507  28.994  33.273  1.00  0.00    -0.354 N 
ATOM     33  N   UNL A   1      43.064  27.266  30.958  1.00  0.00    -0.248 NA
ATOM     34  C   UNL A   1      44.394  25.672  29.893  1.00  0.00     0.031 C 
ATOM     35  C   UNL A   1      43.870  28.869  35.021  1.00  0.00     0.029 A 
ATOM     36  C   UNL A   1      43.612  28.327  33.771  1.00  0.00     0.049 A 
ATOM     37  H   UNL A   1      42.103  28.838  32.389  1.00  0.00     0.167 HD
ATOM     38  C   UNL A   1      44.067  26.853  31.831  1.00  0.00     0.074 A 
ATOM     39  C   UNL A   1      44.829  25.838  31.135  1.00  0.00     0.031 C 
ATOM     40  C   UNL A   1      44.334  27.279  33.092  1.00  0.00     0.034 A 
BRANCH  27  41
ATOM     41  C   UNL A   1      40.567  31.716  35.157  1.00  0.00     0.023 A 
ATOM     42  C   UNL A   1      39.531  31.387  36.049  1.00  0.00     0.031 A 
ATOM     43  C   UNL A   1      41.163  32.985  35.267  1.00  0.00     0.131 A 
ATOM     44  C   UNL A   1      39.093  32.332  36.986  1.00  0.00     0.055 A 
ATOM     45  C   UNL A   1      40.756  33.906  36.234  1.00  0.00     0.041 A 
ATOM     46  F   UNL A   1      42.157  33.347  34.440  1.00  0.00    -0.206 F 
ATOM     47  C   UNL A   1      39.706  33.585  37.089  1.00  0.00     0.022 A 
BRANCH  44  48
ATOM     48  S   UNL A   1      37.672  31.997  38.061  1.00  0.00     0.124 S 
ATOM     49  O   UNL A   1      36.685  32.952  37.561  1.00  0.00    -0.237 OA
ATOM     50  O   UNL A   1      37.390  30.596  37.764  1.00  0.00    -0.237 OA
ATOM     51  O   UNL A   1      38.174  32.272  39.404  1.00  0.00    -0.744 OA
ENDBRANCH  44  48
ENDBRANCH  27  41
BRANCH  28  52
ATOM     52  C   UNL A   1      42.672  25.613  27.483  1.00  0.00     0.023 A 
ATOM     53  C   UNL A   1      42.133  24.314  27.468  1.00  0.00     0.031 A 
ATOM     54  C   UNL A   1      43.556  25.971  26.450  1.00  0.00     0.131 A 
ATOM     55  C   UNL A   1      42.522  23.408  26.472  1.00  0.00     0.055 A 
ATOM     56  C   UNL A   1      43.889  25.088  25.421  1.00  0.00     0.041 A 
ATOM     57  F   UNL A   1      44.112  27.193  26.429  1.00  0.00    -0.206 F 
ATOM     58  C   UNL A   1      43.382  23.793  25.438  1.00  0.00     0.022 A 
BRANCH  55  59
ATOM     59  S   UNL A   1      42.026  21.665  26.552  1.00  0.00     0.124 S 
ATOM     60  O   UNL A   1      40.998  21.593  25.519  1.00  0.00    -0.237 OA
ATOM     61  O   UNL A   1      43.281  20.981  26.243  1.00  0.00    -0.237 OA
ATOM     62  O   UNL A   1      41.556  21.504  27.924  1.00  0.00    -0.744 OA
ENDBRANCH  55  59
ENDBRANCH  28  52
BRANCH  40  63
ATOM     63  C   UNL A   1      45.464  26.635  33.859  1.00  0.00     0.023 A 
ATOM     64  C   UNL A   1      45.189  25.564  34.732  1.00  0.00     0.031 A 
ATOM     65  C   UNL A   1      46.760  27.178  33.860  1.00  0.00     0.131 A 
ATOM     66  C   UNL A   1      46.183  25.098  35.599  1.00  0.00     0.055 A 
ATOM     67  C   UNL A   1      47.762  26.676  34.692  1.00  0.00     0.041 A 
ATOM     68  F   UNL A   1      47.067  28.211  33.060  1.00  0.00    -0.206 F 
ATOM     69  C   UNL A   1      47.471  25.643  35.578  1.00  0.00     0.022 A 
BRANCH  66  70
ATOM     70  S   UNL A   1      45.814  23.845  36.861  1.00  0.00     0.124 S 
ATOM     71  O   UNL A   1      45.148  22.812  36.072  1.00  0.00    -0.237 OA
ATOM     72  O   UNL A   1      47.145  23.496  37.349  1.00  0.00    -0.237 OA
ATOM     73  O   UNL A   1      44.962  24.546  37.816  1.00  0.00    -0.744 OA
ENDBRANCH  66  70
ENDBRANCH  40  63
ENDBRANCH  14  15
ENDBRANCH   7   9
ENDBRANCH   4   5
ENDBRANCH   3   4
ENDBRANCH   2   3
ENDBRANCH   1   2
BRANCH   1  74
ATOM     74  C   UNL A   1      31.452  28.850  22.566  1.00  0.00     0.021 C 
BRANCH  74  75
ATOM     75  C   UNL A   1      30.646  29.038  23.848  1.00  0.00     0.116 C 
BRANCH  75  76
ATOM     76  N   UNL A   1      29.414  28.263  23.824  1.00  0.00    -0.352 N 
ATOM     77  C   UNL A   1      29.255  26.918  24.007  1.00  0.00     0.251 C 
ATOM     78  H   UNL A   1      28.589  28.773  23.655  1.00  0.00     0.163 HD
ATOM     79  O   UNL A   1      28.185  26.352  23.803  1.00  0.00    -0.269 OA
BRANCH  77  80
ATOM     80  C   UNL A   1      30.416  26.143  24.458  1.00  0.00     0.041 A 
ATOM     81  C   UNL A   1      30.800  26.215  25.803  1.00  0.00     0.015 A 
ATOM     82  C   UNL A   1      31.150  25.411  23.517  1.00  0.00     0.040 A 
ATOM     83  C   UNL A   1      31.949  25.554  26.216  1.00  0.00     0.017 A 
ATOM     84  C   UNL A   1      32.322  24.793  23.934  1.00  0.00     0.056 A 
ATOM     85  C   UNL A   1      32.700  24.851  25.270  1.00  0.00     0.064 A 
ATOM     86  N   UNL A   1      33.148  24.135  23.027  1.00  0.00    -0.307 N 
ATOM     87  C   UNL A   1      33.909  24.131  25.665  1.00  0.00     0.264 A 
ATOM     88  C   UNL A   1      34.395  23.660  23.343  1.00  0.00     0.328 A 
ATOM     89  H   UNL A   1      32.818  24.004  22.109  1.00  0.00     0.171 HD
ATOM     90  O   UNL A   1      34.025  23.811  26.845  1.00  0.00    -0.268 OA
ATOM     91  N   UNL A   1      34.807  23.815  24.661  1.00  0.00    -0.260 N 
ATOM     92  O   UNL A   1      35.056  23.110  22.464  1.00  0.00    -0.248 OA
BRANCH  91  93
ATOM     93  C   UNL A   1      36.134  23.334  25.044  1.00  0.00     0.137 C 
BRANCH  93  94
ATOM     94  C   UNL A   1      36.160  21.977  25.763  1.00  0.00     0.083 C 
BRANCH  94  95
ATOM     95  C   UNL A   1      35.749  20.701  25.000  1.00  0.00     0.264 C 
BRANCH  95  96
ATOM     96  N   UNL A   1      34.632  19.867  25.432  1.00  0.00    -0.331 N 
ATOM     97  C   UNL A   1      34.203  18.754  24.595  1.00  0.00     0.291 C 
ATOM     98  C   UNL A   1      33.500  20.519  26.094  1.00  0.00     0.291 C 
ATOM     99  H   UNL A   1      35.168  19.420  26.175  1.00  0.00     0.348 HD
ATOM    100  C   UNL A   1      32.998  19.080  23.700  1.00  0.00     0.221 C 
ATOM    101  C   UNL A   1      32.305  20.803  25.171  1.00  0.00     0.221 C 
ATOM    102  O   UNL A   1      31.903  19.631  24.445  1.00  0.00    -0.370 OA
ENDBRANCH  95  96
ENDBRANCH  94  95
ENDBRANCH  93  94
ENDBRANCH  91  93
ENDBRANCH  77  80
ENDBRANCH  75  76
ENDBRANCH  74  75
ENDBRANCH   1  74
TORSDOF 20
ENDMDL
MODEL 3
REMARK VINA RESULT:     -11.7      1.922      2.202
REMARK SMILES O=C(NCCCCCCNC(=O)c1ccc2c(=O)n(CCC[NH+]3CCOCC3)c(=O)[nH]c2c1)c1ccc(-c2c3nc(c(-c4cc(S(=O)(=O)[O-])ccc4F)c4ccc([nH]4)c(-c4cc(S(=O)(=O)[O-])ccc4F)c4nc(c(-c5cc(S(=O)(=O)[O-])ccc5F)c5ccc2[nH]5)C=C4)C=C3)cc1
REMARK SMILES IDX 7 1 6 2 5 3 4 4 3 5 1 6 2 7 34 9 35 10 96 11 36 12 95 13
REMARK SMILES IDX 37 14 38 15 39 16 89 17 40 18 94 19 88 20 90 21 41 22 93 23
REMARK SMILES IDX 87 24 86 25 42 27 74 28 54 29 73 30 55 31 58 32 72 33 91 34
REMARK SMILES IDX 56 35 57 36 71 38 92 39 59 40 43 41 44 42 52 43 45 44 51 45
REMARK SMILES IDX 53 46 50 47 46 48 47 49 48 50 49 51 75 52 76 53 84 54 77 55
REMARK SMILES IDX 83 56 85 57 82 58 78 59 79 60 80 61 81 62 60 63 61 64 69 65
REMARK SMILES IDX 62 66 68 67 70 68 67 69 63 70 64 71 65 72 66 73 8 74 9 75
REMARK SMILES IDX 10 76 11 77 12 79 13 80 14 81 33 82 15 83 32 84 16 85 31 86
REMARK SMILES IDX 17 87 29 88 18 90 19 91 30 92 20 93 21 94 22 95 23 96 24 97
REMARK SMILES IDX 28 98 25 100 27 101 26 102
REMARK H PARENT 3 8 90 26 58 37 10 78 31 89 23 99
REMARK Flexibility Score: inf
ROOT
ATOM      1  C   UNL A   1      30.364  27.833  24.722  1.00  0.00     0.002 C 
ENDROOT
BRANCH   1   2
ATOM      2  C   UNL A   1      31.397  27.673  25.840  1.00  0.00     0.002 C 
BRANCH   2   3
ATOM      3  C   UNL A   1      31.669  28.934  26.663  1.00  0.00     0.021 C 
BRANCH   3   4
ATOM      4  C   UNL A   1      32.798  29.811  26.137  1.00  0.00     0.116 C 
BRANCH   4   5
ATOM      5  N   UNL A   1      32.600  31.211  26.464  1.00  0.00    -0.352 N 
ATOM      6  O   UNL A   1      32.851  33.124  27.609  1.00  0.00    -0.269 OA
ATOM      7  C   UNL A   1      33.298  32.014  27.328  1.00  0.00     0.251 C 
ATOM      8  H   UNL A   1      31.853  31.649  25.996  1.00  0.00     0.163 HD
BRANCH   7   9
ATOM      9  C   UNL A   1      34.575  31.556  27.918  1.00  0.00     0.039 A 
ATOM     10  C   UNL A   1      34.666  30.240  28.381  1.00  0.00     0.014 A 
ATOM     11  C   UNL A   1      35.657  32.428  28.083  1.00  0.00     0.014 A 
ATOM     12  C   UNL A   1      35.835  29.801  29.003  1.00  0.00     0.010 A 
ATOM     13  C   UNL A   1      36.853  31.963  28.626  1.00  0.00     0.010 A 
ATOM     14  C   UNL A   1      36.938  30.660  29.134  1.00  0.00    -0.014 A 
BRANCH  14  15
ATOM     15  C   UNL A   1      38.147  30.237  29.886  1.00  0.00     0.031 A 
ATOM     16  C   UNL A   1      38.354  30.724  31.297  1.00  0.00     0.074 A 
ATOM     17  C   UNL A   1      39.053  29.425  29.307  1.00  0.00     0.049 A 
ATOM     18  N   UNL A   1      39.329  30.459  32.125  1.00  0.00    -0.248 NA
ATOM     19  C   UNL A   1      37.346  31.651  31.841  1.00  0.00     0.031 C 
ATOM     20  C   UNL A   1      38.975  28.922  27.936  1.00  0.00     0.029 A 
ATOM     21  N   UNL A   1      40.209  28.872  29.800  1.00  0.00    -0.354 N 
ATOM     22  C   UNL A   1      39.061  31.194  33.276  1.00  0.00     0.074 A 
ATOM     23  C   UNL A   1      37.869  31.967  33.016  1.00  0.00     0.031 C 
ATOM     24  C   UNL A   1      40.010  28.096  27.713  1.00  0.00     0.029 A 
ATOM     25  C   UNL A   1      40.844  28.034  28.911  1.00  0.00     0.049 A 
ATOM     26  H   UNL A   1      40.551  29.057  30.705  1.00  0.00     0.167 HD
ATOM     27  C   UNL A   1      39.727  31.196  34.453  1.00  0.00     0.034 A 
ATOM     28  C   UNL A   1      41.957  27.285  29.056  1.00  0.00     0.034 A 
ATOM     29  C   UNL A   1      40.884  30.381  34.715  1.00  0.00     0.049 A 
ATOM     30  C   UNL A   1      42.664  27.281  30.390  1.00  0.00     0.074 A 
ATOM     31  C   UNL A   1      41.603  30.271  35.890  1.00  0.00     0.029 A 
ATOM     32  N   UNL A   1      41.476  29.523  33.801  1.00  0.00    -0.354 N 
ATOM     33  N   UNL A   1      42.351  27.921  31.493  1.00  0.00    -0.248 NA
ATOM     34  C   UNL A   1      43.862  26.438  30.512  1.00  0.00     0.031 C 
ATOM     35  C   UNL A   1      42.660  29.388  35.674  1.00  0.00     0.029 A 
ATOM     36  C   UNL A   1      42.558  28.888  34.385  1.00  0.00     0.049 A 
ATOM     37  H   UNL A   1      41.172  29.385  32.874  1.00  0.00     0.167 HD
ATOM     38  C   UNL A   1      43.282  27.520  32.448  1.00  0.00     0.074 A 
ATOM     39  C   UNL A   1      44.160  26.572  31.797  1.00  0.00     0.031 C 
ATOM     40  C   UNL A   1      43.397  27.905  33.744  1.00  0.00     0.034 A 
BRANCH  27  41
ATOM     41  C   UNL A   1      39.219  32.069  35.574  1.00  0.00     0.023 A 
ATOM     42  C   UNL A   1      39.675  33.394  35.694  1.00  0.00     0.031 A 
ATOM     43  C   UNL A   1      38.398  31.553  36.592  1.00  0.00     0.131 A 
ATOM     44  C   UNL A   1      39.339  34.145  36.827  1.00  0.00     0.055 A 
ATOM     45  C   UNL A   1      38.027  32.321  37.696  1.00  0.00     0.041 A 
ATOM     46  F   UNL A   1      37.936  30.293  36.524  1.00  0.00    -0.206 F 
ATOM     47  C   UNL A   1      38.511  33.619  37.824  1.00  0.00     0.022 A 
BRANCH  44  48
ATOM     48  S   UNL A   1      40.017  35.808  37.083  1.00  0.00     0.124 S 
ATOM     49  O   UNL A   1      39.315  36.236  38.292  1.00  0.00    -0.237 OA
ATOM     50  O   UNL A   1      41.441  35.533  37.253  1.00  0.00    -0.237 OA
ATOM     51  O   UNL A   1      39.651  36.528  35.868  1.00  0.00    -0.744 OA
ENDBRANCH  44  48
ENDBRANCH  27  41
BRANCH  28  52
ATOM     52  C   UNL A   1      42.397  26.399  27.937  1.00  0.00     0.023 A 
ATOM     53  C   UNL A   1      41.917  25.084  27.809  1.00  0.00     0.031 A 
ATOM     54  C   UNL A   1      43.374  26.835  27.024  1.00  0.00     0.131 A 
ATOM     55  C   UNL A   1      42.450  24.238  26.826  1.00  0.00     0.055 A 
ATOM     56  C   UNL A   1      43.854  26.012  26.004  1.00  0.00     0.041 A 
ATOM     57  F   UNL A   1      43.878  28.076  27.115  1.00  0.00    -0.206 F 
ATOM     58  C   UNL A   1      43.401  24.700  25.911  1.00  0.00     0.022 A 
BRANCH  55  59
ATOM     59  S   UNL A   1      42.019  22.476  26.780  1.00  0.00     0.124 S 
ATOM     60  O   UNL A   1      42.996  21.900  27.698  1.00  0.00    -0.237 OA
ATOM     61  O   UNL A   1      40.638  22.492  27.257  1.00  0.00    -0.237 OA
ATOM     62  O   UNL A   1      42.183  22.119  25.374  1.00  0.00    -0.744 OA
ENDBRANCH  55  59
ENDBRANCH  28  52
BRANCH  40  63
ATOM     63  C   UNL A   1      44.476  27.283  34.600  1.00  0.00     0.023 A 
ATOM     64  C   UNL A   1      45.750  27.881  34.655  1.00  0.00     0.031 A 
ATOM     65  C   UNL A   1      44.303  26.029  35.211  1.00  0.00     0.131 A 
ATOM     66  C   UNL A   1      46.811  27.208  35.271  1.00  0.00     0.055 A 
ATOM     67  C   UNL A   1      45.352  25.385  35.868  1.00  0.00     0.041 A 
ATOM     68  F   UNL A   1      43.113  25.409  35.170  1.00  0.00    -0.206 F 
ATOM     69  C   UNL A   1      46.617  25.967  35.885  1.00  0.00     0.022 A 
BRANCH  66  70
ATOM     70  S   UNL A   1      48.502  27.866  35.203  1.00  0.00     0.124 S 
ATOM     71  O   UNL A   1      49.097  27.289  36.406  1.00  0.00    -0.237 OA
ATOM     72  O   UNL A   1      48.994  27.321  33.941  1.00  0.00    -0.237 OA
ATOM     73  O   UNL A   1      48.319  29.313  35.231  1.00  0.00    -0.744 OA
ENDBRANCH  66  70
ENDBRANCH  40  63
ENDBRANCH  14  15
ENDBRANCH   7   9
ENDBRANCH   4   5
ENDBRANCH   3   4
ENDBRANCH   2   3
ENDBRANCH   1   2
BRANCH   1  74
ATOM     74  C   UNL A   1      30.555  29.065  23.832  1.00  0.00     0.021 C 
BRANCH  74  75
ATOM     75  C   UNL A   1      31.114  28.764  22.444  1.00  0.00     0.116 C 
BRANCH  75  76
ATOM     76  N   UNL A   1      32.504  29.178  22.325  1.00  0.00    -0.352 N 
ATOM     77  C   UNL A   1      33.631  28.446  22.576  1.00  0.00     0.251 C 
ATOM     78  H   UNL A   1      32.653  30.104  22.025  1.00  0.00     0.163 HD
ATOM     79  O   UNL A   1      34.749  28.953  22.596  1.00  0.00    -0.269 OA
BRANCH  77  80
ATOM     80  C   UNL A   1      33.476  27.010  22.830  1.00  0.00     0.041 A 
ATOM     81  C   UNL A   1      32.984  26.188  21.807  1.00  0.00     0.015 A 
ATOM     82  C   UNL A   1      33.754  26.514  24.109  1.00  0.00     0.040 A 
ATOM     83  C   UNL A   1      32.752  24.845  22.071  1.00  0.00     0.017 A 
ATOM     84  C   UNL A   1      33.474  25.179  24.371  1.00  0.00     0.056 A 
ATOM     85  C   UNL A   1      32.999  24.356  23.357  1.00  0.00     0.064 A 
ATOM     86  N   UNL A   1      33.635  24.650  25.649  1.00  0.00    -0.307 N 
ATOM     87  C   UNL A   1      32.780  22.946  23.672  1.00  0.00     0.264 A 
ATOM     88  C   UNL A   1      33.213  23.396  26.010  1.00  0.00     0.328 A 
ATOM     89  H   UNL A   1      34.076  25.207  26.331  1.00  0.00     0.171 HD
ATOM     90  O   UNL A   1      32.782  22.145  22.743  1.00  0.00    -0.268 OA
ATOM     91  N   UNL A   1      32.643  22.617  25.010  1.00  0.00    -0.260 N 
ATOM     92  O   UNL A   1      33.383  23.028  27.170  1.00  0.00    -0.248 OA
BRANCH  91  93
ATOM     93  C   UNL A   1      32.168  21.276  25.348  1.00  0.00     0.137 C 
BRANCH  93  94
ATOM     94  C   UNL A   1      33.259  20.271  25.744  1.00  0.00     0.083 C 
BRANCH  94  95
ATOM     95  C   UNL A   1      33.864  19.339  24.673  1.00  0.00     0.264 C 
BRANCH  95  96
ATOM     96  N   UNL A   1      33.134  18.193  24.143  1.00  0.00    -0.331 N 
ATOM     97  C   UNL A   1      32.214  17.465  25.008  1.00  0.00     0.291 C 
ATOM     98  C   UNL A   1      33.831  17.300  23.215  1.00  0.00     0.291 C 
ATOM     99  H   UNL A   1      32.520  18.768  23.566  1.00  0.00     0.348 HD
ATOM    100  C   UNL A   1      32.819  16.194  25.624  1.00  0.00     0.221 C 
ATOM    101  C   UNL A   1      34.395  16.028  23.864  1.00  0.00     0.221 C 
ATOM    102  O   UNL A   1      33.400  15.336  24.633  1.00  0.00    -0.370 OA
ENDBRANCH  95  96
ENDBRANCH  94  95
ENDBRANCH  93  94
ENDBRANCH  91  93
ENDBRANCH  77  80
ENDBRANCH  75  76
ENDBRANCH  74  75
ENDBRANCH   1  74
TORSDOF 20
ENDMDL
