MODEL 1
REMARK VINA RESULT:      -9.6      0.000      0.000
REMARK SMILES NS(=O)(=O)c1ccc(-n2nc(C(=O)NCCCCCCNC(=O)c3ccc(-c4c5nc(c(-c6cc(S(=O)(=O)[O-])ccc6F)c6ccc([nH]6)c(-c6cc(S(=O)(=O)[O-])ccc6F)c6nc(c(-c7cc(S(=O)(=O)[O-])ccc7F)c7ccc4[nH]7)C=C6)C=C5)cc3)c(Cl)c2-c2ccc(Cl)cc2)cc1
REMARK SMILES IDX 17 1 16 2 15 3 14 4 12 5 13 6 11 8 9 9 10 10 89 11 87 12
REMARK SMILES IDX 88 13 8 14 5 15 6 16 98 17 7 18 97 19 2 20 3 21 4 22 1 23
REMARK SMILES IDX 90 26 91 27 96 28 92 29 95 30 93 31 94 32 18 33 19 34 20 35
REMARK SMILES IDX 21 36 22 37 23 39 24 40 25 41 86 42 26 43 85 44 27 45 28 46
REMARK SMILES IDX 29 47 79 48 30 49 84 50 78 51 80 52 31 53 83 54 77 55 76 56
REMARK SMILES IDX 32 58 64 59 44 60 63 61 45 62 48 63 62 64 81 65 46 66 47 67
REMARK SMILES IDX 61 69 82 70 49 71 33 72 34 73 42 74 35 75 41 76 43 77 40 78
REMARK SMILES IDX 36 79 37 80 38 81 39 82 65 83 66 84 74 85 67 86 73 87 75 88
REMARK SMILES IDX 72 89 68 90 69 91 70 92 71 93 50 94 51 95 59 96 52 97 58 98
REMARK SMILES IDX 60 99 57 100 53 101 54 102 55 103 56 104
REMARK H PARENT 14 7 1 24 1 25 21 38 80 57 48 68
REMARK Flexibility Score: inf
ROOT
ATOM      1  C   UNL A   1      47.941  29.678  28.472  1.00  0.00     0.002 C 
ENDROOT
BRANCH   1   2
ATOM      2  C   UNL A   1      47.530  28.302  27.951  1.00  0.00     0.021 C 
BRANCH   2   3
ATOM      3  C   UNL A   1      48.480  27.826  26.846  1.00  0.00     0.116 C 
BRANCH   3   4
ATOM      4  N   UNL A   1      48.050  28.277  25.553  1.00  0.00    -0.351 N 
ATOM      5  C   UNL A   1      46.940  27.912  24.812  1.00  0.00     0.273 C 
ATOM      6  O   UNL A   1      46.756  28.601  23.802  1.00  0.00    -0.267 OA
ATOM      7  H   UNL A   1      48.634  28.947  25.129  1.00  0.00     0.163 HD
BRANCH   5   8
ATOM      8  C   UNL A   1      45.977  26.836  25.230  1.00  0.00     0.169 A 
ATOM      9  N   UNL A   1      45.129  24.825  25.267  1.00  0.00    -0.231 N 
ATOM     10  N   UNL A   1      46.241  25.528  24.911  1.00  0.00    -0.160 NA
ATOM     11  C   UNL A   1      44.140  25.660  25.720  1.00  0.00     0.094 A 
ATOM     12  C   UNL A   1      44.760  26.861  25.968  1.00  0.00     0.100 A 
ATOM     13  Cl  UNL A   1      44.006  27.977  27.030  1.00  0.00    -0.079 Cl
BRANCH   9  14
ATOM     14  C   UNL A   1      44.974  23.416  25.095  1.00  0.00     0.065 A 
ATOM     15  C   UNL A   1      45.208  20.652  24.617  1.00  0.00     0.082 A 
ATOM     16  C   UNL A   1      44.616  21.479  23.654  1.00  0.00     0.024 A 
ATOM     17  C   UNL A   1      45.654  21.197  25.824  1.00  0.00     0.024 A 
ATOM     18  C   UNL A   1      44.497  22.870  23.891  1.00  0.00     0.030 A 
ATOM     19  C   UNL A   1      45.556  22.572  26.051  1.00  0.00     0.030 A 
BRANCH  15  20
ATOM     20  S   UNL A   1      45.402  18.895  24.431  1.00  0.00     0.238 S 
ATOM     21  O   UNL A   1      46.001  18.619  23.184  1.00  0.00    -0.207 OA
ATOM     22  O   UNL A   1      44.131  18.267  24.846  1.00  0.00    -0.207 OA
BRANCH  20  23
ATOM     23  N   UNL A   1      46.530  18.427  25.586  1.00  0.00    -0.225 NA
ATOM     24  H   UNL A   1      47.372  18.995  25.489  1.00  0.00     0.137 HD
ATOM     25  H   UNL A   1      46.766  17.443  25.453  1.00  0.00     0.137 HD
ENDBRANCH  20  23
ENDBRANCH  15  20
ENDBRANCH   9  14
BRANCH  11  26
ATOM     26  C   UNL A   1      42.813  25.322  26.203  1.00  0.00     0.002 A 
ATOM     27  C   UNL A   1      41.733  26.071  25.709  1.00  0.00     0.012 A 
ATOM     28  C   UNL A   1      42.694  24.601  27.395  1.00  0.00     0.012 A 
ATOM     29  C   UNL A   1      40.556  26.148  26.444  1.00  0.00     0.021 A 
ATOM     30  C   UNL A   1      41.501  24.654  28.108  1.00  0.00     0.021 A 
ATOM     31  C   UNL A   1      40.442  25.429  27.634  1.00  0.00     0.041 A 
ATOM     32  Cl  UNL A   1      38.988  25.535  28.544  1.00  0.00    -0.084 Cl
ENDBRANCH  11  26
ENDBRANCH   5   8
ENDBRANCH   3   4
ENDBRANCH   2   3
ENDBRANCH   1   2
BRANCH   1  33
ATOM     33  C   UNL A   1      46.917  30.770  28.111  1.00  0.00     0.002 C 
BRANCH  33  34
ATOM     34  C   UNL A   1      47.325  31.651  26.927  1.00  0.00     0.021 C 
BRANCH  34  35
ATOM     35  C   UNL A   1      46.113  32.221  26.239  1.00  0.00     0.116 C 
BRANCH  35  36
ATOM     36  N   UNL A   1      46.227  33.656  25.993  1.00  0.00    -0.352 N 
ATOM     37  C   UNL A   1      45.509  34.650  26.644  1.00  0.00     0.251 C 
ATOM     38  H   UNL A   1      46.868  33.943  25.304  1.00  0.00     0.163 HD
ATOM     39  O   UNL A   1      45.377  35.758  26.142  1.00  0.00    -0.269 OA
BRANCH  37  40
ATOM     40  C   UNL A   1      45.065  34.336  28.031  1.00  0.00     0.039 A 
ATOM     41  C   UNL A   1      45.747  34.496  29.230  1.00  0.00     0.014 A 
ATOM     42  C   UNL A   1      43.913  33.576  28.119  1.00  0.00     0.014 A 
ATOM     43  C   UNL A   1      45.267  33.697  30.355  1.00  0.00     0.010 A 
ATOM     44  C   UNL A   1      43.277  33.452  29.308  1.00  0.00     0.010 A 
ATOM     45  C   UNL A   1      44.072  32.860  30.244  1.00  0.00    -0.014 A 
BRANCH  45  46
ATOM     46  C   UNL A   1      43.136  32.161  31.329  1.00  0.00     0.031 A 
ATOM     47  C   UNL A   1      43.973  30.717  31.330  1.00  0.00     0.074 A 
ATOM     48  C   UNL A   1      41.994  32.660  32.161  1.00  0.00     0.049 A 
ATOM     49  N   UNL A   1      43.733  29.771  30.456  1.00  0.00    -0.248 NA
ATOM     50  C   UNL A   1      45.431  30.454  31.775  1.00  0.00     0.031 C 
ATOM     51  C   UNL A   1      41.162  33.983  32.367  1.00  0.00     0.029 A 
ATOM     52  N   UNL A   1      41.176  31.975  33.131  1.00  0.00    -0.354 N 
ATOM     53  C   UNL A   1      44.499  28.676  30.867  1.00  0.00     0.074 A 
ATOM     54  C   UNL A   1      45.705  29.204  31.365  1.00  0.00     0.031 C 
ATOM     55  C   UNL A   1      40.428  34.024  33.553  1.00  0.00     0.029 A 
ATOM     56  C   UNL A   1      40.462  32.728  34.200  1.00  0.00     0.049 A 
ATOM     57  H   UNL A   1      41.089  30.995  33.087  1.00  0.00     0.167 HD
ATOM     58  C   UNL A   1      43.842  27.566  31.287  1.00  0.00     0.034 A 
ATOM     59  C   UNL A   1      39.736  32.258  35.337  1.00  0.00     0.034 A 
ATOM     60  C   UNL A   1      42.486  27.667  30.796  1.00  0.00     0.049 A 
ATOM     61  C   UNL A   1      39.622  30.790  35.096  1.00  0.00     0.074 A 
ATOM     62  C   UNL A   1      41.924  27.893  29.552  1.00  0.00     0.029 A 
ATOM     63  N   UNL A   1      41.650  28.225  31.717  1.00  0.00    -0.354 N 
ATOM     64  N   UNL A   1      38.871  30.326  34.129  1.00  0.00    -0.248 NA
ATOM     65  C   UNL A   1      40.889  30.104  35.372  1.00  0.00     0.031 C 
ATOM     66  C   UNL A   1      40.859  28.822  29.763  1.00  0.00     0.029 A 
ATOM     67  C   UNL A   1      40.672  28.973  31.132  1.00  0.00     0.049 A 
ATOM     68  H   UNL A   1      41.742  28.102  32.690  1.00  0.00     0.167 HD
ATOM     69  C   UNL A   1      39.772  29.659  33.320  1.00  0.00     0.074 A 
ATOM     70  C   UNL A   1      41.018  29.557  34.154  1.00  0.00     0.031 C 
ATOM     71  C   UNL A   1      39.676  29.642  31.941  1.00  0.00     0.034 A 
BRANCH  58  72
ATOM     72  C   UNL A   1      44.192  26.789  32.546  1.00  0.00     0.023 A 
ATOM     73  C   UNL A   1      43.966  27.473  33.745  1.00  0.00     0.031 A 
ATOM     74  C   UNL A   1      44.953  25.594  32.659  1.00  0.00     0.131 A 
ATOM     75  C   UNL A   1      44.481  26.999  34.961  1.00  0.00     0.055 A 
ATOM     76  C   UNL A   1      45.389  25.075  33.886  1.00  0.00     0.041 A 
ATOM     77  F   UNL A   1      45.398  24.912  31.595  1.00  0.00    -0.206 F 
ATOM     78  C   UNL A   1      45.159  25.786  35.052  1.00  0.00     0.022 A 
BRANCH  75  79
ATOM     79  S   UNL A   1      44.374  28.103  36.384  1.00  0.00     0.124 S 
ATOM     80  O   UNL A   1      45.467  27.614  37.216  1.00  0.00    -0.237 OA
ATOM     81  O   UNL A   1      44.575  29.407  35.760  1.00  0.00    -0.237 OA
ATOM     82  O   UNL A   1      43.031  27.859  36.900  1.00  0.00    -0.744 OA
ENDBRANCH  75  79
ENDBRANCH  58  72
BRANCH  59  83
ATOM     83  C   UNL A   1      39.704  32.785  36.836  1.00  0.00     0.023 A 
ATOM     84  C   UNL A   1      40.747  33.246  37.763  1.00  0.00     0.031 A 
ATOM     85  C   UNL A   1      38.408  33.105  37.255  1.00  0.00     0.131 A 
ATOM     86  C   UNL A   1      40.406  33.999  38.963  1.00  0.00     0.055 A 
ATOM     87  C   UNL A   1      38.101  33.880  38.376  1.00  0.00     0.041 A 
ATOM     88  F   UNL A   1      37.350  32.735  36.528  1.00  0.00    -0.206 F 
ATOM     89  C   UNL A   1      39.085  34.354  39.218  1.00  0.00     0.022 A 
BRANCH  86  90
ATOM     90  S   UNL A   1      41.599  34.547  40.296  1.00  0.00     0.124 S 
ATOM     91  O   UNL A   1      42.208  33.290  40.714  1.00  0.00    -0.237 OA
ATOM     92  O   UNL A   1      42.464  35.496  39.609  1.00  0.00    -0.237 OA
ATOM     93  O   UNL A   1      40.733  35.154  41.315  1.00  0.00    -0.744 OA
ENDBRANCH  86  90
ENDBRANCH  59  83
BRANCH  71  94
ATOM     94  C   UNL A   1      38.480  30.233  31.179  1.00  0.00     0.023 A 
ATOM     95  C   UNL A   1      38.294  31.553  30.672  1.00  0.00     0.031 A 
ATOM     96  C   UNL A   1      37.509  29.287  30.813  1.00  0.00     0.131 A 
ATOM     97  C   UNL A   1      37.103  31.886  29.964  1.00  0.00     0.055 A 
ATOM     98  C   UNL A   1      36.389  29.600  30.043  1.00  0.00     0.041 A 
ATOM     99  F   UNL A   1      37.663  28.000  31.158  1.00  0.00    -0.206 F 
ATOM    100  C   UNL A   1      36.160  30.908  29.644  1.00  0.00     0.022 A 
BRANCH  97 101
ATOM    101  S   UNL A   1      36.661  33.633  29.607  1.00  0.00     0.124 S 
ATOM    102  O   UNL A   1      35.759  33.959  30.706  1.00  0.00    -0.237 OA
ATOM    103  O   UNL A   1      37.952  34.313  29.625  1.00  0.00    -0.237 OA
ATOM    104  O   UNL A   1      36.023  33.568  28.290  1.00  0.00    -0.744 OA
ENDBRANCH  97 101
ENDBRANCH  71  94
ENDBRANCH  45  46
ENDBRANCH  37  40
ENDBRANCH  35  36
ENDBRANCH  34  35
ENDBRANCH  33  34
ENDBRANCH   1  33
TORSDOF 20
ENDMDL
MODEL 2
REMARK VINA RESULT:      -9.6      2.587      3.573
REMARK SMILES NS(=O)(=O)c1ccc(-n2nc(C(=O)NCCCCCCNC(=O)c3ccc(-c4c5nc(c(-c6cc(S(=O)(=O)[O-])ccc6F)c6ccc([nH]6)c(-c6cc(S(=O)(=O)[O-])ccc6F)c6nc(c(-c7cc(S(=O)(=O)[O-])ccc7F)c7ccc4[nH]7)C=C6)C=C5)cc3)c(Cl)c2-c2ccc(Cl)cc2)cc1
REMARK SMILES IDX 17 1 16 2 15 3 14 4 12 5 13 6 11 8 9 9 10 10 89 11 87 12
REMARK SMILES IDX 88 13 8 14 5 15 6 16 98 17 7 18 97 19 2 20 3 21 4 22 1 23
REMARK SMILES IDX 90 26 91 27 96 28 92 29 95 30 93 31 94 32 18 33 19 34 20 35
REMARK SMILES IDX 21 36 22 37 23 39 24 40 25 41 86 42 26 43 85 44 27 45 28 46
REMARK SMILES IDX 29 47 79 48 30 49 84 50 78 51 80 52 31 53 83 54 77 55 76 56
REMARK SMILES IDX 32 58 64 59 44 60 63 61 45 62 48 63 62 64 81 65 46 66 47 67
REMARK SMILES IDX 61 69 82 70 49 71 33 72 34 73 42 74 35 75 41 76 43 77 40 78
REMARK SMILES IDX 36 79 37 80 38 81 39 82 65 83 66 84 74 85 67 86 73 87 75 88
REMARK SMILES IDX 72 89 68 90 69 91 70 92 71 93 50 94 51 95 59 96 52 97 58 98
REMARK SMILES IDX 60 99 57 100 53 101 54 102 55 103 56 104
REMARK H PARENT 14 7 1 24 1 25 21 38 80 57 48 68
REMARK Flexibility Score: inf
ROOT
ATOM      1  C   UNL A   1      45.018  31.842  26.492  1.00  0.00     0.002 C 
ENDROOT
BRANCH   1   2
ATOM      2  C   UNL A   1      44.186  31.010  27.466  1.00  0.00     0.021 C 
BRANCH   2   3
ATOM      3  C   UNL A   1      44.267  29.518  27.123  1.00  0.00     0.116 C 
BRANCH   3   4
ATOM      4  N   UNL A   1      43.358  29.171  26.069  1.00  0.00    -0.351 N 
ATOM      5  C   UNL A   1      43.322  28.046  25.265  1.00  0.00     0.273 C 
ATOM      6  O   UNL A   1      42.314  27.962  24.554  1.00  0.00    -0.267 OA
ATOM      7  H   UNL A   1      42.652  29.834  25.891  1.00  0.00     0.163 HD
BRANCH   5   8
ATOM      8  C   UNL A   1      44.363  26.961  25.303  1.00  0.00     0.169 A 
ATOM      9  N   UNL A   1      45.103  24.914  25.463  1.00  0.00    -0.231 N 
ATOM     10  N   UNL A   1      43.975  25.646  25.243  1.00  0.00    -0.160 NA
ATOM     11  C   UNL A   1      46.172  25.725  25.747  1.00  0.00     0.094 A 
ATOM     12  C   UNL A   1      45.785  26.988  25.365  1.00  0.00     0.100 A 
ATOM     13  Cl  UNL A   1      46.992  28.165  25.055  1.00  0.00    -0.079 Cl
BRANCH   9  14
ATOM     14  C   UNL A   1      45.146  23.488  25.499  1.00  0.00     0.065 A 
ATOM     15  C   UNL A   1      45.059  20.711  25.041  1.00  0.00     0.082 A 
ATOM     16  C   UNL A   1      44.027  21.334  25.753  1.00  0.00     0.024 A 
ATOM     17  C   UNL A   1      46.143  21.466  24.583  1.00  0.00     0.024 A 
ATOM     18  C   UNL A   1      44.068  22.730  25.986  1.00  0.00     0.030 A 
ATOM     19  C   UNL A   1      46.175  22.847  24.794  1.00  0.00     0.030 A 
BRANCH  15  20
ATOM     20  S   UNL A   1      45.116  18.969  24.698  1.00  0.00     0.238 S 
ATOM     21  O   UNL A   1      45.597  18.764  23.387  1.00  0.00    -0.207 OA
ATOM     22  O   UNL A   1      43.841  18.387  25.165  1.00  0.00    -0.207 OA
BRANCH  20  23
ATOM     23  N   UNL A   1      46.296  18.334  25.714  1.00  0.00    -0.225 NA
ATOM     24  H   UNL A   1      47.151  18.170  25.183  1.00  0.00     0.137 HD
ATOM     25  H   UNL A   1      45.967  17.452  26.109  1.00  0.00     0.137 HD
ENDBRANCH  20  23
ENDBRANCH  15  20
ENDBRANCH   9  14
BRANCH  11  26
ATOM     26  C   UNL A   1      47.547  25.355  26.031  1.00  0.00     0.002 A 
ATOM     27  C   UNL A   1      47.882  25.081  27.366  1.00  0.00     0.012 A 
ATOM     28  C   UNL A   1      48.538  25.682  25.101  1.00  0.00     0.012 A 
ATOM     29  C   UNL A   1      49.202  25.198  27.782  1.00  0.00     0.021 A 
ATOM     30  C   UNL A   1      49.863  25.762  25.516  1.00  0.00     0.021 A 
ATOM     31  C   UNL A   1      50.188  25.526  26.852  1.00  0.00     0.041 A 
ATOM     32  Cl  UNL A   1      51.818  25.679  27.372  1.00  0.00    -0.084 Cl
ENDBRANCH  11  26
ENDBRANCH   5   8
ENDBRANCH   3   4
ENDBRANCH   2   3
ENDBRANCH   1   2
BRANCH   1  33
ATOM     33  C   UNL A   1      44.179  32.912  25.770  1.00  0.00     0.002 C 
BRANCH  33  34
ATOM     34  C   UNL A   1      44.845  34.288  25.689  1.00  0.00     0.021 C 
BRANCH  34  35
ATOM     35  C   UNL A   1      43.926  35.362  26.205  1.00  0.00     0.116 C 
BRANCH  35  36
ATOM     36  N   UNL A   1      44.648  36.508  26.753  1.00  0.00    -0.352 N 
ATOM     37  C   UNL A   1      44.625  36.922  28.077  1.00  0.00     0.251 C 
ATOM     38  H   UNL A   1      45.198  37.032  26.127  1.00  0.00     0.163 HD
ATOM     39  O   UNL A   1      44.932  38.068  28.380  1.00  0.00    -0.269 OA
BRANCH  37  40
ATOM     40  C   UNL A   1      44.372  35.861  29.092  1.00  0.00     0.039 A 
ATOM     41  C   UNL A   1      45.183  34.802  29.478  1.00  0.00     0.014 A 
ATOM     42  C   UNL A   1      43.068  35.787  29.547  1.00  0.00     0.014 A 
ATOM     43  C   UNL A   1      44.511  33.684  30.136  1.00  0.00     0.010 A 
ATOM     44  C   UNL A   1      42.780  35.048  30.645  1.00  0.00     0.010 A 
ATOM     45  C   UNL A   1      43.085  33.732  30.460  1.00  0.00    -0.014 A 
BRANCH  45  46
ATOM     46  C   UNL A   1      42.165  32.862  31.430  1.00  0.00     0.031 A 
ATOM     47  C   UNL A   1      43.216  31.568  31.498  1.00  0.00     0.074 A 
ATOM     48  C   UNL A   1      40.880  33.151  32.144  1.00  0.00     0.049 A 
ATOM     49  N   UNL A   1      43.219  30.623  30.591  1.00  0.00    -0.248 NA
ATOM     50  C   UNL A   1      44.645  31.522  32.091  1.00  0.00     0.031 C 
ATOM     51  C   UNL A   1      39.832  34.322  32.280  1.00  0.00     0.029 A 
ATOM     52  N   UNL A   1      40.087  32.318  33.012  1.00  0.00    -0.354 N 
ATOM     53  C   UNL A   1      44.103  29.649  31.065  1.00  0.00     0.074 A 
ATOM     54  C   UNL A   1      45.153  30.343  31.695  1.00  0.00     0.031 C 
ATOM     55  C   UNL A   1      38.984  34.211  33.382  1.00  0.00     0.029 A 
ATOM     56  C   UNL A   1      39.157  32.916  34.010  1.00  0.00     0.049 A 
ATOM     57  H   UNL A   1      40.160  31.338  32.945  1.00  0.00     0.167 HD
ATOM     58  C   UNL A   1      43.592  28.437  31.397  1.00  0.00     0.034 A 
ATOM     59  C   UNL A   1      38.402  32.304  35.057  1.00  0.00     0.034 A 
ATOM     60  C   UNL A   1      42.294  28.341  30.767  1.00  0.00     0.049 A 
ATOM     61  C   UNL A   1      38.547  30.844  34.785  1.00  0.00     0.074 A 
ATOM     62  C   UNL A   1      41.833  28.515  29.474  1.00  0.00     0.029 A 
ATOM     63  N   UNL A   1      41.291  28.733  31.603  1.00  0.00    -0.354 N 
ATOM     64  N   UNL A   1      37.982  30.299  33.738  1.00  0.00    -0.248 NA
ATOM     65  C   UNL A   1      39.872  30.356  35.183  1.00  0.00     0.031 C 
ATOM     66  C   UNL A   1      40.618  29.259  29.585  1.00  0.00     0.029 A 
ATOM     67  C   UNL A   1      40.271  29.337  30.929  1.00  0.00     0.049 A 
ATOM     68  H   UNL A   1      41.300  28.596  32.578  1.00  0.00     0.167 HD
ATOM     69  C   UNL A   1      39.055  29.806  33.018  1.00  0.00     0.074 A 
ATOM     70  C   UNL A   1      40.210  29.874  33.978  1.00  0.00     0.031 C 
ATOM     71  C   UNL A   1      39.104  29.817  31.637  1.00  0.00     0.034 A 
BRANCH  58  72
ATOM     72  C   UNL A   1      43.930  27.687  32.675  1.00  0.00     0.023 A 
ATOM     73  C   UNL A   1      44.198  26.325  32.508  1.00  0.00     0.031 A 
ATOM     74  C   UNL A   1      43.749  28.114  34.018  1.00  0.00     0.131 A 
ATOM     75  C   UNL A   1      44.262  25.456  33.608  1.00  0.00     0.055 A 
ATOM     76  C   UNL A   1      43.903  27.261  35.121  1.00  0.00     0.041 A 
ATOM     77  F   UNL A   1      43.324  29.343  34.340  1.00  0.00    -0.206 F 
ATOM     78  C   UNL A   1      44.155  25.915  34.918  1.00  0.00     0.022 A 
BRANCH  75  79
ATOM     79  S   UNL A   1      44.327  23.687  33.255  1.00  0.00     0.124 S 
ATOM     80  O   UNL A   1      43.190  23.194  34.023  1.00  0.00    -0.237 OA
ATOM     81  O   UNL A   1      44.176  23.673  31.803  1.00  0.00    -0.237 OA
ATOM     82  O   UNL A   1      45.641  23.292  33.750  1.00  0.00    -0.744 OA
ENDBRANCH  75  79
ENDBRANCH  58  72
BRANCH  59  83
ATOM     83  C   UNL A   1      38.135  32.774  36.552  1.00  0.00     0.023 A 
ATOM     84  C   UNL A   1      37.123  32.413  37.555  1.00  0.00     0.031 A 
ATOM     85  C   UNL A   1      39.222  33.472  37.088  1.00  0.00     0.131 A 
ATOM     86  C   UNL A   1      37.311  32.739  38.963  1.00  0.00     0.055 A 
ATOM     87  C   UNL A   1      39.417  33.722  38.449  1.00  0.00     0.041 A 
ATOM     88  F   UNL A   1      40.217  33.887  36.298  1.00  0.00    -0.206 F 
ATOM     89  C   UNL A   1      38.490  33.339  39.393  1.00  0.00     0.022 A 
BRANCH  86  90
ATOM     90  S   UNL A   1      36.069  32.458  40.334  1.00  0.00     0.124 S 
ATOM     91  O   UNL A   1      34.821  32.280  39.601  1.00  0.00    -0.237 OA
ATOM     92  O   UNL A   1      36.590  31.291  41.031  1.00  0.00    -0.237 OA
ATOM     93  O   UNL A   1      36.124  33.698  41.117  1.00  0.00    -0.744 OA
ENDBRANCH  86  90
ENDBRANCH  59  83
BRANCH  71  94
ATOM     94  C   UNL A   1      37.914  30.237  30.762  1.00  0.00     0.023 A 
ATOM     95  C   UNL A   1      37.421  31.544  30.471  1.00  0.00     0.031 A 
ATOM     96  C   UNL A   1      37.333  29.183  30.038  1.00  0.00     0.131 A 
ATOM     97  C   UNL A   1      36.304  31.711  29.603  1.00  0.00     0.055 A 
ATOM     98  C   UNL A   1      36.299  29.364  29.121  1.00  0.00     0.041 A 
ATOM     99  F   UNL A   1      37.810  27.936  30.171  1.00  0.00    -0.206 F 
ATOM    100  C   UNL A   1      35.754  30.623  28.924  1.00  0.00     0.022 A 
BRANCH  97 101
ATOM    101  S   UNL A   1      35.421  33.318  29.481  1.00  0.00     0.124 S 
ATOM    102  O   UNL A   1      36.501  34.244  29.163  1.00  0.00    -0.237 OA
ATOM    103  O   UNL A   1      34.452  33.084  28.414  1.00  0.00    -0.237 OA
ATOM    104  O   UNL A   1      34.834  33.493  30.811  1.00  0.00    -0.744 OA
ENDBRANCH  97 101
ENDBRANCH  71  94
ENDBRANCH  45  46
ENDBRANCH  37  40
ENDBRANCH  35  36
ENDBRANCH  34  35
ENDBRANCH  33  34
ENDBRANCH   1  33
TORSDOF 20
ENDMDL
MODEL 3
REMARK VINA RESULT:      -9.6      1.894      2.219
REMARK SMILES NS(=O)(=O)c1ccc(-n2nc(C(=O)NCCCCCCNC(=O)c3ccc(-c4c5nc(c(-c6cc(S(=O)(=O)[O-])ccc6F)c6ccc([nH]6)c(-c6cc(S(=O)(=O)[O-])ccc6F)c6nc(c(-c7cc(S(=O)(=O)[O-])ccc7F)c7ccc4[nH]7)C=C6)C=C5)cc3)c(Cl)c2-c2ccc(Cl)cc2)cc1
REMARK SMILES IDX 17 1 16 2 15 3 14 4 12 5 13 6 11 8 9 9 10 10 89 11 87 12
REMARK SMILES IDX 88 13 8 14 5 15 6 16 98 17 7 18 97 19 2 20 3 21 4 22 1 23
REMARK SMILES IDX 90 26 91 27 96 28 92 29 95 30 93 31 94 32 18 33 19 34 20 35
REMARK SMILES IDX 21 36 22 37 23 39 24 40 25 41 86 42 26 43 85 44 27 45 28 46
REMARK SMILES IDX 29 47 79 48 30 49 84 50 78 51 80 52 31 53 83 54 77 55 76 56
REMARK SMILES IDX 32 58 64 59 44 60 63 61 45 62 48 63 62 64 81 65 46 66 47 67
REMARK SMILES IDX 61 69 82 70 49 71 33 72 34 73 42 74 35 75 41 76 43 77 40 78
REMARK SMILES IDX 36 79 37 80 38 81 39 82 65 83 66 84 74 85 67 86 73 87 75 88
REMARK SMILES IDX 72 89 68 90 69 91 70 92 71 93 50 94 51 95 59 96 52 97 58 98
REMARK SMILES IDX 60 99 57 100 53 101 54 102 55 103 56 104
REMARK H PARENT 14 7 1 24 1 25 21 38 80 57 48 68
REMARK Flexibility Score: inf
ROOT
ATOM      1  C   UNL A   1      48.631  30.015  28.013  1.00  0.00     0.002 C 
ENDROOT
BRANCH   1   2
ATOM      2  C   UNL A   1      48.312  28.523  27.962  1.00  0.00     0.021 C 
BRANCH   2   3
ATOM      3  C   UNL A   1      48.883  27.882  26.691  1.00  0.00     0.116 C 
BRANCH   3   4
ATOM      4  N   UNL A   1      48.308  28.457  25.509  1.00  0.00    -0.351 N 
ATOM      5  C   UNL A   1      47.134  28.138  24.850  1.00  0.00     0.273 C 
ATOM      6  O   UNL A   1      46.828  28.927  23.948  1.00  0.00    -0.267 OA
ATOM      7  H   UNL A   1      48.827  29.190  25.106  1.00  0.00     0.163 HD
BRANCH   5   8
ATOM      8  C   UNL A   1      46.246  26.989  25.239  1.00  0.00     0.169 A 
ATOM      9  N   UNL A   1      45.507  24.936  25.191  1.00  0.00    -0.231 N 
ATOM     10  N   UNL A   1      46.565  25.717  24.835  1.00  0.00    -0.160 NA
ATOM     11  C   UNL A   1      44.494  25.689  25.728  1.00  0.00     0.094 A 
ATOM     12  C   UNL A   1      45.060  26.907  26.023  1.00  0.00     0.100 A 
ATOM     13  Cl  UNL A   1      44.292  27.918  27.174  1.00  0.00    -0.079 Cl
BRANCH   9  14
ATOM     14  C   UNL A   1      45.419  23.533  24.943  1.00  0.00     0.065 A 
ATOM     15  C   UNL A   1      44.814  20.787  24.804  1.00  0.00     0.082 A 
ATOM     16  C   UNL A   1      45.883  21.227  25.595  1.00  0.00     0.024 A 
ATOM     17  C   UNL A   1      44.068  21.710  24.065  1.00  0.00     0.024 A 
ATOM     18  C   UNL A   1      46.190  22.607  25.666  1.00  0.00     0.030 A 
ATOM     19  C   UNL A   1      44.357  23.074  24.150  1.00  0.00     0.030 A 
BRANCH  15  20
ATOM     20  S   UNL A   1      44.344  19.081  24.632  1.00  0.00     0.238 S 
ATOM     21  O   UNL A   1      44.826  18.584  23.403  1.00  0.00    -0.207 OA
ATOM     22  O   UNL A   1      42.922  18.977  25.017  1.00  0.00    -0.207 OA
BRANCH  20  23
ATOM     23  N   UNL A   1      45.192  18.244  25.819  1.00  0.00    -0.225 NA
ATOM     24  H   UNL A   1      45.004  17.246  25.731  1.00  0.00     0.137 HD
ATOM     25  H   UNL A   1      44.894  18.566  26.741  1.00  0.00     0.137 HD
ENDBRANCH  20  23
ENDBRANCH  15  20
ENDBRANCH   9  14
BRANCH  11  26
ATOM     26  C   UNL A   1      43.207  25.253  26.239  1.00  0.00     0.002 A 
ATOM     27  C   UNL A   1      42.057  25.732  25.592  1.00  0.00     0.012 A 
ATOM     28  C   UNL A   1      43.135  24.752  27.542  1.00  0.00     0.012 A 
ATOM     29  C   UNL A   1      40.847  25.767  26.276  1.00  0.00     0.021 A 
ATOM     30  C   UNL A   1      41.914  24.757  28.209  1.00  0.00     0.021 A 
ATOM     31  C   UNL A   1      40.780  25.268  27.577  1.00  0.00     0.041 A 
ATOM     32  Cl  UNL A   1      39.285  25.322  28.422  1.00  0.00    -0.084 Cl
ENDBRANCH  11  26
ENDBRANCH   5   8
ENDBRANCH   3   4
ENDBRANCH   2   3
ENDBRANCH   1   2
BRANCH   1  33
ATOM     33  C   UNL A   1      47.437  30.852  28.508  1.00  0.00     0.002 C 
BRANCH  33  34
ATOM     34  C   UNL A   1      47.511  32.337  28.141  1.00  0.00     0.021 C 
BRANCH  34  35
ATOM     35  C   UNL A   1      46.578  32.657  27.005  1.00  0.00     0.116 C 
BRANCH  35  36
ATOM     36  N   UNL A   1      46.597  34.071  26.639  1.00  0.00    -0.352 N 
ATOM     37  C   UNL A   1      45.650  35.016  27.007  1.00  0.00     0.251 C 
ATOM     38  H   UNL A   1      47.348  34.380  26.083  1.00  0.00     0.163 HD
ATOM     39  O   UNL A   1      45.525  36.057  26.373  1.00  0.00    -0.269 OA
BRANCH  37  40
ATOM     40  C   UNL A   1      44.930  34.761  28.286  1.00  0.00     0.039 A 
ATOM     41  C   UNL A   1      45.224  35.214  29.565  1.00  0.00     0.014 A 
ATOM     42  C   UNL A   1      43.978  33.760  28.232  1.00  0.00     0.014 A 
ATOM     43  C   UNL A   1      44.640  34.453  30.667  1.00  0.00     0.010 A 
ATOM     44  C   UNL A   1      43.091  33.619  29.246  1.00  0.00     0.010 A 
ATOM     45  C   UNL A   1      43.715  33.345  30.426  1.00  0.00    -0.014 A 
BRANCH  45  46
ATOM     46  C   UNL A   1      42.690  32.566  31.367  1.00  0.00     0.031 A 
ATOM     47  C   UNL A   1      43.654  31.214  31.537  1.00  0.00     0.074 A 
ATOM     48  C   UNL A   1      41.388  32.955  31.995  1.00  0.00     0.049 A 
ATOM     49  N   UNL A   1      43.650  30.240  30.661  1.00  0.00    -0.248 NA
ATOM     50  C   UNL A   1      45.041  31.104  32.213  1.00  0.00     0.031 C 
ATOM     51  C   UNL A   1      40.407  34.190  32.034  1.00  0.00     0.029 A 
ATOM     52  N   UNL A   1      40.496  32.201  32.842  1.00  0.00    -0.354 N 
ATOM     53  C   UNL A   1      44.444  29.232  31.216  1.00  0.00     0.074 A 
ATOM     54  C   UNL A   1      45.498  29.883  31.885  1.00  0.00     0.031 C 
ATOM     55  C   UNL A   1      39.493  34.168  33.087  1.00  0.00     0.029 A 
ATOM     56  C   UNL A   1      39.550  32.888  33.765  1.00  0.00     0.049 A 
ATOM     57  H   UNL A   1      40.513  31.217  32.809  1.00  0.00     0.167 HD
ATOM     58  C   UNL A   1      43.841  28.065  31.555  1.00  0.00     0.034 A 
ATOM     59  C   UNL A   1      38.701  32.359  34.784  1.00  0.00     0.034 A 
ATOM     60  C   UNL A   1      42.578  28.025  30.854  1.00  0.00     0.049 A 
ATOM     61  C   UNL A   1      38.771  30.885  34.566  1.00  0.00     0.074 A 
ATOM     62  C   UNL A   1      42.202  28.181  29.532  1.00  0.00     0.029 A 
ATOM     63  N   UNL A   1      41.555  28.504  31.617  1.00  0.00    -0.354 N 
ATOM     64  N   UNL A   1      38.234  30.338  33.505  1.00  0.00    -0.248 NA
ATOM     65  C   UNL A   1      40.039  30.332  35.056  1.00  0.00     0.031 C 
ATOM     66  C   UNL A   1      41.031  28.999  29.548  1.00  0.00     0.029 A 
ATOM     67  C   UNL A   1      40.613  29.144  30.866  1.00  0.00     0.049 A 
ATOM     68  H   UNL A   1      41.501  28.401  32.595  1.00  0.00     0.167 HD
ATOM     69  C   UNL A   1      39.314  29.757  32.866  1.00  0.00     0.074 A 
ATOM     70  C   UNL A   1      40.414  29.789  33.888  1.00  0.00     0.031 C 
ATOM     71  C   UNL A   1      39.441  29.717  31.490  1.00  0.00     0.034 A 
BRANCH  58  72
ATOM     72  C   UNL A   1      44.060  27.340  32.873  1.00  0.00     0.023 A 
ATOM     73  C   UNL A   1      44.224  25.956  32.767  1.00  0.00     0.031 A 
ATOM     74  C   UNL A   1      43.854  27.832  34.191  1.00  0.00     0.131 A 
ATOM     75  C   UNL A   1      44.168  25.128  33.899  1.00  0.00     0.055 A 
ATOM     76  C   UNL A   1      43.889  27.013  35.329  1.00  0.00     0.041 A 
ATOM     77  F   UNL A   1      43.516  29.102  34.449  1.00  0.00    -0.206 F 
ATOM     78  C   UNL A   1      44.040  25.645  35.186  1.00  0.00     0.022 A 
BRANCH  75  79
ATOM     79  S   UNL A   1      44.105  23.348  33.612  1.00  0.00     0.124 S 
ATOM     80  O   UNL A   1      43.991  23.289  32.160  1.00  0.00    -0.237 OA
ATOM     81  O   UNL A   1      45.381  22.915  34.174  1.00  0.00    -0.237 OA
ATOM     82  O   UNL A   1      42.921  22.927  34.355  1.00  0.00    -0.744 OA
ENDBRANCH  75  79
ENDBRANCH  58  72
BRANCH  59  83
ATOM     83  C   UNL A   1      38.379  32.895  36.246  1.00  0.00     0.023 A 
ATOM     84  C   UNL A   1      37.466  32.445  37.304  1.00  0.00     0.031 A 
ATOM     85  C   UNL A   1      39.333  33.817  36.691  1.00  0.00     0.131 A 
ATOM     86  C   UNL A   1      37.616  32.913  38.676  1.00  0.00     0.055 A 
ATOM     87  C   UNL A   1      39.503  34.209  38.021  1.00  0.00     0.041 A 
ATOM     88  F   UNL A   1      40.223  34.335  35.840  1.00  0.00    -0.206 F 
ATOM     89  C   UNL A   1      38.676  33.746  39.021  1.00  0.00     0.022 A 
BRANCH  86  90
ATOM     90  S   UNL A   1      36.468  32.530  40.103  1.00  0.00     0.124 S 
ATOM     91  O   UNL A   1      36.880  33.500  41.111  1.00  0.00    -0.237 OA
ATOM     92  O   UNL A   1      35.141  32.707  39.529  1.00  0.00    -0.237 OA
ATOM     93  O   UNL A   1      36.790  31.141  40.450  1.00  0.00    -0.744 OA
ENDBRANCH  86  90
ENDBRANCH  59  83
BRANCH  71  94
ATOM     94  C   UNL A   1      38.330  30.178  30.534  1.00  0.00     0.023 A 
ATOM     95  C   UNL A   1      38.002  31.494  30.094  1.00  0.00     0.031 A 
ATOM     96  C   UNL A   1      37.646  29.127  29.901  1.00  0.00     0.131 A 
ATOM     97  C   UNL A   1      36.934  31.696  29.173  1.00  0.00     0.055 A 
ATOM     98  C   UNL A   1      36.662  29.328  28.934  1.00  0.00     0.041 A 
ATOM     99  F   UNL A   1      37.968  27.854  30.178  1.00  0.00    -0.206 F 
ATOM    100  C   UNL A   1      36.275  30.614  28.589  1.00  0.00     0.022 A 
BRANCH  97 101
ATOM    101  S   UNL A   1      36.251  33.372  28.856  1.00  0.00     0.124 S 
ATOM    102  O   UNL A   1      35.735  33.247  27.498  1.00  0.00    -0.237 OA
ATOM    103  O   UNL A   1      35.246  33.526  29.904  1.00  0.00    -0.237 OA
ATOM    104  O   UNL A   1      37.414  34.252  28.991  1.00  0.00    -0.744 OA
ENDBRANCH  97 101
ENDBRANCH  71  94
ENDBRANCH  45  46
ENDBRANCH  37  40
ENDBRANCH  35  36
ENDBRANCH  34  35
ENDBRANCH  33  34
ENDBRANCH   1  33
TORSDOF 20
ENDMDL
