MODEL 1
REMARK VINA RESULT:     -12.9      0.000      0.000
REMARK SMILES Cc1ccccc1NC(=O)CSc1nc(C(=O)NCCCCCCNC(=O)c2ccc(-c3c4nc(c(-c5cc(S(=O)(=O)[O-])ccc5F)c5ccc([nH]5)c(-c5cc(S(=O)(=O)[O-])ccc5F)c5nc(c(-c6cc(S(=O)(=O)[O-])ccc6F)c6ccc3[nH]6)C=C5)C=C4)cc2)c2ccccc2n1
REMARK SMILES IDX 21 1 20 2 19 3 18 4 16 5 17 6 15 8 13 9 14 10 97 11 96 12
REMARK SMILES IDX 91 13 95 14 92 15 94 16 93 17 12 18 11 19 9 20 8 21 10 23
REMARK SMILES IDX 7 24 1 25 2 26 3 27 4 28 6 29 5 30 22 31 23 32 24 33 25 34
REMARK SMILES IDX 26 35 27 37 28 38 29 39 90 40 30 41 89 42 31 43 32 44 33 45
REMARK SMILES IDX 83 46 34 47 88 48 82 49 84 50 35 51 87 52 81 53 80 54 36 56
REMARK SMILES IDX 68 57 48 58 67 59 49 60 52 61 66 62 85 63 50 64 51 65 65 67
REMARK SMILES IDX 86 68 53 69 37 70 38 71 46 72 39 73 45 74 47 75 44 76 40 77
REMARK SMILES IDX 41 78 42 79 43 80 69 81 70 82 78 83 71 84 77 85 79 86 76 87
REMARK SMILES IDX 72 88 73 89 74 90 75 91 54 92 55 93 63 94 56 95 62 96 64 97
REMARK SMILES IDX 61 98 57 99 58 100 59 101 60 102
REMARK H PARENT 18 7 8 22 25 36 84 55 52 66
REMARK Flexibility Score: inf
ROOT
ATOM      1  C   UNL A   1      32.317  29.275  26.346  1.00  0.00     0.002 C 
ENDROOT
BRANCH   1   2
ATOM      2  C   UNL A   1      32.914  28.944  24.971  1.00  0.00     0.021 C 
BRANCH   2   3
ATOM      3  C   UNL A   1      33.952  27.831  24.872  1.00  0.00     0.116 C 
BRANCH   3   4
ATOM      4  N   UNL A   1      34.169  27.270  23.552  1.00  0.00    -0.351 N 
ATOM      5  C   UNL A   1      33.307  26.547  22.744  1.00  0.00     0.270 C 
ATOM      6  O   UNL A   1      33.667  26.253  21.605  1.00  0.00    -0.267 OA
ATOM      7  H   UNL A   1      35.064  27.426  23.173  1.00  0.00     0.163 HD
BRANCH   5   8
ATOM      8  C   UNL A   1      31.985  26.045  23.248  1.00  0.00     0.140 A 
ATOM      9  C   UNL A   1      30.975  24.417  24.477  1.00  0.00     0.189 A 
ATOM     10  N   UNL A   1      32.086  24.860  23.898  1.00  0.00    -0.217 NA
ATOM     11  N   UNL A   1      29.820  25.089  24.540  1.00  0.00    -0.222 NA
ATOM     12  C   UNL A   1      29.736  26.244  23.876  1.00  0.00     0.076 A 
ATOM     13  C   UNL A   1      30.784  26.754  23.106  1.00  0.00     0.032 A 
ATOM     14  C   UNL A   1      28.558  26.973  23.966  1.00  0.00     0.029 A 
ATOM     15  C   UNL A   1      30.549  27.894  22.295  1.00  0.00     0.013 A 
ATOM     16  C   UNL A   1      28.371  28.165  23.261  1.00  0.00     0.002 A 
ATOM     17  C   UNL A   1      29.358  28.610  22.396  1.00  0.00     0.001 A 
BRANCH   9  18
ATOM     18  S   UNL A   1      31.023  22.861  25.312  1.00  0.00    -0.076 SA
BRANCH  18  19
ATOM     19  C   UNL A   1      32.010  21.900  24.129  1.00  0.00     0.178 C 
BRANCH  19  20
ATOM     20  C   UNL A   1      32.746  20.728  24.740  1.00  0.00     0.234 C 
ATOM     21  N   UNL A   1      34.047  20.729  25.141  1.00  0.00    -0.325 N 
ATOM     22  H   UNL A   1      34.324  19.847  25.483  1.00  0.00     0.169 HD
ATOM     23  O   UNL A   1      32.159  19.642  24.867  1.00  0.00    -0.274 OA
BRANCH  21  24
ATOM     24  C   UNL A   1      35.099  21.664  25.195  1.00  0.00     0.044 A 
ATOM     25  C   UNL A   1      34.223  22.557  27.471  1.00  0.00     0.046 C 
ATOM     26  C   UNL A   1      35.152  22.571  26.283  1.00  0.00    -0.027 A 
ATOM     27  C   UNL A   1      36.108  23.609  26.274  1.00  0.00     0.005 A 
ATOM     28  C   UNL A   1      37.034  23.728  25.243  1.00  0.00     0.000 A 
ATOM     29  C   UNL A   1      36.093  21.756  24.216  1.00  0.00     0.026 A 
ATOM     30  C   UNL A   1      37.041  22.784  24.229  1.00  0.00     0.002 A 
ENDBRANCH  21  24
ENDBRANCH  19  20
ENDBRANCH  18  19
ENDBRANCH   9  18
ENDBRANCH   5   8
ENDBRANCH   3   4
ENDBRANCH   2   3
ENDBRANCH   1   2
BRANCH   1  31
ATOM     31  C   UNL A   1      31.970  30.728  26.698  1.00  0.00     0.002 C 
BRANCH  31  32
ATOM     32  C   UNL A   1      33.080  31.601  27.274  1.00  0.00     0.021 C 
BRANCH  32  33
ATOM     33  C   UNL A   1      34.193  30.851  27.997  1.00  0.00     0.116 C 
BRANCH  33  34
ATOM     34  N   UNL A   1      34.883  31.645  29.013  1.00  0.00    -0.352 N 
ATOM     35  C   UNL A   1      36.069  31.345  29.665  1.00  0.00     0.251 C 
ATOM     36  H   UNL A   1      34.454  32.495  29.264  1.00  0.00     0.163 HD
ATOM     37  O   UNL A   1      36.580  32.091  30.486  1.00  0.00    -0.269 OA
BRANCH  35  38
ATOM     38  C   UNL A   1      36.771  30.109  29.254  1.00  0.00     0.039 A 
ATOM     39  C   UNL A   1      36.992  29.142  30.239  1.00  0.00     0.014 A 
ATOM     40  C   UNL A   1      37.450  30.070  28.038  1.00  0.00     0.014 A 
ATOM     41  C   UNL A   1      38.074  28.278  30.102  1.00  0.00     0.010 A 
ATOM     42  C   UNL A   1      38.576  29.269  27.944  1.00  0.00     0.010 A 
ATOM     43  C   UNL A   1      38.932  28.434  29.012  1.00  0.00    -0.014 A 
BRANCH  43  44
ATOM     44  C   UNL A   1      40.302  27.920  29.020  1.00  0.00     0.031 A 
ATOM     45  C   UNL A   1      40.613  26.542  28.594  1.00  0.00     0.074 A 
ATOM     46  C   UNL A   1      41.318  28.725  29.408  1.00  0.00     0.049 A 
ATOM     47  N   UNL A   1      41.680  25.898  28.929  1.00  0.00    -0.248 NA
ATOM     48  C   UNL A   1      39.696  25.750  27.787  1.00  0.00     0.031 C 
ATOM     49  C   UNL A   1      42.751  28.485  29.264  1.00  0.00     0.029 A 
ATOM     50  N   UNL A   1      41.233  29.809  30.281  1.00  0.00    -0.354 N 
ATOM     51  C   UNL A   1      41.738  24.748  28.179  1.00  0.00     0.074 A 
ATOM     52  C   UNL A   1      40.443  24.671  27.537  1.00  0.00     0.031 C 
ATOM     53  C   UNL A   1      43.400  29.182  30.208  1.00  0.00     0.029 A 
ATOM     54  C   UNL A   1      42.402  29.789  31.067  1.00  0.00     0.049 A 
ATOM     55  H   UNL A   1      40.499  30.462  30.337  1.00  0.00     0.167 HD
ATOM     56  C   UNL A   1      42.915  24.063  28.092  1.00  0.00     0.034 A 
ATOM     57  C   UNL A   1      42.325  29.650  32.423  1.00  0.00     0.034 A 
ATOM     58  C   UNL A   1      43.937  24.597  29.001  1.00  0.00     0.049 A 
ATOM     59  C   UNL A   1      43.005  28.406  32.967  1.00  0.00     0.074 A 
ATOM     60  C   UNL A   1      45.095  25.343  28.850  1.00  0.00     0.029 A 
ATOM     61  N   UNL A   1      43.694  24.557  30.365  1.00  0.00    -0.354 N 
ATOM     62  N   UNL A   1      43.625  27.512  32.243  1.00  0.00    -0.248 NA
ATOM     63  C   UNL A   1      42.944  28.024  34.379  1.00  0.00     0.031 C 
ATOM     64  C   UNL A   1      45.539  25.749  30.145  1.00  0.00     0.029 A 
ATOM     65  C   UNL A   1      44.659  25.240  31.081  1.00  0.00     0.049 A 
ATOM     66  H   UNL A   1      42.925  24.099  30.774  1.00  0.00     0.167 HD
ATOM     67  C   UNL A   1      43.964  26.439  33.031  1.00  0.00     0.074 A 
ATOM     68  C   UNL A   1      43.521  26.812  34.362  1.00  0.00     0.031 C 
ATOM     69  C   UNL A   1      44.531  25.299  32.530  1.00  0.00     0.034 A 
BRANCH  56  70
ATOM     70  C   UNL A   1      43.221  23.054  27.001  1.00  0.00     0.023 A 
ATOM     71  C   UNL A   1      42.658  21.762  27.074  1.00  0.00     0.031 A 
ATOM     72  C   UNL A   1      44.085  23.265  25.908  1.00  0.00     0.131 A 
ATOM     73  C   UNL A   1      43.042  20.738  26.186  1.00  0.00     0.055 A 
ATOM     74  C   UNL A   1      44.521  22.232  25.067  1.00  0.00     0.041 A 
ATOM     75  F   UNL A   1      44.496  24.489  25.560  1.00  0.00    -0.206 F 
ATOM     76  C   UNL A   1      44.011  20.953  25.213  1.00  0.00     0.022 A 
BRANCH  73  77
ATOM     77  S   UNL A   1      42.253  19.109  26.318  1.00  0.00     0.124 S 
ATOM     78  O   UNL A   1      40.911  19.372  25.809  1.00  0.00    -0.237 OA
ATOM     79  O   UNL A   1      43.113  18.284  25.478  1.00  0.00    -0.237 OA
ATOM     80  O   UNL A   1      42.322  18.814  27.748  1.00  0.00    -0.744 OA
ENDBRANCH  73  77
ENDBRANCH  56  70
BRANCH  57  81
ATOM     81  C   UNL A   1      41.118  30.310  33.004  1.00  0.00     0.023 A 
ATOM     82  C   UNL A   1      41.125  31.720  33.092  1.00  0.00     0.031 A 
ATOM     83  C   UNL A   1      39.885  29.653  33.118  1.00  0.00     0.131 A 
ATOM     84  C   UNL A   1      39.920  32.431  33.130  1.00  0.00     0.055 A 
ATOM     85  C   UNL A   1      38.686  30.368  33.232  1.00  0.00     0.041 A 
ATOM     86  F   UNL A   1      39.803  28.320  32.997  1.00  0.00    -0.206 F 
ATOM     87  C   UNL A   1      38.696  31.762  33.194  1.00  0.00     0.022 A 
BRANCH  84  88
ATOM     88  S   UNL A   1      39.911  34.229  32.863  1.00  0.00     0.124 S 
ATOM     89  O   UNL A   1      41.334  34.547  32.865  1.00  0.00    -0.237 OA
ATOM     90  O   UNL A   1      39.231  34.383  31.580  1.00  0.00    -0.237 OA
ATOM     91  O   UNL A   1      39.149  34.713  34.013  1.00  0.00    -0.744 OA
ENDBRANCH  84  88
ENDBRANCH  57  81
BRANCH  69  92
ATOM     92  C   UNL A   1      44.948  24.115  33.378  1.00  0.00     0.023 A 
ATOM     93  C   UNL A   1      46.294  23.819  33.654  1.00  0.00     0.031 A 
ATOM     94  C   UNL A   1      44.002  23.193  33.887  1.00  0.00     0.131 A 
ATOM     95  C   UNL A   1      46.645  22.735  34.482  1.00  0.00     0.055 A 
ATOM     96  C   UNL A   1      44.358  22.073  34.644  1.00  0.00     0.041 A 
ATOM     97  F   UNL A   1      42.684  23.352  33.696  1.00  0.00    -0.206 F 
ATOM     98  C   UNL A   1      45.686  21.848  34.965  1.00  0.00     0.022 A 
BRANCH  95  99
ATOM     99  S   UNL A   1      48.378  22.547  34.976  1.00  0.00     0.124 S 
ATOM    100  O   UNL A   1      49.008  23.718  34.374  1.00  0.00    -0.237 OA
ATOM    101  O   UNL A   1      48.274  22.561  36.433  1.00  0.00    -0.237 OA
ATOM    102  O   UNL A   1      48.766  21.264  34.394  1.00  0.00    -0.744 OA
ENDBRANCH  95  99
ENDBRANCH  69  92
ENDBRANCH  43  44
ENDBRANCH  35  38
ENDBRANCH  33  34
ENDBRANCH  32  33
ENDBRANCH  31  32
ENDBRANCH   1  31
TORSDOF 20
ENDMDL
MODEL 2
REMARK VINA RESULT:     -12.2      2.373      3.258
REMARK SMILES Cc1ccccc1NC(=O)CSc1nc(C(=O)NCCCCCCNC(=O)c2ccc(-c3c4nc(c(-c5cc(S(=O)(=O)[O-])ccc5F)c5ccc([nH]5)c(-c5cc(S(=O)(=O)[O-])ccc5F)c5nc(c(-c6cc(S(=O)(=O)[O-])ccc6F)c6ccc3[nH]6)C=C5)C=C4)cc2)c2ccccc2n1
REMARK SMILES IDX 21 1 20 2 19 3 18 4 16 5 17 6 15 8 13 9 14 10 97 11 96 12
REMARK SMILES IDX 91 13 95 14 92 15 94 16 93 17 12 18 11 19 9 20 8 21 10 23
REMARK SMILES IDX 7 24 1 25 2 26 3 27 4 28 6 29 5 30 22 31 23 32 24 33 25 34
REMARK SMILES IDX 26 35 27 37 28 38 29 39 90 40 30 41 89 42 31 43 32 44 33 45
REMARK SMILES IDX 83 46 34 47 88 48 82 49 84 50 35 51 87 52 81 53 80 54 36 56
REMARK SMILES IDX 68 57 48 58 67 59 49 60 52 61 66 62 85 63 50 64 51 65 65 67
REMARK SMILES IDX 86 68 53 69 37 70 38 71 46 72 39 73 45 74 47 75 44 76 40 77
REMARK SMILES IDX 41 78 42 79 43 80 69 81 70 82 78 83 71 84 77 85 79 86 76 87
REMARK SMILES IDX 72 88 73 89 74 90 75 91 54 92 55 93 63 94 56 95 62 96 64 97
REMARK SMILES IDX 61 98 57 99 58 100 59 101 60 102
REMARK H PARENT 18 7 8 22 25 36 84 55 52 66
REMARK Flexibility Score: inf
ROOT
ATOM      1  C   UNL A   1      34.602  31.750  28.578  1.00  0.00     0.002 C 
ENDROOT
BRANCH   1   2
ATOM      2  C   UNL A   1      35.296  30.617  27.810  1.00  0.00     0.021 C 
BRANCH   2   3
ATOM      3  C   UNL A   1      34.437  29.633  27.022  1.00  0.00     0.116 C 
BRANCH   3   4
ATOM      4  N   UNL A   1      33.200  29.211  27.653  1.00  0.00    -0.351 N 
ATOM      5  C   UNL A   1      32.349  28.171  27.321  1.00  0.00     0.270 C 
ATOM      6  O   UNL A   1      31.397  27.923  28.061  1.00  0.00    -0.267 OA
ATOM      7  H   UNL A   1      32.926  29.743  28.434  1.00  0.00     0.163 HD
BRANCH   5   8
ATOM      8  C   UNL A   1      32.507  27.394  26.046  1.00  0.00     0.140 A 
ATOM      9  C   UNL A   1      33.401  25.511  25.130  1.00  0.00     0.189 A 
ATOM     10  N   UNL A   1      33.315  26.314  26.186  1.00  0.00    -0.217 NA
ATOM     11  N   UNL A   1      32.692  25.644  24.004  1.00  0.00    -0.222 NA
ATOM     12  C   UNL A   1      31.919  26.724  23.879  1.00  0.00     0.076 A 
ATOM     13  C   UNL A   1      31.848  27.722  24.854  1.00  0.00     0.032 A 
ATOM     14  C   UNL A   1      31.146  26.854  22.733  1.00  0.00     0.029 A 
ATOM     15  C   UNL A   1      31.140  28.917  24.563  1.00  0.00     0.013 A 
ATOM     16  C   UNL A   1      30.349  27.979  22.503  1.00  0.00     0.002 A 
ATOM     17  C   UNL A   1      30.373  29.031  23.406  1.00  0.00     0.001 A 
BRANCH   9  18
ATOM     18  S   UNL A   1      34.464  24.104  25.228  1.00  0.00    -0.076 SA
BRANCH  18  19
ATOM     19  C   UNL A   1      33.837  23.341  26.752  1.00  0.00     0.178 C 
BRANCH  19  20
ATOM     20  C   UNL A   1      32.356  23.031  26.729  1.00  0.00     0.234 C 
ATOM     21  N   UNL A   1      31.768  22.013  26.044  1.00  0.00    -0.325 N 
ATOM     22  H   UNL A   1      30.789  22.018  26.150  1.00  0.00     0.169 HD
ATOM     23  O   UNL A   1      31.572  23.770  27.344  1.00  0.00    -0.274 OA
BRANCH  21  24
ATOM     24  C   UNL A   1      32.198  20.952  25.222  1.00  0.00     0.044 A 
ATOM     25  C   UNL A   1      31.647  22.342  23.098  1.00  0.00     0.046 C 
ATOM     26  C   UNL A   1      32.091  21.091  23.815  1.00  0.00    -0.027 A 
ATOM     27  C   UNL A   1      32.374  19.985  22.986  1.00  0.00     0.005 A 
ATOM     28  C   UNL A   1      32.807  18.777  23.519  1.00  0.00     0.000 A 
ATOM     29  C   UNL A   1      32.715  19.755  25.724  1.00  0.00     0.026 A 
ATOM     30  C   UNL A   1      33.002  18.672  24.887  1.00  0.00     0.002 A 
ENDBRANCH  21  24
ENDBRANCH  19  20
ENDBRANCH  18  19
ENDBRANCH   9  18
ENDBRANCH   5   8
ENDBRANCH   3   4
ENDBRANCH   2   3
ENDBRANCH   1   2
BRANCH   1  31
ATOM     31  C   UNL A   1      34.668  33.187  28.044  1.00  0.00     0.002 C 
BRANCH  31  32
ATOM     32  C   UNL A   1      34.618  34.323  29.062  1.00  0.00     0.021 C 
BRANCH  32  33
ATOM     33  C   UNL A   1      34.559  33.889  30.522  1.00  0.00     0.116 C 
BRANCH  33  34
ATOM     34  N   UNL A   1      35.547  34.546  31.377  1.00  0.00    -0.352 N 
ATOM     35  C   UNL A   1      36.852  34.149  31.626  1.00  0.00     0.251 C 
ATOM     36  H   UNL A   1      35.251  35.369  31.830  1.00  0.00     0.163 HD
ATOM     37  O   UNL A   1      37.612  34.784  32.341  1.00  0.00    -0.269 OA
BRANCH  35  38
ATOM     38  C   UNL A   1      37.345  32.957  30.900  1.00  0.00     0.039 A 
ATOM     39  C   UNL A   1      37.334  31.740  31.589  1.00  0.00     0.014 A 
ATOM     40  C   UNL A   1      38.075  33.115  29.724  1.00  0.00     0.014 A 
ATOM     41  C   UNL A   1      38.250  30.757  31.231  1.00  0.00     0.010 A 
ATOM     42  C   UNL A   1      39.043  32.171  29.425  1.00  0.00     0.010 A 
ATOM     43  C   UNL A   1      39.184  31.032  30.229  1.00  0.00    -0.014 A 
BRANCH  43  44
ATOM     44  C   UNL A   1      40.437  30.288  30.108  1.00  0.00     0.031 A 
ATOM     45  C   UNL A   1      40.470  28.911  29.577  1.00  0.00     0.074 A 
ATOM     46  C   UNL A   1      41.602  30.873  30.470  1.00  0.00     0.049 A 
ATOM     47  N   UNL A   1      41.423  28.068  29.795  1.00  0.00    -0.248 NA
ATOM     48  C   UNL A   1      39.379  28.352  28.792  1.00  0.00     0.031 C 
ATOM     49  C   UNL A   1      42.958  30.397  30.209  1.00  0.00     0.029 A 
ATOM     50  N   UNL A   1      41.766  31.888  31.412  1.00  0.00    -0.354 N 
ATOM     51  C   UNL A   1      41.228  26.984  28.974  1.00  0.00     0.074 A 
ATOM     52  C   UNL A   1      39.905  27.181  28.424  1.00  0.00     0.031 C 
ATOM     53  C   UNL A   1      43.777  30.899  31.144  1.00  0.00     0.029 A 
ATOM     54  C   UNL A   1      42.958  31.607  32.109  1.00  0.00     0.049 A 
ATOM     55  H   UNL A   1      41.165  32.653  31.560  1.00  0.00     0.167 HD
ATOM     56  C   UNL A   1      42.256  26.111  28.761  1.00  0.00     0.034 A 
ATOM     57  C   UNL A   1      42.938  31.385  33.455  1.00  0.00     0.034 A 
ATOM     58  C   UNL A   1      43.410  26.391  29.625  1.00  0.00     0.049 A 
ATOM     59  C   UNL A   1      43.416  30.005  33.873  1.00  0.00     0.074 A 
ATOM     60  C   UNL A   1      44.672  26.932  29.437  1.00  0.00     0.029 A 
ATOM     61  N   UNL A   1      43.246  26.295  30.998  1.00  0.00    -0.354 N 
ATOM     62  N   UNL A   1      43.821  29.072  33.052  1.00  0.00    -0.248 NA
ATOM     63  C   UNL A   1      43.372  29.538  35.259  1.00  0.00     0.031 C 
ATOM     64  C   UNL A   1      45.258  27.159  30.719  1.00  0.00     0.029 A 
ATOM     65  C   UNL A   1      44.359  26.745  31.683  1.00  0.00     0.049 A 
ATOM     66  H   UNL A   1      42.433  25.950  31.433  1.00  0.00     0.167 HD
ATOM     67  C   UNL A   1      44.009  27.902  33.747  1.00  0.00     0.074 A 
ATOM     68  C   UNL A   1      43.720  28.249  35.127  1.00  0.00     0.031 C 
ATOM     69  C   UNL A   1      44.331  26.720  33.139  1.00  0.00     0.034 A 
BRANCH  56  70
ATOM     70  C   UNL A   1      42.311  25.146  27.591  1.00  0.00     0.023 A 
ATOM     71  C   UNL A   1      41.560  23.952  27.643  1.00  0.00     0.031 A 
ATOM     72  C   UNL A   1      43.104  25.301  26.438  1.00  0.00     0.131 A 
ATOM     73  C   UNL A   1      41.705  22.946  26.668  1.00  0.00     0.055 A 
ATOM     74  C   UNL A   1      43.303  24.275  25.503  1.00  0.00     0.041 A 
ATOM     75  F   UNL A   1      43.671  26.471  26.122  1.00  0.00    -0.206 F 
ATOM     76  C   UNL A   1      42.614  23.081  25.623  1.00  0.00     0.022 A 
BRANCH  73  77
ATOM     77  S   UNL A   1      40.686  21.450  26.779  1.00  0.00     0.124 S 
ATOM     78  O   UNL A   1      39.412  21.899  26.229  1.00  0.00    -0.237 OA
ATOM     79  O   UNL A   1      41.443  20.502  25.969  1.00  0.00    -0.237 OA
ATOM     80  O   UNL A   1      40.669  21.158  28.212  1.00  0.00    -0.744 OA
ENDBRANCH  73  77
ENDBRANCH  56  70
BRANCH  57  81
ATOM     81  C   UNL A   1      41.906  32.202  34.161  1.00  0.00     0.023 A 
ATOM     82  C   UNL A   1      40.606  31.659  34.268  1.00  0.00     0.031 A 
ATOM     83  C   UNL A   1      42.242  33.267  35.008  1.00  0.00     0.131 A 
ATOM     84  C   UNL A   1      39.751  32.072  35.296  1.00  0.00     0.055 A 
ATOM     85  C   UNL A   1      41.353  33.727  35.988  1.00  0.00     0.041 A 
ATOM     86  F   UNL A   1      43.473  33.796  34.991  1.00  0.00    -0.206 F 
ATOM     87  C   UNL A   1      40.119  33.102  36.163  1.00  0.00     0.022 A 
BRANCH  84  88
ATOM     88  S   UNL A   1      38.245  31.124  35.668  1.00  0.00     0.124 S 
ATOM     89  O   UNL A   1      38.301  30.056  34.677  1.00  0.00    -0.237 OA
ATOM     90  O   UNL A   1      38.434  30.708  37.055  1.00  0.00    -0.237 OA
ATOM     91  O   UNL A   1      37.191  32.118  35.472  1.00  0.00    -0.744 OA
ENDBRANCH  84  88
ENDBRANCH  57  81
BRANCH  69  92
ATOM     92  C   UNL A   1      44.579  25.422  33.880  1.00  0.00     0.023 A 
ATOM     93  C   UNL A   1      45.848  24.822  33.951  1.00  0.00     0.031 A 
ATOM     94  C   UNL A   1      43.526  24.701  34.492  1.00  0.00     0.131 A 
ATOM     95  C   UNL A   1      46.052  23.639  34.685  1.00  0.00     0.055 A 
ATOM     96  C   UNL A   1      43.718  23.485  35.155  1.00  0.00     0.041 A 
ATOM     97  F   UNL A   1      42.265  25.157  34.498  1.00  0.00    -0.206 F 
ATOM     98  C   UNL A   1      44.991  22.955  35.274  1.00  0.00     0.022 A 
BRANCH  95  99
ATOM     99  S   UNL A   1      47.748  23.045  34.918  1.00  0.00     0.124 S 
ATOM    100  O   UNL A   1      48.522  23.961  34.087  1.00  0.00    -0.237 OA
ATOM    101  O   UNL A   1      47.921  23.197  36.361  1.00  0.00    -0.237 OA
ATOM    102  O   UNL A   1      47.700  21.663  34.442  1.00  0.00    -0.744 OA
ENDBRANCH  95  99
ENDBRANCH  69  92
ENDBRANCH  43  44
ENDBRANCH  35  38
ENDBRANCH  33  34
ENDBRANCH  32  33
ENDBRANCH  31  32
ENDBRANCH   1  31
TORSDOF 20
ENDMDL
MODEL 3
REMARK VINA RESULT:     -12.1      2.390      3.020
REMARK SMILES Cc1ccccc1NC(=O)CSc1nc(C(=O)NCCCCCCNC(=O)c2ccc(-c3c4nc(c(-c5cc(S(=O)(=O)[O-])ccc5F)c5ccc([nH]5)c(-c5cc(S(=O)(=O)[O-])ccc5F)c5nc(c(-c6cc(S(=O)(=O)[O-])ccc6F)c6ccc3[nH]6)C=C5)C=C4)cc2)c2ccccc2n1
REMARK SMILES IDX 21 1 20 2 19 3 18 4 16 5 17 6 15 8 13 9 14 10 97 11 96 12
REMARK SMILES IDX 91 13 95 14 92 15 94 16 93 17 12 18 11 19 9 20 8 21 10 23
REMARK SMILES IDX 7 24 1 25 2 26 3 27 4 28 6 29 5 30 22 31 23 32 24 33 25 34
REMARK SMILES IDX 26 35 27 37 28 38 29 39 90 40 30 41 89 42 31 43 32 44 33 45
REMARK SMILES IDX 83 46 34 47 88 48 82 49 84 50 35 51 87 52 81 53 80 54 36 56
REMARK SMILES IDX 68 57 48 58 67 59 49 60 52 61 66 62 85 63 50 64 51 65 65 67
REMARK SMILES IDX 86 68 53 69 37 70 38 71 46 72 39 73 45 74 47 75 44 76 40 77
REMARK SMILES IDX 41 78 42 79 43 80 69 81 70 82 78 83 71 84 77 85 79 86 76 87
REMARK SMILES IDX 72 88 73 89 74 90 75 91 54 92 55 93 63 94 56 95 62 96 64 97
REMARK SMILES IDX 61 98 57 99 58 100 59 101 60 102
REMARK H PARENT 18 7 8 22 25 36 84 55 52 66
REMARK Flexibility Score: inf
ROOT
ATOM      1  C   UNL A   1      35.089  30.482  28.182  1.00  0.00     0.002 C 
ENDROOT
BRANCH   1   2
ATOM      2  C   UNL A   1      35.297  29.341  27.176  1.00  0.00     0.021 C 
BRANCH   2   3
ATOM      3  C   UNL A   1      34.119  28.430  26.850  1.00  0.00     0.116 C 
BRANCH   3   4
ATOM      4  N   UNL A   1      32.920  28.618  27.646  1.00  0.00    -0.351 N 
ATOM      5  C   UNL A   1      31.694  27.980  27.564  1.00  0.00     0.270 C 
ATOM      6  O   UNL A   1      30.839  28.224  28.414  1.00  0.00    -0.267 OA
ATOM      7  H   UNL A   1      32.989  29.302  28.351  1.00  0.00     0.163 HD
BRANCH   5   8
ATOM      8  C   UNL A   1      31.354  27.064  26.423  1.00  0.00     0.140 A 
ATOM      9  C   UNL A   1      31.033  24.889  25.835  1.00  0.00     0.189 A 
ATOM     10  N   UNL A   1      31.440  25.753  26.758  1.00  0.00    -0.217 NA
ATOM     11  N   UNL A   1      30.473  25.220  24.666  1.00  0.00    -0.222 NA
ATOM     12  C   UNL A   1      30.417  26.514  24.347  1.00  0.00     0.076 A 
ATOM     13  C   UNL A   1      30.941  27.519  25.164  1.00  0.00     0.032 A 
ATOM     14  C   UNL A   1      29.802  26.875  23.156  1.00  0.00     0.029 A 
ATOM     15  C   UNL A   1      30.996  28.847  24.668  1.00  0.00     0.013 A 
ATOM     16  C   UNL A   1      29.746  28.203  22.726  1.00  0.00     0.002 A 
ATOM     17  C   UNL A   1      30.376  29.190  23.469  1.00  0.00     0.001 A 
BRANCH   9  18
ATOM     18  S   UNL A   1      31.150  23.162  26.188  1.00  0.00    -0.076 SA
BRANCH  18  19
ATOM     19  C   UNL A   1      31.199  22.498  24.499  1.00  0.00     0.178 C 
BRANCH  19  20
ATOM     20  C   UNL A   1      32.580  22.097  24.027  1.00  0.00     0.234 C 
ATOM     21  N   UNL A   1      33.477  22.915  23.412  1.00  0.00    -0.325 N 
ATOM     22  H   UNL A   1      34.301  22.433  23.166  1.00  0.00     0.169 HD
ATOM     23  O   UNL A   1      32.948  20.920  24.159  1.00  0.00    -0.274 OA
BRANCH  21  24
ATOM     24  C   UNL A   1      33.533  24.272  23.036  1.00  0.00     0.044 A 
ATOM     25  C   UNL A   1      34.709  24.868  25.274  1.00  0.00     0.046 C 
ATOM     26  C   UNL A   1      34.075  25.211  23.949  1.00  0.00    -0.027 A 
ATOM     27  C   UNL A   1      34.000  26.588  23.652  1.00  0.00     0.005 A 
ATOM     28  C   UNL A   1      33.452  27.039  22.456  1.00  0.00     0.000 A 
ATOM     29  C   UNL A   1      33.065  24.746  21.808  1.00  0.00     0.026 A 
ATOM     30  C   UNL A   1      33.009  26.114  21.524  1.00  0.00     0.002 A 
ENDBRANCH  21  24
ENDBRANCH  19  20
ENDBRANCH  18  19
ENDBRANCH   9  18
ENDBRANCH   5   8
ENDBRANCH   3   4
ENDBRANCH   2   3
ENDBRANCH   1   2
BRANCH   1  31
ATOM     31  C   UNL A   1      34.791  31.901  27.677  1.00  0.00     0.002 C 
BRANCH  31  32
ATOM     32  C   UNL A   1      34.583  32.993  28.721  1.00  0.00     0.021 C 
BRANCH  32  33
ATOM     33  C   UNL A   1      34.766  32.557  30.170  1.00  0.00     0.116 C 
BRANCH  33  34
ATOM     34  N   UNL A   1      35.770  33.329  30.901  1.00  0.00    -0.352 N 
ATOM     35  C   UNL A   1      37.099  33.002  31.120  1.00  0.00     0.251 C 
ATOM     36  H   UNL A   1      35.466  34.185  31.283  1.00  0.00     0.163 HD
ATOM     37  O   UNL A   1      37.869  33.731  31.727  1.00  0.00    -0.269 OA
BRANCH  35  38
ATOM     38  C   UNL A   1      37.600  31.757  30.495  1.00  0.00     0.039 A 
ATOM     39  C   UNL A   1      37.740  30.639  31.322  1.00  0.00     0.014 A 
ATOM     40  C   UNL A   1      38.199  31.806  29.239  1.00  0.00     0.014 A 
ATOM     41  C   UNL A   1      38.682  29.671  30.990  1.00  0.00     0.010 A 
ATOM     42  C   UNL A   1      39.196  30.888  28.954  1.00  0.00     0.010 A 
ATOM     43  C   UNL A   1      39.492  29.870  29.870  1.00  0.00    -0.014 A 
BRANCH  43  44
ATOM     44  C   UNL A   1      40.776  29.187  29.708  1.00  0.00     0.031 A 
ATOM     45  C   UNL A   1      40.851  27.762  29.333  1.00  0.00     0.074 A 
ATOM     46  C   UNL A   1      41.928  29.875  29.884  1.00  0.00     0.049 A 
ATOM     47  N   UNL A   1      41.875  27.005  29.546  1.00  0.00    -0.248 NA
ATOM     48  C   UNL A   1      39.733  27.055  28.728  1.00  0.00     0.031 C 
ATOM     49  C   UNL A   1      43.282  29.448  29.544  1.00  0.00     0.029 A 
ATOM     50  N   UNL A   1      42.110  31.001  30.686  1.00  0.00    -0.354 N 
ATOM     51  C   UNL A   1      41.678  25.823  28.875  1.00  0.00     0.074 A 
ATOM     52  C   UNL A   1      40.299  25.880  28.441  1.00  0.00     0.031 C 
ATOM     53  C   UNL A   1      44.149  30.102  30.330  1.00  0.00     0.029 A 
ATOM     54  C   UNL A   1      43.377  30.872  31.287  1.00  0.00     0.049 A 
ATOM     55  H   UNL A   1      41.475  31.744  30.807  1.00  0.00     0.167 HD
ATOM     56  C   UNL A   1      42.738  24.990  28.659  1.00  0.00     0.034 A 
ATOM     57  C   UNL A   1      43.498  30.808  32.645  1.00  0.00     0.034 A 
ATOM     58  C   UNL A   1      43.946  25.433  29.366  1.00  0.00     0.049 A 
ATOM     59  C   UNL A   1      44.104  29.516  33.164  1.00  0.00     0.074 A 
ATOM     60  C   UNL A   1      45.146  26.018  28.994  1.00  0.00     0.029 A 
ATOM     61  N   UNL A   1      43.917  25.490  30.751  1.00  0.00    -0.354 N 
ATOM     62  N   UNL A   1      44.492  28.517  32.416  1.00  0.00    -0.248 NA
ATOM     63  C   UNL A   1      44.221  29.213  34.590  1.00  0.00     0.031 C 
ATOM     64  C   UNL A   1      45.832  26.426  30.178  1.00  0.00     0.029 A 
ATOM     65  C   UNL A   1      45.056  26.078  31.267  1.00  0.00     0.049 A 
ATOM     66  H   UNL A   1      43.173  25.153  31.301  1.00  0.00     0.167 HD
ATOM     67  C   UNL A   1      44.823  27.449  33.214  1.00  0.00     0.074 A 
ATOM     68  C   UNL A   1      44.640  27.938  34.569  1.00  0.00     0.031 C 
ATOM     69  C   UNL A   1      45.165  26.224  32.712  1.00  0.00     0.034 A 
BRANCH  56  70
ATOM     70  C   UNL A   1      42.748  23.899  27.604  1.00  0.00     0.023 A 
ATOM     71  C   UNL A   1      43.815  23.838  26.683  1.00  0.00     0.031 A 
ATOM     72  C   UNL A   1      41.738  22.937  27.409  1.00  0.00     0.131 A 
ATOM     73  C   UNL A   1      43.791  22.958  25.582  1.00  0.00     0.055 A 
ATOM     74  C   UNL A   1      41.677  22.110  26.279  1.00  0.00     0.041 A 
ATOM     75  F   UNL A   1      40.799  22.703  28.333  1.00  0.00    -0.206 F 
ATOM     76  C   UNL A   1      42.700  22.128  25.347  1.00  0.00     0.022 A 
BRANCH  73  77
ATOM     77  S   UNL A   1      45.211  22.910  24.455  1.00  0.00     0.124 S 
ATOM     78  O   UNL A   1      46.202  22.176  25.234  1.00  0.00    -0.237 OA
ATOM     79  O   UNL A   1      44.659  22.219  23.295  1.00  0.00    -0.237 OA
ATOM     80  O   UNL A   1      45.521  24.323  24.239  1.00  0.00    -0.744 OA
ENDBRANCH  73  77
ENDBRANCH  56  70
BRANCH  57  81
ATOM     81  C   UNL A   1      42.483  31.643  33.355  1.00  0.00     0.023 A 
ATOM     82  C   UNL A   1      41.336  30.988  33.855  1.00  0.00     0.031 A 
ATOM     83  C   UNL A   1      42.777  32.920  33.853  1.00  0.00     0.131 A 
ATOM     84  C   UNL A   1      40.619  31.539  34.924  1.00  0.00     0.055 A 
ATOM     85  C   UNL A   1      42.011  33.499  34.871  1.00  0.00     0.041 A 
ATOM     86  F   UNL A   1      43.877  33.575  33.455  1.00  0.00    -0.206 F 
ATOM     87  C   UNL A   1      40.954  32.791  35.441  1.00  0.00     0.022 A 
BRANCH  84  88
ATOM     88  S   UNL A   1      39.387  30.537  35.810  1.00  0.00     0.124 S 
ATOM     89  O   UNL A   1      38.952  31.445  36.864  1.00  0.00    -0.237 OA
ATOM     90  O   UNL A   1      38.390  30.235  34.786  1.00  0.00    -0.237 OA
ATOM     91  O   UNL A   1      40.174  29.385  36.246  1.00  0.00    -0.744 OA
ENDBRANCH  84  88
ENDBRANCH  57  81
BRANCH  69  92
ATOM     92  C   UNL A   1      45.568  25.038  33.565  1.00  0.00     0.023 A 
ATOM     93  C   UNL A   1      46.908  24.653  33.741  1.00  0.00     0.031 A 
ATOM     94  C   UNL A   1      44.605  24.204  34.183  1.00  0.00     0.131 A 
ATOM     95  C   UNL A   1      47.250  23.572  34.575  1.00  0.00     0.055 A 
ATOM     96  C   UNL A   1      44.944  23.084  34.948  1.00  0.00     0.041 A 
ATOM     97  F   UNL A   1      43.291  24.453  34.095  1.00  0.00    -0.206 F 
ATOM     98  C   UNL A   1      46.275  22.772  35.168  1.00  0.00     0.022 A 
BRANCH  95  99
ATOM     99  S   UNL A   1      49.001  23.272  34.932  1.00  0.00     0.124 S 
ATOM    100  O   UNL A   1      49.638  24.487  34.436  1.00  0.00    -0.237 OA
ATOM    101  O   UNL A   1      48.985  23.112  36.384  1.00  0.00    -0.237 OA
ATOM    102  O   UNL A   1      49.305  22.057  34.178  1.00  0.00    -0.744 OA
ENDBRANCH  95  99
ENDBRANCH  69  92
ENDBRANCH  43  44
ENDBRANCH  35  38
ENDBRANCH  33  34
ENDBRANCH  32  33
ENDBRANCH  31  32
ENDBRANCH   1  31
TORSDOF 20
ENDMDL
