MODEL 1
REMARK VINA RESULT:     -10.7      0.000      0.000
REMARK SMILES C[C@H](O)C[C@@H](Cc1cccc(Br)c1)C(=O)NCCCCCCNC(=O)c1ccc(-c2c3nc(c(-c4cc(S(=O)(=O)[O-])ccc4F)c4ccc([nH]4)c(-c4cc(S(=O)(=O)[O-])ccc4F)c4nc(c(-c5cc(S(=O)(=O)[O-])ccc5F)c5ccc2[nH]5)C=C4)C=C3)cc1
REMARK SMILES IDX 19 1 18 2 17 3 16 4 14 5 15 6 5 8 4 9 2 10 1 11 3 12 6 14
REMARK SMILES IDX 7 15 8 16 13 17 9 18 11 19 10 20 12 21 20 22 21 23 22 24
REMARK SMILES IDX 23 25 24 26 25 28 26 29 27 30 88 31 28 32 87 33 29 34 30 35
REMARK SMILES IDX 31 36 81 37 32 38 86 39 80 40 82 41 33 42 85 43 79 44 78 45
REMARK SMILES IDX 34 47 66 48 46 49 65 50 47 51 50 52 64 53 83 54 48 55 49 56
REMARK SMILES IDX 63 58 84 59 51 60 35 61 36 62 44 63 37 64 43 65 45 66 42 67
REMARK SMILES IDX 38 68 39 69 40 70 41 71 67 72 68 73 76 74 69 75 75 76 77 77
REMARK SMILES IDX 74 78 70 79 71 80 72 81 73 82 52 83 53 84 61 85 54 86 60 87
REMARK SMILES IDX 62 88 59 89 55 90 56 91 57 92 58 93
REMARK H PARENT 16 7 3 13 23 27 82 46 50 57
REMARK Flexibility Score: inf
ROOT
ATOM      1  C   UNL A   1      32.696  29.541  26.320  1.00  0.00     0.002 C 
ENDROOT
BRANCH   1   2
ATOM      2  C   UNL A   1      32.076  28.409  27.142  1.00  0.00     0.021 C 
BRANCH   2   3
ATOM      3  C   UNL A   1      32.487  27.018  26.687  1.00  0.00     0.116 C 
BRANCH   3   4
ATOM      4  N   UNL A   1      31.479  26.003  26.908  1.00  0.00    -0.356 N 
ATOM      5  C   UNL A   1      30.737  25.291  26.015  1.00  0.00     0.223 C 
ATOM      6  O   UNL A   1      30.139  24.301  26.447  1.00  0.00    -0.275 OA
ATOM      7  H   UNL A   1      31.301  25.794  27.853  1.00  0.00     0.163 HD
BRANCH   5   8
ATOM      8  C   UNL A   1      30.607  25.676  24.536  1.00  0.00     0.085 C 
BRANCH   8   9
ATOM      9  C   UNL A   1      29.832  26.996  24.346  1.00  0.00     0.045 C 
BRANCH   9  10
ATOM     10  C   UNL A   1      28.529  26.887  23.553  1.00  0.00     0.112 C 
ATOM     11  C   UNL A   1      28.001  28.275  23.204  1.00  0.00     0.038 C 
BRANCH  10  12
ATOM     12  O   UNL A   1      27.557  26.181  24.312  1.00  0.00    -0.393 OA
ATOM     13  H   UNL A   1      27.624  25.232  24.123  1.00  0.00     0.210 HD
ENDBRANCH  10  12
ENDBRANCH   9  10
ENDBRANCH   8   9
BRANCH   8  14
ATOM     14  C   UNL A   1      31.898  25.433  23.719  1.00  0.00     0.049 C 
BRANCH  14  15
ATOM     15  C   UNL A   1      32.709  24.186  23.977  1.00  0.00    -0.046 A 
ATOM     16  C   UNL A   1      32.164  22.908  23.789  1.00  0.00     0.004 A 
ATOM     17  C   UNL A   1      34.048  24.291  24.393  1.00  0.00     0.019 A 
ATOM     18  C   UNL A   1      32.953  21.765  23.947  1.00  0.00     0.001 A 
ATOM     19  C   UNL A   1      34.830  23.144  24.551  1.00  0.00     0.018 A 
ATOM     20  C   UNL A   1      34.291  21.881  24.318  1.00  0.00     0.016 A 
ATOM     21  Br  UNL A   1      36.656  23.311  25.013  1.00  0.00    -0.051 Br
ENDBRANCH  14  15
ENDBRANCH   8  14
ENDBRANCH   5   8
ENDBRANCH   3   4
ENDBRANCH   2   3
ENDBRANCH   1   2
BRANCH   1  22
ATOM     22  C   UNL A   1      31.733  30.661  25.900  1.00  0.00     0.002 C 
BRANCH  22  23
ATOM     23  C   UNL A   1      31.563  31.804  26.907  1.00  0.00     0.021 C 
BRANCH  23  24
ATOM     24  C   UNL A   1      32.863  32.458  27.361  1.00  0.00     0.116 C 
BRANCH  24  25
ATOM     25  N   UNL A   1      32.686  33.869  27.658  1.00  0.00    -0.352 N 
ATOM     26  C   UNL A   1      33.281  34.643  28.623  1.00  0.00     0.251 C 
ATOM     27  H   UNL A   1      32.045  34.341  27.079  1.00  0.00     0.163 HD
ATOM     28  O   UNL A   1      32.843  35.765  28.850  1.00  0.00    -0.269 OA
BRANCH  26  29
ATOM     29  C   UNL A   1      34.427  34.116  29.398  1.00  0.00     0.039 A 
ATOM     30  C   UNL A   1      34.174  33.269  30.480  1.00  0.00     0.014 A 
ATOM     31  C   UNL A   1      35.741  34.469  29.078  1.00  0.00     0.014 A 
ATOM     32  C   UNL A   1      35.240  32.734  31.205  1.00  0.00     0.010 A 
ATOM     33  C   UNL A   1      36.804  33.870  29.749  1.00  0.00     0.010 A 
ATOM     34  C   UNL A   1      36.565  33.003  30.826  1.00  0.00    -0.014 A 
BRANCH  34  35
ATOM     35  C   UNL A   1      37.710  32.394  31.552  1.00  0.00     0.031 A 
ATOM     36  C   UNL A   1      38.503  31.283  30.920  1.00  0.00     0.074 A 
ATOM     37  C   UNL A   1      37.999  32.805  32.803  1.00  0.00     0.049 A 
ATOM     38  N   UNL A   1      39.492  30.585  31.415  1.00  0.00    -0.248 NA
ATOM     39  C   UNL A   1      38.106  30.884  29.562  1.00  0.00     0.031 C 
ATOM     40  C   UNL A   1      37.273  33.843  33.537  1.00  0.00     0.029 A 
ATOM     41  N   UNL A   1      38.970  32.395  33.680  1.00  0.00    -0.354 N 
ATOM     42  C   UNL A   1      39.831  29.658  30.435  1.00  0.00     0.074 A 
ATOM     43  C   UNL A   1      38.888  29.836  29.351  1.00  0.00     0.031 C 
ATOM     44  C   UNL A   1      37.842  34.009  34.741  1.00  0.00     0.029 A 
ATOM     45  C   UNL A   1      38.938  33.056  34.887  1.00  0.00     0.049 A 
ATOM     46  H   UNL A   1      39.629  31.695  33.467  1.00  0.00     0.167 HD
ATOM     47  C   UNL A   1      40.849  28.760  30.428  1.00  0.00     0.034 A 
ATOM     48  C   UNL A   1      39.693  32.903  35.992  1.00  0.00     0.034 A 
ATOM     49  C   UNL A   1      41.777  28.599  31.523  1.00  0.00     0.049 A 
ATOM     50  C   UNL A   1      40.797  31.876  35.981  1.00  0.00     0.074 A 
ATOM     51  C   UNL A   1      42.875  27.760  31.606  1.00  0.00     0.029 A 
ATOM     52  N   UNL A   1      41.708  29.279  32.733  1.00  0.00    -0.354 N 
ATOM     53  N   UNL A   1      41.140  31.043  35.025  1.00  0.00    -0.248 NA
ATOM     54  C   UNL A   1      41.620  31.777  37.192  1.00  0.00     0.031 C 
ATOM     55  C   UNL A   1      43.419  27.873  32.890  1.00  0.00     0.029 A 
ATOM     56  C   UNL A   1      42.719  28.849  33.582  1.00  0.00     0.049 A 
ATOM     57  H   UNL A   1      41.040  29.967  32.956  1.00  0.00     0.167 HD
ATOM     58  C   UNL A   1      42.238  30.340  35.511  1.00  0.00     0.074 A 
ATOM     59  C   UNL A   1      42.506  30.859  36.838  1.00  0.00     0.031 C 
ATOM     60  C   UNL A   1      42.963  29.359  34.913  1.00  0.00     0.034 A 
BRANCH  47  61
ATOM     61  C   UNL A   1      40.977  27.868  29.213  1.00  0.00     0.023 A 
ATOM     62  C   UNL A   1      42.010  28.041  28.274  1.00  0.00     0.031 A 
ATOM     63  C   UNL A   1      40.025  26.864  28.958  1.00  0.00     0.131 A 
ATOM     64  C   UNL A   1      42.008  27.302  27.082  1.00  0.00     0.055 A 
ATOM     65  C   UNL A   1      40.086  26.062  27.815  1.00  0.00     0.041 A 
ATOM     66  F   UNL A   1      39.002  26.660  29.803  1.00  0.00    -0.206 F 
ATOM     67  C   UNL A   1      41.070  26.294  26.858  1.00  0.00     0.022 A 
BRANCH  64  68
ATOM     68  S   UNL A   1      43.131  27.809  25.750  1.00  0.00     0.124 S 
ATOM     69  O   UNL A   1      42.230  27.836  24.599  1.00  0.00    -0.237 OA
ATOM     70  O   UNL A   1      43.610  29.104  26.217  1.00  0.00    -0.237 OA
ATOM     71  O   UNL A   1      44.132  26.745  25.722  1.00  0.00    -0.744 OA
ENDBRANCH  64  68
ENDBRANCH  47  61
BRANCH  48  72
ATOM     72  C   UNL A   1      39.423  33.731  37.201  1.00  0.00     0.023 A 
ATOM     73  C   UNL A   1      38.731  33.207  38.304  1.00  0.00     0.031 A 
ATOM     74  C   UNL A   1      39.850  35.070  37.266  1.00  0.00     0.131 A 
ATOM     75  C   UNL A   1      38.457  34.025  39.410  1.00  0.00     0.055 A 
ATOM     76  C   UNL A   1      39.621  35.864  38.391  1.00  0.00     0.041 A 
ATOM     77  F   UNL A   1      40.522  35.619  36.242  1.00  0.00    -0.206 F 
ATOM     78  C   UNL A   1      38.911  35.345  39.468  1.00  0.00     0.022 A 
BRANCH  75  79
ATOM     79  S   UNL A   1      37.437  33.358  40.754  1.00  0.00     0.124 S 
ATOM     80  O   UNL A   1      36.346  32.732  40.016  1.00  0.00    -0.237 OA
ATOM     81  O   UNL A   1      38.366  32.452  41.419  1.00  0.00    -0.237 OA
ATOM     82  O   UNL A   1      37.070  34.546  41.524  1.00  0.00    -0.744 OA
ENDBRANCH  75  79
ENDBRANCH  48  72
BRANCH  60  83
ATOM     83  C   UNL A   1      44.144  28.811  35.681  1.00  0.00     0.023 A 
ATOM     84  C   UNL A   1      44.025  27.699  36.532  1.00  0.00     0.031 A 
ATOM     85  C   UNL A   1      45.407  29.420  35.563  1.00  0.00     0.131 A 
ATOM     86  C   UNL A   1      45.133  27.264  37.276  1.00  0.00     0.055 A 
ATOM     87  C   UNL A   1      46.521  28.942  36.254  1.00  0.00     0.041 A 
ATOM     88  F   UNL A   1      45.580  30.489  34.770  1.00  0.00    -0.206 F 
ATOM     89  C   UNL A   1      46.386  27.867  37.128  1.00  0.00     0.022 A 
BRANCH  86  90
ATOM     90  S   UNL A   1      44.893  25.967  38.520  1.00  0.00     0.124 S 
ATOM     91  O   UNL A   1      46.265  25.685  38.931  1.00  0.00    -0.237 OA
ATOM     92  O   UNL A   1      44.056  26.634  39.510  1.00  0.00    -0.237 OA
ATOM     93  O   UNL A   1      44.237  24.894  37.775  1.00  0.00    -0.744 OA
ENDBRANCH  86  90
ENDBRANCH  60  83
ENDBRANCH  34  35
ENDBRANCH  26  29
ENDBRANCH  24  25
ENDBRANCH  23  24
ENDBRANCH  22  23
ENDBRANCH   1  22
TORSDOF 21
ENDMDL
MODEL 2
REMARK VINA RESULT:     -10.6      2.454      3.328
REMARK SMILES C[C@H](O)C[C@@H](Cc1cccc(Br)c1)C(=O)NCCCCCCNC(=O)c1ccc(-c2c3nc(c(-c4cc(S(=O)(=O)[O-])ccc4F)c4ccc([nH]4)c(-c4cc(S(=O)(=O)[O-])ccc4F)c4nc(c(-c5cc(S(=O)(=O)[O-])ccc5F)c5ccc2[nH]5)C=C4)C=C3)cc1
REMARK SMILES IDX 19 1 18 2 17 3 16 4 14 5 15 6 5 8 4 9 2 10 1 11 3 12 6 14
REMARK SMILES IDX 7 15 8 16 13 17 9 18 11 19 10 20 12 21 20 22 21 23 22 24
REMARK SMILES IDX 23 25 24 26 25 28 26 29 27 30 88 31 28 32 87 33 29 34 30 35
REMARK SMILES IDX 31 36 81 37 32 38 86 39 80 40 82 41 33 42 85 43 79 44 78 45
REMARK SMILES IDX 34 47 66 48 46 49 65 50 47 51 50 52 64 53 83 54 48 55 49 56
REMARK SMILES IDX 63 58 84 59 51 60 35 61 36 62 44 63 37 64 43 65 45 66 42 67
REMARK SMILES IDX 38 68 39 69 40 70 41 71 67 72 68 73 76 74 69 75 75 76 77 77
REMARK SMILES IDX 74 78 70 79 71 80 72 81 73 82 52 83 53 84 61 85 54 86 60 87
REMARK SMILES IDX 62 88 59 89 55 90 56 91 57 92 58 93
REMARK H PARENT 16 7 3 13 23 27 82 46 50 57
REMARK Flexibility Score: inf
ROOT
ATOM      1  C   UNL A   1      30.925  26.711  26.689  1.00  0.00     0.002 C 
ENDROOT
BRANCH   1   2
ATOM      2  C   UNL A   1      30.155  25.702  25.836  1.00  0.00     0.021 C 
BRANCH   2   3
ATOM      3  C   UNL A   1      30.683  24.279  25.932  1.00  0.00     0.116 C 
BRANCH   3   4
ATOM      4  N   UNL A   1      30.678  23.561  24.675  1.00  0.00    -0.356 N 
ATOM      5  C   UNL A   1      31.705  23.238  23.843  1.00  0.00     0.223 C 
ATOM      6  O   UNL A   1      31.475  22.395  22.969  1.00  0.00    -0.275 OA
ATOM      7  H   UNL A   1      29.791  23.258  24.375  1.00  0.00     0.163 HD
BRANCH   5   8
ATOM      8  C   UNL A   1      33.094  23.881  23.934  1.00  0.00     0.085 C 
BRANCH   8   9
ATOM      9  C   UNL A   1      33.121  25.296  23.321  1.00  0.00     0.045 C 
BRANCH   9  10
ATOM     10  C   UNL A   1      33.105  25.352  21.793  1.00  0.00     0.112 C 
ATOM     11  C   UNL A   1      31.831  26.031  21.299  1.00  0.00     0.038 C 
BRANCH  10  12
ATOM     12  O   UNL A   1      33.187  24.038  21.259  1.00  0.00    -0.393 OA
ATOM     13  H   UNL A   1      32.913  23.396  21.932  1.00  0.00     0.210 HD
ENDBRANCH  10  12
ENDBRANCH   9  10
ENDBRANCH   8   9
BRANCH   8  14
ATOM     14  C   UNL A   1      33.802  23.630  25.287  1.00  0.00     0.049 C 
BRANCH  14  15
ATOM     15  C   UNL A   1      35.207  23.079  25.293  1.00  0.00    -0.046 A 
ATOM     16  C   UNL A   1      35.523  21.874  24.648  1.00  0.00     0.004 A 
ATOM     17  C   UNL A   1      36.238  23.788  25.934  1.00  0.00     0.019 A 
ATOM     18  C   UNL A   1      36.844  21.422  24.586  1.00  0.00     0.001 A 
ATOM     19  C   UNL A   1      37.556  23.329  25.870  1.00  0.00     0.018 A 
ATOM     20  C   UNL A   1      37.865  22.154  25.188  1.00  0.00     0.016 A 
ATOM     21  Br  UNL A   1      38.943  24.349  26.652  1.00  0.00    -0.051 Br
ENDBRANCH  14  15
ENDBRANCH   8  14
ENDBRANCH   5   8
ENDBRANCH   3   4
ENDBRANCH   2   3
ENDBRANCH   1   2
BRANCH   1  22
ATOM     22  C   UNL A   1      31.505  27.915  25.932  1.00  0.00     0.002 C 
BRANCH  22  23
ATOM     23  C   UNL A   1      33.002  27.842  25.614  1.00  0.00     0.021 C 
BRANCH  23  24
ATOM     24  C   UNL A   1      33.616  29.144  25.112  1.00  0.00     0.116 C 
BRANCH  24  25
ATOM     25  N   UNL A   1      32.964  30.309  25.684  1.00  0.00    -0.352 N 
ATOM     26  C   UNL A   1      33.268  31.014  26.821  1.00  0.00     0.251 C 
ATOM     27  H   UNL A   1      32.188  30.643  25.178  1.00  0.00     0.163 HD
ATOM     28  O   UNL A   1      32.470  31.841  27.249  1.00  0.00    -0.269 OA
BRANCH  26  29
ATOM     29  C   UNL A   1      34.539  30.760  27.537  1.00  0.00     0.039 A 
ATOM     30  C   UNL A   1      35.470  31.796  27.641  1.00  0.00     0.014 A 
ATOM     31  C   UNL A   1      34.823  29.506  28.084  1.00  0.00     0.014 A 
ATOM     32  C   UNL A   1      36.661  31.589  28.339  1.00  0.00     0.010 A 
ATOM     33  C   UNL A   1      35.973  29.326  28.848  1.00  0.00     0.010 A 
ATOM     34  C   UNL A   1      36.909  30.364  28.977  1.00  0.00    -0.014 A 
BRANCH  34  35
ATOM     35  C   UNL A   1      38.146  30.148  29.773  1.00  0.00     0.031 A 
ATOM     36  C   UNL A   1      39.259  29.297  29.227  1.00  0.00     0.074 A 
ATOM     37  C   UNL A   1      38.240  30.674  31.010  1.00  0.00     0.049 A 
ATOM     38  N   UNL A   1      40.384  28.942  29.791  1.00  0.00    -0.248 NA
ATOM     39  C   UNL A   1      39.062  28.746  27.878  1.00  0.00     0.031 C 
ATOM     40  C   UNL A   1      37.208  31.480  31.664  1.00  0.00     0.029 A 
ATOM     41  N   UNL A   1      39.245  30.604  31.941  1.00  0.00    -0.354 N 
ATOM     42  C   UNL A   1      41.026  28.118  28.872  1.00  0.00     0.074 A 
ATOM     43  C   UNL A   1      40.126  27.968  27.749  1.00  0.00     0.031 C 
ATOM     44  C   UNL A   1      37.645  31.853  32.877  1.00  0.00     0.029 A 
ATOM     45  C   UNL A   1      38.963  31.272  33.110  1.00  0.00     0.049 A 
ATOM     46  H   UNL A   1      40.090  30.121  31.787  1.00  0.00     0.167 HD
ATOM     47  C   UNL A   1      42.262  27.560  28.947  1.00  0.00     0.034 A 
ATOM     48  C   UNL A   1      39.676  31.392  34.247  1.00  0.00     0.034 A 
ATOM     49  C   UNL A   1      43.142  27.723  30.080  1.00  0.00     0.049 A 
ATOM     50  C   UNL A   1      41.031  30.736  34.327  1.00  0.00     0.074 A 
ATOM     51  C   UNL A   1      44.433  27.249  30.244  1.00  0.00     0.029 A 
ATOM     52  N   UNL A   1      42.819  28.399  31.251  1.00  0.00    -0.354 N 
ATOM     53  N   UNL A   1      41.649  30.005  33.428  1.00  0.00    -0.248 NA
ATOM     54  C   UNL A   1      41.788  30.932  35.569  1.00  0.00     0.031 C 
ATOM     55  C   UNL A   1      44.857  27.567  31.539  1.00  0.00     0.029 A 
ATOM     56  C   UNL A   1      43.869  28.320  32.155  1.00  0.00     0.049 A 
ATOM     57  H   UNL A   1      41.969  28.868  31.414  1.00  0.00     0.167 HD
ATOM     58  C   UNL A   1      42.881  29.677  33.987  1.00  0.00     0.074 A 
ATOM     59  C   UNL A   1      42.920  30.303  35.294  1.00  0.00     0.031 C 
ATOM     60  C   UNL A   1      43.889  28.931  33.465  1.00  0.00     0.034 A 
BRANCH  47  61
ATOM     61  C   UNL A   1      42.704  26.699  27.785  1.00  0.00     0.023 A 
ATOM     62  C   UNL A   1      42.477  25.311  27.764  1.00  0.00     0.031 A 
ATOM     63  C   UNL A   1      43.409  27.261  26.705  1.00  0.00     0.131 A 
ATOM     64  C   UNL A   1      43.037  24.521  26.749  1.00  0.00     0.055 A 
ATOM     65  C   UNL A   1      43.878  26.481  25.644  1.00  0.00     0.041 A 
ATOM     66  F   UNL A   1      43.677  28.575  26.672  1.00  0.00    -0.206 F 
ATOM     67  C   UNL A   1      43.712  25.100  25.673  1.00  0.00     0.022 A 
BRANCH  64  68
ATOM     68  S   UNL A   1      43.034  22.719  26.956  1.00  0.00     0.124 S 
ATOM     69  O   UNL A   1      44.347  22.360  26.425  1.00  0.00    -0.237 OA
ATOM     70  O   UNL A   1      42.863  22.568  28.396  1.00  0.00    -0.237 OA
ATOM     71  O   UNL A   1      41.902  22.282  26.143  1.00  0.00    -0.744 OA
ENDBRANCH  64  68
ENDBRANCH  47  61
BRANCH  48  72
ATOM     72  C   UNL A   1      39.117  32.150  35.402  1.00  0.00     0.023 A 
ATOM     73  C   UNL A   1      38.499  31.491  36.476  1.00  0.00     0.031 A 
ATOM     74  C   UNL A   1      39.188  33.554  35.443  1.00  0.00     0.131 A 
ATOM     75  C   UNL A   1      37.946  32.237  37.528  1.00  0.00     0.055 A 
ATOM     76  C   UNL A   1      38.684  34.288  36.517  1.00  0.00     0.041 A 
ATOM     77  F   UNL A   1      39.775  34.234  34.445  1.00  0.00    -0.206 F 
ATOM     78  C   UNL A   1      38.048  33.629  37.564  1.00  0.00     0.022 A 
BRANCH  75  79
ATOM     79  S   UNL A   1      37.028  31.361  38.826  1.00  0.00     0.124 S 
ATOM     80  O   UNL A   1      36.925  30.020  38.263  1.00  0.00    -0.237 OA
ATOM     81  O   UNL A   1      37.913  31.510  39.976  1.00  0.00    -0.237 OA
ATOM     82  O   UNL A   1      35.771  32.102  38.911  1.00  0.00    -0.744 OA
ENDBRANCH  75  79
ENDBRANCH  48  72
BRANCH  60  83
ATOM     83  C   UNL A   1      45.140  28.786  34.301  1.00  0.00     0.023 A 
ATOM     84  C   UNL A   1      45.287  27.755  35.246  1.00  0.00     0.031 A 
ATOM     85  C   UNL A   1      46.198  29.701  34.153  1.00  0.00     0.131 A 
ATOM     86  C   UNL A   1      46.438  27.698  36.046  1.00  0.00     0.055 A 
ATOM     87  C   UNL A   1      47.370  29.599  34.904  1.00  0.00     0.041 A 
ATOM     88  F   UNL A   1      46.112  30.709  33.271  1.00  0.00    -0.206 F 
ATOM     89  C   UNL A   1      47.490  28.602  35.868  1.00  0.00     0.022 A 
BRANCH  86  90
ATOM     90  S   UNL A   1      46.502  26.489  37.397  1.00  0.00     0.124 S 
ATOM     91  O   UNL A   1      47.403  25.477  36.855  1.00  0.00    -0.237 OA
ATOM     92  O   UNL A   1      47.026  27.283  38.502  1.00  0.00    -0.237 OA
ATOM     93  O   UNL A   1      45.111  26.065  37.543  1.00  0.00    -0.744 OA
ENDBRANCH  86  90
ENDBRANCH  60  83
ENDBRANCH  34  35
ENDBRANCH  26  29
ENDBRANCH  24  25
ENDBRANCH  23  24
ENDBRANCH  22  23
ENDBRANCH   1  22
TORSDOF 21
ENDMDL
MODEL 3
REMARK VINA RESULT:     -10.5      2.076      8.338
REMARK SMILES C[C@H](O)C[C@@H](Cc1cccc(Br)c1)C(=O)NCCCCCCNC(=O)c1ccc(-c2c3nc(c(-c4cc(S(=O)(=O)[O-])ccc4F)c4ccc([nH]4)c(-c4cc(S(=O)(=O)[O-])ccc4F)c4nc(c(-c5cc(S(=O)(=O)[O-])ccc5F)c5ccc2[nH]5)C=C4)C=C3)cc1
REMARK SMILES IDX 19 1 18 2 17 3 16 4 14 5 15 6 5 8 4 9 2 10 1 11 3 12 6 14
REMARK SMILES IDX 7 15 8 16 13 17 9 18 11 19 10 20 12 21 20 22 21 23 22 24
REMARK SMILES IDX 23 25 24 26 25 28 26 29 27 30 88 31 28 32 87 33 29 34 30 35
REMARK SMILES IDX 31 36 81 37 32 38 86 39 80 40 82 41 33 42 85 43 79 44 78 45
REMARK SMILES IDX 34 47 66 48 46 49 65 50 47 51 50 52 64 53 83 54 48 55 49 56
REMARK SMILES IDX 63 58 84 59 51 60 35 61 36 62 44 63 37 64 43 65 45 66 42 67
REMARK SMILES IDX 38 68 39 69 40 70 41 71 67 72 68 73 76 74 69 75 75 76 77 77
REMARK SMILES IDX 74 78 70 79 71 80 72 81 73 82 52 83 53 84 61 85 54 86 60 87
REMARK SMILES IDX 62 88 59 89 55 90 56 91 57 92 58 93
REMARK H PARENT 16 7 3 13 23 27 82 46 50 57
REMARK Flexibility Score: inf
ROOT
ATOM      1  C   UNL A   1      34.829  31.248  28.335  1.00  0.00     0.002 C 
ENDROOT
BRANCH   1   2
ATOM      2  C   UNL A   1      35.417  29.945  27.791  1.00  0.00     0.021 C 
BRANCH   2   3
ATOM      3  C   UNL A   1      34.434  29.114  26.981  1.00  0.00     0.116 C 
BRANCH   3   4
ATOM      4  N   UNL A   1      33.131  28.975  27.595  1.00  0.00    -0.356 N 
ATOM      5  C   UNL A   1      32.091  28.156  27.277  1.00  0.00     0.223 C 
ATOM      6  O   UNL A   1      31.191  28.041  28.116  1.00  0.00    -0.275 OA
ATOM      7  H   UNL A   1      32.971  29.566  28.366  1.00  0.00     0.163 HD
BRANCH   5   8
ATOM      8  C   UNL A   1      31.990  27.408  25.943  1.00  0.00     0.085 C 
BRANCH   8   9
ATOM      9  C   UNL A   1      31.019  26.213  26.020  1.00  0.00     0.045 C 
BRANCH   9  10
ATOM     10  C   UNL A   1      31.675  24.831  26.043  1.00  0.00     0.112 C 
ATOM     11  C   UNL A   1      31.075  23.939  24.961  1.00  0.00     0.038 C 
BRANCH  10  12
ATOM     12  O   UNL A   1      31.492  24.229  27.317  1.00  0.00    -0.393 OA
ATOM     13  H   UNL A   1      30.640  23.766  27.337  1.00  0.00     0.210 HD
ENDBRANCH  10  12
ENDBRANCH   9  10
ENDBRANCH   8   9
BRANCH   8  14
ATOM     14  C   UNL A   1      31.938  28.346  24.712  1.00  0.00     0.049 C 
BRANCH  14  15
ATOM     15  C   UNL A   1      30.611  28.607  24.041  1.00  0.00    -0.046 A 
ATOM     16  C   UNL A   1      29.793  27.554  23.605  1.00  0.00     0.004 A 
ATOM     17  C   UNL A   1      30.162  29.926  23.860  1.00  0.00     0.019 A 
ATOM     18  C   UNL A   1      28.529  27.809  23.066  1.00  0.00     0.001 A 
ATOM     19  C   UNL A   1      28.898  30.174  23.318  1.00  0.00     0.018 A 
ATOM     20  C   UNL A   1      28.074  29.120  22.931  1.00  0.00     0.016 A 
ATOM     21  Br  UNL A   1      28.271  31.952  23.178  1.00  0.00    -0.051 Br
ENDBRANCH  14  15
ENDBRANCH   8  14
ENDBRANCH   5   8
ENDBRANCH   3   4
ENDBRANCH   2   3
ENDBRANCH   1   2
BRANCH   1  22
ATOM     22  C   UNL A   1      35.633  32.519  28.023  1.00  0.00     0.002 C 
BRANCH  22  23
ATOM     23  C   UNL A   1      34.822  33.818  27.952  1.00  0.00     0.021 C 
BRANCH  23  24
ATOM     24  C   UNL A   1      33.370  33.694  28.396  1.00  0.00     0.116 C 
BRANCH  24  25
ATOM     25  N   UNL A   1      32.992  34.748  29.320  1.00  0.00    -0.352 N 
ATOM     26  C   UNL A   1      33.448  35.008  30.589  1.00  0.00     0.251 C 
ATOM     27  H   UNL A   1      32.307  35.371  28.986  1.00  0.00     0.163 HD
ATOM     28  O   UNL A   1      32.853  35.820  31.289  1.00  0.00    -0.269 OA
BRANCH  26  29
ATOM     29  C   UNL A   1      34.635  34.295  31.113  1.00  0.00     0.039 A 
ATOM     30  C   UNL A   1      34.463  33.032  31.682  1.00  0.00     0.014 A 
ATOM     31  C   UNL A   1      35.906  34.875  31.065  1.00  0.00     0.014 A 
ATOM     32  C   UNL A   1      35.573  32.328  32.154  1.00  0.00     0.010 A 
ATOM     33  C   UNL A   1      37.020  34.138  31.459  1.00  0.00     0.010 A 
ATOM     34  C   UNL A   1      36.865  32.860  32.017  1.00  0.00    -0.014 A 
BRANCH  34  35
ATOM     35  C   UNL A   1      38.061  32.097  32.460  1.00  0.00     0.031 A 
ATOM     36  C   UNL A   1      38.700  32.397  33.788  1.00  0.00     0.074 A 
ATOM     37  C   UNL A   1      38.602  31.174  31.641  1.00  0.00     0.049 A 
ATOM     38  N   UNL A   1      39.780  31.887  34.323  1.00  0.00    -0.248 NA
ATOM     39  C   UNL A   1      38.056  33.433  34.608  1.00  0.00     0.031 C 
ATOM     40  C   UNL A   1      38.097  30.828  30.312  1.00  0.00     0.029 A 
ATOM     41  N   UNL A   1      39.699  30.366  31.801  1.00  0.00    -0.354 N 
ATOM     42  C   UNL A   1      39.950  32.546  35.536  1.00  0.00     0.074 A 
ATOM     43  C   UNL A   1      38.905  33.544  35.618  1.00  0.00     0.031 C 
ATOM     44  C   UNL A   1      38.864  29.858  29.789  1.00  0.00     0.029 A 
ATOM     45  C   UNL A   1      39.945  29.550  30.720  1.00  0.00     0.049 A 
ATOM     46  H   UNL A   1      40.258  30.368  32.612  1.00  0.00     0.167 HD
ATOM     47  C   UNL A   1      40.876  32.320  36.504  1.00  0.00     0.034 A 
ATOM     48  C   UNL A   1      40.936  28.665  30.496  1.00  0.00     0.034 A 
ATOM     49  C   UNL A   1      41.911  31.319  36.399  1.00  0.00     0.049 A 
ATOM     50  C   UNL A   1      41.977  28.454  31.566  1.00  0.00     0.074 A 
ATOM     51  C   UNL A   1      42.868  30.967  37.335  1.00  0.00     0.029 A 
ATOM     52  N   UNL A   1      42.135  30.517  35.286  1.00  0.00    -0.354 N 
ATOM     53  N   UNL A   1      42.094  29.046  32.733  1.00  0.00    -0.248 NA
ATOM     54  C   UNL A   1      43.010  27.448  31.293  1.00  0.00     0.031 C 
ATOM     55  C   UNL A   1      43.718  30.016  36.760  1.00  0.00     0.029 A 
ATOM     56  C   UNL A   1      43.239  29.702  35.498  1.00  0.00     0.049 A 
ATOM     57  H   UNL A   1      41.589  30.524  34.467  1.00  0.00     0.167 HD
ATOM     58  C   UNL A   1      43.200  28.462  33.345  1.00  0.00     0.074 A 
ATOM     59  C   UNL A   1      43.702  27.463  32.422  1.00  0.00     0.031 C 
ATOM     60  C   UNL A   1      43.745  28.724  34.561  1.00  0.00     0.034 A 
BRANCH  47  61
ATOM     61  C   UNL A   1      40.821  33.202  37.732  1.00  0.00     0.023 A 
ATOM     62  C   UNL A   1      40.187  32.782  38.916  1.00  0.00     0.031 A 
ATOM     63  C   UNL A   1      41.362  34.500  37.707  1.00  0.00     0.131 A 
ATOM     64  C   UNL A   1      40.016  33.681  39.979  1.00  0.00     0.055 A 
ATOM     65  C   UNL A   1      41.277  35.356  38.807  1.00  0.00     0.041 A 
ATOM     66  F   UNL A   1      41.962  34.970  36.602  1.00  0.00    -0.206 F 
ATOM     67  C   UNL A   1      40.581  34.956  39.945  1.00  0.00     0.022 A 
BRANCH  64  68
ATOM     68  S   UNL A   1      38.885  33.224  41.322  1.00  0.00     0.124 S 
ATOM     69  O   UNL A   1      37.726  34.065  41.029  1.00  0.00    -0.237 OA
ATOM     70  O   UNL A   1      38.707  31.793  41.111  1.00  0.00    -0.237 OA
ATOM     71  O   UNL A   1      39.620  33.592  42.530  1.00  0.00    -0.744 OA
ENDBRANCH  64  68
ENDBRANCH  47  61
BRANCH  48  72
ATOM     72  C   UNL A   1      40.998  27.925  29.204  1.00  0.00     0.023 A 
ATOM     73  C   UNL A   1      41.965  28.232  28.234  1.00  0.00     0.031 A 
ATOM     74  C   UNL A   1      40.079  26.900  28.916  1.00  0.00     0.131 A 
ATOM     75  C   UNL A   1      41.971  27.545  27.010  1.00  0.00     0.055 A 
ATOM     76  C   UNL A   1      40.121  26.184  27.719  1.00  0.00     0.041 A 
ATOM     77  F   UNL A   1      39.136  26.563  29.811  1.00  0.00    -0.206 F 
ATOM     78  C   UNL A   1      41.066  26.512  26.753  1.00  0.00     0.022 A 
BRANCH  75  79
ATOM     79  S   UNL A   1      43.142  28.065  25.726  1.00  0.00     0.124 S 
ATOM     80  O   UNL A   1      42.387  27.795  24.509  1.00  0.00    -0.237 OA
ATOM     81  O   UNL A   1      43.349  29.471  26.056  1.00  0.00    -0.237 OA
ATOM     82  O   UNL A   1      44.298  27.199  25.950  1.00  0.00    -0.744 OA
ENDBRANCH  75  79
ENDBRANCH  48  72
BRANCH  60  83
ATOM     83  C   UNL A   1      44.931  27.885  34.977  1.00  0.00     0.023 A 
ATOM     84  C   UNL A   1      44.779  26.699  35.715  1.00  0.00     0.031 A 
ATOM     85  C   UNL A   1      46.236  28.287  34.634  1.00  0.00     0.131 A 
ATOM     86  C   UNL A   1      45.913  25.986  36.136  1.00  0.00     0.055 A 
ATOM     87  C   UNL A   1      47.355  27.537  34.997  1.00  0.00     0.041 A 
ATOM     88  F   UNL A   1      46.443  29.414  33.935  1.00  0.00    -0.206 F 
ATOM     89  C   UNL A   1      47.199  26.387  35.765  1.00  0.00     0.022 A 
BRANCH  86  90
ATOM     90  S   UNL A   1      45.691  24.583  37.264  1.00  0.00     0.124 S 
ATOM     91  O   UNL A   1      46.591  24.930  38.359  1.00  0.00    -0.237 OA
ATOM     92  O   UNL A   1      44.266  24.647  37.566  1.00  0.00    -0.237 OA
ATOM     93  O   UNL A   1      46.104  23.431  36.464  1.00  0.00    -0.744 OA
ENDBRANCH  86  90
ENDBRANCH  60  83
ENDBRANCH  34  35
ENDBRANCH  26  29
ENDBRANCH  24  25
ENDBRANCH  23  24
ENDBRANCH  22  23
ENDBRANCH   1  22
TORSDOF 21
ENDMDL
