MODEL 1
REMARK VINA RESULT:     -11.4      0.000      0.000
REMARK SMILES O=C(NCCCCCCNC(=O)c1conc1-c1ccc(Cl)cc1)c1ccc(-c2c3nc(c(-c4cc(S(=O)(=O)[O-])ccc4F)c4ccc([nH]4)c(-c4cc(S(=O)(=O)[O-])ccc4F)c4nc(c(-c5cc(S(=O)(=O)[O-])ccc5F)c5ccc2[nH]5)C=C4)C=C3)cc1
REMARK SMILES IDX 5 1 4 2 3 3 1 4 2 5 25 7 26 8 87 9 27 10 86 11 28 12 29 13
REMARK SMILES IDX 30 14 80 15 31 16 85 17 79 18 81 19 32 20 84 21 78 22 77 23
REMARK SMILES IDX 33 25 65 26 45 27 64 28 46 29 49 30 63 31 82 32 47 33 48 34
REMARK SMILES IDX 62 36 83 37 50 38 34 39 35 40 43 41 36 42 42 43 44 44 41 45
REMARK SMILES IDX 37 46 38 47 39 48 40 49 66 50 67 51 75 52 68 53 74 54 76 55
REMARK SMILES IDX 73 56 69 57 70 58 71 59 72 60 51 61 52 62 60 63 53 64 59 65
REMARK SMILES IDX 61 66 58 67 54 68 55 69 56 70 57 71 6 72 7 73 8 74 9 75
REMARK SMILES IDX 10 76 11 77 12 79 13 80 14 81 17 82 15 83 16 84 18 85 19 86
REMARK SMILES IDX 24 87 20 88 23 89 21 90 22 91
REMARK H PARENT 3 6 81 24 49 35 10 78
REMARK Flexibility Score: inf
ROOT
ATOM      1  C   UNL A   1      38.305  19.806  25.023  1.00  0.00     0.021 C 
ENDROOT
BRANCH   1   2
ATOM      2  C   UNL A   1      39.334  20.108  26.110  1.00  0.00     0.116 C 
BRANCH   2   3
ATOM      3  N   UNL A   1      40.456  19.188  26.096  1.00  0.00    -0.352 N 
ATOM      4  O   UNL A   1      42.613  18.556  26.044  1.00  0.00    -0.269 OA
ATOM      5  C   UNL A   1      41.799  19.463  26.197  1.00  0.00     0.251 C 
ATOM      6  H   UNL A   1      40.223  18.236  26.002  1.00  0.00     0.163 HD
BRANCH   5   7
ATOM      7  C   UNL A   1      42.272  20.843  26.458  1.00  0.00     0.039 A 
ATOM      8  C   UNL A   1      42.548  21.295  27.752  1.00  0.00     0.014 A 
ATOM      9  C   UNL A   1      42.491  21.691  25.365  1.00  0.00     0.014 A 
ATOM     10  C   UNL A   1      42.961  22.613  27.959  1.00  0.00     0.010 A 
ATOM     11  C   UNL A   1      42.936  23.000  25.569  1.00  0.00     0.010 A 
ATOM     12  C   UNL A   1      43.154  23.476  26.870  1.00  0.00    -0.014 A 
BRANCH  12  13
ATOM     13  C   UNL A   1      43.616  24.866  27.102  1.00  0.00     0.031 A 
ATOM     14  C   UNL A   1      42.684  25.900  27.664  1.00  0.00     0.074 A 
ATOM     15  C   UNL A   1      44.887  25.195  26.805  1.00  0.00     0.049 A 
ATOM     16  N   UNL A   1      42.921  27.153  27.956  1.00  0.00    -0.248 NA
ATOM     17  C   UNL A   1      41.301  25.471  27.920  1.00  0.00     0.031 C 
ATOM     18  C   UNL A   1      45.882  24.290  26.228  1.00  0.00     0.029 A 
ATOM     19  N   UNL A   1      45.556  26.382  26.950  1.00  0.00    -0.354 N 
ATOM     20  C   UNL A   1      41.720  27.670  28.423  1.00  0.00     0.074 A 
ATOM     21  C   UNL A   1      40.749  26.596  28.357  1.00  0.00     0.031 C 
ATOM     22  C   UNL A   1      47.039  24.953  26.075  1.00  0.00     0.029 A 
ATOM     23  C   UNL A   1      46.863  26.329  26.531  1.00  0.00     0.049 A 
ATOM     24  H   UNL A   1      45.140  27.195  27.318  1.00  0.00     0.167 HD
ATOM     25  C   UNL A   1      41.449  28.922  28.870  1.00  0.00     0.034 A 
ATOM     26  C   UNL A   1      47.811  27.283  26.510  1.00  0.00     0.034 A 
ATOM     27  C   UNL A   1      42.414  29.990  28.943  1.00  0.00     0.049 A 
ATOM     28  C   UNL A   1      47.492  28.658  27.018  1.00  0.00     0.074 A 
ATOM     29  C   UNL A   1      42.249  31.274  29.434  1.00  0.00     0.029 A 
ATOM     30  N   UNL A   1      43.726  29.901  28.500  1.00  0.00    -0.354 N 
ATOM     31  N   UNL A   1      46.357  29.121  27.482  1.00  0.00    -0.248 NA
ATOM     32  C   UNL A   1      48.587  29.636  27.001  1.00  0.00     0.031 C 
ATOM     33  C   UNL A   1      43.453  31.971  29.257  1.00  0.00     0.029 A 
ATOM     34  C   UNL A   1      44.376  31.111  28.686  1.00  0.00     0.049 A 
ATOM     35  H   UNL A   1      44.136  29.095  28.110  1.00  0.00     0.167 HD
ATOM     36  C   UNL A   1      46.601  30.448  27.815  1.00  0.00     0.074 A 
ATOM     37  C   UNL A   1      47.992  30.710  27.503  1.00  0.00     0.031 C 
ATOM     38  C   UNL A   1      45.751  31.364  28.340  1.00  0.00     0.034 A 
BRANCH  25  39
ATOM     39  C   UNL A   1      40.030  29.202  29.279  1.00  0.00     0.023 A 
ATOM     40  C   UNL A   1      39.651  29.236  30.632  1.00  0.00     0.031 A 
ATOM     41  C   UNL A   1      39.038  29.397  28.303  1.00  0.00     0.131 A 
ATOM     42  C   UNL A   1      38.302  29.409  30.972  1.00  0.00     0.055 A 
ATOM     43  C   UNL A   1      37.705  29.620  28.650  1.00  0.00     0.041 A 
ATOM     44  F   UNL A   1      39.349  29.351  26.998  1.00  0.00    -0.206 F 
ATOM     45  C   UNL A   1      37.328  29.617  29.991  1.00  0.00     0.022 A 
BRANCH  42  46
ATOM     46  S   UNL A   1      37.819  29.262  32.714  1.00  0.00     0.124 S 
ATOM     47  O   UNL A   1      37.732  27.812  32.876  1.00  0.00    -0.237 OA
ATOM     48  O   UNL A   1      38.924  29.916  33.405  1.00  0.00    -0.237 OA
ATOM     49  O   UNL A   1      36.540  29.965  32.776  1.00  0.00    -0.744 OA
ENDBRANCH  42  46
ENDBRANCH  25  39
BRANCH  26  50
ATOM     50  C   UNL A   1      49.151  26.972  25.959  1.00  0.00     0.023 A 
ATOM     51  C   UNL A   1      49.492  27.329  24.648  1.00  0.00     0.031 A 
ATOM     52  C   UNL A   1      50.109  26.320  26.751  1.00  0.00     0.131 A 
ATOM     53  C   UNL A   1      50.769  27.020  24.157  1.00  0.00     0.055 A 
ATOM     54  C   UNL A   1      51.380  26.023  26.263  1.00  0.00     0.041 A 
ATOM     55  F   UNL A   1      49.821  25.977  28.016  1.00  0.00    -0.206 F 
ATOM     56  C   UNL A   1      51.715  26.370  24.956  1.00  0.00     0.022 A 
BRANCH  53  57
ATOM     57  S   UNL A   1      51.174  27.468  22.447  1.00  0.00     0.124 S 
ATOM     58  O   UNL A   1      52.542  26.978  22.321  1.00  0.00    -0.237 OA
ATOM     59  O   UNL A   1      50.158  26.737  21.697  1.00  0.00    -0.237 OA
ATOM     60  O   UNL A   1      51.028  28.922  22.434  1.00  0.00    -0.744 OA
ENDBRANCH  53  57
ENDBRANCH  26  50
BRANCH  38  61
ATOM     61  C   UNL A   1      46.321  32.726  28.610  1.00  0.00     0.023 A 
ATOM     62  C   UNL A   1      46.250  33.747  27.648  1.00  0.00     0.031 A 
ATOM     63  C   UNL A   1      46.970  32.993  29.827  1.00  0.00     0.131 A 
ATOM     64  C   UNL A   1      46.849  34.988  27.907  1.00  0.00     0.055 A 
ATOM     65  C   UNL A   1      47.543  34.238  30.090  1.00  0.00     0.041 A 
ATOM     66  F   UNL A   1      47.066  32.043  30.770  1.00  0.00    -0.206 F 
ATOM     67  C   UNL A   1      47.490  35.242  29.125  1.00  0.00     0.022 A 
BRANCH  64  68
ATOM     68  S   UNL A   1      46.826  36.258  26.612  1.00  0.00     0.124 S 
ATOM     69  O   UNL A   1      46.416  35.490  25.440  1.00  0.00    -0.237 OA
ATOM     70  O   UNL A   1      45.848  37.211  27.126  1.00  0.00    -0.237 OA
ATOM     71  O   UNL A   1      48.205  36.743  26.583  1.00  0.00    -0.744 OA
ENDBRANCH  64  68
ENDBRANCH  38  61
ENDBRANCH  12  13
ENDBRANCH   5   7
ENDBRANCH   2   3
ENDBRANCH   1   2
BRANCH   1  72
ATOM     72  C   UNL A   1      37.391  20.967  24.622  1.00  0.00     0.002 C 
BRANCH  72  73
ATOM     73  C   UNL A   1      37.055  21.979  25.721  1.00  0.00     0.002 C 
BRANCH  73  74
ATOM     74  C   UNL A   1      37.027  23.455  25.307  1.00  0.00     0.021 C 
BRANCH  74  75
ATOM     75  C   UNL A   1      35.641  24.079  25.143  1.00  0.00     0.116 C 
BRANCH  75  76
ATOM     76  N   UNL A   1      35.145  23.958  23.784  1.00  0.00    -0.352 N 
ATOM     77  C   UNL A   1      33.947  23.501  23.307  1.00  0.00     0.256 C 
ATOM     78  H   UNL A   1      35.777  24.254  23.088  1.00  0.00     0.163 HD
ATOM     79  O   UNL A   1      33.840  23.311  22.094  1.00  0.00    -0.269 OA
BRANCH  77  80
ATOM     80  C   UNL A   1      32.850  23.253  24.208  1.00  0.00     0.107 A 
ATOM     81  C   UNL A   1      32.009  24.181  24.777  1.00  0.00     0.245 A 
ATOM     82  C   UNL A   1      32.293  22.002  24.609  1.00  0.00     0.126 A 
ATOM     83  O   UNL A   1      31.045  23.554  25.488  1.00  0.00    -0.363 OA
ATOM     84  N   UNL A   1      31.210  22.188  25.382  1.00  0.00    -0.079 NA
BRANCH  82  85
ATOM     85  C   UNL A   1      32.754  20.656  24.288  1.00  0.00     0.005 A 
ATOM     86  C   UNL A   1      33.831  20.083  24.979  1.00  0.00     0.012 A 
ATOM     87  C   UNL A   1      32.116  19.918  23.281  1.00  0.00     0.012 A 
ATOM     88  C   UNL A   1      34.272  18.795  24.658  1.00  0.00     0.021 A 
ATOM     89  C   UNL A   1      32.560  18.633  22.956  1.00  0.00     0.021 A 
ATOM     90  C   UNL A   1      33.637  18.078  23.645  1.00  0.00     0.041 A 
ATOM     91  Cl  UNL A   1      34.185  16.498  23.244  1.00  0.00    -0.084 Cl
ENDBRANCH  82  85
ENDBRANCH  77  80
ENDBRANCH  75  76
ENDBRANCH  74  75
ENDBRANCH  73  74
ENDBRANCH  72  73
ENDBRANCH   1  72
TORSDOF 17
ENDMDL
MODEL 2
REMARK VINA RESULT:     -11.3      6.243     12.052
REMARK SMILES O=C(NCCCCCCNC(=O)c1conc1-c1ccc(Cl)cc1)c1ccc(-c2c3nc(c(-c4cc(S(=O)(=O)[O-])ccc4F)c4ccc([nH]4)c(-c4cc(S(=O)(=O)[O-])ccc4F)c4nc(c(-c5cc(S(=O)(=O)[O-])ccc5F)c5ccc2[nH]5)C=C4)C=C3)cc1
REMARK SMILES IDX 5 1 4 2 3 3 1 4 2 5 25 7 26 8 87 9 27 10 86 11 28 12 29 13
REMARK SMILES IDX 30 14 80 15 31 16 85 17 79 18 81 19 32 20 84 21 78 22 77 23
REMARK SMILES IDX 33 25 65 26 45 27 64 28 46 29 49 30 63 31 82 32 47 33 48 34
REMARK SMILES IDX 62 36 83 37 50 38 34 39 35 40 43 41 36 42 42 43 44 44 41 45
REMARK SMILES IDX 37 46 38 47 39 48 40 49 66 50 67 51 75 52 68 53 74 54 76 55
REMARK SMILES IDX 73 56 69 57 70 58 71 59 72 60 51 61 52 62 60 63 53 64 59 65
REMARK SMILES IDX 61 66 58 67 54 68 55 69 56 70 57 71 6 72 7 73 8 74 9 75
REMARK SMILES IDX 10 76 11 77 12 79 13 80 14 81 17 82 15 83 16 84 18 85 19 86
REMARK SMILES IDX 24 87 20 88 23 89 21 90 22 91
REMARK H PARENT 3 6 81 24 49 35 10 78
REMARK Flexibility Score: inf
ROOT
ATOM      1  C   UNL A   1      31.426  32.168  26.544  1.00  0.00     0.021 C 
ENDROOT
BRANCH   1   2
ATOM      2  C   UNL A   1      32.642  32.712  27.292  1.00  0.00     0.116 C 
BRANCH   2   3
ATOM      3  N   UNL A   1      32.480  34.094  27.704  1.00  0.00    -0.352 N 
ATOM      4  O   UNL A   1      32.809  35.932  28.955  1.00  0.00    -0.269 OA
ATOM      5  C   UNL A   1      33.172  34.796  28.661  1.00  0.00     0.251 C 
ATOM      6  H   UNL A   1      31.778  34.598  27.233  1.00  0.00     0.163 HD
BRANCH   5   7
ATOM      7  C   UNL A   1      34.328  34.186  29.361  1.00  0.00     0.039 A 
ATOM      8  C   UNL A   1      35.633  34.310  28.872  1.00  0.00     0.014 A 
ATOM      9  C   UNL A   1      34.099  33.512  30.566  1.00  0.00     0.014 A 
ATOM     10  C   UNL A   1      36.692  33.693  29.543  1.00  0.00     0.010 A 
ATOM     11  C   UNL A   1      35.163  32.923  31.255  1.00  0.00     0.010 A 
ATOM     12  C   UNL A   1      36.464  32.992  30.736  1.00  0.00    -0.014 A 
BRANCH  12  13
ATOM     13  C   UNL A   1      37.600  32.362  31.451  1.00  0.00     0.031 A 
ATOM     14  C   UNL A   1      38.396  31.262  30.808  1.00  0.00     0.074 A 
ATOM     15  C   UNL A   1      37.918  32.788  32.687  1.00  0.00     0.049 A 
ATOM     16  N   UNL A   1      39.434  30.615  31.272  1.00  0.00    -0.248 NA
ATOM     17  C   UNL A   1      37.958  30.825  29.474  1.00  0.00     0.031 C 
ATOM     18  C   UNL A   1      37.205  33.828  33.431  1.00  0.00     0.029 A 
ATOM     19  N   UNL A   1      38.922  32.397  33.534  1.00  0.00    -0.354 N 
ATOM     20  C   UNL A   1      39.774  29.689  30.295  1.00  0.00     0.074 A 
ATOM     21  C   UNL A   1      38.815  29.846  29.219  1.00  0.00     0.031 C 
ATOM     22  C   UNL A   1      37.802  33.998  34.622  1.00  0.00     0.029 A 
ATOM     23  C   UNL A   1      38.926  33.073  34.729  1.00  0.00     0.049 A 
ATOM     24  H   UNL A   1      39.577  31.697  33.307  1.00  0.00     0.167 HD
ATOM     25  C   UNL A   1      40.791  28.792  30.290  1.00  0.00     0.034 A 
ATOM     26  C   UNL A   1      39.740  32.958  35.793  1.00  0.00     0.034 A 
ATOM     27  C   UNL A   1      41.749  28.639  31.356  1.00  0.00     0.049 A 
ATOM     28  C   UNL A   1      40.866  31.965  35.762  1.00  0.00     0.074 A 
ATOM     29  C   UNL A   1      42.848  27.798  31.419  1.00  0.00     0.029 A 
ATOM     30  N   UNL A   1      41.716  29.335  32.555  1.00  0.00    -0.354 N 
ATOM     31  N   UNL A   1      41.188  31.116  34.818  1.00  0.00    -0.248 NA
ATOM     32  C   UNL A   1      41.737  31.922  36.944  1.00  0.00     0.031 C 
ATOM     33  C   UNL A   1      43.459  27.964  32.670  1.00  0.00     0.029 A 
ATOM     34  C   UNL A   1      42.760  28.930  33.373  1.00  0.00     0.049 A 
ATOM     35  H   UNL A   1      41.047  30.019  32.792  1.00  0.00     0.167 HD
ATOM     36  C   UNL A   1      42.303  30.435  35.290  1.00  0.00     0.074 A 
ATOM     37  C   UNL A   1      42.601  30.976  36.601  1.00  0.00     0.031 C 
ATOM     38  C   UNL A   1      43.022  29.455  34.688  1.00  0.00     0.034 A 
BRANCH  25  39
ATOM     39  C   UNL A   1      40.886  27.882  29.097  1.00  0.00     0.023 A 
ATOM     40  C   UNL A   1      41.840  28.096  28.088  1.00  0.00     0.031 A 
ATOM     41  C   UNL A   1      39.986  26.814  28.950  1.00  0.00     0.131 A 
ATOM     42  C   UNL A   1      41.839  27.281  26.947  1.00  0.00     0.055 A 
ATOM     43  C   UNL A   1      40.022  25.975  27.835  1.00  0.00     0.041 A 
ATOM     44  F   UNL A   1      39.043  26.585  29.878  1.00  0.00    -0.206 F 
ATOM     45  C   UNL A   1      40.946  26.212  26.821  1.00  0.00     0.022 A 
BRANCH  42  46
ATOM     46  S   UNL A   1      42.956  27.697  25.580  1.00  0.00     0.124 S 
ATOM     47  O   UNL A   1      43.476  26.382  25.212  1.00  0.00    -0.237 OA
ATOM     48  O   UNL A   1      42.059  28.322  24.616  1.00  0.00    -0.237 OA
ATOM     49  O   UNL A   1      43.932  28.594  26.197  1.00  0.00    -0.744 OA
ENDBRANCH  42  46
ENDBRANCH  25  39
BRANCH  26  50
ATOM     50  C   UNL A   1      39.499  33.790  36.994  1.00  0.00     0.023 A 
ATOM     51  C   UNL A   1      38.828  33.271  38.109  1.00  0.00     0.031 A 
ATOM     52  C   UNL A   1      39.952  35.119  37.038  1.00  0.00     0.131 A 
ATOM     53  C   UNL A   1      38.616  34.088  39.230  1.00  0.00     0.055 A 
ATOM     54  C   UNL A   1      39.747  35.924  38.157  1.00  0.00     0.041 A 
ATOM     55  F   UNL A   1      40.611  35.643  35.992  1.00  0.00    -0.206 F 
ATOM     56  C   UNL A   1      39.072  35.410  39.261  1.00  0.00     0.022 A 
BRANCH  53  57
ATOM     57  S   UNL A   1      37.720  33.399  40.648  1.00  0.00     0.124 S 
ATOM     58  O   UNL A   1      38.629  32.353  41.102  1.00  0.00    -0.237 OA
ATOM     59  O   UNL A   1      37.596  34.564  41.519  1.00  0.00    -0.237 OA
ATOM     60  O   UNL A   1      36.467  32.927  40.062  1.00  0.00    -0.744 OA
ENDBRANCH  53  57
ENDBRANCH  26  50
BRANCH  38  61
ATOM     61  C   UNL A   1      44.199  28.925  35.453  1.00  0.00     0.023 A 
ATOM     62  C   UNL A   1      44.048  27.894  36.395  1.00  0.00     0.031 A 
ATOM     63  C   UNL A   1      45.476  29.478  35.260  1.00  0.00     0.131 A 
ATOM     64  C   UNL A   1      45.157  27.465  37.138  1.00  0.00     0.055 A 
ATOM     65  C   UNL A   1      46.581  29.030  35.985  1.00  0.00     0.041 A 
ATOM     66  F   UNL A   1      45.662  30.469  34.374  1.00  0.00    -0.206 F 
ATOM     67  C   UNL A   1      46.424  28.023  36.935  1.00  0.00     0.022 A 
BRANCH  64  68
ATOM     68  S   UNL A   1      44.917  26.200  38.416  1.00  0.00     0.124 S 
ATOM     69  O   UNL A   1      45.966  26.532  39.375  1.00  0.00    -0.237 OA
ATOM     70  O   UNL A   1      43.548  26.453  38.853  1.00  0.00    -0.237 OA
ATOM     71  O   UNL A   1      45.113  24.943  37.695  1.00  0.00    -0.744 OA
ENDBRANCH  64  68
ENDBRANCH  38  61
ENDBRANCH  12  13
ENDBRANCH   5   7
ENDBRANCH   2   3
ENDBRANCH   1   2
BRANCH   1  72
ATOM     72  C   UNL A   1      31.543  30.731  26.028  1.00  0.00     0.002 C 
BRANCH  72  73
ATOM     73  C   UNL A   1      32.173  29.715  26.984  1.00  0.00     0.002 C 
BRANCH  73  74
ATOM     74  C   UNL A   1      33.665  29.422  26.784  1.00  0.00     0.021 C 
BRANCH  74  75
ATOM     75  C   UNL A   1      33.999  28.205  25.920  1.00  0.00     0.116 C 
BRANCH  75  76
ATOM     76  N   UNL A   1      33.309  27.010  26.370  1.00  0.00    -0.352 N 
ATOM     77  C   UNL A   1      32.795  25.956  25.665  1.00  0.00     0.256 C 
ATOM     78  H   UNL A   1      33.190  26.947  27.346  1.00  0.00     0.163 HD
ATOM     79  O   UNL A   1      32.076  25.154  26.264  1.00  0.00    -0.269 OA
BRANCH  77  80
ATOM     80  C   UNL A   1      33.093  25.801  24.264  1.00  0.00     0.107 A 
ATOM     81  C   UNL A   1      34.061  25.005  23.698  1.00  0.00     0.245 A 
ATOM     82  C   UNL A   1      32.380  26.314  23.141  1.00  0.00     0.126 A 
ATOM     83  O   UNL A   1      33.969  25.054  22.350  1.00  0.00    -0.363 OA
ATOM     84  N   UNL A   1      32.913  25.866  21.991  1.00  0.00    -0.079 NA
BRANCH  82  85
ATOM     85  C   UNL A   1      31.227  27.208  23.125  1.00  0.00     0.005 A 
ATOM     86  C   UNL A   1      29.949  26.736  23.455  1.00  0.00     0.012 A 
ATOM     87  C   UNL A   1      31.390  28.558  22.782  1.00  0.00     0.012 A 
ATOM     88  C   UNL A   1      28.848  27.597  23.429  1.00  0.00     0.021 A 
ATOM     89  C   UNL A   1      30.289  29.419  22.750  1.00  0.00     0.021 A 
ATOM     90  C   UNL A   1      29.024  28.934  23.072  1.00  0.00     0.041 A 
ATOM     91  Cl  UNL A   1      27.668  29.992  23.031  1.00  0.00    -0.084 Cl
ENDBRANCH  82  85
ENDBRANCH  77  80
ENDBRANCH  75  76
ENDBRANCH  74  75
ENDBRANCH  73  74
ENDBRANCH  72  73
ENDBRANCH   1  72
TORSDOF 17
ENDMDL
MODEL 3
REMARK VINA RESULT:     -11.2      5.719      8.459
REMARK SMILES O=C(NCCCCCCNC(=O)c1conc1-c1ccc(Cl)cc1)c1ccc(-c2c3nc(c(-c4cc(S(=O)(=O)[O-])ccc4F)c4ccc([nH]4)c(-c4cc(S(=O)(=O)[O-])ccc4F)c4nc(c(-c5cc(S(=O)(=O)[O-])ccc5F)c5ccc2[nH]5)C=C4)C=C3)cc1
REMARK SMILES IDX 5 1 4 2 3 3 1 4 2 5 25 7 26 8 87 9 27 10 86 11 28 12 29 13
REMARK SMILES IDX 30 14 80 15 31 16 85 17 79 18 81 19 32 20 84 21 78 22 77 23
REMARK SMILES IDX 33 25 65 26 45 27 64 28 46 29 49 30 63 31 82 32 47 33 48 34
REMARK SMILES IDX 62 36 83 37 50 38 34 39 35 40 43 41 36 42 42 43 44 44 41 45
REMARK SMILES IDX 37 46 38 47 39 48 40 49 66 50 67 51 75 52 68 53 74 54 76 55
REMARK SMILES IDX 73 56 69 57 70 58 71 59 72 60 51 61 52 62 60 63 53 64 59 65
REMARK SMILES IDX 61 66 58 67 54 68 55 69 56 70 57 71 6 72 7 73 8 74 9 75
REMARK SMILES IDX 10 76 11 77 12 79 13 80 14 81 17 82 15 83 16 84 18 85 19 86
REMARK SMILES IDX 24 87 20 88 23 89 21 90 22 91
REMARK H PARENT 3 6 81 24 49 35 10 78
REMARK Flexibility Score: inf
ROOT
ATOM      1  C   UNL A   1      33.244  27.676  26.090  1.00  0.00     0.021 C 
ENDROOT
BRANCH   1   2
ATOM      2  C   UNL A   1      34.099  28.887  25.723  1.00  0.00     0.116 C 
BRANCH   2   3
ATOM      3  N   UNL A   1      33.701  30.092  26.426  1.00  0.00    -0.352 N 
ATOM      4  O   UNL A   1      33.762  31.669  28.028  1.00  0.00    -0.269 OA
ATOM      5  C   UNL A   1      34.317  30.718  27.484  1.00  0.00     0.251 C 
ATOM      6  H   UNL A   1      32.877  30.521  26.101  1.00  0.00     0.163 HD
BRANCH   5   7
ATOM      7  C   UNL A   1      35.624  30.237  27.992  1.00  0.00     0.039 A 
ATOM      8  C   UNL A   1      36.808  30.425  27.270  1.00  0.00     0.014 A 
ATOM      9  C   UNL A   1      35.667  29.624  29.250  1.00  0.00     0.014 A 
ATOM     10  C   UNL A   1      38.015  29.929  27.768  1.00  0.00     0.010 A 
ATOM     11  C   UNL A   1      36.880  29.157  29.763  1.00  0.00     0.010 A 
ATOM     12  C   UNL A   1      38.060  29.288  29.015  1.00  0.00    -0.014 A 
BRANCH  12  13
ATOM     13  C   UNL A   1      39.352  28.787  29.543  1.00  0.00     0.031 A 
ATOM     14  C   UNL A   1      40.007  29.448  30.721  1.00  0.00     0.074 A 
ATOM     15  C   UNL A   1      39.936  27.727  28.955  1.00  0.00     0.049 A 
ATOM     16  N   UNL A   1      41.119  29.131  31.333  1.00  0.00    -0.248 NA
ATOM     17  C   UNL A   1      39.326  30.626  31.279  1.00  0.00     0.031 C 
ATOM     18  C   UNL A   1      39.416  27.015  27.787  1.00  0.00     0.029 A 
ATOM     19  N   UNL A   1      41.095  27.064  29.263  1.00  0.00    -0.354 N 
ATOM     20  C   UNL A   1      41.282  30.071  32.342  1.00  0.00     0.074 A 
ATOM     21  C   UNL A   1      40.159  30.984  32.247  1.00  0.00     0.031 C 
ATOM     22  C   UNL A   1      40.250  26.008  27.481  1.00  0.00     0.029 A 
ATOM     23  C   UNL A   1      41.366  26.013  28.423  1.00  0.00     0.049 A 
ATOM     24  H   UNL A   1      41.679  27.318  30.015  1.00  0.00     0.167 HD
ATOM     25  C   UNL A   1      42.271  30.165  33.265  1.00  0.00     0.034 A 
ATOM     26  C   UNL A   1      42.400  25.153  28.407  1.00  0.00     0.034 A 
ATOM     27  C   UNL A   1      43.384  29.255  33.365  1.00  0.00     0.049 A 
ATOM     28  C   UNL A   1      43.478  25.270  29.444  1.00  0.00     0.074 A 
ATOM     29  C   UNL A   1      44.405  29.235  34.301  1.00  0.00     0.029 A 
ATOM     30  N   UNL A   1      43.630  28.208  32.489  1.00  0.00    -0.354 N 
ATOM     31  N   UNL A   1      43.601  26.150  30.408  1.00  0.00    -0.248 NA
ATOM     32  C   UNL A   1      44.555  24.273  29.389  1.00  0.00     0.031 C 
ATOM     33  C   UNL A   1      45.285  28.195  33.970  1.00  0.00     0.029 A 
ATOM     34  C   UNL A   1      44.795  27.548  32.848  1.00  0.00     0.049 A 
ATOM     35  H   UNL A   1      43.059  27.967  31.723  1.00  0.00     0.167 HD
ATOM     36  C   UNL A   1      44.771  25.811  31.078  1.00  0.00     0.074 A 
ATOM     37  C   UNL A   1      45.314  24.645  30.411  1.00  0.00     0.031 C 
ATOM     38  C   UNL A   1      45.339  26.409  32.154  1.00  0.00     0.034 A 
BRANCH  25  39
ATOM     39  C   UNL A   1      42.200  31.327  34.216  1.00  0.00     0.023 A 
ATOM     40  C   UNL A   1      41.271  31.353  35.270  1.00  0.00     0.031 A 
ATOM     41  C   UNL A   1      43.043  32.436  34.042  1.00  0.00     0.131 A 
ATOM     42  C   UNL A   1      41.172  32.493  36.082  1.00  0.00     0.055 A 
ATOM     43  C   UNL A   1      42.975  33.547  34.884  1.00  0.00     0.041 A 
ATOM     44  F   UNL A   1      43.931  32.465  33.035  1.00  0.00    -0.206 F 
ATOM     45  C   UNL A   1      42.029  33.584  35.905  1.00  0.00     0.022 A 
BRANCH  42  46
ATOM     46  S   UNL A   1      39.841  32.572  37.311  1.00  0.00     0.124 S 
ATOM     47  O   UNL A   1      39.173  33.819  36.944  1.00  0.00    -0.237 OA
ATOM     48  O   UNL A   1      39.095  31.347  37.049  1.00  0.00    -0.237 OA
ATOM     49  O   UNL A   1      40.554  32.608  38.587  1.00  0.00    -0.744 OA
ENDBRANCH  42  46
ENDBRANCH  25  39
BRANCH  26  50
ATOM     50  C   UNL A   1      42.478  24.119  27.349  1.00  0.00     0.023 A 
ATOM     51  C   UNL A   1      41.741  22.932  27.446  1.00  0.00     0.031 A 
ATOM     52  C   UNL A   1      43.290  24.319  26.221  1.00  0.00     0.131 A 
ATOM     53  C   UNL A   1      41.838  21.973  26.426  1.00  0.00     0.055 A 
ATOM     54  C   UNL A   1      43.376  23.368  25.206  1.00  0.00     0.041 A 
ATOM     55  F   UNL A   1      43.998  25.452  26.090  1.00  0.00    -0.206 F 
ATOM     56  C   UNL A   1      42.650  22.184  25.307  1.00  0.00     0.022 A 
BRANCH  53  57
ATOM     57  S   UNL A   1      40.894  20.433  26.590  1.00  0.00     0.124 S 
ATOM     58  O   UNL A   1      41.692  19.503  25.799  1.00  0.00    -0.237 OA
ATOM     59  O   UNL A   1      40.910  20.224  28.035  1.00  0.00    -0.237 OA
ATOM     60  O   UNL A   1      39.589  20.772  26.027  1.00  0.00    -0.744 OA
ENDBRANCH  53  57
ENDBRANCH  26  50
BRANCH  38  61
ATOM     61  C   UNL A   1      46.607  25.793  32.667  1.00  0.00     0.023 A 
ATOM     62  C   UNL A   1      46.580  24.771  33.630  1.00  0.00     0.031 A 
ATOM     63  C   UNL A   1      47.854  26.256  32.213  1.00  0.00     0.131 A 
ATOM     64  C   UNL A   1      47.784  24.260  34.136  1.00  0.00     0.055 A 
ATOM     65  C   UNL A   1      49.049  25.727  32.702  1.00  0.00     0.041 A 
ATOM     66  F   UNL A   1      47.924  27.236  31.299  1.00  0.00    -0.206 F 
ATOM     67  C   UNL A   1      49.019  24.728  33.673  1.00  0.00     0.022 A 
BRANCH  64  68
ATOM     68  S   UNL A   1      47.722  23.008  35.447  1.00  0.00     0.124 S 
ATOM     69  O   UNL A   1      48.668  23.541  36.423  1.00  0.00    -0.237 OA
ATOM     70  O   UNL A   1      46.316  23.036  35.839  1.00  0.00    -0.237 OA
ATOM     71  O   UNL A   1      48.151  21.784  34.773  1.00  0.00    -0.744 OA
ENDBRANCH  64  68
ENDBRANCH  38  61
ENDBRANCH  12  13
ENDBRANCH   5   7
ENDBRANCH   2   3
ENDBRANCH   1   2
BRANCH   1  72
ATOM     72  C   UNL A   1      33.426  26.435  25.212  1.00  0.00     0.002 C 
BRANCH  72  73
ATOM     73  C   UNL A   1      34.457  25.409  25.689  1.00  0.00     0.002 C 
BRANCH  73  74
ATOM     74  C   UNL A   1      34.971  24.416  24.639  1.00  0.00     0.021 C 
BRANCH  74  75
ATOM     75  C   UNL A   1      35.852  23.282  25.165  1.00  0.00     0.116 C 
BRANCH  75  76
ATOM     76  N   UNL A   1      35.331  22.711  26.394  1.00  0.00    -0.352 N 
ATOM     77  C   UNL A   1      34.357  21.774  26.601  1.00  0.00     0.256 C 
ATOM     78  H   UNL A   1      35.749  23.057  27.217  1.00  0.00     0.163 HD
ATOM     79  O   UNL A   1      33.956  21.600  27.753  1.00  0.00    -0.269 OA
BRANCH  77  80
ATOM     80  C   UNL A   1      33.824  21.019  25.495  1.00  0.00     0.107 A 
ATOM     81  C   UNL A   1      34.185  19.754  25.095  1.00  0.00     0.245 A 
ATOM     82  C   UNL A   1      32.717  21.337  24.653  1.00  0.00     0.126 A 
ATOM     83  O   UNL A   1      33.392  19.349  24.077  1.00  0.00    -0.363 OA
ATOM     84  N   UNL A   1      32.464  20.331  23.799  1.00  0.00    -0.079 NA
BRANCH  82  85
ATOM     85  C   UNL A   1      31.908  22.551  24.632  1.00  0.00     0.005 A 
ATOM     86  C   UNL A   1      31.388  23.086  25.819  1.00  0.00     0.012 A 
ATOM     87  C   UNL A   1      31.645  23.197  23.416  1.00  0.00     0.012 A 
ATOM     88  C   UNL A   1      30.606  24.244  25.788  1.00  0.00     0.021 A 
ATOM     89  C   UNL A   1      30.858  24.352  23.384  1.00  0.00     0.021 A 
ATOM     90  C   UNL A   1      30.341  24.869  24.570  1.00  0.00     0.041 A 
ATOM     91  Cl  UNL A   1      29.371  26.290  24.532  1.00  0.00    -0.084 Cl
ENDBRANCH  82  85
ENDBRANCH  77  80
ENDBRANCH  75  76
ENDBRANCH  74  75
ENDBRANCH  73  74
ENDBRANCH  72  73
ENDBRANCH   1  72
TORSDOF 17
ENDMDL
