MODEL 1
REMARK VINA RESULT:     -10.0      0.000      0.000
REMARK SMILES CC(C)C[C@@H](C)NS(=O)(=O)c1ccsc1C(=O)NCCCCCCNC(=O)c1ccc(-c2c3nc(c(-c4cc(S(=O)(=O)[O-])ccc4F)c4ccc([nH]4)c(-c4cc(S(=O)(=O)[O-])ccc4F)c4nc(c(-c5cc(S(=O)(=O)[O-])ccc5F)c5ccc2[nH]5)C=C4)C=C3)cc1
REMARK SMILES IDX 20 1 19 2 18 3 16 4 17 5 15 7 11 8 12 9 13 10 14 11 8 12
REMARK SMILES IDX 9 13 10 14 7 15 5 17 6 18 4 19 2 20 1 21 3 22 21 23 22 24
REMARK SMILES IDX 23 25 24 26 25 27 26 28 27 30 28 31 29 32 90 33 30 34 89 35
REMARK SMILES IDX 31 36 32 37 33 38 83 39 34 40 88 41 82 42 84 43 35 44 87 45
REMARK SMILES IDX 81 46 80 47 36 49 68 50 48 51 67 52 49 53 52 54 66 55 85 56
REMARK SMILES IDX 50 57 51 58 65 60 86 61 53 62 37 63 38 64 46 65 39 66 45 67
REMARK SMILES IDX 47 68 44 69 40 70 41 71 42 72 43 73 69 74 70 75 78 76 71 77
REMARK SMILES IDX 77 78 79 79 76 80 72 81 73 82 74 83 75 84 54 85 55 86 63 87
REMARK SMILES IDX 56 88 62 89 64 90 61 91 57 92 58 93 59 94 60 95
REMARK H PARENT 18 6 7 16 25 29 84 48 52 59
REMARK Flexibility Score: inf
ROOT
ATOM      1  C   UNL A   1      34.865  28.911  27.015  1.00  0.00     0.021 C 
ENDROOT
BRANCH   1   2
ATOM      2  C   UNL A   1      33.693  28.815  26.049  1.00  0.00     0.116 C 
BRANCH   2   3
ATOM      3  N   UNL A   1      34.026  28.730  24.655  1.00  0.00    -0.351 N 
ATOM      4  C   UNL A   1      33.729  27.752  23.735  1.00  0.00     0.262 C 
ATOM      5  O   UNL A   1      34.046  28.037  22.573  1.00  0.00    -0.268 OA
ATOM      6  H   UNL A   1      34.548  29.488  24.304  1.00  0.00     0.163 HD
BRANCH   4   7
ATOM      7  C   UNL A   1      33.205  26.429  24.086  1.00  0.00     0.112 A 
ATOM      8  C   UNL A   1      32.025  25.905  24.606  1.00  0.00     0.106 A 
ATOM      9  C   UNL A   1      32.032  24.463  24.639  1.00  0.00     0.034 A 
ATOM     10  C   UNL A   1      33.184  23.919  24.140  1.00  0.00     0.067 A 
ATOM     11  S   UNL A   1      34.282  25.121  23.661  1.00  0.00    -0.137 S 
BRANCH   8  12
ATOM     12  S   UNL A   1      30.581  26.724  25.121  1.00  0.00     0.242 S 
ATOM     13  O   UNL A   1      30.752  26.913  26.538  1.00  0.00    -0.207 OA
ATOM     14  O   UNL A   1      29.485  25.930  24.607  1.00  0.00    -0.207 OA
BRANCH  12  15
ATOM     15  N   UNL A   1      30.546  28.259  24.376  1.00  0.00    -0.208 NA
ATOM     16  H   UNL A   1      29.971  28.867  24.957  1.00  0.00     0.141 HD
BRANCH  15  17
ATOM     17  C   UNL A   1      30.012  28.341  22.978  1.00  0.00     0.067 C 
ATOM     18  C   UNL A   1      30.952  29.199  22.131  1.00  0.00     0.025 C 
BRANCH  17  19
ATOM     19  C   UNL A   1      28.583  28.942  23.010  1.00  0.00     0.022 C 
BRANCH  19  20
ATOM     20  C   UNL A   1      28.507  30.445  22.636  1.00  0.00    -0.016 C 
ATOM     21  C   UNL A   1      27.969  30.666  21.221  1.00  0.00     0.007 C 
ATOM     22  C   UNL A   1      27.645  31.228  23.632  1.00  0.00     0.007 C 
ENDBRANCH  19  20
ENDBRANCH  17  19
ENDBRANCH  15  17
ENDBRANCH  12  15
ENDBRANCH   8  12
ENDBRANCH   4   7
ENDBRANCH   2   3
ENDBRANCH   1   2
BRANCH   1  23
ATOM     23  C   UNL A   1      34.786  29.994  28.098  1.00  0.00     0.002 C 
BRANCH  23  24
ATOM     24  C   UNL A   1      34.719  31.461  27.655  1.00  0.00     0.002 C 
BRANCH  24  25
ATOM     25  C   UNL A   1      33.464  32.263  28.009  1.00  0.00     0.021 C 
BRANCH  25  26
ATOM     26  C   UNL A   1      33.359  33.669  27.430  1.00  0.00     0.116 C 
BRANCH  26  27
ATOM     27  N   UNL A   1      32.998  34.670  28.416  1.00  0.00    -0.352 N 
ATOM     28  C   UNL A   1      33.493  34.892  29.678  1.00  0.00     0.251 C 
ATOM     29  H   UNL A   1      32.284  35.287  28.137  1.00  0.00     0.163 HD
ATOM     30  O   UNL A   1      32.945  35.725  30.396  1.00  0.00    -0.269 OA
BRANCH  28  31
ATOM     31  C   UNL A   1      34.652  34.122  30.192  1.00  0.00     0.039 A 
ATOM     32  C   UNL A   1      35.926  34.433  29.705  1.00  0.00     0.014 A 
ATOM     33  C   UNL A   1      34.497  33.084  31.116  1.00  0.00     0.014 A 
ATOM     34  C   UNL A   1      37.045  33.753  30.192  1.00  0.00     0.010 A 
ATOM     35  C   UNL A   1      35.622  32.453  31.650  1.00  0.00     0.010 A 
ATOM     36  C   UNL A   1      36.909  32.782  31.197  1.00  0.00    -0.014 A 
BRANCH  36  37
ATOM     37  C   UNL A   1      38.100  32.114  31.787  1.00  0.00     0.031 A 
ATOM     38  C   UNL A   1      38.783  30.986  31.060  1.00  0.00     0.074 A 
ATOM     39  C   UNL A   1      38.535  32.487  33.007  1.00  0.00     0.049 A 
ATOM     40  N   UNL A   1      39.789  30.243  31.441  1.00  0.00    -0.248 NA
ATOM     41  C   UNL A   1      38.238  30.631  29.742  1.00  0.00     0.031 C 
ATOM     42  C   UNL A   1      37.937  33.544  33.827  1.00  0.00     0.029 A 
ATOM     43  N   UNL A   1      39.571  32.020  33.776  1.00  0.00    -0.354 N 
ATOM     44  C   UNL A   1      39.995  29.325  30.416  1.00  0.00     0.074 A 
ATOM     45  C   UNL A   1      38.964  29.569  29.430  1.00  0.00     0.031 C 
ATOM     46  C   UNL A   1      38.633  33.662  34.969  1.00  0.00     0.029 A 
ATOM     47  C   UNL A   1      39.694  32.660  34.987  1.00  0.00     0.049 A 
ATOM     48  H   UNL A   1      40.171  31.295  33.487  1.00  0.00     0.167 HD
ATOM     49  C   UNL A   1      40.966  28.383  30.300  1.00  0.00     0.034 A 
ATOM     50  C   UNL A   1      40.554  32.456  36.006  1.00  0.00     0.034 A 
ATOM     51  C   UNL A   1      41.989  28.157  31.295  1.00  0.00     0.049 A 
ATOM     52  C   UNL A   1      41.598  31.377  35.874  1.00  0.00     0.074 A 
ATOM     53  C   UNL A   1      43.053  27.272  31.254  1.00  0.00     0.029 A 
ATOM     54  N   UNL A   1      42.071  28.812  32.518  1.00  0.00    -0.354 N 
ATOM     55  N   UNL A   1      41.811  30.552  34.875  1.00  0.00    -0.248 NA
ATOM     56  C   UNL A   1      42.521  31.210  37.003  1.00  0.00     0.031 C 
ATOM     57  C   UNL A   1      43.727  27.335  32.477  1.00  0.00     0.029 A 
ATOM     58  C   UNL A   1      43.139  28.321  33.255  1.00  0.00     0.049 A 
ATOM     59  H   UNL A   1      41.458  29.522  32.819  1.00  0.00     0.167 HD
ATOM     60  C   UNL A   1      42.912  29.785  35.247  1.00  0.00     0.074 A 
ATOM     61  C   UNL A   1      43.326  30.259  36.552  1.00  0.00     0.031 C 
ATOM     62  C   UNL A   1      43.530  28.784  34.567  1.00  0.00     0.034 A 
BRANCH  49  63
ATOM     63  C   UNL A   1      40.939  27.507  29.067  1.00  0.00     0.023 A 
ATOM     64  C   UNL A   1      41.881  27.656  28.033  1.00  0.00     0.031 A 
ATOM     65  C   UNL A   1      39.935  26.536  28.902  1.00  0.00     0.131 A 
ATOM     66  C   UNL A   1      41.746  26.917  26.848  1.00  0.00     0.055 A 
ATOM     67  C   UNL A   1      39.861  25.739  27.757  1.00  0.00     0.041 A 
ATOM     68  F   UNL A   1      38.994  26.358  29.842  1.00  0.00    -0.206 F 
ATOM     69  C   UNL A   1      40.759  25.941  26.713  1.00  0.00     0.022 A 
BRANCH  66  70
ATOM     70  S   UNL A   1      42.771  27.376  25.423  1.00  0.00     0.124 S 
ATOM     71  O   UNL A   1      42.767  26.138  24.647  1.00  0.00    -0.237 OA
ATOM     72  O   UNL A   1      42.031  28.494  24.849  1.00  0.00    -0.237 OA
ATOM     73  O   UNL A   1      44.058  27.721  26.023  1.00  0.00    -0.744 OA
ENDBRANCH  66  70
ENDBRANCH  49  63
BRANCH  50  74
ATOM     74  C   UNL A   1      40.461  33.282  37.243  1.00  0.00     0.023 A 
ATOM     75  C   UNL A   1      39.809  32.797  38.388  1.00  0.00     0.031 A 
ATOM     76  C   UNL A   1      41.000  34.580  37.291  1.00  0.00     0.131 A 
ATOM     77  C   UNL A   1      39.680  33.618  39.520  1.00  0.00     0.055 A 
ATOM     78  C   UNL A   1      40.915  35.373  38.437  1.00  0.00     0.041 A 
ATOM     79  F   UNL A   1      41.637  35.090  36.225  1.00  0.00    -0.206 F 
ATOM     80  C   UNL A   1      40.241  34.897  39.557  1.00  0.00     0.022 A 
BRANCH  77  81
ATOM     81  S   UNL A   1      38.701  33.015  40.923  1.00  0.00     0.124 S 
ATOM     82  O   UNL A   1      37.674  34.045  41.032  1.00  0.00    -0.237 OA
ATOM     83  O   UNL A   1      38.254  31.712  40.443  1.00  0.00    -0.237 OA
ATOM     84  O   UNL A   1      39.667  32.976  42.019  1.00  0.00    -0.744 OA
ENDBRANCH  77  81
ENDBRANCH  50  74
BRANCH  62  85
ATOM     85  C   UNL A   1      44.742  28.161  35.218  1.00  0.00     0.023 A 
ATOM     86  C   UNL A   1      44.652  26.981  35.976  1.00  0.00     0.031 A 
ATOM     87  C   UNL A   1      46.005  28.767  35.089  1.00  0.00     0.131 A 
ATOM     88  C   UNL A   1      45.789  26.476  36.624  1.00  0.00     0.055 A 
ATOM     89  C   UNL A   1      47.146  28.226  35.682  1.00  0.00     0.041 A 
ATOM     90  F   UNL A   1      46.151  29.898  34.380  1.00  0.00    -0.206 F 
ATOM     91  C   UNL A   1      47.039  27.081  36.467  1.00  0.00     0.022 A 
BRANCH  88  92
ATOM     92  S   UNL A   1      45.597  25.071  37.754  1.00  0.00     0.124 S 
ATOM     93  O   UNL A   1      44.519  25.528  38.625  1.00  0.00    -0.237 OA
ATOM     94  O   UNL A   1      45.262  23.981  36.844  1.00  0.00    -0.237 OA
ATOM     95  O   UNL A   1      46.907  24.963  38.394  1.00  0.00    -0.744 OA
ENDBRANCH  88  92
ENDBRANCH  62  85
ENDBRANCH  36  37
ENDBRANCH  28  31
ENDBRANCH  26  27
ENDBRANCH  25  26
ENDBRANCH  24  25
ENDBRANCH  23  24
ENDBRANCH   1  23
TORSDOF 21
ENDMDL
MODEL 2
REMARK VINA RESULT:      -9.9      1.386      8.282
REMARK SMILES CC(C)C[C@@H](C)NS(=O)(=O)c1ccsc1C(=O)NCCCCCCNC(=O)c1ccc(-c2c3nc(c(-c4cc(S(=O)(=O)[O-])ccc4F)c4ccc([nH]4)c(-c4cc(S(=O)(=O)[O-])ccc4F)c4nc(c(-c5cc(S(=O)(=O)[O-])ccc5F)c5ccc2[nH]5)C=C4)C=C3)cc1
REMARK SMILES IDX 20 1 19 2 18 3 16 4 17 5 15 7 11 8 12 9 13 10 14 11 8 12
REMARK SMILES IDX 9 13 10 14 7 15 5 17 6 18 4 19 2 20 1 21 3 22 21 23 22 24
REMARK SMILES IDX 23 25 24 26 25 27 26 28 27 30 28 31 29 32 90 33 30 34 89 35
REMARK SMILES IDX 31 36 32 37 33 38 83 39 34 40 88 41 82 42 84 43 35 44 87 45
REMARK SMILES IDX 81 46 80 47 36 49 68 50 48 51 67 52 49 53 52 54 66 55 85 56
REMARK SMILES IDX 50 57 51 58 65 60 86 61 53 62 37 63 38 64 46 65 39 66 45 67
REMARK SMILES IDX 47 68 44 69 40 70 41 71 42 72 43 73 69 74 70 75 78 76 71 77
REMARK SMILES IDX 77 78 79 79 76 80 72 81 73 82 74 83 75 84 54 85 55 86 63 87
REMARK SMILES IDX 56 88 62 89 64 90 61 91 57 92 58 93 59 94 60 95
REMARK H PARENT 18 6 7 16 25 29 84 48 52 59
REMARK Flexibility Score: inf
ROOT
ATOM      1  C   UNL A   1      34.387  28.716  26.686  1.00  0.00     0.021 C 
ENDROOT
BRANCH   1   2
ATOM      2  C   UNL A   1      33.435  29.191  25.599  1.00  0.00     0.116 C 
BRANCH   2   3
ATOM      3  N   UNL A   1      33.873  29.002  24.245  1.00  0.00    -0.351 N 
ATOM      4  C   UNL A   1      33.240  28.390  23.189  1.00  0.00     0.262 C 
ATOM      5  O   UNL A   1      33.828  28.510  22.107  1.00  0.00    -0.268 OA
ATOM      6  H   UNL A   1      34.765  29.367  24.041  1.00  0.00     0.163 HD
BRANCH   4   7
ATOM      7  C   UNL A   1      32.043  27.556  23.325  1.00  0.00     0.112 A 
ATOM      8  C   UNL A   1      31.754  26.224  23.610  1.00  0.00     0.106 A 
ATOM      9  C   UNL A   1      30.337  25.981  23.723  1.00  0.00     0.034 A 
ATOM     10  C   UNL A   1      29.581  27.107  23.543  1.00  0.00     0.067 A 
ATOM     11  S   UNL A   1      30.551  28.458  23.202  1.00  0.00    -0.137 S 
BRANCH   8  12
ATOM     12  S   UNL A   1      32.834  24.897  23.913  1.00  0.00     0.242 S 
ATOM     13  O   UNL A   1      33.524  25.255  25.125  1.00  0.00    -0.207 OA
ATOM     14  O   UNL A   1      33.562  24.704  22.677  1.00  0.00    -0.207 OA
BRANCH  12  15
ATOM     15  N   UNL A   1      31.894  23.507  24.222  1.00  0.00    -0.208 NA
ATOM     16  H   UNL A   1      31.609  23.542  25.200  1.00  0.00     0.141 HD
BRANCH  15  17
ATOM     17  C   UNL A   1      32.532  22.170  23.991  1.00  0.00     0.067 C 
ATOM     18  C   UNL A   1      32.156  21.667  22.598  1.00  0.00     0.025 C 
BRANCH  17  19
ATOM     19  C   UNL A   1      32.061  21.182  25.089  1.00  0.00     0.022 C 
BRANCH  19  20
ATOM     20  C   UNL A   1      33.096  20.087  25.458  1.00  0.00    -0.016 C 
ATOM     21  C   UNL A   1      32.700  18.709  24.924  1.00  0.00     0.007 C 
ATOM     22  C   UNL A   1      34.496  20.443  24.946  1.00  0.00     0.007 C 
ENDBRANCH  19  20
ENDBRANCH  17  19
ENDBRANCH  15  17
ENDBRANCH  12  15
ENDBRANCH   8  12
ENDBRANCH   4   7
ENDBRANCH   2   3
ENDBRANCH   1   2
BRANCH   1  23
ATOM     23  C   UNL A   1      34.604  29.655  27.879  1.00  0.00     0.002 C 
BRANCH  23  24
ATOM     24  C   UNL A   1      34.746  31.157  27.605  1.00  0.00     0.002 C 
BRANCH  24  25
ATOM     25  C   UNL A   1      33.540  32.057  27.892  1.00  0.00     0.021 C 
BRANCH  25  26
ATOM     26  C   UNL A   1      33.696  33.539  27.571  1.00  0.00     0.116 C 
BRANCH  26  27
ATOM     27  N   UNL A   1      33.112  34.407  28.576  1.00  0.00    -0.352 N 
ATOM     28  C   UNL A   1      33.454  34.599  29.892  1.00  0.00     0.251 C 
ATOM     29  H   UNL A   1      32.347  34.942  28.265  1.00  0.00     0.163 HD
ATOM     30  O   UNL A   1      32.733  35.295  30.602  1.00  0.00    -0.269 OA
BRANCH  28  31
ATOM     31  C   UNL A   1      34.658  33.954  30.471  1.00  0.00     0.039 A 
ATOM     32  C   UNL A   1      34.480  32.895  31.368  1.00  0.00     0.014 A 
ATOM     33  C   UNL A   1      35.950  34.396  30.169  1.00  0.00     0.014 A 
ATOM     34  C   UNL A   1      35.591  32.241  31.906  1.00  0.00     0.010 A 
ATOM     35  C   UNL A   1      37.057  33.699  30.654  1.00  0.00     0.010 A 
ATOM     36  C   UNL A   1      36.891  32.612  31.526  1.00  0.00    -0.014 A 
BRANCH  36  37
ATOM     37  C   UNL A   1      38.079  31.866  32.023  1.00  0.00     0.031 A 
ATOM     38  C   UNL A   1      38.700  32.213  33.348  1.00  0.00     0.074 A 
ATOM     39  C   UNL A   1      38.634  30.910  31.250  1.00  0.00     0.049 A 
ATOM     40  N   UNL A   1      39.771  31.722  33.917  1.00  0.00    -0.248 NA
ATOM     41  C   UNL A   1      38.043  33.276  34.122  1.00  0.00     0.031 C 
ATOM     42  C   UNL A   1      38.144  30.505  29.930  1.00  0.00     0.029 A 
ATOM     43  N   UNL A   1      39.731  30.111  31.455  1.00  0.00    -0.354 N 
ATOM     44  C   UNL A   1      39.924  32.419  35.111  1.00  0.00     0.074 A 
ATOM     45  C   UNL A   1      38.870  33.412  35.147  1.00  0.00     0.031 C 
ATOM     46  C   UNL A   1      38.921  29.517  29.457  1.00  0.00     0.029 A 
ATOM     47  C   UNL A   1      39.990  29.250  30.414  1.00  0.00     0.049 A 
ATOM     48  H   UNL A   1      40.280  30.150  32.271  1.00  0.00     0.167 HD
ATOM     49  C   UNL A   1      40.844  32.236  36.092  1.00  0.00     0.034 A 
ATOM     50  C   UNL A   1      40.984  28.356  30.240  1.00  0.00     0.034 A 
ATOM     51  C   UNL A   1      41.886  31.237  36.039  1.00  0.00     0.049 A 
ATOM     52  C   UNL A   1      42.019  28.196  31.324  1.00  0.00     0.074 A 
ATOM     53  C   UNL A   1      42.833  30.925  36.999  1.00  0.00     0.029 A 
ATOM     54  N   UNL A   1      42.130  30.395  34.960  1.00  0.00    -0.354 N 
ATOM     55  N   UNL A   1      42.120  28.829  32.470  1.00  0.00    -0.248 NA
ATOM     56  C   UNL A   1      43.068  27.195  31.093  1.00  0.00     0.031 C 
ATOM     57  C   UNL A   1      43.693  29.955  36.473  1.00  0.00     0.029 A 
ATOM     58  C   UNL A   1      43.235  29.596  35.215  1.00  0.00     0.049 A 
ATOM     59  H   UNL A   1      41.596  30.370  34.133  1.00  0.00     0.167 HD
ATOM     60  C   UNL A   1      43.229  28.282  33.109  1.00  0.00     0.074 A 
ATOM     61  C   UNL A   1      43.752  27.257  32.226  1.00  0.00     0.031 C 
ATOM     62  C   UNL A   1      43.764  28.593  34.318  1.00  0.00     0.034 A 
BRANCH  49  63
ATOM     63  C   UNL A   1      40.778  33.160  37.288  1.00  0.00     0.023 A 
ATOM     64  C   UNL A   1      39.997  32.854  38.417  1.00  0.00     0.031 A 
ATOM     65  C   UNL A   1      41.471  34.383  37.284  1.00  0.00     0.131 A 
ATOM     66  C   UNL A   1      39.856  33.794  39.449  1.00  0.00     0.055 A 
ATOM     67  C   UNL A   1      41.399  35.275  38.357  1.00  0.00     0.041 A 
ATOM     68  F   UNL A   1      42.217  34.744  36.229  1.00  0.00    -0.206 F 
ATOM     69  C   UNL A   1      40.572  34.991  39.439  1.00  0.00     0.022 A 
BRANCH  66  70
ATOM     70  S   UNL A   1      38.588  33.504  40.714  1.00  0.00     0.124 S 
ATOM     71  O   UNL A   1      37.490  32.965  39.914  1.00  0.00    -0.237 OA
ATOM     72  O   UNL A   1      39.248  32.561  41.611  1.00  0.00    -0.237 OA
ATOM     73  O   UNL A   1      38.348  34.833  41.271  1.00  0.00    -0.744 OA
ENDBRANCH  66  70
ENDBRANCH  49  63
BRANCH  50  74
ATOM     74  C   UNL A   1      41.058  27.549  28.989  1.00  0.00     0.023 A 
ATOM     75  C   UNL A   1      42.033  27.813  28.015  1.00  0.00     0.031 A 
ATOM     76  C   UNL A   1      40.136  26.517  28.737  1.00  0.00     0.131 A 
ATOM     77  C   UNL A   1      42.042  27.080  26.818  1.00  0.00     0.055 A 
ATOM     78  C   UNL A   1      40.182  25.756  27.567  1.00  0.00     0.041 A 
ATOM     79  F   UNL A   1      39.185  26.221  29.637  1.00  0.00    -0.206 F 
ATOM     80  C   UNL A   1      41.132  26.044  26.594  1.00  0.00     0.022 A 
BRANCH  77  81
ATOM     81  S   UNL A   1      43.220  27.551  25.521  1.00  0.00     0.124 S 
ATOM     82  O   UNL A   1      43.819  26.264  25.183  1.00  0.00    -0.237 OA
ATOM     83  O   UNL A   1      42.343  28.135  24.512  1.00  0.00    -0.237 OA
ATOM     84  O   UNL A   1      44.108  28.496  26.195  1.00  0.00    -0.744 OA
ENDBRANCH  77  81
ENDBRANCH  50  74
BRANCH  62  85
ATOM     85  C   UNL A   1      44.959  27.786  34.767  1.00  0.00     0.023 A 
ATOM     86  C   UNL A   1      44.816  26.584  35.480  1.00  0.00     0.031 A 
ATOM     87  C   UNL A   1      46.262  28.237  34.489  1.00  0.00     0.131 A 
ATOM     88  C   UNL A   1      45.953  25.903  35.942  1.00  0.00     0.055 A 
ATOM     89  C   UNL A   1      47.391  27.523  34.894  1.00  0.00     0.041 A 
ATOM     90  F   UNL A   1      46.461  29.381  33.815  1.00  0.00    -0.206 F 
ATOM     91  C   UNL A   1      47.240  26.356  35.638  1.00  0.00     0.022 A 
BRANCH  88  92
ATOM     92  S   UNL A   1      45.729  24.469  37.029  1.00  0.00     0.124 S 
ATOM     93  O   UNL A   1      46.787  24.667  38.014  1.00  0.00    -0.237 OA
ATOM     94  O   UNL A   1      44.365  24.653  37.512  1.00  0.00    -0.237 OA
ATOM     95  O   UNL A   1      45.920  23.327  36.135  1.00  0.00    -0.744 OA
ENDBRANCH  88  92
ENDBRANCH  62  85
ENDBRANCH  36  37
ENDBRANCH  28  31
ENDBRANCH  26  27
ENDBRANCH  25  26
ENDBRANCH  24  25
ENDBRANCH  23  24
ENDBRANCH   1  23
TORSDOF 21
ENDMDL
MODEL 3
REMARK VINA RESULT:      -9.9      6.592     10.360
REMARK SMILES CC(C)C[C@@H](C)NS(=O)(=O)c1ccsc1C(=O)NCCCCCCNC(=O)c1ccc(-c2c3nc(c(-c4cc(S(=O)(=O)[O-])ccc4F)c4ccc([nH]4)c(-c4cc(S(=O)(=O)[O-])ccc4F)c4nc(c(-c5cc(S(=O)(=O)[O-])ccc5F)c5ccc2[nH]5)C=C4)C=C3)cc1
REMARK SMILES IDX 20 1 19 2 18 3 16 4 17 5 15 7 11 8 12 9 13 10 14 11 8 12
REMARK SMILES IDX 9 13 10 14 7 15 5 17 6 18 4 19 2 20 1 21 3 22 21 23 22 24
REMARK SMILES IDX 23 25 24 26 25 27 26 28 27 30 28 31 29 32 90 33 30 34 89 35
REMARK SMILES IDX 31 36 32 37 33 38 83 39 34 40 88 41 82 42 84 43 35 44 87 45
REMARK SMILES IDX 81 46 80 47 36 49 68 50 48 51 67 52 49 53 52 54 66 55 85 56
REMARK SMILES IDX 50 57 51 58 65 60 86 61 53 62 37 63 38 64 46 65 39 66 45 67
REMARK SMILES IDX 47 68 44 69 40 70 41 71 42 72 43 73 69 74 70 75 78 76 71 77
REMARK SMILES IDX 77 78 79 79 76 80 72 81 73 82 74 83 75 84 54 85 55 86 63 87
REMARK SMILES IDX 56 88 62 89 64 90 61 91 57 92 58 93 59 94 60 95
REMARK H PARENT 18 6 7 16 25 29 84 48 52 59
REMARK Flexibility Score: inf
ROOT
ATOM      1  C   UNL A   1      37.769  23.090  25.123  1.00  0.00     0.021 C 
ENDROOT
BRANCH   1   2
ATOM      2  C   UNL A   1      36.399  23.731  24.956  1.00  0.00     0.116 C 
BRANCH   2   3
ATOM      3  N   UNL A   1      35.547  23.714  26.111  1.00  0.00    -0.351 N 
ATOM      4  C   UNL A   1      34.307  23.145  26.285  1.00  0.00     0.262 C 
ATOM      5  O   UNL A   1      33.888  23.191  27.449  1.00  0.00    -0.268 OA
ATOM      6  H   UNL A   1      35.905  24.183  26.900  1.00  0.00     0.163 HD
BRANCH   4   7
ATOM      7  C   UNL A   1      33.478  22.638  25.188  1.00  0.00     0.112 A 
ATOM      8  C   UNL A   1      33.120  21.398  24.668  1.00  0.00     0.106 A 
ATOM      9  C   UNL A   1      32.151  21.506  23.606  1.00  0.00     0.034 A 
ATOM     10  C   UNL A   1      31.779  22.797  23.346  1.00  0.00     0.067 A 
ATOM     11  S   UNL A   1      32.607  23.895  24.341  1.00  0.00    -0.137 S 
BRANCH   8  12
ATOM     12  S   UNL A   1      33.607  19.806  25.167  1.00  0.00     0.242 S 
ATOM     13  O   UNL A   1      33.277  19.742  26.566  1.00  0.00    -0.207 OA
ATOM     14  O   UNL A   1      34.978  19.666  24.722  1.00  0.00    -0.207 OA
BRANCH  12  15
ATOM     15  N   UNL A   1      32.641  18.670  24.336  1.00  0.00    -0.208 NA
ATOM     16  H   UNL A   1      32.414  17.924  24.993  1.00  0.00     0.141 HD
BRANCH  15  17
ATOM     17  C   UNL A   1      33.220  18.027  23.112  1.00  0.00     0.067 C 
ATOM     18  C   UNL A   1      32.189  18.074  21.985  1.00  0.00     0.025 C 
BRANCH  17  19
ATOM     19  C   UNL A   1      33.621  16.567  23.443  1.00  0.00     0.022 C 
BRANCH  19  20
ATOM     20  C   UNL A   1      33.705  16.249  24.959  1.00  0.00    -0.016 C 
ATOM     21  C   UNL A   1      32.729  15.147  25.378  1.00  0.00     0.007 C 
ATOM     22  C   UNL A   1      35.126  15.848  25.370  1.00  0.00     0.007 C 
ENDBRANCH  19  20
ENDBRANCH  17  19
ENDBRANCH  15  17
ENDBRANCH  12  15
ENDBRANCH   8  12
ENDBRANCH   4   7
ENDBRANCH   2   3
ENDBRANCH   1   2
BRANCH   1  23
ATOM     23  C   UNL A   1      38.520  23.385  26.427  1.00  0.00     0.002 C 
BRANCH  23  24
ATOM     24  C   UNL A   1      39.585  22.386  26.894  1.00  0.00     0.002 C 
BRANCH  24  25
ATOM     25  C   UNL A   1      39.742  21.081  26.107  1.00  0.00     0.021 C 
BRANCH  25  26
ATOM     26  C   UNL A   1      40.528  19.962  26.780  1.00  0.00     0.116 C 
BRANCH  26  27
ATOM     27  N   UNL A   1      41.757  19.628  26.085  1.00  0.00    -0.352 N 
ATOM     28  C   UNL A   1      42.820  20.421  25.728  1.00  0.00     0.251 C 
ATOM     29  H   UNL A   1      41.841  18.682  25.827  1.00  0.00     0.163 HD
ATOM     30  O   UNL A   1      43.708  19.948  25.023  1.00  0.00    -0.269 OA
BRANCH  28  31
ATOM     31  C   UNL A   1      42.892  21.840  26.153  1.00  0.00     0.039 A 
ATOM     32  C   UNL A   1      43.091  22.119  27.509  1.00  0.00     0.014 A 
ATOM     33  C   UNL A   1      42.735  22.892  25.245  1.00  0.00     0.014 A 
ATOM     34  C   UNL A   1      43.200  23.443  27.942  1.00  0.00     0.010 A 
ATOM     35  C   UNL A   1      42.912  24.210  25.669  1.00  0.00     0.010 A 
ATOM     36  C   UNL A   1      43.148  24.501  27.021  1.00  0.00    -0.014 A 
BRANCH  36  37
ATOM     37  C   UNL A   1      43.351  25.909  27.456  1.00  0.00     0.031 A 
ATOM     38  C   UNL A   1      44.719  26.534  27.409  1.00  0.00     0.074 A 
ATOM     39  C   UNL A   1      42.310  26.609  27.949  1.00  0.00     0.049 A 
ATOM     40  N   UNL A   1      45.104  27.720  27.804  1.00  0.00    -0.248 NA
ATOM     41  C   UNL A   1      45.803  25.699  26.871  1.00  0.00     0.031 C 
ATOM     42  C   UNL A   1      40.941  26.103  28.079  1.00  0.00     0.029 A 
ATOM     43  N   UNL A   1      42.236  27.889  28.439  1.00  0.00    -0.354 N 
ATOM     44  C   UNL A   1      46.475  27.774  27.573  1.00  0.00     0.074 A 
ATOM     45  C   UNL A   1      46.859  26.474  27.064  1.00  0.00     0.031 C 
ATOM     46  C   UNL A   1      40.161  27.071  28.586  1.00  0.00     0.029 A 
ATOM     47  C   UNL A   1      40.978  28.247  28.865  1.00  0.00     0.049 A 
ATOM     48  H   UNL A   1      43.011  28.494  28.482  1.00  0.00     0.167 HD
ATOM     49  C   UNL A   1      47.327  28.815  27.749  1.00  0.00     0.034 A 
ATOM     50  C   UNL A   1      40.533  29.388  29.429  1.00  0.00     0.034 A 
ATOM     51  C   UNL A   1      46.923  30.107  28.255  1.00  0.00     0.049 A 
ATOM     52  C   UNL A   1      41.505  30.518  29.654  1.00  0.00     0.074 A 
ATOM     53  C   UNL A   1      47.690  31.249  28.418  1.00  0.00     0.029 A 
ATOM     54  N   UNL A   1      45.644  30.427  28.693  1.00  0.00    -0.354 N 
ATOM     55  N   UNL A   1      42.788  30.570  29.382  1.00  0.00    -0.248 NA
ATOM     56  C   UNL A   1      40.964  31.745  30.253  1.00  0.00     0.031 C 
ATOM     57  C   UNL A   1      46.898  32.229  29.025  1.00  0.00     0.029 A 
ATOM     58  C   UNL A   1      45.611  31.732  29.165  1.00  0.00     0.049 A 
ATOM     59  H   UNL A   1      44.872  29.817  28.673  1.00  0.00     0.167 HD
ATOM     60  C   UNL A   1      43.202  31.847  29.753  1.00  0.00     0.074 A 
ATOM     61  C   UNL A   1      42.028  32.535  30.252  1.00  0.00     0.031 C 
ATOM     62  C   UNL A   1      44.440  32.402  29.683  1.00  0.00     0.034 A 
BRANCH  49  63
ATOM     63  C   UNL A   1      48.785  28.582  27.421  1.00  0.00     0.023 A 
ATOM     64  C   UNL A   1      49.240  28.490  26.094  1.00  0.00     0.031 A 
ATOM     65  C   UNL A   1      49.730  28.409  28.449  1.00  0.00     0.131 A 
ATOM     66  C   UNL A   1      50.574  28.142  25.831  1.00  0.00     0.055 A 
ATOM     67  C   UNL A   1      51.076  28.154  28.179  1.00  0.00     0.041 A 
ATOM     68  F   UNL A   1      49.357  28.464  29.737  1.00  0.00    -0.206 F 
ATOM     69  C   UNL A   1      51.501  27.999  26.863  1.00  0.00     0.022 A 
BRANCH  66  70
ATOM     70  S   UNL A   1      51.034  27.709  24.130  1.00  0.00     0.124 S 
ATOM     71  O   UNL A   1      50.027  26.702  23.799  1.00  0.00    -0.237 OA
ATOM     72  O   UNL A   1      50.914  28.986  23.436  1.00  0.00    -0.237 OA
ATOM     73  O   UNL A   1      52.395  27.195  24.263  1.00  0.00    -0.744 OA
ENDBRANCH  66  70
ENDBRANCH  49  63
BRANCH  50  74
ATOM     74  C   UNL A   1      39.103  29.519  29.831  1.00  0.00     0.023 A 
ATOM     75  C   UNL A   1      38.195  30.241  29.041  1.00  0.00     0.031 A 
ATOM     76  C   UNL A   1      38.630  28.947  31.025  1.00  0.00     0.131 A 
ATOM     77  C   UNL A   1      36.868  30.403  29.472  1.00  0.00     0.055 A 
ATOM     78  C   UNL A   1      37.297  29.067  31.423  1.00  0.00     0.041 A 
ATOM     79  F   UNL A   1      39.457  28.243  31.815  1.00  0.00    -0.206 F 
ATOM     80  C   UNL A   1      36.410  29.808  30.650  1.00  0.00     0.022 A 
BRANCH  77  81
ATOM     81  S   UNL A   1      35.764  31.467  28.503  1.00  0.00     0.124 S 
ATOM     82  O   UNL A   1      35.300  30.548  27.469  1.00  0.00    -0.237 OA
ATOM     83  O   UNL A   1      34.776  31.865  29.499  1.00  0.00    -0.237 OA
ATOM     84  O   UNL A   1      36.645  32.536  28.038  1.00  0.00    -0.744 OA
ENDBRANCH  77  81
ENDBRANCH  50  74
BRANCH  62  85
ATOM     85  C   UNL A   1      44.571  33.840  30.126  1.00  0.00     0.023 A 
ATOM     86  C   UNL A   1      44.228  34.910  29.282  1.00  0.00     0.031 A 
ATOM     87  C   UNL A   1      45.064  34.143  31.409  1.00  0.00     0.131 A 
ATOM     88  C   UNL A   1      44.434  36.232  29.707  1.00  0.00     0.055 A 
ATOM     89  C   UNL A   1      45.207  35.459  31.851  1.00  0.00     0.041 A 
ATOM     90  F   UNL A   1      45.412  33.162  32.256  1.00  0.00    -0.206 F 
ATOM     91  C   UNL A   1      44.906  36.513  30.992  1.00  0.00     0.022 A 
BRANCH  88  92
ATOM     92  S   UNL A   1      44.172  37.579  28.522  1.00  0.00     0.124 S 
ATOM     93  O   UNL A   1      45.008  38.639  29.078  1.00  0.00    -0.237 OA
ATOM     94  O   UNL A   1      44.639  36.991  27.271  1.00  0.00    -0.237 OA
ATOM     95  O   UNL A   1      42.732  37.824  28.593  1.00  0.00    -0.744 OA
ENDBRANCH  88  92
ENDBRANCH  62  85
ENDBRANCH  36  37
ENDBRANCH  28  31
ENDBRANCH  26  27
ENDBRANCH  25  26
ENDBRANCH  24  25
ENDBRANCH  23  24
ENDBRANCH   1  23
TORSDOF 21
ENDMDL
