MODEL 1
REMARK VINA RESULT:     -10.8      0.000      0.000
REMARK SMILES CC(C)[C@H](C)N(C)C(=O)N1CC[C@@H](C(=O)NCCCCCCNC(=O)c2ccc(-c3c4nc(c(-c5cc(S(=O)(=O)[O-])ccc5F)c5ccc([nH]5)c(-c5cc(S(=O)(=O)[O-])ccc5F)c5nc(c(-c6cc(S(=O)(=O)[O-])ccc6F)c6ccc3[nH]6)C=C5)C=C4)cc2)[C@@H]1C
REMARK SMILES IDX 19 1 18 2 17 3 16 4 14 5 15 6 13 8 10 9 11 10 89 11 12 12
REMARK SMILES IDX 90 13 8 14 9 15 6 16 7 17 4 18 5 19 2 20 1 21 3 22 20 23
REMARK SMILES IDX 21 24 22 25 23 26 24 27 25 29 26 30 27 31 88 32 28 33 87 34
REMARK SMILES IDX 29 35 30 36 31 37 81 38 32 39 86 40 80 41 82 42 33 43 85 44
REMARK SMILES IDX 79 45 78 46 34 48 66 49 46 50 65 51 47 52 50 53 64 54 83 55
REMARK SMILES IDX 48 56 49 57 63 59 84 60 51 61 35 62 36 63 44 64 37 65 43 66
REMARK SMILES IDX 45 67 42 68 38 69 39 70 40 71 41 72 67 73 68 74 76 75 69 76
REMARK SMILES IDX 75 77 77 78 74 79 70 80 71 81 72 82 73 83 52 84 53 85 61 86
REMARK SMILES IDX 54 87 60 88 62 89 59 90 55 91 56 92 57 93 58 94
REMARK H PARENT 16 7 23 28 82 47 50 58
REMARK Flexibility Score: inf
ROOT
ATOM      1  C   UNL A   1      30.668  28.976  24.087  1.00  0.00     0.002 C 
ENDROOT
BRANCH   1   2
ATOM      2  C   UNL A   1      31.317  28.982  22.703  1.00  0.00     0.021 C 
BRANCH   2   3
ATOM      3  C   UNL A   1      32.843  28.935  22.703  1.00  0.00     0.116 C 
BRANCH   3   4
ATOM      4  N   UNL A   1      33.330  27.719  22.078  1.00  0.00    -0.356 N 
ATOM      5  C   UNL A   1      33.401  26.442  22.538  1.00  0.00     0.225 C 
ATOM      6  O   UNL A   1      33.912  25.601  21.793  1.00  0.00    -0.275 OA
ATOM      7  H   UNL A   1      33.667  27.840  21.162  1.00  0.00     0.163 HD
BRANCH   5   8
ATOM      8  C   UNL A   1      32.869  26.019  23.901  1.00  0.00     0.102 C 
ATOM      9  N   UNL A   1      32.515  23.880  24.911  1.00  0.00    -0.321 N 
ATOM     10  C   UNL A   1      33.380  24.645  25.795  1.00  0.00     0.122 C 
ATOM     11  C   UNL A   1      31.973  24.763  23.868  1.00  0.00     0.096 C 
ATOM     12  C   UNL A   1      33.967  25.737  24.925  1.00  0.00     0.037 C 
ATOM     13  C   UNL A   1      30.519  25.131  24.179  1.00  0.00     0.032 C 
BRANCH   9  14
ATOM     14  C   UNL A   1      32.166  22.610  25.313  1.00  0.00     0.320 C 
ATOM     15  O   UNL A   1      31.539  22.481  26.372  1.00  0.00    -0.248 OA
BRANCH  14  16
ATOM     16  N   UNL A   1      32.579  21.496  24.599  1.00  0.00    -0.325 N 
ATOM     17  C   UNL A   1      32.294  21.228  23.205  1.00  0.00     0.149 C 
BRANCH  16  18
ATOM     18  C   UNL A   1      33.511  20.542  25.263  1.00  0.00     0.086 C 
ATOM     19  C   UNL A   1      33.042  19.083  25.082  1.00  0.00     0.031 C 
BRANCH  18  20
ATOM     20  C   UNL A   1      34.993  20.887  24.931  1.00  0.00     0.005 C 
ATOM     21  C   UNL A   1      35.545  21.843  26.004  1.00  0.00     0.009 C 
ATOM     22  C   UNL A   1      35.925  19.679  24.829  1.00  0.00     0.009 C 
ENDBRANCH  18  20
ENDBRANCH  16  18
ENDBRANCH  14  16
ENDBRANCH   9  14
ENDBRANCH   5   8
ENDBRANCH   3   4
ENDBRANCH   2   3
ENDBRANCH   1   2
BRANCH   1  23
ATOM     23  C   UNL A   1      31.432  29.754  25.163  1.00  0.00     0.002 C 
BRANCH  23  24
ATOM     24  C   UNL A   1      32.116  28.907  26.240  1.00  0.00     0.021 C 
BRANCH  24  25
ATOM     25  C   UNL A   1      33.478  29.415  26.709  1.00  0.00     0.116 C 
BRANCH  25  26
ATOM     26  N   UNL A   1      33.454  30.834  27.016  1.00  0.00    -0.352 N 
ATOM     27  C   UNL A   1      34.291  31.567  27.815  1.00  0.00     0.251 C 
ATOM     28  H   UNL A   1      32.729  31.343  26.589  1.00  0.00     0.163 HD
ATOM     29  O   UNL A   1      33.975  32.719  28.120  1.00  0.00    -0.269 OA
BRANCH  27  30
ATOM     30  C   UNL A   1      35.555  30.986  28.321  1.00  0.00     0.039 A 
ATOM     31  C   UNL A   1      35.496  29.852  29.135  1.00  0.00     0.014 A 
ATOM     32  C   UNL A   1      36.791  31.574  28.034  1.00  0.00     0.014 A 
ATOM     33  C   UNL A   1      36.674  29.289  29.633  1.00  0.00     0.010 A 
ATOM     34  C   UNL A   1      37.969  30.972  28.474  1.00  0.00     0.010 A 
ATOM     35  C   UNL A   1      37.923  29.833  29.292  1.00  0.00    -0.014 A 
BRANCH  35  36
ATOM     36  C   UNL A   1      39.183  29.245  29.819  1.00  0.00     0.031 A 
ATOM     37  C   UNL A   1      39.835  29.836  31.041  1.00  0.00     0.074 A 
ATOM     38  C   UNL A   1      39.762  28.210  29.179  1.00  0.00     0.049 A 
ATOM     39  N   UNL A   1      40.960  29.508  31.624  1.00  0.00    -0.248 NA
ATOM     40  C   UNL A   1      39.140  30.968  31.673  1.00  0.00     0.031 C 
ATOM     41  C   UNL A   1      39.246  27.573  27.965  1.00  0.00     0.029 A 
ATOM     42  N   UNL A   1      40.913  27.514  29.455  1.00  0.00    -0.354 N 
ATOM     43  C   UNL A   1      41.115  30.400  32.681  1.00  0.00     0.074 A 
ATOM     44  C   UNL A   1      40.002  31.322  32.614  1.00  0.00     0.031 C 
ATOM     45  C   UNL A   1      40.062  26.565  27.618  1.00  0.00     0.029 A 
ATOM     46  C   UNL A   1      41.180  26.509  28.555  1.00  0.00     0.049 A 
ATOM     47  H   UNL A   1      41.492  27.715  30.225  1.00  0.00     0.167 HD
ATOM     48  C   UNL A   1      42.082  30.432  33.633  1.00  0.00     0.034 A 
ATOM     49  C   UNL A   1      42.212  25.643  28.490  1.00  0.00     0.034 A 
ATOM     50  C   UNL A   1      43.179  29.496  33.692  1.00  0.00     0.049 A 
ATOM     51  C   UNL A   1      43.281  25.703  29.551  1.00  0.00     0.074 A 
ATOM     52  C   UNL A   1      44.192  29.409  34.632  1.00  0.00     0.029 A 
ATOM     53  N   UNL A   1      43.411  28.482  32.769  1.00  0.00    -0.354 N 
ATOM     54  N   UNL A   1      43.393  26.527  30.568  1.00  0.00    -0.248 NA
ATOM     55  C   UNL A   1      44.353  24.703  29.466  1.00  0.00     0.031 C 
ATOM     56  C   UNL A   1      45.068  28.389  34.245  1.00  0.00     0.029 A 
ATOM     57  C   UNL A   1      44.561  27.782  33.106  1.00  0.00     0.049 A 
ATOM     58  H   UNL A   1      42.842  28.289  31.990  1.00  0.00     0.167 HD
ATOM     59  C   UNL A   1      44.527  26.117  31.264  1.00  0.00     0.074 A 
ATOM     60  C   UNL A   1      45.055  24.969  30.558  1.00  0.00     0.031 C 
ATOM     61  C   UNL A   1      45.079  26.640  32.390  1.00  0.00     0.034 A 
BRANCH  48  62
ATOM     62  C   UNL A   1      42.002  31.533  34.665  1.00  0.00     0.023 A 
ATOM     63  C   UNL A   1      41.039  31.515  35.692  1.00  0.00     0.031 A 
ATOM     64  C   UNL A   1      42.870  32.637  34.602  1.00  0.00     0.131 A 
ATOM     65  C   UNL A   1      40.911  32.616  36.553  1.00  0.00     0.055 A 
ATOM     66  C   UNL A   1      42.796  33.688  35.520  1.00  0.00     0.041 A 
ATOM     67  F   UNL A   1      43.796  32.724  33.634  1.00  0.00    -0.206 F 
ATOM     68  C   UNL A   1      41.800  33.689  36.491  1.00  0.00     0.022 A 
BRANCH  65  69
ATOM     69  S   UNL A   1      39.465  32.694  37.645  1.00  0.00     0.124 S 
ATOM     70  O   UNL A   1      38.695  31.535  37.198  1.00  0.00    -0.237 OA
ATOM     71  O   UNL A   1      40.063  32.592  38.970  1.00  0.00    -0.237 OA
ATOM     72  O   UNL A   1      38.866  33.989  37.328  1.00  0.00    -0.744 OA
ENDBRANCH  65  69
ENDBRANCH  48  62
BRANCH  49  73
ATOM     73  C   UNL A   1      42.291  24.644  27.386  1.00  0.00     0.023 A 
ATOM     74  C   UNL A   1      41.537  23.460  27.428  1.00  0.00     0.031 A 
ATOM     75  C   UNL A   1      43.151  24.840  26.291  1.00  0.00     0.131 A 
ATOM     76  C   UNL A   1      41.694  22.495  26.421  1.00  0.00     0.055 A 
ATOM     77  C   UNL A   1      43.265  23.900  25.266  1.00  0.00     0.041 A 
ATOM     78  F   UNL A   1      43.888  25.958  26.199  1.00  0.00    -0.206 F 
ATOM     79  C   UNL A   1      42.543  22.712  25.334  1.00  0.00     0.022 A 
BRANCH  76  80
ATOM     80  S   UNL A   1      40.831  20.908  26.597  1.00  0.00     0.124 S 
ATOM     81  O   UNL A   1      41.682  20.020  25.814  1.00  0.00    -0.237 OA
ATOM     82  O   UNL A   1      40.855  20.711  28.043  1.00  0.00    -0.237 OA
ATOM     83  O   UNL A   1      39.512  21.173  26.028  1.00  0.00    -0.744 OA
ENDBRANCH  76  80
ENDBRANCH  49  73
BRANCH  61  84
ATOM     84  C   UNL A   1      46.285  25.928  32.957  1.00  0.00     0.023 A 
ATOM     85  C   UNL A   1      46.166  24.924  33.934  1.00  0.00     0.031 A 
ATOM     86  C   UNL A   1      47.577  26.281  32.525  1.00  0.00     0.131 A 
ATOM     87  C   UNL A   1      47.320  24.352  34.492  1.00  0.00     0.055 A 
ATOM     88  C   UNL A   1      48.717  25.663  33.039  1.00  0.00     0.041 A 
ATOM     89  F   UNL A   1      47.750  27.235  31.597  1.00  0.00    -0.206 F 
ATOM     90  C   UNL A   1      48.594  24.705  34.040  1.00  0.00     0.022 A 
BRANCH  87  91
ATOM     91  S   UNL A   1      47.137  23.220  35.899  1.00  0.00     0.124 S 
ATOM     92  O   UNL A   1      47.477  24.079  37.027  1.00  0.00    -0.237 OA
ATOM     93  O   UNL A   1      45.736  22.822  35.798  1.00  0.00    -0.237 OA
ATOM     94  O   UNL A   1      48.103  22.160  35.612  1.00  0.00    -0.744 OA
ENDBRANCH  87  91
ENDBRANCH  61  84
ENDBRANCH  35  36
ENDBRANCH  27  30
ENDBRANCH  25  26
ENDBRANCH  24  25
ENDBRANCH  23  24
ENDBRANCH   1  23
TORSDOF 20
ENDMDL
MODEL 2
REMARK VINA RESULT:     -10.3      3.029      4.309
REMARK SMILES CC(C)[C@H](C)N(C)C(=O)N1CC[C@@H](C(=O)NCCCCCCNC(=O)c2ccc(-c3c4nc(c(-c5cc(S(=O)(=O)[O-])ccc5F)c5ccc([nH]5)c(-c5cc(S(=O)(=O)[O-])ccc5F)c5nc(c(-c6cc(S(=O)(=O)[O-])ccc6F)c6ccc3[nH]6)C=C5)C=C4)cc2)[C@@H]1C
REMARK SMILES IDX 19 1 18 2 17 3 16 4 14 5 15 6 13 8 10 9 11 10 89 11 12 12
REMARK SMILES IDX 90 13 8 14 9 15 6 16 7 17 4 18 5 19 2 20 1 21 3 22 20 23
REMARK SMILES IDX 21 24 22 25 23 26 24 27 25 29 26 30 27 31 88 32 28 33 87 34
REMARK SMILES IDX 29 35 30 36 31 37 81 38 32 39 86 40 80 41 82 42 33 43 85 44
REMARK SMILES IDX 79 45 78 46 34 48 66 49 46 50 65 51 47 52 50 53 64 54 83 55
REMARK SMILES IDX 48 56 49 57 63 59 84 60 51 61 35 62 36 63 44 64 37 65 43 66
REMARK SMILES IDX 45 67 42 68 38 69 39 70 40 71 41 72 67 73 68 74 76 75 69 76
REMARK SMILES IDX 75 77 77 78 74 79 70 80 71 81 72 82 73 83 52 84 53 85 61 86
REMARK SMILES IDX 54 87 60 88 62 89 59 90 55 91 56 92 57 93 58 94
REMARK H PARENT 16 7 23 28 82 47 50 58
REMARK Flexibility Score: inf
ROOT
ATOM      1  C   UNL A   1      34.938  31.757  28.608  1.00  0.00     0.002 C 
ENDROOT
BRANCH   1   2
ATOM      2  C   UNL A   1      34.833  30.575  27.645  1.00  0.00     0.021 C 
BRANCH   2   3
ATOM      3  C   UNL A   1      33.488  30.436  26.935  1.00  0.00     0.116 C 
BRANCH   3   4
ATOM      4  N   UNL A   1      32.621  29.504  27.633  1.00  0.00    -0.356 N 
ATOM      5  C   UNL A   1      32.032  28.349  27.223  1.00  0.00     0.225 C 
ATOM      6  O   UNL A   1      31.295  27.774  28.030  1.00  0.00    -0.275 OA
ATOM      7  H   UNL A   1      32.426  29.750  28.565  1.00  0.00     0.163 HD
BRANCH   5   8
ATOM      8  C   UNL A   1      32.256  27.747  25.843  1.00  0.00     0.102 C 
ATOM      9  N   UNL A   1      31.655  25.644  24.875  1.00  0.00    -0.321 N 
ATOM     10  C   UNL A   1      31.110  26.690  24.024  1.00  0.00     0.122 C 
ATOM     11  C   UNL A   1      32.575  26.237  25.856  1.00  0.00     0.096 C 
ATOM     12  C   UNL A   1      31.069  27.927  24.896  1.00  0.00     0.037 C 
ATOM     13  C   UNL A   1      34.030  25.991  25.445  1.00  0.00     0.032 C 
BRANCH   9  14
ATOM     14  C   UNL A   1      31.440  24.340  24.488  1.00  0.00     0.320 C 
ATOM     15  O   UNL A   1      30.558  24.114  23.651  1.00  0.00    -0.248 OA
BRANCH  14  16
ATOM     16  N   UNL A   1      32.131  23.296  25.083  1.00  0.00    -0.325 N 
ATOM     17  C   UNL A   1      32.050  22.908  26.475  1.00  0.00     0.149 C 
BRANCH  16  18
ATOM     18  C   UNL A   1      32.931  22.393  24.206  1.00  0.00     0.086 C 
ATOM     19  C   UNL A   1      33.705  23.193  23.138  1.00  0.00     0.031 C 
BRANCH  18  20
ATOM     20  C   UNL A   1      33.710  21.342  25.051  1.00  0.00     0.005 C 
ATOM     21  C   UNL A   1      33.369  19.929  24.546  1.00  0.00     0.009 C 
ATOM     22  C   UNL A   1      35.230  21.511  25.038  1.00  0.00     0.009 C 
ENDBRANCH  18  20
ENDBRANCH  16  18
ENDBRANCH  14  16
ENDBRANCH   9  14
ENDBRANCH   5   8
ENDBRANCH   3   4
ENDBRANCH   2   3
ENDBRANCH   1   2
BRANCH   1  23
ATOM     23  C   UNL A   1      35.500  33.043  27.995  1.00  0.00     0.002 C 
BRANCH  23  24
ATOM     24  C   UNL A   1      34.582  34.268  28.054  1.00  0.00     0.021 C 
BRANCH  24  25
ATOM     25  C   UNL A   1      33.195  34.020  28.645  1.00  0.00     0.116 C 
BRANCH  25  26
ATOM     26  N   UNL A   1      32.867  34.977  29.686  1.00  0.00    -0.352 N 
ATOM     27  C   UNL A   1      33.380  35.100  30.950  1.00  0.00     0.251 C 
ATOM     28  H   UNL A   1      32.173  35.633  29.449  1.00  0.00     0.163 HD
ATOM     29  O   UNL A   1      32.816  35.841  31.758  1.00  0.00    -0.269 OA
BRANCH  27  30
ATOM     30  C   UNL A   1      34.588  34.345  31.353  1.00  0.00     0.039 A 
ATOM     31  C   UNL A   1      34.430  33.089  31.945  1.00  0.00     0.014 A 
ATOM     32  C   UNL A   1      35.868  34.884  31.191  1.00  0.00     0.014 A 
ATOM     33  C   UNL A   1      35.553  32.360  32.342  1.00  0.00     0.010 A 
ATOM     34  C   UNL A   1      36.990  34.126  31.525  1.00  0.00     0.010 A 
ATOM     35  C   UNL A   1      36.845  32.864  32.119  1.00  0.00    -0.014 A 
BRANCH  35  36
ATOM     36  C   UNL A   1      38.049  32.099  32.542  1.00  0.00     0.031 A 
ATOM     37  C   UNL A   1      38.703  32.397  33.865  1.00  0.00     0.074 A 
ATOM     38  C   UNL A   1      38.576  31.167  31.723  1.00  0.00     0.049 A 
ATOM     39  N   UNL A   1      39.787  31.885  34.390  1.00  0.00    -0.248 NA
ATOM     40  C   UNL A   1      38.066  33.433  34.693  1.00  0.00     0.031 C 
ATOM     41  C   UNL A   1      38.053  30.812  30.402  1.00  0.00     0.029 A 
ATOM     42  N   UNL A   1      39.670  30.352  31.877  1.00  0.00    -0.354 N 
ATOM     43  C   UNL A   1      39.971  32.545  35.602  1.00  0.00     0.074 A 
ATOM     44  C   UNL A   1      38.922  33.539  35.698  1.00  0.00     0.031 C 
ATOM     45  C   UNL A   1      38.811  29.835  29.879  1.00  0.00     0.029 A 
ATOM     46  C   UNL A   1      39.896  29.522  30.804  1.00  0.00     0.049 A 
ATOM     47  H   UNL A   1      40.239  30.361  32.680  1.00  0.00     0.167 HD
ATOM     48  C   UNL A   1      40.910  32.326  36.557  1.00  0.00     0.034 A 
ATOM     49  C   UNL A   1      40.870  28.615  30.588  1.00  0.00     0.034 A 
ATOM     50  C   UNL A   1      41.941  31.321  36.451  1.00  0.00     0.049 A 
ATOM     51  C   UNL A   1      41.910  28.395  31.658  1.00  0.00     0.074 A 
ATOM     52  C   UNL A   1      42.918  30.985  37.371  1.00  0.00     0.029 A 
ATOM     53  N   UNL A   1      42.131  30.489  35.353  1.00  0.00    -0.354 N 
ATOM     54  N   UNL A   1      42.047  28.999  32.816  1.00  0.00    -0.248 NA
ATOM     55  C   UNL A   1      42.915  27.357  31.397  1.00  0.00     0.031 C 
ATOM     56  C   UNL A   1      43.736  29.999  36.808  1.00  0.00     0.029 A 
ATOM     57  C   UNL A   1      43.223  29.659  35.566  1.00  0.00     0.049 A 
ATOM     58  H   UNL A   1      41.573  30.490  34.542  1.00  0.00     0.167 HD
ATOM     59  C   UNL A   1      43.131  28.384  33.437  1.00  0.00     0.074 A 
ATOM     60  C   UNL A   1      43.602  27.359  32.530  1.00  0.00     0.031 C 
ATOM     61  C   UNL A   1      43.684  28.642  34.651  1.00  0.00     0.034 A 
BRANCH  48  62
ATOM     62  C   UNL A   1      40.873  33.212  37.781  1.00  0.00     0.023 A 
ATOM     63  C   UNL A   1      40.028  32.932  38.871  1.00  0.00     0.031 A 
ATOM     64  C   UNL A   1      41.662  34.374  37.846  1.00  0.00     0.131 A 
ATOM     65  C   UNL A   1      39.925  33.844  39.933  1.00  0.00     0.055 A 
ATOM     66  C   UNL A   1      41.622  35.232  38.949  1.00  0.00     0.041 A 
ATOM     67  F   UNL A   1      42.472  34.708  36.830  1.00  0.00    -0.206 F 
ATOM     68  C   UNL A   1      40.736  34.978  39.992  1.00  0.00     0.022 A 
BRANCH  65  69
ATOM     69  S   UNL A   1      38.601  33.608  41.149  1.00  0.00     0.124 S 
ATOM     70  O   UNL A   1      39.339  33.061  42.285  1.00  0.00    -0.237 OA
ATOM     71  O   UNL A   1      38.081  34.960  41.316  1.00  0.00    -0.237 OA
ATOM     72  O   UNL A   1      37.697  32.667  40.493  1.00  0.00    -0.744 OA
ENDBRANCH  65  69
ENDBRANCH  48  62
BRANCH  49  73
ATOM     73  C   UNL A   1      40.913  27.842  29.313  1.00  0.00     0.023 A 
ATOM     74  C   UNL A   1      41.833  28.165  28.303  1.00  0.00     0.031 A 
ATOM     75  C   UNL A   1      40.007  26.794  29.071  1.00  0.00     0.131 A 
ATOM     76  C   UNL A   1      41.796  27.481  27.078  1.00  0.00     0.055 A 
ATOM     77  C   UNL A   1      40.009  26.082  27.870  1.00  0.00     0.041 A 
ATOM     78  F   UNL A   1      39.112  26.440  30.006  1.00  0.00    -0.206 F 
ATOM     79  C   UNL A   1      40.898  26.433  26.859  1.00  0.00     0.022 A 
BRANCH  76  80
ATOM     80  S   UNL A   1      42.885  28.038  25.739  1.00  0.00     0.124 S 
ATOM     81  O   UNL A   1      42.298  27.372  24.583  1.00  0.00    -0.237 OA
ATOM     82  O   UNL A   1      42.720  29.487  25.798  1.00  0.00    -0.237 OA
ATOM     83  O   UNL A   1      44.200  27.546  26.143  1.00  0.00    -0.744 OA
ENDBRANCH  76  80
ENDBRANCH  49  73
BRANCH  61  84
ATOM     84  C   UNL A   1      44.824  27.751  35.088  1.00  0.00     0.023 A 
ATOM     85  C   UNL A   1      44.603  26.497  35.683  1.00  0.00     0.031 A 
ATOM     86  C   UNL A   1      46.154  28.181  34.924  1.00  0.00     0.131 A 
ATOM     87  C   UNL A   1      45.691  25.744  36.151  1.00  0.00     0.055 A 
ATOM     88  C   UNL A   1      47.234  27.398  35.334  1.00  0.00     0.041 A 
ATOM     89  F   UNL A   1      46.424  29.371  34.364  1.00  0.00    -0.206 F 
ATOM     90  C   UNL A   1      47.006  26.180  35.966  1.00  0.00     0.022 A 
BRANCH  87  91
ATOM     91  S   UNL A   1      45.361  24.236  37.104  1.00  0.00     0.124 S 
ATOM     92  O   UNL A   1      44.672  24.763  38.277  1.00  0.00    -0.237 OA
ATOM     93  O   UNL A   1      44.544  23.456  36.180  1.00  0.00    -0.237 OA
ATOM     94  O   UNL A   1      46.695  23.694  37.360  1.00  0.00    -0.744 OA
ENDBRANCH  87  91
ENDBRANCH  61  84
ENDBRANCH  35  36
ENDBRANCH  27  30
ENDBRANCH  25  26
ENDBRANCH  24  25
ENDBRANCH  23  24
ENDBRANCH   1  23
TORSDOF 20
ENDMDL
MODEL 3
REMARK VINA RESULT:     -10.3      4.184      9.560
REMARK SMILES CC(C)[C@H](C)N(C)C(=O)N1CC[C@@H](C(=O)NCCCCCCNC(=O)c2ccc(-c3c4nc(c(-c5cc(S(=O)(=O)[O-])ccc5F)c5ccc([nH]5)c(-c5cc(S(=O)(=O)[O-])ccc5F)c5nc(c(-c6cc(S(=O)(=O)[O-])ccc6F)c6ccc3[nH]6)C=C5)C=C4)cc2)[C@@H]1C
REMARK SMILES IDX 19 1 18 2 17 3 16 4 14 5 15 6 13 8 10 9 11 10 89 11 12 12
REMARK SMILES IDX 90 13 8 14 9 15 6 16 7 17 4 18 5 19 2 20 1 21 3 22 20 23
REMARK SMILES IDX 21 24 22 25 23 26 24 27 25 29 26 30 27 31 88 32 28 33 87 34
REMARK SMILES IDX 29 35 30 36 31 37 81 38 32 39 86 40 80 41 82 42 33 43 85 44
REMARK SMILES IDX 79 45 78 46 34 48 66 49 46 50 65 51 47 52 50 53 64 54 83 55
REMARK SMILES IDX 48 56 49 57 63 59 84 60 51 61 35 62 36 63 44 64 37 65 43 66
REMARK SMILES IDX 45 67 42 68 38 69 39 70 40 71 41 72 67 73 68 74 76 75 69 76
REMARK SMILES IDX 75 77 77 78 74 79 70 80 71 81 72 82 73 83 52 84 53 85 61 86
REMARK SMILES IDX 54 87 60 88 62 89 59 90 55 91 56 92 57 93 58 94
REMARK H PARENT 16 7 23 28 82 47 50 58
REMARK Flexibility Score: inf
ROOT
ATOM      1  C   UNL A   1      34.874  20.174  24.991  1.00  0.00     0.002 C 
ENDROOT
BRANCH   1   2
ATOM      2  C   UNL A   1      33.378  20.388  25.222  1.00  0.00     0.021 C 
BRANCH   2   3
ATOM      3  C   UNL A   1      32.523  20.410  23.957  1.00  0.00     0.116 C 
BRANCH   3   4
ATOM      4  N   UNL A   1      32.908  21.504  23.084  1.00  0.00    -0.356 N 
ATOM      5  C   UNL A   1      32.449  22.780  22.990  1.00  0.00     0.225 C 
ATOM      6  O   UNL A   1      32.938  23.493  22.108  1.00  0.00    -0.275 OA
ATOM      7  H   UNL A   1      33.627  21.283  22.449  1.00  0.00     0.163 HD
BRANCH   5   8
ATOM      8  C   UNL A   1      31.390  23.352  23.922  1.00  0.00     0.102 C 
ATOM      9  N   UNL A   1      31.243  25.403  25.144  1.00  0.00    -0.321 N 
ATOM     10  C   UNL A   1      30.057  25.304  24.310  1.00  0.00     0.122 C 
ATOM     11  C   UNL A   1      31.962  24.120  25.133  1.00  0.00     0.096 C 
ATOM     12  C   UNL A   1      30.416  24.305  23.230  1.00  0.00     0.037 C 
ATOM     13  C   UNL A   1      31.704  23.349  26.430  1.00  0.00     0.032 C 
BRANCH   9  14
ATOM     14  C   UNL A   1      31.355  26.511  25.954  1.00  0.00     0.320 C 
ATOM     15  O   UNL A   1      30.655  26.568  26.972  1.00  0.00    -0.248 OA
BRANCH  14  16
ATOM     16  N   UNL A   1      32.165  27.578  25.595  1.00  0.00    -0.325 N 
ATOM     17  C   UNL A   1      33.604  27.541  25.452  1.00  0.00     0.149 C 
BRANCH  16  18
ATOM     18  C   UNL A   1      31.508  28.852  25.186  1.00  0.00     0.086 C 
ATOM     19  C   UNL A   1      32.353  30.076  25.597  1.00  0.00     0.031 C 
BRANCH  18  20
ATOM     20  C   UNL A   1      30.995  28.768  23.717  1.00  0.00     0.005 C 
ATOM     21  C   UNL A   1      29.903  29.830  23.498  1.00  0.00     0.009 C 
ATOM     22  C   UNL A   1      32.076  28.953  22.651  1.00  0.00     0.009 C 
ENDBRANCH  18  20
ENDBRANCH  16  18
ENDBRANCH  14  16
ENDBRANCH   9  14
ENDBRANCH   5   8
ENDBRANCH   3   4
ENDBRANCH   2   3
ENDBRANCH   1   2
BRANCH   1  23
ATOM     23  C   UNL A   1      35.655  21.433  24.603  1.00  0.00     0.002 C 
BRANCH  23  24
ATOM     24  C   UNL A   1      35.481  22.638  25.533  1.00  0.00     0.021 C 
BRANCH  24  25
ATOM     25  C   UNL A   1      36.771  23.356  25.925  1.00  0.00     0.116 C 
BRANCH  25  26
ATOM     26  N   UNL A   1      37.866  22.428  26.143  1.00  0.00    -0.352 N 
ATOM     27  C   UNL A   1      39.165  22.680  26.500  1.00  0.00     0.251 C 
ATOM     28  H   UNL A   1      37.643  21.478  26.015  1.00  0.00     0.163 HD
ATOM     29  O   UNL A   1      39.996  21.772  26.424  1.00  0.00    -0.269 OA
BRANCH  27  30
ATOM     30  C   UNL A   1      39.575  24.026  26.960  1.00  0.00     0.039 A 
ATOM     31  C   UNL A   1      40.039  24.946  26.016  1.00  0.00     0.014 A 
ATOM     32  C   UNL A   1      39.546  24.371  28.314  1.00  0.00     0.014 A 
ATOM     33  C   UNL A   1      40.441  26.220  26.424  1.00  0.00     0.010 A 
ATOM     34  C   UNL A   1      39.882  25.665  28.712  1.00  0.00     0.010 A 
ATOM     35  C   UNL A   1      40.349  26.598  27.774  1.00  0.00    -0.014 A 
BRANCH  35  36
ATOM     36  C   UNL A   1      40.778  27.950  28.221  1.00  0.00     0.031 A 
ATOM     37  C   UNL A   1      42.236  28.325  28.190  1.00  0.00     0.074 A 
ATOM     38  C   UNL A   1      39.866  28.823  28.692  1.00  0.00     0.049 A 
ATOM     39  N   UNL A   1      42.819  29.427  28.588  1.00  0.00    -0.248 NA
ATOM     40  C   UNL A   1      43.163  27.310  27.669  1.00  0.00     0.031 C 
ATOM     41  C   UNL A   1      38.429  28.565  28.804  1.00  0.00     0.029 A 
ATOM     42  N   UNL A   1      40.011  30.103  29.168  1.00  0.00    -0.354 N 
ATOM     43  C   UNL A   1      44.181  29.234  28.378  1.00  0.00     0.074 A 
ATOM     44  C   UNL A   1      44.338  27.883  27.881  1.00  0.00     0.031 C 
ATOM     45  C   UNL A   1      37.823  29.660  29.292  1.00  0.00     0.029 A 
ATOM     46  C   UNL A   1      38.828  30.682  29.567  1.00  0.00     0.049 A 
ATOM     47  H   UNL A   1      40.879  30.563  29.219  1.00  0.00     0.167 HD
ATOM     48  C   UNL A   1      45.203  30.108  28.559  1.00  0.00     0.034 A 
ATOM     49  C   UNL A   1      38.583  31.897  30.098  1.00  0.00     0.034 A 
ATOM     50  C   UNL A   1      45.028  31.456  29.045  1.00  0.00     0.049 A 
ATOM     51  C   UNL A   1      39.734  32.849  30.300  1.00  0.00     0.074 A 
ATOM     52  C   UNL A   1      45.984  32.440  29.229  1.00  0.00     0.029 A 
ATOM     53  N   UNL A   1      43.812  32.012  29.426  1.00  0.00    -0.354 N 
ATOM     54  N   UNL A   1      41.012  32.666  30.060  1.00  0.00    -0.248 NA
ATOM     55  C   UNL A   1      39.405  34.179  30.829  1.00  0.00     0.031 C 
ATOM     56  C   UNL A   1      45.360  33.565  29.780  1.00  0.00     0.029 A 
ATOM     57  C   UNL A   1      43.999  33.315  29.866  1.00  0.00     0.049 A 
ATOM     58  H   UNL A   1      42.944  31.549  29.391  1.00  0.00     0.167 HD
ATOM     59  C   UNL A   1      41.633  33.872  30.372  1.00  0.00     0.074 A 
ATOM     60  C   UNL A   1      40.588  34.775  30.806  1.00  0.00     0.031 C 
ATOM     61  C   UNL A   1      42.948  34.205  30.301  1.00  0.00     0.034 A 
BRANCH  48  62
ATOM     62  C   UNL A   1      46.600  29.615  28.255  1.00  0.00     0.023 A 
ATOM     63  C   UNL A   1      47.410  29.031  29.247  1.00  0.00     0.031 A 
ATOM     64  C   UNL A   1      47.146  29.764  26.968  1.00  0.00     0.131 A 
ATOM     65  C   UNL A   1      48.744  28.704  28.961  1.00  0.00     0.055 A 
ATOM     66  C   UNL A   1      48.447  29.352  26.667  1.00  0.00     0.041 A 
ATOM     67  F   UNL A   1      46.433  30.333  25.985  1.00  0.00    -0.206 F 
ATOM     68  C   UNL A   1      49.260  28.835  27.671  1.00  0.00     0.022 A 
BRANCH  65  69
ATOM     69  S   UNL A   1      49.839  28.259  30.337  1.00  0.00     0.124 S 
ATOM     70  O   UNL A   1      49.734  29.440  31.190  1.00  0.00    -0.237 OA
ATOM     71  O   UNL A   1      49.222  27.042  30.851  1.00  0.00    -0.237 OA
ATOM     72  O   UNL A   1      51.139  28.077  29.696  1.00  0.00    -0.744 OA
ENDBRANCH  65  69
ENDBRANCH  48  62
BRANCH  49  73
ATOM     73  C   UNL A   1      37.194  32.290  30.474  1.00  0.00     0.023 A 
ATOM     74  C   UNL A   1      36.298  32.786  29.515  1.00  0.00     0.031 A 
ATOM     75  C   UNL A   1      36.756  32.211  31.808  1.00  0.00     0.131 A 
ATOM     76  C   UNL A   1      35.027  33.232  29.909  1.00  0.00     0.055 A 
ATOM     77  C   UNL A   1      35.472  32.607  32.186  1.00  0.00     0.041 A 
ATOM     78  F   UNL A   1      37.571  31.736  32.763  1.00  0.00    -0.206 F 
ATOM     79  C   UNL A   1      34.603  33.134  31.236  1.00  0.00     0.022 A 
BRANCH  76  80
ATOM     80  S   UNL A   1      33.961  34.021  28.672  1.00  0.00     0.124 S 
ATOM     81  O   UNL A   1      33.593  32.889  27.831  1.00  0.00    -0.237 OA
ATOM     82  O   UNL A   1      32.896  34.577  29.502  1.00  0.00    -0.237 OA
ATOM     83  O   UNL A   1      34.837  35.007  28.045  1.00  0.00    -0.744 OA
ENDBRANCH  76  80
ENDBRANCH  49  73
BRANCH  61  84
ATOM     84  C   UNL A   1      43.314  35.630  30.644  1.00  0.00     0.023 A 
ATOM     85  C   UNL A   1      43.496  36.053  31.973  1.00  0.00     0.031 A 
ATOM     86  C   UNL A   1      43.461  36.584  29.621  1.00  0.00     0.131 A 
ATOM     87  C   UNL A   1      43.751  37.405  32.247  1.00  0.00     0.055 A 
ATOM     88  C   UNL A   1      43.777  37.915  29.897  1.00  0.00     0.041 A 
ATOM     89  F   UNL A   1      43.296  36.237  28.334  1.00  0.00    -0.206 F 
ATOM     90  C   UNL A   1      43.908  38.335  31.216  1.00  0.00     0.022 A 
BRANCH  87  91
ATOM     91  S   UNL A   1      43.765  37.956  33.976  1.00  0.00     0.124 S 
ATOM     92  O   UNL A   1      45.120  38.476  34.118  1.00  0.00    -0.237 OA
ATOM     93  O   UNL A   1      42.695  38.948  33.995  1.00  0.00    -0.237 OA
ATOM     94  O   UNL A   1      43.488  36.733  34.727  1.00  0.00    -0.744 OA
ENDBRANCH  87  91
ENDBRANCH  61  84
ENDBRANCH  35  36
ENDBRANCH  27  30
ENDBRANCH  25  26
ENDBRANCH  24  25
ENDBRANCH  23  24
ENDBRANCH   1  23
TORSDOF 20
ENDMDL
