MODEL 1
REMARK VINA RESULT:     -10.9      0.000      0.000
REMARK SMILES O=C(Cc1ccc(S(=O)(=O)C[C@H]2CCCO2)cc1)NCCCCCCNC(=O)c1ccc(-c2c3nc(c(-c4cc(S(=O)(=O)[O-])ccc4F)c4ccc([nH]4)c(-c4cc(S(=O)(=O)[O-])ccc4F)c4nc(c(-c5cc(S(=O)(=O)[O-])ccc5F)c5ccc2[nH]5)C=C4)C=C3)cc1
REMARK SMILES IDX 22 1 21 2 20 3 19 4 1 5 2 6 3 8 4 9 5 10 18 11 6 12 17 13
REMARK SMILES IDX 7 14 8 15 9 16 10 17 11 18 12 19 13 20 16 21 14 22 15 23
REMARK SMILES IDX 23 24 24 25 25 26 26 27 27 28 28 30 29 31 30 32 91 33 31 34
REMARK SMILES IDX 90 35 32 36 33 37 34 38 84 39 35 40 89 41 83 42 85 43 36 44
REMARK SMILES IDX 88 45 82 46 81 47 37 49 69 50 49 51 68 52 50 53 53 54 67 55
REMARK SMILES IDX 86 56 51 57 52 58 66 60 87 61 54 62 38 63 39 64 47 65 40 66
REMARK SMILES IDX 46 67 48 68 45 69 41 70 42 71 43 72 44 73 70 74 71 75 79 76
REMARK SMILES IDX 72 77 78 78 80 79 77 80 73 81 74 82 75 83 76 84 55 85 56 86
REMARK SMILES IDX 64 87 57 88 63 89 65 90 62 91 58 92 59 93 60 94 61 95
REMARK H PARENT 19 7 26 29 85 48 53 59
REMARK Flexibility Score: inf
ROOT
ATOM      1  C   UNL A   1      34.267  21.869  24.133  1.00  0.00     0.002 C 
ENDROOT
BRANCH   1   2
ATOM      2  C   UNL A   1      34.472  20.852  25.264  1.00  0.00     0.021 C 
BRANCH   2   3
ATOM      3  C   UNL A   1      33.218  20.534  26.071  1.00  0.00     0.116 C 
BRANCH   3   4
ATOM      4  N   UNL A   1      32.245  21.603  25.992  1.00  0.00    -0.356 N 
ATOM      5  O   UNL A   1      32.657  22.518  28.061  1.00  0.00    -0.275 OA
ATOM      6  C   UNL A   1      32.088  22.558  26.974  1.00  0.00     0.224 C 
ATOM      7  H   UNL A   1      31.667  21.651  25.195  1.00  0.00     0.163 HD
BRANCH   6   8
ATOM      8  C   UNL A   1      31.127  23.677  26.601  1.00  0.00     0.135 C 
BRANCH   8   9
ATOM      9  C   UNL A   1      31.694  24.747  25.685  1.00  0.00    -0.039 A 
ATOM     10  C   UNL A   1      31.423  24.678  24.310  1.00  0.00     0.005 A 
ATOM     11  C   UNL A   1      32.467  25.816  26.163  1.00  0.00     0.005 A 
ATOM     12  C   UNL A   1      31.917  25.655  23.440  1.00  0.00     0.020 A 
ATOM     13  C   UNL A   1      33.018  26.752  25.290  1.00  0.00     0.020 A 
ATOM     14  C   UNL A   1      32.714  26.692  23.935  1.00  0.00     0.067 A 
BRANCH  14  15
ATOM     15  S   UNL A   1      33.309  27.907  22.790  1.00  0.00     0.180 S 
ATOM     16  O   UNL A   1      34.352  28.623  23.506  1.00  0.00    -0.224 OA
ATOM     17  O   UNL A   1      33.641  27.214  21.557  1.00  0.00    -0.224 OA
BRANCH  15  18
ATOM     18  C   UNL A   1      32.046  29.090  22.427  1.00  0.00     0.174 C 
BRANCH  18  19
ATOM     19  C   UNL A   1      30.602  28.715  22.746  1.00  0.00     0.133 C 
ATOM     20  C   UNL A   1      30.046  29.507  23.924  1.00  0.00     0.035 C 
ATOM     21  O   UNL A   1      29.719  28.970  21.653  1.00  0.00    -0.377 OA
ATOM     22  C   UNL A   1      29.413  30.694  23.242  1.00  0.00     0.031 C 
ATOM     23  C   UNL A   1      28.869  30.078  21.972  1.00  0.00     0.160 C 
ENDBRANCH  18  19
ENDBRANCH  15  18
ENDBRANCH  14  15
ENDBRANCH   8   9
ENDBRANCH   6   8
ENDBRANCH   3   4
ENDBRANCH   2   3
ENDBRANCH   1   2
BRANCH   1  24
ATOM     24  C   UNL A   1      34.709  23.302  24.445  1.00  0.00     0.002 C 
BRANCH  24  25
ATOM     25  C   UNL A   1      35.724  23.443  25.583  1.00  0.00     0.021 C 
BRANCH  25  26
ATOM     26  C   UNL A   1      37.180  23.584  25.146  1.00  0.00     0.116 C 
BRANCH  26  27
ATOM     27  N   UNL A   1      38.057  22.638  25.816  1.00  0.00    -0.352 N 
ATOM     28  C   UNL A   1      39.156  22.867  26.608  1.00  0.00     0.251 C 
ATOM     29  H   UNL A   1      37.829  21.689  25.681  1.00  0.00     0.163 HD
ATOM     30  O   UNL A   1      39.860  21.919  26.946  1.00  0.00    -0.269 OA
BRANCH  28  31
ATOM     31  C   UNL A   1      39.512  24.243  27.025  1.00  0.00     0.039 A 
ATOM     32  C   UNL A   1      39.282  24.622  28.350  1.00  0.00     0.014 A 
ATOM     33  C   UNL A   1      40.053  25.166  26.123  1.00  0.00     0.014 A 
ATOM     34  C   UNL A   1      39.652  25.897  28.784  1.00  0.00     0.010 A 
ATOM     35  C   UNL A   1      40.490  26.411  26.575  1.00  0.00     0.010 A 
ATOM     36  C   UNL A   1      40.295  26.790  27.912  1.00  0.00    -0.014 A 
BRANCH  36  37
ATOM     37  C   UNL A   1      40.783  28.108  28.401  1.00  0.00     0.031 A 
ATOM     38  C   UNL A   1      42.256  28.391  28.520  1.00  0.00     0.074 A 
ATOM     39  C   UNL A   1      39.887  29.044  28.775  1.00  0.00     0.049 A 
ATOM     40  N   UNL A   1      42.861  29.485  28.910  1.00  0.00    -0.248 NA
ATOM     41  C   UNL A   1      43.169  27.289  28.184  1.00  0.00     0.031 C 
ATOM     42  C   UNL A   1      38.432  28.873  28.755  1.00  0.00     0.029 A 
ATOM     43  N   UNL A   1      40.061  30.325  29.235  1.00  0.00    -0.354 N 
ATOM     44  C   UNL A   1      44.224  29.201  28.877  1.00  0.00     0.074 A 
ATOM     45  C   UNL A   1      44.347  27.811  28.489  1.00  0.00     0.031 C 
ATOM     46  C   UNL A   1      37.848  30.020  29.137  1.00  0.00     0.029 A 
ATOM     47  C   UNL A   1      38.883  30.994  29.470  1.00  0.00     0.049 A 
ATOM     48  H   UNL A   1      40.948  30.728  29.384  1.00  0.00     0.167 HD
ATOM     49  C   UNL A   1      45.272  30.028  29.124  1.00  0.00     0.034 A 
ATOM     50  C   UNL A   1      38.657  32.250  29.901  1.00  0.00     0.034 A 
ATOM     51  C   UNL A   1      45.128  31.414  29.506  1.00  0.00     0.049 A 
ATOM     52  C   UNL A   1      39.836  33.143  30.187  1.00  0.00     0.074 A 
ATOM     53  C   UNL A   1      46.118  32.361  29.708  1.00  0.00     0.029 A 
ATOM     54  N   UNL A   1      43.919  32.051  29.761  1.00  0.00    -0.354 N 
ATOM     55  N   UNL A   1      41.119  32.884  30.075  1.00  0.00    -0.248 NA
ATOM     56  C   UNL A   1      39.532  34.504  30.646  1.00  0.00     0.031 C 
ATOM     57  C   UNL A   1      45.515  33.539  30.163  1.00  0.00     0.029 A 
ATOM     58  C   UNL A   1      44.141  33.361  30.163  1.00  0.00     0.049 A 
ATOM     59  H   UNL A   1      43.032  31.633  29.671  1.00  0.00     0.167 HD
ATOM     60  C   UNL A   1      41.774  34.061  30.425  1.00  0.00     0.074 A 
ATOM     61  C   UNL A   1      40.742  35.035  30.723  1.00  0.00     0.031 C 
ATOM     62  C   UNL A   1      43.107  34.317  30.491  1.00  0.00     0.034 A 
BRANCH  49  63
ATOM     63  C   UNL A   1      46.661  29.438  29.025  1.00  0.00     0.023 A 
ATOM     64  C   UNL A   1      47.328  29.308  27.793  1.00  0.00     0.031 A 
ATOM     65  C   UNL A   1      47.317  28.962  30.175  1.00  0.00     0.131 A 
ATOM     66  C   UNL A   1      48.562  28.642  27.728  1.00  0.00     0.055 A 
ATOM     67  C   UNL A   1      48.586  28.381  30.115  1.00  0.00     0.041 A 
ATOM     68  F   UNL A   1      46.727  29.037  31.379  1.00  0.00    -0.206 F 
ATOM     69  C   UNL A   1      49.208  28.201  28.884  1.00  0.00     0.022 A 
BRANCH  66  70
ATOM     70  S   UNL A   1      49.228  28.211  26.095  1.00  0.00     0.124 S 
ATOM     71  O   UNL A   1      48.023  28.238  25.269  1.00  0.00    -0.237 OA
ATOM     72  O   UNL A   1      50.191  29.279  25.856  1.00  0.00    -0.237 OA
ATOM     73  O   UNL A   1      49.804  26.883  26.300  1.00  0.00    -0.744 OA
ENDBRANCH  66  70
ENDBRANCH  49  63
BRANCH  50  74
ATOM     74  C   UNL A   1      37.264  32.750  30.079  1.00  0.00     0.023 A 
ATOM     75  C   UNL A   1      36.739  32.979  31.360  1.00  0.00     0.031 A 
ATOM     76  C   UNL A   1      36.424  32.974  28.973  1.00  0.00     0.131 A 
ATOM     77  C   UNL A   1      35.401  33.375  31.509  1.00  0.00     0.055 A 
ATOM     78  C   UNL A   1      35.110  33.417  29.123  1.00  0.00     0.041 A 
ATOM     79  F   UNL A   1      36.878  32.775  27.724  1.00  0.00    -0.206 F 
ATOM     80  C   UNL A   1      34.587  33.609  30.399  1.00  0.00     0.022 A 
BRANCH  77  81
ATOM     81  S   UNL A   1      34.715  33.507  33.183  1.00  0.00     0.124 S 
ATOM     82  O   UNL A   1      34.856  34.934  33.450  1.00  0.00    -0.237 OA
ATOM     83  O   UNL A   1      33.352  33.022  32.990  1.00  0.00    -0.237 OA
ATOM     84  O   UNL A   1      35.578  32.633  33.974  1.00  0.00    -0.744 OA
ENDBRANCH  77  81
ENDBRANCH  50  74
BRANCH  62  85
ATOM     85  C   UNL A   1      43.510  35.721  30.882  1.00  0.00     0.023 A 
ATOM     86  C   UNL A   1      43.515  36.141  32.225  1.00  0.00     0.031 A 
ATOM     87  C   UNL A   1      43.840  36.668  29.896  1.00  0.00     0.131 A 
ATOM     88  C   UNL A   1      43.758  37.486  32.538  1.00  0.00     0.055 A 
ATOM     89  C   UNL A   1      44.158  37.988  30.221  1.00  0.00     0.041 A 
ATOM     90  F   UNL A   1      43.850  36.329  28.598  1.00  0.00    -0.206 F 
ATOM     91  C   UNL A   1      44.098  38.410  31.546  1.00  0.00     0.022 A 
BRANCH  88  92
ATOM     92  S   UNL A   1      43.487  38.044  34.244  1.00  0.00     0.124 S 
ATOM     93  O   UNL A   1      44.850  38.100  34.763  1.00  0.00    -0.237 OA
ATOM     94  O   UNL A   1      42.825  39.329  34.049  1.00  0.00    -0.237 OA
ATOM     95  O   UNL A   1      42.648  36.995  34.819  1.00  0.00    -0.744 OA
ENDBRANCH  88  92
ENDBRANCH  62  85
ENDBRANCH  36  37
ENDBRANCH  28  31
ENDBRANCH  26  27
ENDBRANCH  25  26
ENDBRANCH  24  25
ENDBRANCH   1  24
TORSDOF 20
ENDMDL
MODEL 2
REMARK VINA RESULT:     -10.8      2.623      7.992
REMARK SMILES O=C(Cc1ccc(S(=O)(=O)C[C@H]2CCCO2)cc1)NCCCCCCNC(=O)c1ccc(-c2c3nc(c(-c4cc(S(=O)(=O)[O-])ccc4F)c4ccc([nH]4)c(-c4cc(S(=O)(=O)[O-])ccc4F)c4nc(c(-c5cc(S(=O)(=O)[O-])ccc5F)c5ccc2[nH]5)C=C4)C=C3)cc1
REMARK SMILES IDX 22 1 21 2 20 3 19 4 1 5 2 6 3 8 4 9 5 10 18 11 6 12 17 13
REMARK SMILES IDX 7 14 8 15 9 16 10 17 11 18 12 19 13 20 16 21 14 22 15 23
REMARK SMILES IDX 23 24 24 25 25 26 26 27 27 28 28 30 29 31 30 32 91 33 31 34
REMARK SMILES IDX 90 35 32 36 33 37 34 38 84 39 35 40 89 41 83 42 85 43 36 44
REMARK SMILES IDX 88 45 82 46 81 47 37 49 69 50 49 51 68 52 50 53 53 54 67 55
REMARK SMILES IDX 86 56 51 57 52 58 66 60 87 61 54 62 38 63 39 64 47 65 40 66
REMARK SMILES IDX 46 67 48 68 45 69 41 70 42 71 43 72 44 73 70 74 71 75 79 76
REMARK SMILES IDX 72 77 78 78 80 79 77 80 73 81 74 82 75 83 76 84 55 85 56 86
REMARK SMILES IDX 64 87 57 88 63 89 65 90 62 91 58 92 59 93 60 94 61 95
REMARK H PARENT 19 7 26 29 85 48 53 59
REMARK Flexibility Score: inf
ROOT
ATOM      1  C   UNL A   1      33.274  22.310  23.625  1.00  0.00     0.002 C 
ENDROOT
BRANCH   1   2
ATOM      2  C   UNL A   1      33.122  20.799  23.840  1.00  0.00     0.021 C 
BRANCH   2   3
ATOM      3  C   UNL A   1      32.164  20.407  24.960  1.00  0.00     0.116 C 
BRANCH   3   4
ATOM      4  N   UNL A   1      31.709  21.563  25.703  1.00  0.00    -0.356 N 
ATOM      5  O   UNL A   1      33.400  21.584  27.261  1.00  0.00    -0.275 OA
ATOM      6  C   UNL A   1      32.406  22.103  26.763  1.00  0.00     0.224 C 
ATOM      7  H   UNL A   1      30.859  21.985  25.438  1.00  0.00     0.163 HD
BRANCH   6   8
ATOM      8  C   UNL A   1      31.826  23.411  27.283  1.00  0.00     0.135 C 
BRANCH   8   9
ATOM      9  C   UNL A   1      32.010  24.614  26.374  1.00  0.00    -0.039 A 
ATOM     10  C   UNL A   1      30.874  25.301  25.919  1.00  0.00     0.005 A 
ATOM     11  C   UNL A   1      33.275  25.077  25.983  1.00  0.00     0.005 A 
ATOM     12  C   UNL A   1      31.007  26.421  25.094  1.00  0.00     0.020 A 
ATOM     13  C   UNL A   1      33.408  26.151  25.104  1.00  0.00     0.020 A 
ATOM     14  C   UNL A   1      32.277  26.844  24.688  1.00  0.00     0.067 A 
BRANCH  14  15
ATOM     15  S   UNL A   1      32.389  28.273  23.646  1.00  0.00     0.180 S 
ATOM     16  O   UNL A   1      33.285  29.181  24.344  1.00  0.00    -0.224 OA
ATOM     17  O   UNL A   1      32.741  27.812  22.315  1.00  0.00    -0.224 OA
BRANCH  15  18
ATOM     18  C   UNL A   1      30.825  29.092  23.544  1.00  0.00     0.174 C 
BRANCH  18  19
ATOM     19  C   UNL A   1      29.848  28.636  22.465  1.00  0.00     0.133 C 
ATOM     20  C   UNL A   1      28.483  28.271  23.038  1.00  0.00     0.035 C 
ATOM     21  O   UNL A   1      29.604  29.649  21.488  1.00  0.00    -0.377 OA
ATOM     22  C   UNL A   1      27.732  29.576  22.932  1.00  0.00     0.031 C 
ATOM     23  C   UNL A   1      28.269  30.148  21.639  1.00  0.00     0.160 C 
ENDBRANCH  18  19
ENDBRANCH  15  18
ENDBRANCH  14  15
ENDBRANCH   8   9
ENDBRANCH   6   8
ENDBRANCH   3   4
ENDBRANCH   2   3
ENDBRANCH   1   2
BRANCH   1  24
ATOM     24  C   UNL A   1      34.706  22.850  23.715  1.00  0.00     0.002 C 
BRANCH  24  25
ATOM     25  C   UNL A   1      35.590  22.190  24.776  1.00  0.00     0.021 C 
BRANCH  25  26
ATOM     26  C   UNL A   1      37.090  22.221  24.489  1.00  0.00     0.116 C 
BRANCH  26  27
ATOM     27  N   UNL A   1      37.794  21.096  25.082  1.00  0.00    -0.352 N 
ATOM     28  C   UNL A   1      38.912  21.082  25.880  1.00  0.00     0.251 C 
ATOM     29  H   UNL A   1      37.412  20.211  24.881  1.00  0.00     0.163 HD
ATOM     30  O   UNL A   1      39.448  20.008  26.143  1.00  0.00    -0.269 OA
BRANCH  28  31
ATOM     31  C   UNL A   1      39.490  22.346  26.392  1.00  0.00     0.039 A 
ATOM     32  C   UNL A   1      40.478  22.280  27.378  1.00  0.00     0.014 A 
ATOM     33  C   UNL A   1      39.058  23.592  25.925  1.00  0.00     0.014 A 
ATOM     34  C   UNL A   1      41.075  23.453  27.845  1.00  0.00     0.010 A 
ATOM     35  C   UNL A   1      39.706  24.756  26.338  1.00  0.00     0.010 A 
ATOM     36  C   UNL A   1      40.723  24.700  27.302  1.00  0.00    -0.014 A 
BRANCH  36  37
ATOM     37  C   UNL A   1      41.432  25.938  27.725  1.00  0.00     0.031 A 
ATOM     38  C   UNL A   1      40.751  26.958  28.597  1.00  0.00     0.074 A 
ATOM     39  C   UNL A   1      42.688  26.159  27.288  1.00  0.00     0.049 A 
ATOM     40  N   UNL A   1      41.218  28.084  29.075  1.00  0.00    -0.248 NA
ATOM     41  C   UNL A   1      39.350  26.691  28.954  1.00  0.00     0.031 C 
ATOM     42  C   UNL A   1      43.439  25.271  26.397  1.00  0.00     0.029 A 
ATOM     43  N   UNL A   1      43.560  27.189  27.537  1.00  0.00    -0.354 N 
ATOM     44  C   UNL A   1      40.168  28.665  29.780  1.00  0.00     0.074 A 
ATOM     45  C   UNL A   1      39.024  27.794  29.610  1.00  0.00     0.031 C 
ATOM     46  C   UNL A   1      44.671  25.770  26.214  1.00  0.00     0.029 A 
ATOM     47  C   UNL A   1      44.788  27.032  26.937  1.00  0.00     0.049 A 
ATOM     48  H   UNL A   1      43.329  27.968  28.093  1.00  0.00     0.167 HD
ATOM     49  C   UNL A   1      40.166  29.805  30.517  1.00  0.00     0.034 A 
ATOM     50  C   UNL A   1      45.885  27.812  26.966  1.00  0.00     0.034 A 
ATOM     51  C   UNL A   1      41.320  30.659  30.678  1.00  0.00     0.049 A 
ATOM     52  C   UNL A   1      45.853  29.082  27.777  1.00  0.00     0.074 A 
ATOM     53  C   UNL A   1      41.452  31.794  31.461  1.00  0.00     0.029 A 
ATOM     54  N   UNL A   1      42.540  30.484  30.034  1.00  0.00    -0.354 N 
ATOM     55  N   UNL A   1      44.877  29.578  28.502  1.00  0.00    -0.248 NA
ATOM     56  C   UNL A   1      47.079  29.889  27.780  1.00  0.00     0.031 C 
ATOM     57  C   UNL A   1      42.716  32.349  31.226  1.00  0.00     0.029 A 
ATOM     58  C   UNL A   1      43.410  31.514  30.365  1.00  0.00     0.049 A 
ATOM     59  H   UNL A   1      42.755  29.738  29.429  1.00  0.00     0.167 HD
ATOM     60  C   UNL A   1      45.383  30.744  29.070  1.00  0.00     0.074 A 
ATOM     61  C   UNL A   1      46.758  30.857  28.623  1.00  0.00     0.031 C 
ATOM     62  C   UNL A   1      44.770  31.639  29.889  1.00  0.00     0.034 A 
BRANCH  49  63
ATOM     63  C   UNL A   1      38.862  30.208  31.170  1.00  0.00     0.023 A 
ATOM     64  C   UNL A   1      37.869  30.919  30.472  1.00  0.00     0.031 A 
ATOM     65  C   UNL A   1      38.621  29.910  32.524  1.00  0.00     0.131 A 
ATOM     66  C   UNL A   1      36.730  31.383  31.148  1.00  0.00     0.055 A 
ATOM     67  C   UNL A   1      37.443  30.297  33.167  1.00  0.00     0.041 A 
ATOM     68  F   UNL A   1      39.537  29.252  33.253  1.00  0.00    -0.206 F 
ATOM     69  C   UNL A   1      36.497  31.054  32.484  1.00  0.00     0.022 A 
BRANCH  66  70
ATOM     70  S   UNL A   1      35.641  32.563  30.301  1.00  0.00     0.124 S 
ATOM     71  O   UNL A   1      36.440  33.785  30.346  1.00  0.00    -0.237 OA
ATOM     72  O   UNL A   1      35.478  31.953  28.986  1.00  0.00    -0.237 OA
ATOM     73  O   UNL A   1      34.441  32.581  31.135  1.00  0.00    -0.744 OA
ENDBRANCH  66  70
ENDBRANCH  49  63
BRANCH  50  74
ATOM     74  C   UNL A   1      47.114  27.418  26.220  1.00  0.00     0.023 A 
ATOM     75  C   UNL A   1      47.277  27.760  24.869  1.00  0.00     0.031 A 
ATOM     76  C   UNL A   1      48.129  26.664  26.836  1.00  0.00     0.131 A 
ATOM     77  C   UNL A   1      48.405  27.312  24.164  1.00  0.00     0.055 A 
ATOM     78  C   UNL A   1      49.274  26.264  26.146  1.00  0.00     0.041 A 
ATOM     79  F   UNL A   1      48.026  26.314  28.129  1.00  0.00    -0.206 F 
ATOM     80  C   UNL A   1      49.411  26.578  24.796  1.00  0.00     0.022 A 
BRANCH  77  81
ATOM     81  S   UNL A   1      48.502  27.639  22.382  1.00  0.00     0.124 S 
ATOM     82  O   UNL A   1      49.757  28.376  22.284  1.00  0.00    -0.237 OA
ATOM     83  O   UNL A   1      48.506  26.289  21.826  1.00  0.00    -0.237 OA
ATOM     84  O   UNL A   1      47.295  28.417  22.113  1.00  0.00    -0.744 OA
ENDBRANCH  77  81
ENDBRANCH  50  74
BRANCH  62  85
ATOM     85  C   UNL A   1      45.606  32.805  30.365  1.00  0.00     0.023 A 
ATOM     86  C   UNL A   1      45.593  34.044  29.699  1.00  0.00     0.031 A 
ATOM     87  C   UNL A   1      46.467  32.660  31.467  1.00  0.00     0.131 A 
ATOM     88  C   UNL A   1      46.483  35.057  30.085  1.00  0.00     0.055 A 
ATOM     89  C   UNL A   1      47.295  33.699  31.895  1.00  0.00     0.041 A 
ATOM     90  F   UNL A   1      46.527  31.501  32.142  1.00  0.00    -0.206 F 
ATOM     91  C   UNL A   1      47.322  34.899  31.191  1.00  0.00     0.022 A 
BRANCH  88  92
ATOM     92  S   UNL A   1      46.629  36.531  29.037  1.00  0.00     0.124 S 
ATOM     93  O   UNL A   1      45.797  37.493  29.750  1.00  0.00    -0.237 OA
ATOM     94  O   UNL A   1      48.065  36.788  29.061  1.00  0.00    -0.237 OA
ATOM     95  O   UNL A   1      46.100  36.089  27.748  1.00  0.00    -0.744 OA
ENDBRANCH  88  92
ENDBRANCH  62  85
ENDBRANCH  36  37
ENDBRANCH  28  31
ENDBRANCH  26  27
ENDBRANCH  25  26
ENDBRANCH  24  25
ENDBRANCH   1  24
TORSDOF 20
ENDMDL
MODEL 3
REMARK VINA RESULT:     -10.7      1.981      2.620
REMARK SMILES O=C(Cc1ccc(S(=O)(=O)C[C@H]2CCCO2)cc1)NCCCCCCNC(=O)c1ccc(-c2c3nc(c(-c4cc(S(=O)(=O)[O-])ccc4F)c4ccc([nH]4)c(-c4cc(S(=O)(=O)[O-])ccc4F)c4nc(c(-c5cc(S(=O)(=O)[O-])ccc5F)c5ccc2[nH]5)C=C4)C=C3)cc1
REMARK SMILES IDX 22 1 21 2 20 3 19 4 1 5 2 6 3 8 4 9 5 10 18 11 6 12 17 13
REMARK SMILES IDX 7 14 8 15 9 16 10 17 11 18 12 19 13 20 16 21 14 22 15 23
REMARK SMILES IDX 23 24 24 25 25 26 26 27 27 28 28 30 29 31 30 32 91 33 31 34
REMARK SMILES IDX 90 35 32 36 33 37 34 38 84 39 35 40 89 41 83 42 85 43 36 44
REMARK SMILES IDX 88 45 82 46 81 47 37 49 69 50 49 51 68 52 50 53 53 54 67 55
REMARK SMILES IDX 86 56 51 57 52 58 66 60 87 61 54 62 38 63 39 64 47 65 40 66
REMARK SMILES IDX 46 67 48 68 45 69 41 70 42 71 43 72 44 73 70 74 71 75 79 76
REMARK SMILES IDX 72 77 78 78 80 79 77 80 73 81 74 82 75 83 76 84 55 85 56 86
REMARK SMILES IDX 64 87 57 88 63 89 65 90 62 91 58 92 59 93 60 94 61 95
REMARK H PARENT 19 7 26 29 85 48 53 59
REMARK Flexibility Score: inf
ROOT
ATOM      1  C   UNL A   1      34.061  21.952  24.073  1.00  0.00     0.002 C 
ENDROOT
BRANCH   1   2
ATOM      2  C   UNL A   1      34.341  20.774  25.015  1.00  0.00     0.021 C 
BRANCH   2   3
ATOM      3  C   UNL A   1      33.442  20.713  26.246  1.00  0.00     0.116 C 
BRANCH   3   4
ATOM      4  N   UNL A   1      32.231  21.485  26.062  1.00  0.00    -0.356 N 
ATOM      5  O   UNL A   1      32.400  22.739  27.983  1.00  0.00    -0.275 OA
ATOM      6  C   UNL A   1      31.839  22.492  26.920  1.00  0.00     0.224 C 
ATOM      7  H   UNL A   1      31.660  21.282  25.286  1.00  0.00     0.163 HD
BRANCH   6   8
ATOM      8  C   UNL A   1      30.627  23.276  26.439  1.00  0.00     0.135 C 
BRANCH   8   9
ATOM      9  C   UNL A   1      30.928  24.624  25.809  1.00  0.00    -0.039 A 
ATOM     10  C   UNL A   1      29.912  25.590  25.751  1.00  0.00     0.005 A 
ATOM     11  C   UNL A   1      32.192  24.950  25.295  1.00  0.00     0.005 A 
ATOM     12  C   UNL A   1      30.158  26.847  25.192  1.00  0.00     0.020 A 
ATOM     13  C   UNL A   1      32.421  26.177  24.673  1.00  0.00     0.020 A 
ATOM     14  C   UNL A   1      31.417  27.137  24.654  1.00  0.00     0.067 A 
BRANCH  14  15
ATOM     15  S   UNL A   1      31.678  28.747  23.961  1.00  0.00     0.180 S 
ATOM     16  O   UNL A   1      32.257  28.506  22.649  1.00  0.00    -0.224 OA
ATOM     17  O   UNL A   1      30.422  29.471  24.062  1.00  0.00    -0.224 OA
BRANCH  15  18
ATOM     18  C   UNL A   1      32.894  29.633  24.891  1.00  0.00     0.174 C 
BRANCH  18  19
ATOM     19  C   UNL A   1      32.829  29.553  26.413  1.00  0.00     0.133 C 
ATOM     20  C   UNL A   1      33.762  28.486  26.975  1.00  0.00     0.035 C 
ATOM     21  O   UNL A   1      33.212  30.777  27.040  1.00  0.00    -0.377 OA
ATOM     22  C   UNL A   1      35.025  29.270  27.236  1.00  0.00     0.031 C 
ATOM     23  C   UNL A   1      34.480  30.608  27.686  1.00  0.00     0.160 C 
ENDBRANCH  18  19
ENDBRANCH  15  18
ENDBRANCH  14  15
ENDBRANCH   8   9
ENDBRANCH   6   8
ENDBRANCH   3   4
ENDBRANCH   2   3
ENDBRANCH   1   2
BRANCH   1  24
ATOM     24  C   UNL A   1      34.881  23.219  24.337  1.00  0.00     0.002 C 
BRANCH  24  25
ATOM     25  C   UNL A   1      35.845  23.142  25.524  1.00  0.00     0.021 C 
BRANCH  25  26
ATOM     26  C   UNL A   1      37.310  23.422  25.196  1.00  0.00     0.116 C 
BRANCH  26  27
ATOM     27  N   UNL A   1      38.217  22.508  25.872  1.00  0.00    -0.352 N 
ATOM     28  C   UNL A   1      39.319  22.778  26.645  1.00  0.00     0.251 C 
ATOM     29  H   UNL A   1      38.009  21.553  25.758  1.00  0.00     0.163 HD
ATOM     30  O   UNL A   1      40.050  21.852  26.991  1.00  0.00    -0.269 OA
BRANCH  28  31
ATOM     31  C   UNL A   1      39.649  24.169  27.032  1.00  0.00     0.039 A 
ATOM     32  C   UNL A   1      39.468  24.554  28.363  1.00  0.00     0.014 A 
ATOM     33  C   UNL A   1      40.117  25.099  26.098  1.00  0.00     0.014 A 
ATOM     34  C   UNL A   1      39.816  25.846  28.767  1.00  0.00     0.010 A 
ATOM     35  C   UNL A   1      40.533  26.362  26.517  1.00  0.00     0.010 A 
ATOM     36  C   UNL A   1      40.388  26.750  27.858  1.00  0.00    -0.014 A 
BRANCH  36  37
ATOM     37  C   UNL A   1      40.854  28.088  28.311  1.00  0.00     0.031 A 
ATOM     38  C   UNL A   1      42.315  28.448  28.284  1.00  0.00     0.074 A 
ATOM     39  C   UNL A   1      39.953  28.973  28.785  1.00  0.00     0.049 A 
ATOM     40  N   UNL A   1      42.899  29.569  28.624  1.00  0.00    -0.248 NA
ATOM     41  C   UNL A   1      43.244  27.398  27.843  1.00  0.00     0.031 C 
ATOM     42  C   UNL A   1      38.515  28.725  28.911  1.00  0.00     0.029 A 
ATOM     43  N   UNL A   1      40.107  30.258  29.242  1.00  0.00    -0.354 N 
ATOM     44  C   UNL A   1      44.264  29.358  28.449  1.00  0.00     0.074 A 
ATOM     45  C   UNL A   1      44.418  27.979  28.033  1.00  0.00     0.031 C 
ATOM     46  C   UNL A   1      37.914  29.837  29.364  1.00  0.00     0.029 A 
ATOM     47  C   UNL A   1      38.925  30.861  29.603  1.00  0.00     0.049 A 
ATOM     48  H   UNL A   1      40.981  30.706  29.304  1.00  0.00     0.167 HD
ATOM     49  C   UNL A   1      45.287  30.237  28.599  1.00  0.00     0.034 A 
ATOM     50  C   UNL A   1      38.680  32.101  30.070  1.00  0.00     0.034 A 
ATOM     51  C   UNL A   1      45.111  31.611  29.011  1.00  0.00     0.049 A 
ATOM     52  C   UNL A   1      39.834  33.054  30.246  1.00  0.00     0.074 A 
ATOM     53  C   UNL A   1      46.066  32.608  29.123  1.00  0.00     0.029 A 
ATOM     54  N   UNL A   1      43.903  32.182  29.395  1.00  0.00    -0.354 N 
ATOM     55  N   UNL A   1      41.110  32.863  30.001  1.00  0.00    -0.248 NA
ATOM     56  C   UNL A   1      39.508  34.393  30.751  1.00  0.00     0.031 C 
ATOM     57  C   UNL A   1      45.453  33.750  29.652  1.00  0.00     0.029 A 
ATOM     58  C   UNL A   1      44.097  33.499  29.788  1.00  0.00     0.049 A 
ATOM     59  H   UNL A   1      43.034  31.718  29.391  1.00  0.00     0.167 HD
ATOM     60  C   UNL A   1      41.735  34.071  30.298  1.00  0.00     0.074 A 
ATOM     61  C   UNL A   1      40.690  34.986  30.711  1.00  0.00     0.031 C 
ATOM     62  C   UNL A   1      43.054  34.396  30.231  1.00  0.00     0.034 A 
BRANCH  49  63
ATOM     63  C   UNL A   1      46.688  29.722  28.353  1.00  0.00     0.023 A 
ATOM     64  C   UNL A   1      47.471  29.173  29.385  1.00  0.00     0.031 A 
ATOM     65  C   UNL A   1      47.266  29.814  27.073  1.00  0.00     0.131 A 
ATOM     66  C   UNL A   1      48.808  28.823  29.142  1.00  0.00     0.055 A 
ATOM     67  C   UNL A   1      48.569  29.379  26.819  1.00  0.00     0.041 A 
ATOM     68  F   UNL A   1      46.580  30.347  26.050  1.00  0.00    -0.206 F 
ATOM     69  C   UNL A   1      49.355  28.897  27.860  1.00  0.00     0.022 A 
BRANCH  66  70
ATOM     70  S   UNL A   1      49.871  28.428  30.560  1.00  0.00     0.124 S 
ATOM     71  O   UNL A   1      49.467  29.450  31.523  1.00  0.00    -0.237 OA
ATOM     72  O   UNL A   1      49.479  27.060  30.877  1.00  0.00    -0.237 OA
ATOM     73  O   UNL A   1      51.223  28.584  30.028  1.00  0.00    -0.744 OA
ENDBRANCH  66  70
ENDBRANCH  49  63
BRANCH  50  74
ATOM     74  C   UNL A   1      37.288  32.526  30.395  1.00  0.00     0.023 A 
ATOM     75  C   UNL A   1      36.477  33.135  29.425  1.00  0.00     0.031 A 
ATOM     76  C   UNL A   1      36.760  32.361  31.688  1.00  0.00     0.131 A 
ATOM     77  C   UNL A   1      35.198  33.599  29.773  1.00  0.00     0.055 A 
ATOM     78  C   UNL A   1      35.469  32.776  32.016  1.00  0.00     0.041 A 
ATOM     79  F   UNL A   1      37.492  31.779  32.652  1.00  0.00    -0.206 F 
ATOM     80  C   UNL A   1      34.683  33.411  31.057  1.00  0.00     0.022 A 
BRANCH  77  81
ATOM     81  S   UNL A   1      34.243  34.521  28.536  1.00  0.00     0.124 S 
ATOM     82  O   UNL A   1      32.879  34.108  28.846  1.00  0.00    -0.237 OA
ATOM     83  O   UNL A   1      34.584  35.903  28.860  1.00  0.00    -0.237 OA
ATOM     84  O   UNL A   1      34.772  34.033  27.265  1.00  0.00    -0.744 OA
ENDBRANCH  77  81
ENDBRANCH  50  74
BRANCH  62  85
ATOM     85  C   UNL A   1      43.420  35.817  30.598  1.00  0.00     0.023 A 
ATOM     86  C   UNL A   1      43.641  36.202  31.932  1.00  0.00     0.031 A 
ATOM     87  C   UNL A   1      43.497  36.811  29.605  1.00  0.00     0.131 A 
ATOM     88  C   UNL A   1      43.841  37.554  32.248  1.00  0.00     0.055 A 
ATOM     89  C   UNL A   1      43.775  38.142  29.918  1.00  0.00     0.041 A 
ATOM     90  F   UNL A   1      43.294  36.506  28.314  1.00  0.00    -0.206 F 
ATOM     91  C   UNL A   1      43.928  38.525  31.247  1.00  0.00     0.022 A 
BRANCH  88  92
ATOM     92  S   UNL A   1      43.848  38.047  33.994  1.00  0.00     0.124 S 
ATOM     93  O   UNL A   1      43.418  36.819  34.657  1.00  0.00    -0.237 OA
ATOM     94  O   UNL A   1      45.239  38.431  34.204  1.00  0.00    -0.237 OA
ATOM     95  O   UNL A   1      42.886  39.147  34.044  1.00  0.00    -0.744 OA
ENDBRANCH  88  92
ENDBRANCH  62  85
ENDBRANCH  36  37
ENDBRANCH  28  31
ENDBRANCH  26  27
ENDBRANCH  25  26
ENDBRANCH  24  25
ENDBRANCH   1  24
TORSDOF 20
ENDMDL
