MODEL 1
REMARK VINA RESULT:     -11.1      0.000      0.000
REMARK SMILES C[C@H](Oc1ccc(/C=C2/SC(=S)N(c3ccc(F)c(Cl)c3)C2=O)cc1)C(=O)NCCCCCCNC(=O)c1ccc(-c2c3nc(c(-c4cc(S(=O)(=O)[O-])ccc4F)c4ccc([nH]4)c(-c4cc(S(=O)(=O)[O-])ccc4F)c4nc(c(-c5cc(S(=O)(=O)[O-])ccc5F)c5ccc2[nH]5)C=C4)C=C3)cc1
REMARK SMILES IDX 31 1 30 2 29 3 28 4 26 5 27 6 2 8 1 9 3 10 4 11 5 12 25 13
REMARK SMILES IDX 6 14 24 15 7 16 8 17 9 18 10 19 22 20 11 21 13 22 23 23
REMARK SMILES IDX 12 24 14 25 15 26 21 27 16 28 19 29 17 30 20 31 18 32 32 33
REMARK SMILES IDX 33 34 34 35 35 36 36 37 37 39 38 40 39 41 100 42 40 43 99 44
REMARK SMILES IDX 41 45 42 46 43 47 93 48 44 49 98 50 92 51 94 52 45 53 97 54
REMARK SMILES IDX 91 55 90 56 46 58 78 59 58 60 77 61 59 62 62 63 76 64 95 65
REMARK SMILES IDX 60 66 61 67 75 69 96 70 63 71 47 72 48 73 56 74 49 75 55 76
REMARK SMILES IDX 57 77 54 78 50 79 51 80 52 81 53 82 79 83 80 84 88 85 81 86
REMARK SMILES IDX 87 87 89 88 86 89 82 90 83 91 84 92 85 93 64 94 65 95 73 96
REMARK SMILES IDX 66 97 72 98 74 99 71 100 67 101 68 102 69 103 70 104
REMARK H PARENT 28 7 35 38 94 57 62 68
REMARK Flexibility Score: inf
ROOT
ATOM      1  C   UNL A   1      35.153  30.129  27.625  1.00  0.00     0.002 C 
ENDROOT
BRANCH   1   2
ATOM      2  C   UNL A   1      33.780  29.642  27.150  1.00  0.00     0.021 C 
BRANCH   2   3
ATOM      3  C   UNL A   1      33.810  28.337  26.356  1.00  0.00     0.116 C 
BRANCH   3   4
ATOM      4  N   UNL A   1      32.824  27.381  26.837  1.00  0.00    -0.353 N 
ATOM      5  C   UNL A   1      32.303  26.281  26.209  1.00  0.00     0.260 C 
ATOM      6  O   UNL A   1      31.482  25.595  26.826  1.00  0.00    -0.271 OA
ATOM      7  H   UNL A   1      32.483  27.550  27.745  1.00  0.00     0.163 HD
BRANCH   5   8
ATOM      8  C   UNL A   1      32.783  25.876  24.802  1.00  0.00     0.258 C 
ATOM      9  C   UNL A   1      31.863  24.763  24.302  1.00  0.00     0.064 C 
BRANCH   8  10
ATOM     10  O   UNL A   1      34.191  25.675  24.921  1.00  0.00    -0.481 OA
BRANCH  10  11
ATOM     11  C   UNL A   1      34.805  24.473  25.051  1.00  0.00     0.120 A 
ATOM     12  C   UNL A   1      34.778  23.620  26.144  1.00  0.00     0.047 A 
ATOM     13  C   UNL A   1      35.543  24.099  23.924  1.00  0.00     0.047 A 
ATOM     14  C   UNL A   1      35.583  22.471  26.163  1.00  0.00     0.012 A 
ATOM     15  C   UNL A   1      36.317  22.937  23.923  1.00  0.00     0.012 A 
ATOM     16  C   UNL A   1      36.390  22.143  25.069  1.00  0.00    -0.024 A 
BRANCH  16  17
ATOM     17  C   UNL A   1      37.227  20.939  25.125  1.00  0.00     0.029 C 
ATOM     18  C   UNL A   1      38.476  20.834  25.605  1.00  0.00     0.081 C 
ATOM     19  S   UNL A   1      39.367  19.363  25.492  1.00  0.00    -0.054 SA
ATOM     20  C   UNL A   1      39.326  21.889  26.234  1.00  0.00     0.270 C 
ATOM     21  C   UNL A   1      40.866  20.104  26.050  1.00  0.00     0.152 C 
ATOM     22  N   UNL A   1      40.641  21.438  26.352  1.00  0.00    -0.261 N 
ATOM     23  O   UNL A   1      38.900  22.996  26.545  1.00  0.00    -0.268 OA
ATOM     24  S   UNL A   1      42.253  19.186  26.209  1.00  0.00    -0.051 S 
BRANCH  22  25
ATOM     25  C   UNL A   1      41.659  22.360  26.738  1.00  0.00     0.052 A 
ATOM     26  C   UNL A   1      42.446  22.994  25.766  1.00  0.00     0.030 A 
ATOM     27  C   UNL A   1      41.957  22.572  28.094  1.00  0.00     0.050 A 
ATOM     28  C   UNL A   1      43.496  23.831  26.138  1.00  0.00     0.043 A 
ATOM     29  C   UNL A   1      43.026  23.392  28.462  1.00  0.00     0.078 A 
ATOM     30  C   UNL A   1      43.790  24.018  27.485  1.00  0.00     0.141 A 
ATOM     31  Cl  UNL A   1      43.423  23.561  30.129  1.00  0.00    -0.081 Cl
ATOM     32  F   UNL A   1      44.844  24.775  27.821  1.00  0.00    -0.205 F 
ENDBRANCH  22  25
ENDBRANCH  16  17
ENDBRANCH  10  11
ENDBRANCH   8  10
ENDBRANCH   5   8
ENDBRANCH   3   4
ENDBRANCH   2   3
ENDBRANCH   1   2
BRANCH   1  33
ATOM     33  C   UNL A   1      35.234  31.616  27.986  1.00  0.00     0.002 C 
BRANCH  33  34
ATOM     34  C   UNL A   1      33.905  32.380  27.949  1.00  0.00     0.021 C 
BRANCH  34  35
ATOM     35  C   UNL A   1      34.022  33.874  27.650  1.00  0.00     0.116 C 
BRANCH  35  36
ATOM     36  N   UNL A   1      33.277  34.684  28.602  1.00  0.00    -0.352 N 
ATOM     37  C   UNL A   1      33.403  34.767  29.968  1.00  0.00     0.251 C 
ATOM     38  H   UNL A   1      32.580  35.258  28.209  1.00  0.00     0.163 HD
ATOM     39  O   UNL A   1      32.553  35.362  30.625  1.00  0.00    -0.269 OA
BRANCH  37  40
ATOM     40  C   UNL A   1      34.550  34.122  30.643  1.00  0.00     0.039 A 
ATOM     41  C   UNL A   1      34.320  33.085  31.551  1.00  0.00     0.014 A 
ATOM     42  C   UNL A   1      35.852  34.548  30.387  1.00  0.00     0.014 A 
ATOM     43  C   UNL A   1      35.404  32.413  32.131  1.00  0.00     0.010 A 
ATOM     44  C   UNL A   1      36.924  33.846  30.932  1.00  0.00     0.010 A 
ATOM     45  C   UNL A   1      36.723  32.751  31.785  1.00  0.00    -0.014 A 
BRANCH  45  46
ATOM     46  C   UNL A   1      37.895  31.957  32.260  1.00  0.00     0.031 A 
ATOM     47  C   UNL A   1      38.583  32.296  33.557  1.00  0.00     0.074 A 
ATOM     48  C   UNL A   1      38.416  30.993  31.470  1.00  0.00     0.049 A 
ATOM     49  N   UNL A   1      39.674  31.786  34.076  1.00  0.00    -0.248 NA
ATOM     50  C   UNL A   1      37.991  33.379  34.354  1.00  0.00     0.031 C 
ATOM     51  C   UNL A   1      37.905  30.611  30.151  1.00  0.00     0.029 A 
ATOM     52  N   UNL A   1      39.503  30.170  31.649  1.00  0.00    -0.354 N 
ATOM     53  C   UNL A   1      39.909  32.500  35.248  1.00  0.00     0.074 A 
ATOM     54  C   UNL A   1      38.886  33.524  35.319  1.00  0.00     0.031 C 
ATOM     55  C   UNL A   1      38.658  29.617  29.655  1.00  0.00     0.029 A 
ATOM     56  C   UNL A   1      39.734  29.318  30.594  1.00  0.00     0.049 A 
ATOM     57  H   UNL A   1      40.063  30.189  32.458  1.00  0.00     0.167 HD
ATOM     58  C   UNL A   1      40.865  32.307  36.192  1.00  0.00     0.034 A 
ATOM     59  C   UNL A   1      40.707  28.406  30.390  1.00  0.00     0.034 A 
ATOM     60  C   UNL A   1      41.868  31.271  36.125  1.00  0.00     0.049 A 
ATOM     61  C   UNL A   1      41.757  28.198  31.451  1.00  0.00     0.074 A 
ATOM     62  C   UNL A   1      42.826  30.935  37.067  1.00  0.00     0.029 A 
ATOM     63  N   UNL A   1      42.053  30.410  35.051  1.00  0.00    -0.354 N 
ATOM     64  N   UNL A   1      41.914  28.831  32.591  1.00  0.00    -0.248 NA
ATOM     65  C   UNL A   1      42.753  27.147  31.204  1.00  0.00     0.031 C 
ATOM     66  C   UNL A   1      43.627  29.917  36.538  1.00  0.00     0.029 A 
ATOM     67  C   UNL A   1      43.128  29.566  35.294  1.00  0.00     0.049 A 
ATOM     68  H   UNL A   1      41.501  30.398  34.236  1.00  0.00     0.167 HD
ATOM     69  C   UNL A   1      43.014  28.239  33.204  1.00  0.00     0.074 A 
ATOM     70  C   UNL A   1      43.471  27.189  32.317  1.00  0.00     0.031 C 
ATOM     71  C   UNL A   1      43.591  28.534  34.397  1.00  0.00     0.034 A 
BRANCH  58  72
ATOM     72  C   UNL A   1      40.873  33.252  37.372  1.00  0.00     0.023 A 
ATOM     73  C   UNL A   1      40.025  33.057  38.477  1.00  0.00     0.031 A 
ATOM     74  C   UNL A   1      41.709  34.382  37.380  1.00  0.00     0.131 A 
ATOM     75  C   UNL A   1      39.962  34.020  39.494  1.00  0.00     0.055 A 
ATOM     76  C   UNL A   1      41.706  35.294  38.439  1.00  0.00     0.041 A 
ATOM     77  F   UNL A   1      42.534  34.630  36.351  1.00  0.00    -0.206 F 
ATOM     78  C   UNL A   1      40.814  35.126  39.495  1.00  0.00     0.022 A 
BRANCH  75  79
ATOM     79  S   UNL A   1      38.638  33.889  40.727  1.00  0.00     0.124 S 
ATOM     80  O   UNL A   1      38.321  35.294  40.971  1.00  0.00    -0.237 OA
ATOM     81  O   UNL A   1      37.623  33.118  40.020  1.00  0.00    -0.237 OA
ATOM     82  O   UNL A   1      39.279  33.201  41.847  1.00  0.00    -0.744 OA
ENDBRANCH  75  79
ENDBRANCH  58  72
BRANCH  59  83
ATOM     83  C   UNL A   1      40.749  27.625  29.121  1.00  0.00     0.023 A 
ATOM     84  C   UNL A   1      41.647  27.957  28.093  1.00  0.00     0.031 A 
ATOM     85  C   UNL A   1      39.870  26.548  28.908  1.00  0.00     0.131 A 
ATOM     86  C   UNL A   1      41.618  27.246  26.883  1.00  0.00     0.055 A 
ATOM     87  C   UNL A   1      39.877  25.814  27.720  1.00  0.00     0.041 A 
ATOM     88  F   UNL A   1      38.998  26.184  29.862  1.00  0.00    -0.206 F 
ATOM     89  C   UNL A   1      40.748  26.169  26.695  1.00  0.00     0.022 A 
BRANCH  86  90
ATOM     90  S   UNL A   1      42.691  27.793  25.527  1.00  0.00     0.124 S 
ATOM     91  O   UNL A   1      43.952  28.028  26.221  1.00  0.00    -0.237 OA
ATOM     92  O   UNL A   1      42.655  26.642  24.631  1.00  0.00    -0.237 OA
ATOM     93  O   UNL A   1      42.021  28.990  25.025  1.00  0.00    -0.744 OA
ENDBRANCH  86  90
ENDBRANCH  59  83
BRANCH  71  94
ATOM     94  C   UNL A   1      44.761  27.682  34.825  1.00  0.00     0.023 A 
ATOM     95  C   UNL A   1      44.584  26.401  35.378  1.00  0.00     0.031 A 
ATOM     96  C   UNL A   1      46.074  28.166  34.684  1.00  0.00     0.131 A 
ATOM     97  C   UNL A   1      45.699  25.668  35.813  1.00  0.00     0.055 A 
ATOM     98  C   UNL A   1      47.182  27.409  35.068  1.00  0.00     0.041 A 
ATOM     99  F   UNL A   1      46.302  29.384  34.167  1.00  0.00    -0.206 F 
ATOM    100  C   UNL A   1      46.996  26.156  35.646  1.00  0.00     0.022 A 
BRANCH  97 101
ATOM    101  S   UNL A   1      45.426  24.094  36.674  1.00  0.00     0.124 S 
ATOM    102  O   UNL A   1      44.906  24.539  37.962  1.00  0.00    -0.237 OA
ATOM    103  O   UNL A   1      44.473  23.418  35.800  1.00  0.00    -0.237 OA
ATOM    104  O   UNL A   1      46.758  23.492  36.720  1.00  0.00    -0.744 OA
ENDBRANCH  97 101
ENDBRANCH  71  94
ENDBRANCH  45  46
ENDBRANCH  37  40
ENDBRANCH  35  36
ENDBRANCH  34  35
ENDBRANCH  33  34
ENDBRANCH   1  33
TORSDOF 20
ENDMDL
MODEL 2
REMARK VINA RESULT:     -11.0      1.488      7.259
REMARK SMILES C[C@H](Oc1ccc(/C=C2/SC(=S)N(c3ccc(F)c(Cl)c3)C2=O)cc1)C(=O)NCCCCCCNC(=O)c1ccc(-c2c3nc(c(-c4cc(S(=O)(=O)[O-])ccc4F)c4ccc([nH]4)c(-c4cc(S(=O)(=O)[O-])ccc4F)c4nc(c(-c5cc(S(=O)(=O)[O-])ccc5F)c5ccc2[nH]5)C=C4)C=C3)cc1
REMARK SMILES IDX 31 1 30 2 29 3 28 4 26 5 27 6 2 8 1 9 3 10 4 11 5 12 25 13
REMARK SMILES IDX 6 14 24 15 7 16 8 17 9 18 10 19 22 20 11 21 13 22 23 23
REMARK SMILES IDX 12 24 14 25 15 26 21 27 16 28 19 29 17 30 20 31 18 32 32 33
REMARK SMILES IDX 33 34 34 35 35 36 36 37 37 39 38 40 39 41 100 42 40 43 99 44
REMARK SMILES IDX 41 45 42 46 43 47 93 48 44 49 98 50 92 51 94 52 45 53 97 54
REMARK SMILES IDX 91 55 90 56 46 58 78 59 58 60 77 61 59 62 62 63 76 64 95 65
REMARK SMILES IDX 60 66 61 67 75 69 96 70 63 71 47 72 48 73 56 74 49 75 55 76
REMARK SMILES IDX 57 77 54 78 50 79 51 80 52 81 53 82 79 83 80 84 88 85 81 86
REMARK SMILES IDX 87 87 89 88 86 89 82 90 83 91 84 92 85 93 64 94 65 95 73 96
REMARK SMILES IDX 66 97 72 98 74 99 71 100 67 101 68 102 69 103 70 104
REMARK H PARENT 28 7 35 38 94 57 62 68
REMARK Flexibility Score: inf
ROOT
ATOM      1  C   UNL A   1      34.716  29.690  27.068  1.00  0.00     0.002 C 
ENDROOT
BRANCH   1   2
ATOM      2  C   UNL A   1      33.608  28.650  27.267  1.00  0.00     0.021 C 
BRANCH   2   3
ATOM      3  C   UNL A   1      33.069  28.041  25.973  1.00  0.00     0.116 C 
BRANCH   3   4
ATOM      4  N   UNL A   1      32.308  26.826  26.216  1.00  0.00    -0.353 N 
ATOM      5  C   UNL A   1      32.187  25.706  25.436  1.00  0.00     0.260 C 
ATOM      6  O   UNL A   1      31.494  24.776  25.860  1.00  0.00    -0.271 OA
ATOM      7  H   UNL A   1      31.808  26.805  27.065  1.00  0.00     0.163 HD
BRANCH   5   8
ATOM      8  C   UNL A   1      32.953  25.588  24.104  1.00  0.00     0.258 C 
ATOM      9  C   UNL A   1      32.230  24.551  23.245  1.00  0.00     0.064 C 
BRANCH   8  10
ATOM     10  O   UNL A   1      34.324  25.424  24.465  1.00  0.00    -0.481 OA
BRANCH  10  11
ATOM     11  C   UNL A   1      34.943  24.237  24.681  1.00  0.00     0.120 A 
ATOM     12  C   UNL A   1      34.851  23.424  25.801  1.00  0.00     0.047 A 
ATOM     13  C   UNL A   1      35.762  23.834  23.622  1.00  0.00     0.047 A 
ATOM     14  C   UNL A   1      35.668  22.290  25.918  1.00  0.00     0.012 A 
ATOM     15  C   UNL A   1      36.550  22.686  23.718  1.00  0.00     0.012 A 
ATOM     16  C   UNL A   1      36.553  21.935  24.896  1.00  0.00    -0.024 A 
BRANCH  16  17
ATOM     17  C   UNL A   1      37.400  20.747  25.053  1.00  0.00     0.029 C 
ATOM     18  C   UNL A   1      38.623  20.682  25.603  1.00  0.00     0.081 C 
ATOM     19  S   UNL A   1      39.536  19.220  25.608  1.00  0.00    -0.054 SA
ATOM     20  C   UNL A   1      39.426  21.778  26.223  1.00  0.00     0.270 C 
ATOM     21  C   UNL A   1      40.995  20.008  26.207  1.00  0.00     0.152 C 
ATOM     22  N   UNL A   1      40.738  21.353  26.431  1.00  0.00    -0.261 N 
ATOM     23  O   UNL A   1      38.972  22.893  26.457  1.00  0.00    -0.268 OA
ATOM     24  S   UNL A   1      42.382  19.119  26.483  1.00  0.00    -0.051 S 
BRANCH  22  25
ATOM     25  C   UNL A   1      41.724  22.306  26.825  1.00  0.00     0.052 A 
ATOM     26  C   UNL A   1      41.761  22.784  28.143  1.00  0.00     0.030 A 
ATOM     27  C   UNL A   1      42.609  22.853  25.882  1.00  0.00     0.050 A 
ATOM     28  C   UNL A   1      42.667  23.775  28.514  1.00  0.00     0.043 A 
ATOM     29  C   UNL A   1      43.499  23.865  26.252  1.00  0.00     0.078 A 
ATOM     30  C   UNL A   1      43.525  24.320  27.564  1.00  0.00     0.141 A 
ATOM     31  Cl  UNL A   1      44.507  24.580  25.053  1.00  0.00    -0.081 Cl
ATOM     32  F   UNL A   1      44.344  25.318  27.925  1.00  0.00    -0.205 F 
ENDBRANCH  22  25
ENDBRANCH  16  17
ENDBRANCH  10  11
ENDBRANCH   8  10
ENDBRANCH   5   8
ENDBRANCH   3   4
ENDBRANCH   2   3
ENDBRANCH   1   2
BRANCH   1  33
ATOM     33  C   UNL A   1      34.730  30.838  28.082  1.00  0.00     0.002 C 
BRANCH  33  34
ATOM     34  C   UNL A   1      33.480  31.726  28.094  1.00  0.00     0.021 C 
BRANCH  34  35
ATOM     35  C   UNL A   1      33.542  32.947  27.176  1.00  0.00     0.116 C 
BRANCH  35  36
ATOM     36  N   UNL A   1      32.959  34.128  27.795  1.00  0.00    -0.352 N 
ATOM     37  C   UNL A   1      33.246  34.715  29.005  1.00  0.00     0.251 C 
ATOM     38  H   UNL A   1      32.255  34.574  27.269  1.00  0.00     0.163 HD
ATOM     39  O   UNL A   1      32.513  35.596  29.445  1.00  0.00    -0.269 OA
BRANCH  37  40
ATOM     40  C   UNL A   1      34.424  34.269  29.779  1.00  0.00     0.039 A 
ATOM     41  C   UNL A   1      34.239  33.639  31.012  1.00  0.00     0.014 A 
ATOM     42  C   UNL A   1      35.712  34.482  29.292  1.00  0.00     0.014 A 
ATOM     43  C   UNL A   1      35.345  33.138  31.712  1.00  0.00     0.010 A 
ATOM     44  C   UNL A   1      36.802  33.942  29.971  1.00  0.00     0.010 A 
ATOM     45  C   UNL A   1      36.637  33.236  31.172  1.00  0.00    -0.014 A 
BRANCH  45  46
ATOM     46  C   UNL A   1      37.815  32.578  31.811  1.00  0.00     0.031 A 
ATOM     47  C   UNL A   1      38.523  31.433  31.133  1.00  0.00     0.074 A 
ATOM     48  C   UNL A   1      38.187  32.936  33.060  1.00  0.00     0.049 A 
ATOM     49  N   UNL A   1      39.494  30.675  31.582  1.00  0.00    -0.248 NA
ATOM     50  C   UNL A   1      38.048  31.067  29.792  1.00  0.00     0.031 C 
ATOM     51  C   UNL A   1      37.541  33.971  33.871  1.00  0.00     0.029 A 
ATOM     52  N   UNL A   1      39.185  32.457  33.876  1.00  0.00    -0.354 N 
ATOM     53  C   UNL A   1      39.730  29.730  30.588  1.00  0.00     0.074 A 
ATOM     54  C   UNL A   1      38.751  29.970  29.548  1.00  0.00     0.031 C 
ATOM     55  C   UNL A   1      38.173  34.065  35.052  1.00  0.00     0.029 A 
ATOM     56  C   UNL A   1      39.239  33.070  35.106  1.00  0.00     0.049 A 
ATOM     57  H   UNL A   1      39.804  31.741  33.604  1.00  0.00     0.167 HD
ATOM     58  C   UNL A   1      40.689  28.771  30.528  1.00  0.00     0.034 A 
ATOM     59  C   UNL A   1      40.041  32.852  36.168  1.00  0.00     0.034 A 
ATOM     60  C   UNL A   1      41.676  28.550  31.558  1.00  0.00     0.049 A 
ATOM     61  C   UNL A   1      41.106  31.789  36.083  1.00  0.00     0.074 A 
ATOM     62  C   UNL A   1      42.743  27.666  31.557  1.00  0.00     0.029 A 
ATOM     63  N   UNL A   1      41.714  29.211  32.779  1.00  0.00    -0.354 N 
ATOM     64  N   UNL A   1      41.364  30.958  35.100  1.00  0.00    -0.248 NA
ATOM     65  C   UNL A   1      41.992  31.641  37.246  1.00  0.00     0.031 C 
ATOM     66  C   UNL A   1      43.383  27.746  32.799  1.00  0.00     0.029 A 
ATOM     67  C   UNL A   1      42.763  28.731  33.550  1.00  0.00     0.049 A 
ATOM     68  H   UNL A   1      41.088  29.918  33.057  1.00  0.00     0.167 HD
ATOM     69  C   UNL A   1      42.457  30.205  35.519  1.00  0.00     0.074 A 
ATOM     70  C   UNL A   1      42.818  30.691  36.835  1.00  0.00     0.031 C 
ATOM     71  C   UNL A   1      43.107  29.205  34.870  1.00  0.00     0.034 A 
BRANCH  58  72
ATOM     72  C   UNL A   1      40.701  27.880  29.306  1.00  0.00     0.023 A 
ATOM     73  C   UNL A   1      41.619  28.079  28.258  1.00  0.00     0.031 A 
ATOM     74  C   UNL A   1      39.764  26.842  29.167  1.00  0.00     0.131 A 
ATOM     75  C   UNL A   1      41.519  27.321  27.083  1.00  0.00     0.055 A 
ATOM     76  C   UNL A   1      39.726  26.030  28.030  1.00  0.00     0.041 A 
ATOM     77  F   UNL A   1      38.855  26.607  30.126  1.00  0.00    -0.206 F 
ATOM     78  C   UNL A   1      40.595  26.281  26.970  1.00  0.00     0.022 A 
BRANCH  75  79
ATOM     79  S   UNL A   1      42.507  27.820  25.647  1.00  0.00     0.124 S 
ATOM     80  O   UNL A   1      41.903  29.106  25.304  1.00  0.00    -0.237 OA
ATOM     81  O   UNL A   1      43.857  27.875  26.196  1.00  0.00    -0.237 OA
ATOM     82  O   UNL A   1      42.270  26.752  24.677  1.00  0.00    -0.744 OA
ENDBRANCH  75  79
ENDBRANCH  58  72
BRANCH  59  83
ATOM     83  C   UNL A   1      39.863  33.647  37.417  1.00  0.00     0.023 A 
ATOM     84  C   UNL A   1      40.647  34.784  37.673  1.00  0.00     0.031 A 
ATOM     85  C   UNL A   1      38.921  33.262  38.389  1.00  0.00     0.131 A 
ATOM     86  C   UNL A   1      40.503  35.473  38.887  1.00  0.00     0.055 A 
ATOM     87  C   UNL A   1      38.750  33.979  39.574  1.00  0.00     0.041 A 
ATOM     88  F   UNL A   1      38.140  32.188  38.189  1.00  0.00    -0.206 F 
ATOM     89  C   UNL A   1      39.552  35.085  39.834  1.00  0.00     0.022 A 
BRANCH  86  90
ATOM     90  S   UNL A   1      41.630  36.850  39.245  1.00  0.00     0.124 S 
ATOM     91  O   UNL A   1      42.218  36.431  40.511  1.00  0.00    -0.237 OA
ATOM     92  O   UNL A   1      42.515  36.824  38.085  1.00  0.00    -0.237 OA
ATOM     93  O   UNL A   1      40.740  38.006  39.320  1.00  0.00    -0.744 OA
ENDBRANCH  86  90
ENDBRANCH  59  83
BRANCH  71  94
ATOM     94  C   UNL A   1      44.298  28.594  35.565  1.00  0.00     0.023 A 
ATOM     95  C   UNL A   1      44.160  27.537  36.483  1.00  0.00     0.031 A 
ATOM     96  C   UNL A   1      45.592  29.084  35.311  1.00  0.00     0.131 A 
ATOM     97  C   UNL A   1      45.291  27.036  37.147  1.00  0.00     0.055 A 
ATOM     98  C   UNL A   1      46.719  28.545  35.934  1.00  0.00     0.041 A 
ATOM     99  F   UNL A   1      45.782  30.095  34.449  1.00  0.00    -0.206 F 
ATOM    100  C   UNL A   1      46.570  27.522  36.867  1.00  0.00     0.022 A 
BRANCH  97 101
ATOM    101  S   UNL A   1      45.059  25.791  38.447  1.00  0.00     0.124 S 
ATOM    102  O   UNL A   1      44.010  26.393  39.262  1.00  0.00    -0.237 OA
ATOM    103  O   UNL A   1      44.674  24.608  37.683  1.00  0.00    -0.237 OA
ATOM    104  O   UNL A   1      46.373  25.713  39.086  1.00  0.00    -0.744 OA
ENDBRANCH  97 101
ENDBRANCH  71  94
ENDBRANCH  45  46
ENDBRANCH  37  40
ENDBRANCH  35  36
ENDBRANCH  34  35
ENDBRANCH  33  34
ENDBRANCH   1  33
TORSDOF 20
ENDMDL
MODEL 3
REMARK VINA RESULT:     -10.9      5.763     10.654
REMARK SMILES C[C@H](Oc1ccc(/C=C2/SC(=S)N(c3ccc(F)c(Cl)c3)C2=O)cc1)C(=O)NCCCCCCNC(=O)c1ccc(-c2c3nc(c(-c4cc(S(=O)(=O)[O-])ccc4F)c4ccc([nH]4)c(-c4cc(S(=O)(=O)[O-])ccc4F)c4nc(c(-c5cc(S(=O)(=O)[O-])ccc5F)c5ccc2[nH]5)C=C4)C=C3)cc1
REMARK SMILES IDX 31 1 30 2 29 3 28 4 26 5 27 6 2 8 1 9 3 10 4 11 5 12 25 13
REMARK SMILES IDX 6 14 24 15 7 16 8 17 9 18 10 19 22 20 11 21 13 22 23 23
REMARK SMILES IDX 12 24 14 25 15 26 21 27 16 28 19 29 17 30 20 31 18 32 32 33
REMARK SMILES IDX 33 34 34 35 35 36 36 37 37 39 38 40 39 41 100 42 40 43 99 44
REMARK SMILES IDX 41 45 42 46 43 47 93 48 44 49 98 50 92 51 94 52 45 53 97 54
REMARK SMILES IDX 91 55 90 56 46 58 78 59 58 60 77 61 59 62 62 63 76 64 95 65
REMARK SMILES IDX 60 66 61 67 75 69 96 70 63 71 47 72 48 73 56 74 49 75 55 76
REMARK SMILES IDX 57 77 54 78 50 79 51 80 52 81 53 82 79 83 80 84 88 85 81 86
REMARK SMILES IDX 87 87 89 88 86 89 82 90 83 91 84 92 85 93 64 94 65 95 73 96
REMARK SMILES IDX 66 97 72 98 74 99 71 100 67 101 68 102 69 103 70 104
REMARK H PARENT 28 7 35 38 94 57 62 68
REMARK Flexibility Score: inf
ROOT
ATOM      1  C   UNL A   1      37.079  24.099  25.636  1.00  0.00     0.002 C 
ENDROOT
BRANCH   1   2
ATOM      2  C   UNL A   1      35.683  23.587  26.010  1.00  0.00     0.021 C 
BRANCH   2   3
ATOM      3  C   UNL A   1      34.538  24.513  25.602  1.00  0.00     0.116 C 
BRANCH   3   4
ATOM      4  N   UNL A   1      33.767  23.974  24.492  1.00  0.00    -0.353 N 
ATOM      5  C   UNL A   1      32.412  23.813  24.373  1.00  0.00     0.260 C 
ATOM      6  O   UNL A   1      31.975  23.346  23.317  1.00  0.00    -0.271 OA
ATOM      7  H   UNL A   1      34.297  23.684  23.714  1.00  0.00     0.163 HD
BRANCH   5   8
ATOM      8  C   UNL A   1      31.464  24.267  25.499  1.00  0.00     0.258 C 
ATOM      9  C   UNL A   1      30.642  23.052  25.929  1.00  0.00     0.064 C 
BRANCH   8  10
ATOM     10  O   UNL A   1      30.833  25.452  25.013  1.00  0.00    -0.481 OA
BRANCH  10  11
ATOM     11  C   UNL A   1      31.163  26.719  25.365  1.00  0.00     0.120 A 
ATOM     12  C   UNL A   1      31.488  27.775  24.526  1.00  0.00     0.047 A 
ATOM     13  C   UNL A   1      31.166  26.932  26.747  1.00  0.00     0.047 A 
ATOM     14  C   UNL A   1      31.939  28.989  25.063  1.00  0.00     0.012 A 
ATOM     15  C   UNL A   1      31.579  28.151  27.286  1.00  0.00     0.012 A 
ATOM     16  C   UNL A   1      32.027  29.173  26.446  1.00  0.00    -0.024 A 
BRANCH  16  17
ATOM     17  C   UNL A   1      32.510  30.453  26.976  1.00  0.00     0.029 C 
ATOM     18  C   UNL A   1      33.728  30.725  27.473  1.00  0.00     0.081 C 
ATOM     19  S   UNL A   1      34.100  32.259  28.163  1.00  0.00    -0.054 SA
ATOM     20  C   UNL A   1      34.911  29.820  27.589  1.00  0.00     0.270 C 
ATOM     21  C   UNL A   1      35.665  31.724  28.772  1.00  0.00     0.152 C 
ATOM     22  N   UNL A   1      35.885  30.407  28.397  1.00  0.00    -0.261 N 
ATOM     23  O   UNL A   1      34.959  28.711  27.071  1.00  0.00    -0.268 OA
ATOM     24  S   UNL A   1      36.657  32.783  29.600  1.00  0.00    -0.051 S 
BRANCH  22  25
ATOM     25  C   UNL A   1      37.009  29.629  28.805  1.00  0.00     0.052 A 
ATOM     26  C   UNL A   1      37.986  29.253  27.873  1.00  0.00     0.030 A 
ATOM     27  C   UNL A   1      37.107  29.147  30.120  1.00  0.00     0.050 A 
ATOM     28  C   UNL A   1      39.044  28.426  28.247  1.00  0.00     0.043 A 
ATOM     29  C   UNL A   1      38.154  28.296  30.485  1.00  0.00     0.078 A 
ATOM     30  C   UNL A   1      39.117  27.940  29.548  1.00  0.00     0.141 A 
ATOM     31  Cl  UNL A   1      38.197  27.647  32.079  1.00  0.00    -0.081 Cl
ATOM     32  F   UNL A   1      40.105  27.094  29.871  1.00  0.00    -0.205 F 
ENDBRANCH  22  25
ENDBRANCH  16  17
ENDBRANCH  10  11
ENDBRANCH   8  10
ENDBRANCH   5   8
ENDBRANCH   3   4
ENDBRANCH   2   3
ENDBRANCH   1   2
BRANCH   1  33
ATOM     33  C   UNL A   1      38.248  23.252  26.150  1.00  0.00     0.002 C 
BRANCH  33  34
ATOM     34  C   UNL A   1      39.245  23.981  27.059  1.00  0.00     0.021 C 
BRANCH  34  35
ATOM     35  C   UNL A   1      39.836  25.264  26.477  1.00  0.00     0.116 C 
BRANCH  35  36
ATOM     36  N   UNL A   1      41.104  25.029  25.803  1.00  0.00    -0.352 N 
ATOM     37  C   UNL A   1      42.205  25.845  25.699  1.00  0.00     0.251 C 
ATOM     38  H   UNL A   1      41.185  24.155  25.356  1.00  0.00     0.163 HD
ATOM     39  O   UNL A   1      43.111  25.553  24.925  1.00  0.00    -0.269 OA
BRANCH  37  40
ATOM     40  C   UNL A   1      42.284  27.082  26.505  1.00  0.00     0.039 A 
ATOM     41  C   UNL A   1      42.860  27.040  27.778  1.00  0.00     0.014 A 
ATOM     42  C   UNL A   1      41.779  28.283  26.010  1.00  0.00     0.014 A 
ATOM     43  C   UNL A   1      43.015  28.221  28.514  1.00  0.00     0.010 A 
ATOM     44  C   UNL A   1      41.977  29.460  26.728  1.00  0.00     0.010 A 
ATOM     45  C   UNL A   1      42.623  29.457  27.972  1.00  0.00    -0.014 A 
BRANCH  45  46
ATOM     46  C   UNL A   1      42.915  30.750  28.659  1.00  0.00     0.031 A 
ATOM     47  C   UNL A   1      44.077  31.609  28.228  1.00  0.00     0.074 A 
ATOM     48  C   UNL A   1      42.201  31.107  29.749  1.00  0.00     0.049 A 
ATOM     49  N   UNL A   1      44.542  32.708  28.771  1.00  0.00    -0.248 NA
ATOM     50  C   UNL A   1      44.838  31.149  27.059  1.00  0.00     0.031 C 
ATOM     51  C   UNL A   1      41.101  30.333  30.330  1.00  0.00     0.029 A 
ATOM     52  N   UNL A   1      42.303  32.200  30.576  1.00  0.00    -0.354 N 
ATOM     53  C   UNL A   1      45.663  33.056  28.023  1.00  0.00     0.074 A 
ATOM     54  C   UNL A   1      45.843  32.012  27.036  1.00  0.00     0.031 C 
ATOM     55  C   UNL A   1      40.617  30.986  31.398  1.00  0.00     0.029 A 
ATOM     56  C   UNL A   1      41.397  32.201  31.611  1.00  0.00     0.049 A 
ATOM     57  H   UNL A   1      42.964  32.917  30.440  1.00  0.00     0.167 HD
ATOM     58  C   UNL A   1      46.453  34.156  28.124  1.00  0.00     0.034 A 
ATOM     59  C   UNL A   1      41.215  33.069  32.628  1.00  0.00     0.034 A 
ATOM     60  C   UNL A   1      46.255  35.205  29.096  1.00  0.00     0.049 A 
ATOM     61  C   UNL A   1      42.095  34.289  32.722  1.00  0.00     0.074 A 
ATOM     62  C   UNL A   1      46.943  36.401  29.228  1.00  0.00     0.029 A 
ATOM     63  N   UNL A   1      45.308  35.182  30.112  1.00  0.00    -0.354 N 
ATOM     64  N   UNL A   1      43.100  34.641  31.955  1.00  0.00    -0.248 NA
ATOM     65  C   UNL A   1      41.809  35.232  33.812  1.00  0.00     0.031 C 
ATOM     66  C   UNL A   1      46.456  37.067  30.358  1.00  0.00     0.029 A 
ATOM     67  C   UNL A   1      45.415  36.324  30.892  1.00  0.00     0.049 A 
ATOM     68  H   UNL A   1      44.655  34.460  30.257  1.00  0.00     0.167 HD
ATOM     69  C   UNL A   1      43.552  35.858  32.458  1.00  0.00     0.074 A 
ATOM     70  C   UNL A   1      42.700  36.186  33.583  1.00  0.00     0.031 C 
ATOM     71  C   UNL A   1      44.576  36.637  32.024  1.00  0.00     0.034 A 
BRANCH  58  72
ATOM     72  C   UNL A   1      47.613  34.266  27.161  1.00  0.00     0.023 A 
ATOM     73  C   UNL A   1      48.861  33.682  27.441  1.00  0.00     0.031 A 
ATOM     74  C   UNL A   1      47.484  34.993  25.964  1.00  0.00     0.131 A 
ATOM     75  C   UNL A   1      49.952  33.913  26.590  1.00  0.00     0.055 A 
ATOM     76  C   UNL A   1      48.551  35.145  25.075  1.00  0.00     0.041 A 
ATOM     77  F   UNL A   1      46.322  35.582  25.643  1.00  0.00    -0.206 F 
ATOM     78  C   UNL A   1      49.801  34.620  25.396  1.00  0.00     0.022 A 
BRANCH  75  79
ATOM     79  S   UNL A   1      51.604  33.411  27.149  1.00  0.00     0.124 S 
ATOM     80  O   UNL A   1      51.836  32.212  26.347  1.00  0.00    -0.237 OA
ATOM     81  O   UNL A   1      52.417  34.574  26.810  1.00  0.00    -0.237 OA
ATOM     82  O   UNL A   1      51.424  33.170  28.579  1.00  0.00    -0.744 OA
ENDBRANCH  75  79
ENDBRANCH  58  72
BRANCH  59  83
ATOM     83  C   UNL A   1      40.165  32.812  33.654  1.00  0.00     0.023 A 
ATOM     84  C   UNL A   1      38.845  33.255  33.470  1.00  0.00     0.031 A 
ATOM     85  C   UNL A   1      40.475  32.141  34.851  1.00  0.00     0.131 A 
ATOM     86  C   UNL A   1      37.894  33.058  34.483  1.00  0.00     0.055 A 
ATOM     87  C   UNL A   1      39.514  31.906  35.835  1.00  0.00     0.041 A 
ATOM     88  F   UNL A   1      41.720  31.689  35.073  1.00  0.00    -0.206 F 
ATOM     89  C   UNL A   1      38.216  32.376  35.658  1.00  0.00     0.022 A 
BRANCH  86  90
ATOM     90  S   UNL A   1      36.238  33.768  34.272  1.00  0.00     0.124 S 
ATOM     91  O   UNL A   1      35.713  33.708  35.631  1.00  0.00    -0.237 OA
ATOM     92  O   UNL A   1      36.544  35.099  33.759  1.00  0.00    -0.237 OA
ATOM     93  O   UNL A   1      35.601  32.866  33.314  1.00  0.00    -0.744 OA
ENDBRANCH  86  90
ENDBRANCH  59  83
BRANCH  71  94
ATOM     94  C   UNL A   1      44.806  37.938  32.752  1.00  0.00     0.023 A 
ATOM     95  C   UNL A   1      44.012  39.074  32.512  1.00  0.00     0.031 A 
ATOM     96  C   UNL A   1      45.844  38.045  33.695  1.00  0.00     0.131 A 
ATOM     97  C   UNL A   1      44.298  40.279  33.172  1.00  0.00     0.055 A 
ATOM     98  C   UNL A   1      46.089  39.231  34.390  1.00  0.00     0.041 A 
ATOM     99  F   UNL A   1      46.637  36.994  33.961  1.00  0.00    -0.206 F 
ATOM    100  C   UNL A   1      45.320  40.360  34.120  1.00  0.00     0.022 A 
BRANCH  97 101
ATOM    101  S   UNL A   1      43.364  41.767  32.716  1.00  0.00     0.124 S 
ATOM    102  O   UNL A   1      42.015  41.425  33.154  1.00  0.00    -0.237 OA
ATOM    103  O   UNL A   1      44.040  42.809  33.484  1.00  0.00    -0.237 OA
ATOM    104  O   UNL A   1      43.542  41.854  31.267  1.00  0.00    -0.744 OA
ENDBRANCH  97 101
ENDBRANCH  71  94
ENDBRANCH  45  46
ENDBRANCH  37  40
ENDBRANCH  35  36
ENDBRANCH  34  35
ENDBRANCH  33  34
ENDBRANCH   1  33
TORSDOF 20
ENDMDL
