MODEL 1
REMARK VINA RESULT:     -11.8      0.000      0.000
REMARK SMILES CC[C@@H](C)N1C(=O)/C(=C/Nc2cccc(C(=O)NCCCCCCNC(=O)c3ccc(-c4c5nc(c(-c6cc(S(=O)(=O)[O-])ccc6F)c6ccc([nH]6)c(-c6cc(S(=O)(=O)[O-])ccc6F)c6nc(c(-c7cc(S(=O)(=O)[O-])ccc7F)c7ccc4[nH]7)C=C6)C=C5)cc3)c2)C(=O)NC1=S
REMARK SMILES IDX 21 1 20 2 19 3 18 4 16 5 17 6 15 8 11 9 12 10 91 11 13 12
REMARK SMILES IDX 14 13 10 14 9 16 5 17 6 18 95 19 7 20 8 21 94 22 96 23 92 24
REMARK SMILES IDX 93 26 3 27 4 28 2 29 1 30 22 31 23 32 24 33 25 34 26 35
REMARK SMILES IDX 27 37 28 38 29 39 90 40 30 41 89 42 31 43 32 44 33 45 83 46
REMARK SMILES IDX 34 47 88 48 82 49 84 50 35 51 87 52 81 53 80 54 36 56 68 57
REMARK SMILES IDX 48 58 67 59 49 60 52 61 66 62 85 63 50 64 51 65 65 67 86 68
REMARK SMILES IDX 53 69 37 70 38 71 46 72 39 73 45 74 47 75 44 76 40 77 41 78
REMARK SMILES IDX 42 79 43 80 69 81 70 82 78 83 71 84 77 85 79 86 76 87 72 88
REMARK SMILES IDX 73 89 74 90 75 91 54 92 55 93 63 94 56 95 62 96 64 97 61 98
REMARK SMILES IDX 57 99 58 100 59 101 60 102
REMARK H PARENT 18 7 10 15 94 25 25 36 84 55 52 66
REMARK Flexibility Score: inf
ROOT
ATOM      1  C   UNL A   1      33.644  28.310  24.907  1.00  0.00     0.002 C 
ENDROOT
BRANCH   1   2
ATOM      2  C   UNL A   1      32.827  29.274  24.045  1.00  0.00     0.021 C 
BRANCH   2   3
ATOM      3  C   UNL A   1      32.454  28.789  22.647  1.00  0.00     0.116 C 
BRANCH   3   4
ATOM      4  N   UNL A   1      31.520  29.660  21.953  1.00  0.00    -0.352 N 
ATOM      5  C   UNL A   1      30.144  29.699  21.925  1.00  0.00     0.251 C 
ATOM      6  O   UNL A   1      29.599  30.524  21.193  1.00  0.00    -0.269 OA
ATOM      7  H   UNL A   1      31.950  30.350  21.399  1.00  0.00     0.163 HD
BRANCH   5   8
ATOM      8  C   UNL A   1      29.296  28.749  22.698  1.00  0.00     0.041 A 
ATOM      9  C   UNL A   1      28.949  26.616  23.831  1.00  0.00     0.039 A 
ATOM     10  C   UNL A   1      27.587  26.920  23.941  1.00  0.00     0.026 A 
ATOM     11  C   UNL A   1      29.802  27.595  23.302  1.00  0.00     0.039 A 
ATOM     12  C   UNL A   1      27.084  28.134  23.465  1.00  0.00     0.003 A 
ATOM     13  C   UNL A   1      27.933  29.035  22.821  1.00  0.00     0.014 A 
BRANCH   9  14
ATOM     14  N   UNL A   1      29.412  25.353  24.256  1.00  0.00    -0.361 N 
ATOM     15  H   UNL A   1      28.805  24.820  24.819  1.00  0.00     0.166 HD
BRANCH  14  16
ATOM     16  C   UNL A   1      30.636  24.799  23.955  1.00  0.00     0.102 C 
ATOM     17  N   UNL A   1      33.416  22.737  24.949  1.00  0.00    -0.282 N 
ATOM     18  C   UNL A   1      32.747  23.657  24.138  1.00  0.00     0.267 C 
ATOM     19  C   UNL A   1      33.315  22.761  26.341  1.00  0.00     0.183 C 
ATOM     20  O   UNL A   1      33.004  23.859  22.952  1.00  0.00    -0.268 OA
ATOM     21  C   UNL A   1      31.610  24.361  24.772  1.00  0.00     0.121 C 
ATOM     22  N   UNL A   1      32.408  23.639  26.883  1.00  0.00    -0.298 N 
ATOM     23  S   UNL A   1      34.158  21.828  27.447  1.00  0.00    -0.040 S 
ATOM     24  C   UNL A   1      31.491  24.411  26.229  1.00  0.00     0.264 C 
ATOM     25  H   UNL A   1      32.421  23.722  27.864  1.00  0.00     0.172 HD
ATOM     26  O   UNL A   1      30.624  25.049  26.821  1.00  0.00    -0.269 OA
BRANCH  17  27
ATOM     27  C   UNL A   1      34.274  21.736  24.240  1.00  0.00     0.090 C 
ATOM     28  C   UNL A   1      33.893  20.291  24.577  1.00  0.00     0.031 C 
BRANCH  27  29
ATOM     29  C   UNL A   1      35.773  22.047  24.472  1.00  0.00     0.022 C 
ATOM     30  C   UNL A   1      36.398  22.877  23.363  1.00  0.00     0.006 C 
ENDBRANCH  27  29
ENDBRANCH  17  27
ENDBRANCH  14  16
ENDBRANCH   9  14
ENDBRANCH   5   8
ENDBRANCH   3   4
ENDBRANCH   2   3
ENDBRANCH   1   2
BRANCH   1  31
ATOM     31  C   UNL A   1      33.123  28.056  26.324  1.00  0.00     0.002 C 
BRANCH  31  32
ATOM     32  C   UNL A   1      33.005  29.285  27.228  1.00  0.00     0.021 C 
BRANCH  32  33
ATOM     33  C   UNL A   1      34.221  30.210  27.241  1.00  0.00     0.116 C 
BRANCH  33  34
ATOM     34  N   UNL A   1      34.055  31.312  28.168  1.00  0.00    -0.352 N 
ATOM     35  C   UNL A   1      34.797  31.677  29.267  1.00  0.00     0.251 C 
ATOM     36  H   UNL A   1      33.286  31.896  27.980  1.00  0.00     0.163 HD
ATOM     37  O   UNL A   1      34.331  32.521  30.032  1.00  0.00    -0.269 OA
BRANCH  35  38
ATOM     38  C   UNL A   1      36.119  31.067  29.565  1.00  0.00     0.039 A 
ATOM     39  C   UNL A   1      37.255  31.618  28.959  1.00  0.00     0.014 A 
ATOM     40  C   UNL A   1      36.261  29.927  30.362  1.00  0.00     0.014 A 
ATOM     41  C   UNL A   1      38.519  31.065  29.187  1.00  0.00     0.010 A 
ATOM     42  C   UNL A   1      37.533  29.420  30.650  1.00  0.00     0.010 A 
ATOM     43  C   UNL A   1      38.679  29.978  30.061  1.00  0.00    -0.014 A 
BRANCH  43  44
ATOM     44  C   UNL A   1      40.031  29.416  30.349  1.00  0.00     0.031 A 
ATOM     45  C   UNL A   1      40.886  29.994  31.447  1.00  0.00     0.074 A 
ATOM     46  C   UNL A   1      40.510  28.397  29.606  1.00  0.00     0.049 A 
ATOM     47  N   UNL A   1      42.099  29.665  31.818  1.00  0.00    -0.248 NA
ATOM     48  C   UNL A   1      40.305  31.105  32.213  1.00  0.00     0.031 C 
ATOM     49  C   UNL A   1      39.797  27.748  28.505  1.00  0.00     0.029 A 
ATOM     50  N   UNL A   1      41.707  27.723  29.665  1.00  0.00    -0.354 N 
ATOM     51  C   UNL A   1      42.431  30.533  32.855  1.00  0.00     0.074 A 
ATOM     52  C   UNL A   1      41.314  31.446  33.001  1.00  0.00     0.031 C 
ATOM     53  C   UNL A   1      40.552  26.750  28.018  1.00  0.00     0.029 A 
ATOM     54  C   UNL A   1      41.825  26.719  28.733  1.00  0.00     0.049 A 
ATOM     55  H   UNL A   1      42.414  27.940  30.315  1.00  0.00     0.167 HD
ATOM     56  C   UNL A   1      43.546  30.555  33.630  1.00  0.00     0.034 A 
ATOM     57  C   UNL A   1      42.841  25.871  28.473  1.00  0.00     0.034 A 
ATOM     58  C   UNL A   1      44.655  29.642  33.474  1.00  0.00     0.049 A 
ATOM     59  C   UNL A   1      44.099  25.953  29.302  1.00  0.00     0.074 A 
ATOM     60  C   UNL A   1      45.812  29.555  34.230  1.00  0.00     0.029 A 
ATOM     61  N   UNL A   1      44.754  28.667  32.489  1.00  0.00    -0.354 N 
ATOM     62  N   UNL A   1      44.381  26.757  30.302  1.00  0.00    -0.248 NA
ATOM     63  C   UNL A   1      45.173  25.009  28.970  1.00  0.00     0.031 C 
ATOM     64  C   UNL A   1      46.643  28.588  33.653  1.00  0.00     0.029 A 
ATOM     65  C   UNL A   1      45.969  28.003  32.593  1.00  0.00     0.049 A 
ATOM     66  H   UNL A   1      44.064  28.475  31.815  1.00  0.00     0.167 HD
ATOM     67  C   UNL A   1      45.652  26.389  30.737  1.00  0.00     0.074 A 
ATOM     68  C   UNL A   1      46.074  25.285  29.901  1.00  0.00     0.031 C 
ATOM     69  C   UNL A   1      46.398  26.913  31.745  1.00  0.00     0.034 A 
BRANCH  56  70
ATOM     70  C   UNL A   1      43.628  31.630  34.693  1.00  0.00     0.023 A 
ATOM     71  C   UNL A   1      42.954  31.507  35.921  1.00  0.00     0.031 A 
ATOM     72  C   UNL A   1      44.350  32.815  34.461  1.00  0.00     0.131 A 
ATOM     73  C   UNL A   1      42.930  32.583  36.821  1.00  0.00     0.055 A 
ATOM     74  C   UNL A   1      44.405  33.842  35.404  1.00  0.00     0.041 A 
ATOM     75  F   UNL A   1      45.002  33.003  33.302  1.00  0.00    -0.206 F 
ATOM     76  C   UNL A   1      43.675  33.740  36.584  1.00  0.00     0.022 A 
BRANCH  73  77
ATOM     77  S   UNL A   1      41.764  32.521  38.209  1.00  0.00     0.124 S 
ATOM     78  O   UNL A   1      42.439  31.600  39.120  1.00  0.00    -0.237 OA
ATOM     79  O   UNL A   1      41.706  33.915  38.635  1.00  0.00    -0.237 OA
ATOM     80  O   UNL A   1      40.540  32.000  37.604  1.00  0.00    -0.744 OA
ENDBRANCH  73  77
ENDBRANCH  56  70
BRANCH  57  81
ATOM     81  C   UNL A   1      42.720  24.868  27.377  1.00  0.00     0.023 A 
ATOM     82  C   UNL A   1      41.939  23.711  27.539  1.00  0.00     0.031 A 
ATOM     83  C   UNL A   1      43.409  25.034  26.162  1.00  0.00     0.131 A 
ATOM     84  C   UNL A   1      41.898  22.747  26.520  1.00  0.00     0.055 A 
ATOM     85  C   UNL A   1      43.320  24.098  25.130  1.00  0.00     0.041 A 
ATOM     86  F   UNL A   1      44.166  26.123  25.953  1.00  0.00    -0.206 F 
ATOM     87  C   UNL A   1      42.570  22.940  25.311  1.00  0.00     0.022 A 
BRANCH  84  88
ATOM     88  S   UNL A   1      41.008  21.196  26.827  1.00  0.00     0.124 S 
ATOM     89  O   UNL A   1      41.966  20.206  26.348  1.00  0.00    -0.237 OA
ATOM     90  O   UNL A   1      40.803  21.246  28.271  1.00  0.00    -0.237 OA
ATOM     91  O   UNL A   1      39.797  21.335  26.022  1.00  0.00    -0.744 OA
ENDBRANCH  84  88
ENDBRANCH  57  81
BRANCH  69  92
ATOM     92  C   UNL A   1      47.733  26.264  32.027  1.00  0.00     0.023 A 
ATOM     93  C   UNL A   1      47.885  25.266  33.006  1.00  0.00     0.031 A 
ATOM     94  C   UNL A   1      48.877  26.662  31.310  1.00  0.00     0.131 A 
ATOM     95  C   UNL A   1      49.159  24.742  33.282  1.00  0.00     0.055 A 
ATOM     96  C   UNL A   1      50.129  26.089  31.541  1.00  0.00     0.041 A 
ATOM     97  F   UNL A   1      48.797  27.614  30.367  1.00  0.00    -0.206 F 
ATOM     98  C   UNL A   1      50.278  25.134  32.542  1.00  0.00     0.022 A 
BRANCH  95  99
ATOM     99  S   UNL A   1      49.354  23.616  34.691  1.00  0.00     0.124 S 
ATOM    100  O   UNL A   1      48.092  23.799  35.401  1.00  0.00    -0.237 OA
ATOM    101  O   UNL A   1      49.535  22.325  34.036  1.00  0.00    -0.237 OA
ATOM    102  O   UNL A   1      50.534  24.132  35.382  1.00  0.00    -0.744 OA
ENDBRANCH  95  99
ENDBRANCH  69  92
ENDBRANCH  43  44
ENDBRANCH  35  38
ENDBRANCH  33  34
ENDBRANCH  32  33
ENDBRANCH  31  32
ENDBRANCH   1  31
TORSDOF 20
ENDMDL
MODEL 2
REMARK VINA RESULT:     -11.4      2.426      3.313
REMARK SMILES CC[C@@H](C)N1C(=O)/C(=C/Nc2cccc(C(=O)NCCCCCCNC(=O)c3ccc(-c4c5nc(c(-c6cc(S(=O)(=O)[O-])ccc6F)c6ccc([nH]6)c(-c6cc(S(=O)(=O)[O-])ccc6F)c6nc(c(-c7cc(S(=O)(=O)[O-])ccc7F)c7ccc4[nH]7)C=C6)C=C5)cc3)c2)C(=O)NC1=S
REMARK SMILES IDX 21 1 20 2 19 3 18 4 16 5 17 6 15 8 11 9 12 10 91 11 13 12
REMARK SMILES IDX 14 13 10 14 9 16 5 17 6 18 95 19 7 20 8 21 94 22 96 23 92 24
REMARK SMILES IDX 93 26 3 27 4 28 2 29 1 30 22 31 23 32 24 33 25 34 26 35
REMARK SMILES IDX 27 37 28 38 29 39 90 40 30 41 89 42 31 43 32 44 33 45 83 46
REMARK SMILES IDX 34 47 88 48 82 49 84 50 35 51 87 52 81 53 80 54 36 56 68 57
REMARK SMILES IDX 48 58 67 59 49 60 52 61 66 62 85 63 50 64 51 65 65 67 86 68
REMARK SMILES IDX 53 69 37 70 38 71 46 72 39 73 45 74 47 75 44 76 40 77 41 78
REMARK SMILES IDX 42 79 43 80 69 81 70 82 78 83 71 84 77 85 79 86 76 87 72 88
REMARK SMILES IDX 73 89 74 90 75 91 54 92 55 93 63 94 56 95 62 96 64 97 61 98
REMARK SMILES IDX 57 99 58 100 59 101 60 102
REMARK H PARENT 18 7 10 15 94 25 25 36 84 55 52 66
REMARK Flexibility Score: inf
ROOT
ATOM      1  C   UNL A   1      34.032  28.415  23.977  1.00  0.00     0.002 C 
ENDROOT
BRANCH   1   2
ATOM      2  C   UNL A   1      33.723  26.997  23.496  1.00  0.00     0.021 C 
BRANCH   2   3
ATOM      3  C   UNL A   1      32.821  26.874  22.270  1.00  0.00     0.116 C 
BRANCH   3   4
ATOM      4  N   UNL A   1      32.024  28.060  22.007  1.00  0.00    -0.352 N 
ATOM      5  C   UNL A   1      30.781  28.453  22.453  1.00  0.00     0.251 C 
ATOM      6  O   UNL A   1      30.310  29.503  22.018  1.00  0.00    -0.269 OA
ATOM      7  H   UNL A   1      32.449  28.703  21.395  1.00  0.00     0.163 HD
BRANCH   5   8
ATOM      8  C   UNL A   1      29.967  27.632  23.392  1.00  0.00     0.041 A 
ATOM      9  C   UNL A   1      29.766  26.019  25.212  1.00  0.00     0.039 A 
ATOM     10  C   UNL A   1      28.390  25.946  24.967  1.00  0.00     0.026 A 
ATOM     11  C   UNL A   1      30.517  26.952  24.482  1.00  0.00     0.039 A 
ATOM     12  C   UNL A   1      27.798  26.725  23.970  1.00  0.00     0.003 A 
ATOM     13  C   UNL A   1      28.590  27.547  23.167  1.00  0.00     0.014 A 
BRANCH   9  14
ATOM     14  N   UNL A   1      30.343  25.167  26.177  1.00  0.00    -0.361 N 
ATOM     15  H   UNL A   1      29.757  24.848  26.901  1.00  0.00     0.166 HD
BRANCH  14  16
ATOM     16  C   UNL A   1      31.652  24.740  26.198  1.00  0.00     0.102 C 
ATOM     17  N   UNL A   1      34.081  22.200  25.413  1.00  0.00    -0.282 N 
ATOM     18  C   UNL A   1      33.624  23.372  26.022  1.00  0.00     0.267 C 
ATOM     19  C   UNL A   1      33.287  21.058  25.307  1.00  0.00     0.183 C 
ATOM     20  O   UNL A   1      34.348  24.298  26.384  1.00  0.00    -0.268 OA
ATOM     21  C   UNL A   1      32.156  23.494  26.153  1.00  0.00     0.121 C 
ATOM     22  N   UNL A   1      31.974  21.176  25.697  1.00  0.00    -0.298 N 
ATOM     23  S   UNL A   1      33.732  19.546  24.739  1.00  0.00    -0.040 S 
ATOM     24  C   UNL A   1      31.304  22.309  26.059  1.00  0.00     0.264 C 
ATOM     25  H   UNL A   1      31.453  20.341  25.717  1.00  0.00     0.172 HD
ATOM     26  O   UNL A   1      30.089  22.326  26.243  1.00  0.00    -0.269 OA
BRANCH  17  27
ATOM     27  C   UNL A   1      35.488  22.229  24.901  1.00  0.00     0.090 C 
ATOM     28  C   UNL A   1      35.584  22.773  23.473  1.00  0.00     0.031 C 
BRANCH  27  29
ATOM     29  C   UNL A   1      36.157  20.843  25.078  1.00  0.00     0.022 C 
ATOM     30  C   UNL A   1      37.675  20.898  25.056  1.00  0.00     0.006 C 
ENDBRANCH  27  29
ENDBRANCH  17  27
ENDBRANCH  14  16
ENDBRANCH   9  14
ENDBRANCH   5   8
ENDBRANCH   3   4
ENDBRANCH   2   3
ENDBRANCH   1   2
BRANCH   1  31
ATOM     31  C   UNL A   1      33.422  28.827  25.320  1.00  0.00     0.002 C 
BRANCH  31  32
ATOM     32  C   UNL A   1      32.319  29.886  25.260  1.00  0.00     0.021 C 
BRANCH  32  33
ATOM     33  C   UNL A   1      31.832  30.404  26.613  1.00  0.00     0.116 C 
BRANCH  33  34
ATOM     34  N   UNL A   1      31.926  31.848  26.708  1.00  0.00    -0.352 N 
ATOM     35  C   UNL A   1      32.807  32.644  27.403  1.00  0.00     0.251 C 
ATOM     36  H   UNL A   1      31.249  32.339  26.190  1.00  0.00     0.163 HD
ATOM     37  O   UNL A   1      32.550  33.842  27.511  1.00  0.00    -0.269 OA
BRANCH  35  38
ATOM     38  C   UNL A   1      34.032  32.095  28.040  1.00  0.00     0.039 A 
ATOM     39  C   UNL A   1      35.068  32.983  28.359  1.00  0.00     0.014 A 
ATOM     40  C   UNL A   1      34.217  30.728  28.265  1.00  0.00     0.014 A 
ATOM     41  C   UNL A   1      36.252  32.512  28.937  1.00  0.00     0.010 A 
ATOM     42  C   UNL A   1      35.369  30.268  28.912  1.00  0.00     0.010 A 
ATOM     43  C   UNL A   1      36.406  31.153  29.251  1.00  0.00    -0.014 A 
BRANCH  43  44
ATOM     44  C   UNL A   1      37.645  30.652  29.914  1.00  0.00     0.031 A 
ATOM     45  C   UNL A   1      37.988  31.075  31.320  1.00  0.00     0.074 A 
ATOM     46  C   UNL A   1      38.485  29.836  29.247  1.00  0.00     0.049 A 
ATOM     47  N   UNL A   1      39.036  30.776  32.046  1.00  0.00    -0.248 NA
ATOM     48  C   UNL A   1      37.032  31.969  31.987  1.00  0.00     0.031 C 
ATOM     49  C   UNL A   1      38.286  29.357  27.878  1.00  0.00     0.029 A 
ATOM     50  N   UNL A   1      39.673  29.259  29.627  1.00  0.00    -0.354 N 
ATOM     51  C   UNL A   1      38.872  31.452  33.253  1.00  0.00     0.074 A 
ATOM     52  C   UNL A   1      37.656  32.230  33.126  1.00  0.00     0.031 C 
ATOM     53  C   UNL A   1      39.293  28.533  27.548  1.00  0.00     0.029 A 
ATOM     54  C   UNL A   1      40.239  28.464  28.657  1.00  0.00     0.049 A 
ATOM     55  H   UNL A   1      40.081  29.401  30.512  1.00  0.00     0.167 HD
ATOM     56  C   UNL A   1      39.645  31.412  34.369  1.00  0.00     0.034 A 
ATOM     57  C   UNL A   1      41.392  27.763  28.654  1.00  0.00     0.034 A 
ATOM     58  C   UNL A   1      40.857  30.634  34.484  1.00  0.00     0.049 A 
ATOM     59  C   UNL A   1      42.270  27.783  29.880  1.00  0.00     0.074 A 
ATOM     60  C   UNL A   1      41.691  30.494  35.581  1.00  0.00     0.029 A 
ATOM     61  N   UNL A   1      41.420  29.877  33.463  1.00  0.00    -0.354 N 
ATOM     62  N   UNL A   1      42.081  28.399  31.024  1.00  0.00    -0.248 NA
ATOM     63  C   UNL A   1      43.515  27.006  29.814  1.00  0.00     0.031 C 
ATOM     64  C   UNL A   1      42.795  29.724  35.200  1.00  0.00     0.029 A 
ATOM     65  C   UNL A   1      42.609  29.302  33.893  1.00  0.00     0.049 A 
ATOM     66  H   UNL A   1      41.033  29.765  32.566  1.00  0.00     0.167 HD
ATOM     67  C   UNL A   1      43.169  28.055  31.824  1.00  0.00     0.074 A 
ATOM     68  C   UNL A   1      43.999  27.168  31.037  1.00  0.00     0.031 C 
ATOM     69  C   UNL A   1      43.447  28.432  33.100  1.00  0.00     0.034 A 
BRANCH  56  70
ATOM     70  C   UNL A   1      39.210  32.265  35.541  1.00  0.00     0.023 A 
ATOM     71  C   UNL A   1      39.631  33.600  35.679  1.00  0.00     0.031 A 
ATOM     72  C   UNL A   1      38.403  31.726  36.560  1.00  0.00     0.131 A 
ATOM     73  C   UNL A   1      39.331  34.314  36.849  1.00  0.00     0.055 A 
ATOM     74  C   UNL A   1      38.025  32.475  37.675  1.00  0.00     0.041 A 
ATOM     75  F   UNL A   1      37.982  30.452  36.499  1.00  0.00    -0.206 F 
ATOM     76  C   UNL A   1      38.507  33.771  37.837  1.00  0.00     0.022 A 
BRANCH  73  77
ATOM     77  S   UNL A   1      40.189  35.885  37.144  1.00  0.00     0.124 S 
ATOM     78  O   UNL A   1      39.714  36.694  36.024  1.00  0.00    -0.237 OA
ATOM     79  O   UNL A   1      39.699  36.269  38.463  1.00  0.00    -0.237 OA
ATOM     80  O   UNL A   1      41.602  35.520  37.083  1.00  0.00    -0.744 OA
ENDBRANCH  73  77
ENDBRANCH  56  70
BRANCH  57  81
ATOM     81  C   UNL A   1      41.792  26.983  27.447  1.00  0.00     0.023 A 
ATOM     82  C   UNL A   1      41.610  25.591  27.395  1.00  0.00     0.031 A 
ATOM     83  C   UNL A   1      42.391  27.612  26.341  1.00  0.00     0.131 A 
ATOM     84  C   UNL A   1      42.059  24.868  26.278  1.00  0.00     0.055 A 
ATOM     85  C   UNL A   1      42.785  26.896  25.210  1.00  0.00     0.041 A 
ATOM     86  F   UNL A   1      42.583  28.941  26.337  1.00  0.00    -0.206 F 
ATOM     87  C   UNL A   1      42.630  25.513  25.179  1.00  0.00     0.022 A 
BRANCH  84  88
ATOM     88  S   UNL A   1      41.951  23.058  26.314  1.00  0.00     0.124 S 
ATOM     89  O   UNL A   1      42.710  22.693  25.122  1.00  0.00    -0.237 OA
ATOM     90  O   UNL A   1      42.575  22.743  27.595  1.00  0.00    -0.237 OA
ATOM     91  O   UNL A   1      40.515  22.802  26.243  1.00  0.00    -0.744 OA
ENDBRANCH  84  88
ENDBRANCH  57  81
BRANCH  69  92
ATOM     92  C   UNL A   1      44.686  27.847  33.738  1.00  0.00     0.023 A 
ATOM     93  C   UNL A   1      44.711  26.539  34.256  1.00  0.00     0.031 A 
ATOM     94  C   UNL A   1      45.859  28.618  33.842  1.00  0.00     0.131 A 
ATOM     95  C   UNL A   1      45.862  26.064  34.904  1.00  0.00     0.055 A 
ATOM     96  C   UNL A   1      47.023  28.115  34.427  1.00  0.00     0.041 A 
ATOM     97  F   UNL A   1      45.895  29.875  33.372  1.00  0.00    -0.206 F 
ATOM     98  C   UNL A   1      47.024  26.837  34.975  1.00  0.00     0.022 A 
BRANCH  95  99
ATOM     99  S   UNL A   1      45.791  24.457  35.745  1.00  0.00     0.124 S 
ATOM    100  O   UNL A   1      45.705  23.531  34.620  1.00  0.00    -0.237 OA
ATOM    101  O   UNL A   1      47.044  24.439  36.492  1.00  0.00    -0.237 OA
ATOM    102  O   UNL A   1      44.583  24.551  36.563  1.00  0.00    -0.744 OA
ENDBRANCH  95  99
ENDBRANCH  69  92
ENDBRANCH  43  44
ENDBRANCH  35  38
ENDBRANCH  33  34
ENDBRANCH  32  33
ENDBRANCH  31  32
ENDBRANCH   1  31
TORSDOF 20
ENDMDL
MODEL 3
REMARK VINA RESULT:     -10.5      5.727     10.537
REMARK SMILES CC[C@@H](C)N1C(=O)/C(=C/Nc2cccc(C(=O)NCCCCCCNC(=O)c3ccc(-c4c5nc(c(-c6cc(S(=O)(=O)[O-])ccc6F)c6ccc([nH]6)c(-c6cc(S(=O)(=O)[O-])ccc6F)c6nc(c(-c7cc(S(=O)(=O)[O-])ccc7F)c7ccc4[nH]7)C=C6)C=C5)cc3)c2)C(=O)NC1=S
REMARK SMILES IDX 21 1 20 2 19 3 18 4 16 5 17 6 15 8 11 9 12 10 91 11 13 12
REMARK SMILES IDX 14 13 10 14 9 16 5 17 6 18 95 19 7 20 8 21 94 22 96 23 92 24
REMARK SMILES IDX 93 26 3 27 4 28 2 29 1 30 22 31 23 32 24 33 25 34 26 35
REMARK SMILES IDX 27 37 28 38 29 39 90 40 30 41 89 42 31 43 32 44 33 45 83 46
REMARK SMILES IDX 34 47 88 48 82 49 84 50 35 51 87 52 81 53 80 54 36 56 68 57
REMARK SMILES IDX 48 58 67 59 49 60 52 61 66 62 85 63 50 64 51 65 65 67 86 68
REMARK SMILES IDX 53 69 37 70 38 71 46 72 39 73 45 74 47 75 44 76 40 77 41 78
REMARK SMILES IDX 42 79 43 80 69 81 70 82 78 83 71 84 77 85 79 86 76 87 72 88
REMARK SMILES IDX 73 89 74 90 75 91 54 92 55 93 63 94 56 95 62 96 64 97 61 98
REMARK SMILES IDX 57 99 58 100 59 101 60 102
REMARK H PARENT 18 7 10 15 94 25 25 36 84 55 52 66
REMARK Flexibility Score: inf
ROOT
ATOM      1  C   UNL A   1      45.467  24.678  27.441  1.00  0.00     0.002 C 
ENDROOT
BRANCH   1   2
ATOM      2  C   UNL A   1      45.256  23.424  28.290  1.00  0.00     0.021 C 
BRANCH   2   3
ATOM      3  C   UNL A   1      43.813  22.973  28.492  1.00  0.00     0.116 C 
BRANCH   3   4
ATOM      4  N   UNL A   1      43.242  22.297  27.339  1.00  0.00    -0.352 N 
ATOM      5  C   UNL A   1      42.125  22.557  26.578  1.00  0.00     0.251 C 
ATOM      6  O   UNL A   1      41.839  21.772  25.674  1.00  0.00    -0.269 OA
ATOM      7  H   UNL A   1      43.748  21.504  27.049  1.00  0.00     0.163 HD
BRANCH   5   8
ATOM      8  C   UNL A   1      41.223  23.713  26.841  1.00  0.00     0.041 A 
ATOM      9  C   UNL A   1      40.846  26.079  27.304  1.00  0.00     0.039 A 
ATOM     10  C   UNL A   1      39.501  25.793  27.559  1.00  0.00     0.026 A 
ATOM     11  C   UNL A   1      41.665  25.039  26.841  1.00  0.00     0.039 A 
ATOM     12  C   UNL A   1      39.008  24.492  27.430  1.00  0.00     0.003 A 
ATOM     13  C   UNL A   1      39.874  23.450  27.097  1.00  0.00     0.014 A 
BRANCH   9  14
ATOM     14  N   UNL A   1      41.327  27.389  27.513  1.00  0.00    -0.361 N 
ATOM     15  H   UNL A   1      41.864  27.790  26.792  1.00  0.00     0.166 HD
BRANCH  14  16
ATOM     16  C   UNL A   1      41.112  28.157  28.635  1.00  0.00     0.102 C 
ATOM     17  N   UNL A   1      38.867  30.152  30.624  1.00  0.00    -0.282 N 
ATOM     18  C   UNL A   1      40.112  29.642  30.244  1.00  0.00     0.267 C 
ATOM     19  C   UNL A   1      37.899  30.521  29.690  1.00  0.00     0.183 C 
ATOM     20  O   UNL A   1      41.089  29.558  30.988  1.00  0.00    -0.268 OA
ATOM     21  C   UNL A   1      40.193  29.112  28.866  1.00  0.00     0.121 C 
ATOM     22  N   UNL A   1      38.160  30.226  28.373  1.00  0.00    -0.298 N 
ATOM     23  S   UNL A   1      36.430  31.273  29.977  1.00  0.00    -0.040 S 
ATOM     24  C   UNL A   1      39.196  29.496  27.866  1.00  0.00     0.264 C 
ATOM     25  H   UNL A   1      37.521  30.584  27.716  1.00  0.00     0.172 HD
ATOM     26  O   UNL A   1      39.252  29.163  26.685  1.00  0.00    -0.269 OA
BRANCH  17  27
ATOM     27  C   UNL A   1      38.640  30.306  32.095  1.00  0.00     0.090 C 
ATOM     28  C   UNL A   1      39.215  31.615  32.646  1.00  0.00     0.031 C 
BRANCH  27  29
ATOM     29  C   UNL A   1      39.135  29.050  32.854  1.00  0.00     0.022 C 
ATOM     30  C   UNL A   1      38.377  27.785  32.489  1.00  0.00     0.006 C 
ENDBRANCH  27  29
ENDBRANCH  17  27
ENDBRANCH  14  16
ENDBRANCH   9  14
ENDBRANCH   5   8
ENDBRANCH   3   4
ENDBRANCH   2   3
ENDBRANCH   1   2
BRANCH   1  31
ATOM     31  C   UNL A   1      45.298  24.514  25.928  1.00  0.00     0.002 C 
BRANCH  31  32
ATOM     32  C   UNL A   1      46.577  24.240  25.134  1.00  0.00     0.021 C 
BRANCH  32  33
ATOM     33  C   UNL A   1      47.697  25.263  25.320  1.00  0.00     0.116 C 
BRANCH  33  34
ATOM     34  N   UNL A   1      47.629  26.327  24.338  1.00  0.00    -0.352 N 
ATOM     35  C   UNL A   1      47.003  27.551  24.387  1.00  0.00     0.251 C 
ATOM     36  H   UNL A   1      48.108  26.145  23.499  1.00  0.00     0.163 HD
ATOM     37  O   UNL A   1      46.896  28.195  23.344  1.00  0.00    -0.269 OA
BRANCH  35  38
ATOM     38  C   UNL A   1      46.439  28.099  25.649  1.00  0.00     0.039 A 
ATOM     39  C   UNL A   1      45.048  28.097  25.808  1.00  0.00     0.014 A 
ATOM     40  C   UNL A   1      47.235  28.678  26.641  1.00  0.00     0.014 A 
ATOM     41  C   UNL A   1      44.466  28.624  26.966  1.00  0.00     0.010 A 
ATOM     42  C   UNL A   1      46.659  29.136  27.832  1.00  0.00     0.010 A 
ATOM     43  C   UNL A   1      45.266  29.122  28.007  1.00  0.00    -0.014 A 
BRANCH  43  44
ATOM     44  C   UNL A   1      44.654  29.638  29.267  1.00  0.00     0.031 A 
ATOM     45  C   UNL A   1      44.266  31.089  29.394  1.00  0.00     0.074 A 
ATOM     46  C   UNL A   1      44.469  28.811  30.315  1.00  0.00     0.049 A 
ATOM     47  N   UNL A   1      43.760  31.728  30.419  1.00  0.00    -0.248 NA
ATOM     48  C   UNL A   1      44.499  31.935  28.216  1.00  0.00     0.031 C 
ATOM     49  C   UNL A   1      44.810  27.387  30.337  1.00  0.00     0.029 A 
ATOM     50  N   UNL A   1      43.945  29.043  31.565  1.00  0.00    -0.354 N 
ATOM     51  C   UNL A   1      43.622  33.054  30.014  1.00  0.00     0.074 A 
ATOM     52  C   UNL A   1      44.165  33.132  28.674  1.00  0.00     0.031 C 
ATOM     53  C   UNL A   1      44.453  26.867  31.523  1.00  0.00     0.029 A 
ATOM     54  C   UNL A   1      43.909  27.926  32.367  1.00  0.00     0.049 A 
ATOM     55  H   UNL A   1      43.626  29.926  31.858  1.00  0.00     0.167 HD
ATOM     56  C   UNL A   1      43.073  34.101  30.683  1.00  0.00     0.034 A 
ATOM     57  C   UNL A   1      43.492  27.768  33.641  1.00  0.00     0.034 A 
ATOM     58  C   UNL A   1      42.537  34.011  32.021  1.00  0.00     0.049 A 
ATOM     59  C   UNL A   1      42.946  28.957  34.390  1.00  0.00     0.074 A 
ATOM     60  C   UNL A   1      41.925  35.001  32.773  1.00  0.00     0.029 A 
ATOM     61  N   UNL A   1      42.559  32.872  32.817  1.00  0.00    -0.354 N 
ATOM     62  N   UNL A   1      42.791  30.195  33.979  1.00  0.00    -0.248 NA
ATOM     63  C   UNL A   1      42.514  28.725  35.775  1.00  0.00     0.031 C 
ATOM     64  C   UNL A   1      41.654  34.485  34.045  1.00  0.00     0.029 A 
ATOM     65  C   UNL A   1      42.009  33.146  34.062  1.00  0.00     0.049 A 
ATOM     66  H   UNL A   1      42.912  31.997  32.538  1.00  0.00     0.167 HD
ATOM     67  C   UNL A   1      42.211  30.878  35.046  1.00  0.00     0.074 A 
ATOM     68  C   UNL A   1      42.034  29.913  36.111  1.00  0.00     0.031 C 
ATOM     69  C   UNL A   1      41.850  32.186  35.131  1.00  0.00     0.034 A 
BRANCH  56  70
ATOM     70  C   UNL A   1      43.064  35.441  29.980  1.00  0.00     0.023 A 
ATOM     71  C   UNL A   1      44.006  36.440  30.279  1.00  0.00     0.031 A 
ATOM     72  C   UNL A   1      42.071  35.744  29.030  1.00  0.00     0.131 A 
ATOM     73  C   UNL A   1      43.879  37.719  29.718  1.00  0.00     0.055 A 
ATOM     74  C   UNL A   1      42.009  36.988  28.398  1.00  0.00     0.041 A 
ATOM     75  F   UNL A   1      41.129  34.842  28.711  1.00  0.00    -0.206 F 
ATOM     76  C   UNL A   1      42.903  37.993  28.757  1.00  0.00     0.022 A 
BRANCH  73  77
ATOM     77  S   UNL A   1      44.884  39.065  30.401  1.00  0.00     0.124 S 
ATOM     78  O   UNL A   1      44.248  40.238  29.807  1.00  0.00    -0.237 OA
ATOM     79  O   UNL A   1      44.703  38.897  31.838  1.00  0.00    -0.237 OA
ATOM     80  O   UNL A   1      46.227  38.777  29.902  1.00  0.00    -0.744 OA
ENDBRANCH  73  77
ENDBRANCH  56  70
BRANCH  57  81
ATOM     81  C   UNL A   1      43.577  26.431  34.297  1.00  0.00     0.023 A 
ATOM     82  C   UNL A   1      44.819  25.823  34.540  1.00  0.00     0.031 A 
ATOM     83  C   UNL A   1      42.415  25.727  34.662  1.00  0.00     0.131 A 
ATOM     84  C   UNL A   1      44.871  24.534  35.093  1.00  0.00     0.055 A 
ATOM     85  C   UNL A   1      42.473  24.469  35.262  1.00  0.00     0.041 A 
ATOM     86  F   UNL A   1      41.202  26.265  34.457  1.00  0.00    -0.206 F 
ATOM     87  C   UNL A   1      43.708  23.860  35.470  1.00  0.00     0.022 A 
BRANCH  84  88
ATOM     88  S   UNL A   1      46.484  23.717  35.245  1.00  0.00     0.124 S 
ATOM     89  O   UNL A   1      46.836  24.013  36.629  1.00  0.00    -0.237 OA
ATOM     90  O   UNL A   1      46.148  22.328  34.948  1.00  0.00    -0.237 OA
ATOM     91  O   UNL A   1      47.299  24.388  34.235  1.00  0.00    -0.744 OA
ENDBRANCH  84  88
ENDBRANCH  57  81
BRANCH  69  92
ATOM     92  C   UNL A   1      41.183  32.637  36.411  1.00  0.00     0.023 A 
ATOM     93  C   UNL A   1      39.842  32.329  36.700  1.00  0.00     0.031 A 
ATOM     94  C   UNL A   1      41.901  33.400  37.350  1.00  0.00     0.131 A 
ATOM     95  C   UNL A   1      39.244  32.830  37.868  1.00  0.00     0.055 A 
ATOM     96  C   UNL A   1      41.321  33.837  38.543  1.00  0.00     0.041 A 
ATOM     97  F   UNL A   1      43.183  33.730  37.128  1.00  0.00    -0.206 F 
ATOM     98  C   UNL A   1      39.981  33.566  38.800  1.00  0.00     0.022 A 
BRANCH  95  99
ATOM     99  S   UNL A   1      37.460  32.596  38.106  1.00  0.00     0.124 S 
ATOM    100  O   UNL A   1      36.907  33.285  36.944  1.00  0.00    -0.237 OA
ATOM    101  O   UNL A   1      37.334  31.142  38.105  1.00  0.00    -0.237 OA
ATOM    102  O   UNL A   1      37.197  33.240  39.391  1.00  0.00    -0.744 OA
ENDBRANCH  95  99
ENDBRANCH  69  92
ENDBRANCH  43  44
ENDBRANCH  35  38
ENDBRANCH  33  34
ENDBRANCH  32  33
ENDBRANCH  31  32
ENDBRANCH   1  31
TORSDOF 20
ENDMDL
