MODEL 1
REMARK VINA RESULT:     -11.6      0.000      0.000
REMARK SMILES Cc1cc(NC(=O)CC(C)(C)CC(=O)NCCCCCCNC(=O)c2ccc(-c3c4nc(c(-c5cc(S(=O)(=O)[O-])ccc5F)c5ccc([nH]5)c(-c5cc(S(=O)(=O)[O-])ccc5F)c5nc(c(-c6cc(S(=O)(=O)[O-])ccc6F)c6ccc3[nH]6)C=C5)C=C4)cc2)ncc1Br
REMARK SMILES IDX 18 1 17 2 16 3 15 4 13 5 14 6 12 8 9 9 10 10 11 11 8 12 6 13
REMARK SMILES IDX 5 14 7 16 4 17 1 18 2 19 3 20 90 21 89 22 91 23 88 24 19 25
REMARK SMILES IDX 20 26 21 27 22 28 23 29 24 31 25 32 26 33 87 34 27 35 86 36
REMARK SMILES IDX 28 37 29 38 30 39 80 40 31 41 85 42 79 43 81 44 32 45 84 46
REMARK SMILES IDX 78 47 77 48 33 50 65 51 45 52 64 53 46 54 49 55 63 56 82 57
REMARK SMILES IDX 47 58 48 59 62 61 83 62 50 63 34 64 35 65 43 66 36 67 42 68
REMARK SMILES IDX 44 69 41 70 37 71 38 72 39 73 40 74 66 75 67 76 75 77 68 78
REMARK SMILES IDX 74 79 76 80 73 81 69 82 70 83 71 84 72 85 51 86 52 87 60 88
REMARK SMILES IDX 53 89 59 90 61 91 58 92 54 93 55 94 56 95 57 96
REMARK H PARENT 15 7 5 15 22 30 81 49 49 60
REMARK Flexibility Score: inf
ROOT
ATOM      1  C   UNL A   1      32.877  28.581  23.635  1.00  0.00     0.002 C 
ENDROOT
BRANCH   1   2
ATOM      2  C   UNL A   1      31.532  28.860  22.965  1.00  0.00     0.021 C 
BRANCH   2   3
ATOM      3  C   UNL A   1      30.896  27.615  22.351  1.00  0.00     0.116 C 
BRANCH   3   4
ATOM      4  N   UNL A   1      31.851  26.972  21.477  1.00  0.00    -0.356 N 
ATOM      5  C   UNL A   1      32.297  25.689  21.482  1.00  0.00     0.220 C 
ATOM      6  O   UNL A   1      33.246  25.403  20.752  1.00  0.00    -0.275 OA
ATOM      7  H   UNL A   1      32.235  27.548  20.776  1.00  0.00     0.163 HD
BRANCH   5   8
ATOM      8  C   UNL A   1      31.575  24.632  22.296  1.00  0.00     0.107 C 
BRANCH   8   9
ATOM      9  C   UNL A   1      32.344  23.779  23.345  1.00  0.00    -0.018 C 
ATOM     10  C   UNL A   1      33.383  24.763  23.936  1.00  0.00     0.012 C 
ATOM     11  C   UNL A   1      33.170  22.634  22.728  1.00  0.00     0.012 C 
BRANCH   9  12
ATOM     12  C   UNL A   1      31.374  23.111  24.370  1.00  0.00     0.107 C 
BRANCH  12  13
ATOM     13  C   UNL A   1      31.773  23.145  25.831  1.00  0.00     0.226 C 
ATOM     14  N   UNL A   1      32.446  22.115  26.416  1.00  0.00    -0.311 N 
ATOM     15  H   UNL A   1      32.675  22.248  27.364  1.00  0.00     0.171 HD
ATOM     16  O   UNL A   1      31.542  24.139  26.526  1.00  0.00    -0.275 OA
BRANCH  14  17
ATOM     17  C   UNL A   1      32.862  20.900  25.869  1.00  0.00     0.132 A 
ATOM     18  C   UNL A   1      36.190  19.509  24.738  1.00  0.00     0.046 C 
ATOM     19  C   UNL A   1      34.710  19.639  24.950  1.00  0.00    -0.032 A 
ATOM     20  C   UNL A   1      34.232  20.718  25.713  1.00  0.00     0.051 A 
ATOM     21  C   UNL A   1      33.781  18.729  24.441  1.00  0.00     0.039 A 
ATOM     22  C   UNL A   1      32.440  18.944  24.714  1.00  0.00     0.129 A 
ATOM     23  Br  UNL A   1      34.258  17.245  23.371  1.00  0.00    -0.049 Br
ATOM     24  N   UNL A   1      31.971  20.007  25.412  1.00  0.00    -0.238 NA
ENDBRANCH  14  17
ENDBRANCH  12  13
ENDBRANCH   9  12
ENDBRANCH   8   9
ENDBRANCH   5   8
ENDBRANCH   3   4
ENDBRANCH   2   3
ENDBRANCH   1   2
BRANCH   1  25
ATOM     25  C   UNL A   1      33.056  29.266  24.990  1.00  0.00     0.002 C 
BRANCH  25  26
ATOM     26  C   UNL A   1      31.845  30.076  25.455  1.00  0.00     0.021 C 
BRANCH  26  27
ATOM     27  C   UNL A   1      31.989  30.650  26.859  1.00  0.00     0.116 C 
BRANCH  27  28
ATOM     28  N   UNL A   1      31.931  32.105  26.856  1.00  0.00    -0.352 N 
ATOM     29  C   UNL A   1      32.778  33.006  27.452  1.00  0.00     0.251 C 
ATOM     30  H   UNL A   1      31.180  32.498  26.355  1.00  0.00     0.163 HD
ATOM     31  O   UNL A   1      32.448  34.183  27.565  1.00  0.00    -0.269 OA
BRANCH  29  32
ATOM     32  C   UNL A   1      34.076  32.530  27.973  1.00  0.00     0.039 A 
ATOM     33  C   UNL A   1      34.214  31.202  28.374  1.00  0.00     0.014 A 
ATOM     34  C   UNL A   1      35.142  33.421  28.101  1.00  0.00     0.014 A 
ATOM     35  C   UNL A   1      35.344  30.814  29.078  1.00  0.00     0.010 A 
ATOM     36  C   UNL A   1      36.329  32.993  28.706  1.00  0.00     0.010 A 
ATOM     37  C   UNL A   1      36.422  31.700  29.244  1.00  0.00    -0.014 A 
BRANCH  37  38
ATOM     38  C   UNL A   1      37.640  31.217  29.949  1.00  0.00     0.031 A 
ATOM     39  C   UNL A   1      37.928  31.601  31.374  1.00  0.00     0.074 A 
ATOM     40  C   UNL A   1      38.455  30.360  29.302  1.00  0.00     0.049 A 
ATOM     41  N   UNL A   1      38.891  31.183  32.156  1.00  0.00    -0.248 NA
ATOM     42  C   UNL A   1      37.032  32.582  32.007  1.00  0.00     0.031 C 
ATOM     43  C   UNL A   1      38.281  29.935  27.912  1.00  0.00     0.029 A 
ATOM     44  N   UNL A   1      39.560  29.665  29.724  1.00  0.00    -0.354 N 
ATOM     45  C   UNL A   1      38.728  31.855  33.361  1.00  0.00     0.074 A 
ATOM     46  C   UNL A   1      37.599  32.743  33.196  1.00  0.00     0.031 C 
ATOM     47  C   UNL A   1      39.191  28.999  27.621  1.00  0.00     0.029 A 
ATOM     48  C   UNL A   1      40.071  28.814  28.771  1.00  0.00     0.049 A 
ATOM     49  H   UNL A   1      39.951  29.764  30.623  1.00  0.00     0.167 HD
ATOM     50  C   UNL A   1      39.445  31.726  34.505  1.00  0.00     0.034 A 
ATOM     51  C   UNL A   1      41.132  27.983  28.804  1.00  0.00     0.034 A 
ATOM     52  C   UNL A   1      40.558  30.820  34.654  1.00  0.00     0.049 A 
ATOM     53  C   UNL A   1      41.921  27.874  30.081  1.00  0.00     0.074 A 
ATOM     54  C   UNL A   1      41.315  30.583  35.788  1.00  0.00     0.029 A 
ATOM     55  N   UNL A   1      41.075  30.007  33.654  1.00  0.00    -0.354 N 
ATOM     56  N   UNL A   1      41.704  28.459  31.236  1.00  0.00    -0.248 NA
ATOM     57  C   UNL A   1      43.094  26.991  30.067  1.00  0.00     0.031 C 
ATOM     58  C   UNL A   1      42.336  29.692  35.453  1.00  0.00     0.029 A 
ATOM     59  C   UNL A   1      42.167  29.300  34.135  1.00  0.00     0.049 A 
ATOM     60  H   UNL A   1      40.719  29.943  32.739  1.00  0.00     0.167 HD
ATOM     61  C   UNL A   1      42.710  28.011  32.087  1.00  0.00     0.074 A 
ATOM     62  C   UNL A   1      43.506  27.069  31.326  1.00  0.00     0.031 C 
ATOM     63  C   UNL A   1      42.961  28.363  33.373  1.00  0.00     0.034 A 
BRANCH  50  64
ATOM     64  C   UNL A   1      39.061  32.559  35.706  1.00  0.00     0.023 A 
ATOM     65  C   UNL A   1      39.544  33.877  35.830  1.00  0.00     0.031 A 
ATOM     66  C   UNL A   1      38.357  32.008  36.791  1.00  0.00     0.131 A 
ATOM     67  C   UNL A   1      39.359  34.578  37.028  1.00  0.00     0.055 A 
ATOM     68  C   UNL A   1      38.130  32.730  37.964  1.00  0.00     0.041 A 
ATOM     69  F   UNL A   1      37.879  30.753  36.728  1.00  0.00    -0.206 F 
ATOM     70  C   UNL A   1      38.647  34.015  38.092  1.00  0.00     0.022 A 
BRANCH  67  71
ATOM     71  S   UNL A   1      40.105  36.211  37.286  1.00  0.00     0.124 S 
ATOM     72  O   UNL A   1      40.010  36.798  35.951  1.00  0.00    -0.237 OA
ATOM     73  O   UNL A   1      39.218  36.795  38.287  1.00  0.00    -0.237 OA
ATOM     74  O   UNL A   1      41.460  35.911  37.737  1.00  0.00    -0.744 OA
ENDBRANCH  67  71
ENDBRANCH  50  64
BRANCH  51  75
ATOM     75  C   UNL A   1      41.458  27.174  27.592  1.00  0.00     0.023 A 
ATOM     76  C   UNL A   1      41.176  25.795  27.552  1.00  0.00     0.031 A 
ATOM     77  C   UNL A   1      42.165  27.734  26.517  1.00  0.00     0.131 A 
ATOM     78  C   UNL A   1      41.679  25.011  26.508  1.00  0.00     0.055 A 
ATOM     79  C   UNL A   1      42.587  26.962  25.433  1.00  0.00     0.041 A 
ATOM     80  F   UNL A   1      42.471  29.040  26.513  1.00  0.00    -0.206 F 
ATOM     81  C   UNL A   1      42.365  25.589  25.436  1.00  0.00     0.022 A 
BRANCH  78  82
ATOM     82  S   UNL A   1      41.602  23.200  26.589  1.00  0.00     0.124 S 
ATOM     83  O   UNL A   1      42.432  22.807  25.455  1.00  0.00    -0.237 OA
ATOM     84  O   UNL A   1      42.169  22.938  27.910  1.00  0.00    -0.237 OA
ATOM     85  O   UNL A   1      40.177  22.910  26.460  1.00  0.00    -0.744 OA
ENDBRANCH  78  82
ENDBRANCH  51  75
BRANCH  63  86
ATOM     86  C   UNL A   1      44.159  27.753  34.065  1.00  0.00     0.023 A 
ATOM     87  C   UNL A   1      44.020  26.564  34.807  1.00  0.00     0.031 A 
ATOM     88  C   UNL A   1      45.397  28.417  34.104  1.00  0.00     0.131 A 
ATOM     89  C   UNL A   1      45.085  26.102  35.591  1.00  0.00     0.055 A 
ATOM     90  C   UNL A   1      46.474  27.921  34.840  1.00  0.00     0.041 A 
ATOM     91  F   UNL A   1      45.579  29.561  33.426  1.00  0.00    -0.206 F 
ATOM     92  C   UNL A   1      46.315  26.767  35.602  1.00  0.00     0.022 A 
BRANCH  89  93
ATOM     93  S   UNL A   1      44.884  24.681  36.702  1.00  0.00     0.124 S 
ATOM     94  O   UNL A   1      44.261  23.696  35.820  1.00  0.00    -0.237 OA
ATOM     95  O   UNL A   1      46.264  24.391  37.083  1.00  0.00    -0.237 OA
ATOM     96  O   UNL A   1      44.030  25.186  37.770  1.00  0.00    -0.744 OA
ENDBRANCH  89  93
ENDBRANCH  63  86
ENDBRANCH  37  38
ENDBRANCH  29  32
ENDBRANCH  27  28
ENDBRANCH  26  27
ENDBRANCH  25  26
ENDBRANCH   1  25
TORSDOF 20
ENDMDL
MODEL 2
REMARK VINA RESULT:     -11.5      6.112      9.646
REMARK SMILES Cc1cc(NC(=O)CC(C)(C)CC(=O)NCCCCCCNC(=O)c2ccc(-c3c4nc(c(-c5cc(S(=O)(=O)[O-])ccc5F)c5ccc([nH]5)c(-c5cc(S(=O)(=O)[O-])ccc5F)c5nc(c(-c6cc(S(=O)(=O)[O-])ccc6F)c6ccc3[nH]6)C=C5)C=C4)cc2)ncc1Br
REMARK SMILES IDX 18 1 17 2 16 3 15 4 13 5 14 6 12 8 9 9 10 10 11 11 8 12 6 13
REMARK SMILES IDX 5 14 7 16 4 17 1 18 2 19 3 20 90 21 89 22 91 23 88 24 19 25
REMARK SMILES IDX 20 26 21 27 22 28 23 29 24 31 25 32 26 33 87 34 27 35 86 36
REMARK SMILES IDX 28 37 29 38 30 39 80 40 31 41 85 42 79 43 81 44 32 45 84 46
REMARK SMILES IDX 78 47 77 48 33 50 65 51 45 52 64 53 46 54 49 55 63 56 82 57
REMARK SMILES IDX 47 58 48 59 62 61 83 62 50 63 34 64 35 65 43 66 36 67 42 68
REMARK SMILES IDX 44 69 41 70 37 71 38 72 39 73 40 74 66 75 67 76 75 77 68 78
REMARK SMILES IDX 74 79 76 80 73 81 69 82 70 83 71 84 72 85 51 86 52 87 60 88
REMARK SMILES IDX 53 89 59 90 61 91 58 92 54 93 55 94 56 95 57 96
REMARK H PARENT 15 7 5 15 22 30 81 49 49 60
REMARK Flexibility Score: inf
ROOT
ATOM      1  C   UNL A   1      39.833  23.590  26.324  1.00  0.00     0.002 C 
ENDROOT
BRANCH   1   2
ATOM      2  C   UNL A   1      38.437  24.183  26.508  1.00  0.00     0.021 C 
BRANCH   2   3
ATOM      3  C   UNL A   1      37.329  23.299  25.938  1.00  0.00     0.116 C 
BRANCH   3   4
ATOM      4  N   UNL A   1      37.285  23.454  24.502  1.00  0.00    -0.356 N 
ATOM      5  C   UNL A   1      36.392  22.954  23.608  1.00  0.00     0.220 C 
ATOM      6  O   UNL A   1      36.649  23.068  22.409  1.00  0.00    -0.275 OA
ATOM      7  H   UNL A   1      38.007  24.000  24.115  1.00  0.00     0.163 HD
BRANCH   5   8
ATOM      8  C   UNL A   1      35.080  22.363  24.087  1.00  0.00     0.107 C 
BRANCH   8   9
ATOM      9  C   UNL A   1      33.813  23.256  24.223  1.00  0.00    -0.018 C 
ATOM     10  C   UNL A   1      32.994  22.936  22.948  1.00  0.00     0.012 C 
ATOM     11  C   UNL A   1      34.108  24.766  24.152  1.00  0.00     0.012 C 
BRANCH   9  12
ATOM     12  C   UNL A   1      33.082  23.020  25.582  1.00  0.00     0.107 C 
BRANCH  12  13
ATOM     13  C   UNL A   1      31.634  22.577  25.527  1.00  0.00     0.226 C 
ATOM     14  N   UNL A   1      30.612  23.473  25.435  1.00  0.00    -0.311 N 
ATOM     15  H   UNL A   1      29.712  23.079  25.386  1.00  0.00     0.171 HD
ATOM     16  O   UNL A   1      31.340  21.378  25.513  1.00  0.00    -0.275 OA
BRANCH  14  17
ATOM     17  C   UNL A   1      30.654  24.868  25.399  1.00  0.00     0.132 A 
ATOM     18  C   UNL A   1      30.574  27.444  22.634  1.00  0.00     0.046 C 
ATOM     19  C   UNL A   1      30.726  26.838  23.998  1.00  0.00    -0.032 A 
ATOM     20  C   UNL A   1      30.456  25.469  24.160  1.00  0.00     0.051 A 
ATOM     21  C   UNL A   1      31.108  27.572  25.123  1.00  0.00     0.039 A 
ATOM     22  C   UNL A   1      31.202  26.907  26.335  1.00  0.00     0.129 A 
ATOM     23  Br  UNL A   1      31.537  29.412  25.067  1.00  0.00    -0.049 Br
ATOM     24  N   UNL A   1      30.984  25.579  26.487  1.00  0.00    -0.238 NA
ENDBRANCH  14  17
ENDBRANCH  12  13
ENDBRANCH   9  12
ENDBRANCH   8   9
ENDBRANCH   5   8
ENDBRANCH   3   4
ENDBRANCH   2   3
ENDBRANCH   1   2
BRANCH   1  25
ATOM     25  C   UNL A   1      40.196  22.513  27.347  1.00  0.00     0.002 C 
BRANCH  25  26
ATOM     26  C   UNL A   1      40.120  21.082  26.814  1.00  0.00     0.021 C 
BRANCH  26  27
ATOM     27  C   UNL A   1      41.072  20.115  27.508  1.00  0.00     0.116 C 
BRANCH  27  28
ATOM     28  N   UNL A   1      41.877  19.370  26.550  1.00  0.00    -0.352 N 
ATOM     29  C   UNL A   1      42.823  19.833  25.670  1.00  0.00     0.251 C 
ATOM     30  H   UNL A   1      41.723  18.397  26.532  1.00  0.00     0.163 HD
ATOM     31  O   UNL A   1      43.227  19.114  24.760  1.00  0.00    -0.269 OA
BRANCH  29  32
ATOM     32  C   UNL A   1      43.326  21.214  25.822  1.00  0.00     0.039 A 
ATOM     33  C   UNL A   1      44.056  21.561  26.958  1.00  0.00     0.014 A 
ATOM     34  C   UNL A   1      43.032  22.172  24.851  1.00  0.00     0.014 A 
ATOM     35  C   UNL A   1      44.323  22.897  27.217  1.00  0.00     0.010 A 
ATOM     36  C   UNL A   1      43.410  23.503  25.060  1.00  0.00     0.010 A 
ATOM     37  C   UNL A   1      44.014  23.886  26.267  1.00  0.00    -0.014 A 
BRANCH  37  38
ATOM     38  C   UNL A   1      44.380  25.296  26.562  1.00  0.00     0.031 A 
ATOM     39  C   UNL A   1      43.417  26.233  27.240  1.00  0.00     0.074 A 
ATOM     40  C   UNL A   1      45.631  25.707  26.272  1.00  0.00     0.049 A 
ATOM     41  N   UNL A   1      43.622  27.458  27.654  1.00  0.00    -0.248 NA
ATOM     42  C   UNL A   1      42.051  25.744  27.481  1.00  0.00     0.031 C 
ATOM     43  C   UNL A   1      46.639  24.888  25.597  1.00  0.00     0.029 A 
ATOM     44  N   UNL A   1      46.283  26.886  26.533  1.00  0.00    -0.354 N 
ATOM     45  C   UNL A   1      42.414  27.890  28.188  1.00  0.00     0.074 A 
ATOM     46  C   UNL A   1      41.467  26.813  28.008  1.00  0.00     0.031 C 
ATOM     47  C   UNL A   1      47.799  25.553  25.568  1.00  0.00     0.029 A 
ATOM     48  C   UNL A   1      47.602  26.881  26.142  1.00  0.00     0.049 A 
ATOM     49  H   UNL A   1      45.850  27.660  26.960  1.00  0.00     0.167 HD
ATOM     50  C   UNL A   1      42.131  29.071  28.791  1.00  0.00     0.034 A 
ATOM     51  C   UNL A   1      48.552  27.835  26.223  1.00  0.00     0.034 A 
ATOM     52  C   UNL A   1      43.097  30.127  28.977  1.00  0.00     0.049 A 
ATOM     53  C   UNL A   1      48.204  29.144  26.880  1.00  0.00     0.074 A 
ATOM     54  C   UNL A   1      42.918  31.340  29.619  1.00  0.00     0.029 A 
ATOM     55  N   UNL A   1      44.410  30.105  28.528  1.00  0.00    -0.354 N 
ATOM     56  N   UNL A   1      47.079  29.505  27.451  1.00  0.00    -0.248 NA
ATOM     57  C   UNL A   1      49.251  30.173  26.912  1.00  0.00     0.031 C 
ATOM     58  C   UNL A   1      44.093  32.082  29.488  1.00  0.00     0.029 A 
ATOM     59  C   UNL A   1      45.039  31.301  28.843  1.00  0.00     0.049 A 
ATOM     60  H   UNL A   1      44.833  29.353  28.056  1.00  0.00     0.167 HD
ATOM     61  C   UNL A   1      47.283  30.801  27.914  1.00  0.00     0.074 A 
ATOM     62  C   UNL A   1      48.656  31.140  27.599  1.00  0.00     0.031 C 
ATOM     63  C   UNL A   1      46.408  31.638  28.526  1.00  0.00     0.034 A 
BRANCH  50  64
ATOM     64  C   UNL A   1      40.734  29.307  29.318  1.00  0.00     0.023 A 
ATOM     65  C   UNL A   1      40.479  29.209  30.700  1.00  0.00     0.031 A 
ATOM     66  C   UNL A   1      39.638  29.472  28.453  1.00  0.00     0.131 A 
ATOM     67  C   UNL A   1      39.160  29.227  31.169  1.00  0.00     0.055 A 
ATOM     68  C   UNL A   1      38.328  29.541  28.931  1.00  0.00     0.041 A 
ATOM     69  F   UNL A   1      39.824  29.567  27.126  1.00  0.00    -0.206 F 
ATOM     70  C   UNL A   1      38.084  29.402  30.293  1.00  0.00     0.022 A 
BRANCH  67  71
ATOM     71  S   UNL A   1      38.781  28.939  32.920  1.00  0.00     0.124 S 
ATOM     72  O   UNL A   1      37.500  28.241  32.839  1.00  0.00    -0.237 OA
ATOM     73  O   UNL A   1      39.911  28.118  33.344  1.00  0.00    -0.237 OA
ATOM     74  O   UNL A   1      38.723  30.280  33.491  1.00  0.00    -0.744 OA
ENDBRANCH  67  71
ENDBRANCH  50  64
BRANCH  51  75
ATOM     75  C   UNL A   1      49.919  27.543  25.698  1.00  0.00     0.023 A 
ATOM     76  C   UNL A   1      50.227  27.754  24.340  1.00  0.00     0.031 A 
ATOM     77  C   UNL A   1      50.891  26.936  26.507  1.00  0.00     0.131 A 
ATOM     78  C   UNL A   1      51.433  27.276  23.816  1.00  0.00     0.055 A 
ATOM     79  C   UNL A   1      52.130  26.541  25.998  1.00  0.00     0.041 A 
ATOM     80  F   UNL A   1      50.642  26.700  27.805  1.00  0.00    -0.206 F 
ATOM     81  C   UNL A   1      52.397  26.690  24.641  1.00  0.00     0.022 A 
BRANCH  78  82
ATOM     82  S   UNL A   1      51.721  27.253  22.025  1.00  0.00     0.124 S 
ATOM     83  O   UNL A   1      52.819  26.299  21.903  1.00  0.00    -0.237 OA
ATOM     84  O   UNL A   1      50.427  26.795  21.523  1.00  0.00    -0.237 OA
ATOM     85  O   UNL A   1      52.050  28.639  21.710  1.00  0.00    -0.744 OA
ENDBRANCH  78  82
ENDBRANCH  51  75
BRANCH  63  86
ATOM     86  C   UNL A   1      46.879  33.027  28.894  1.00  0.00     0.023 A 
ATOM     87  C   UNL A   1      46.743  34.088  27.978  1.00  0.00     0.031 A 
ATOM     88  C   UNL A   1      47.585  33.267  30.086  1.00  0.00     0.131 A 
ATOM     89  C   UNL A   1      47.341  35.325  28.249  1.00  0.00     0.055 A 
ATOM     90  C   UNL A   1      48.128  34.520  30.378  1.00  0.00     0.041 A 
ATOM     91  F   UNL A   1      47.755  32.287  30.987  1.00  0.00    -0.206 F 
ATOM     92  C   UNL A   1      48.022  35.551  29.450  1.00  0.00     0.022 A 
BRANCH  89  93
ATOM     93  S   UNL A   1      47.344  36.656  27.014  1.00  0.00     0.124 S 
ATOM     94  O   UNL A   1      46.388  37.600  27.587  1.00  0.00    -0.237 OA
ATOM     95  O   UNL A   1      48.738  37.091  27.035  1.00  0.00    -0.237 OA
ATOM     96  O   UNL A   1      46.909  35.999  25.787  1.00  0.00    -0.744 OA
ENDBRANCH  89  93
ENDBRANCH  63  86
ENDBRANCH  37  38
ENDBRANCH  29  32
ENDBRANCH  27  28
ENDBRANCH  26  27
ENDBRANCH  25  26
ENDBRANCH   1  25
TORSDOF 20
ENDMDL
MODEL 3
REMARK VINA RESULT:     -11.4      2.983      8.388
REMARK SMILES Cc1cc(NC(=O)CC(C)(C)CC(=O)NCCCCCCNC(=O)c2ccc(-c3c4nc(c(-c5cc(S(=O)(=O)[O-])ccc5F)c5ccc([nH]5)c(-c5cc(S(=O)(=O)[O-])ccc5F)c5nc(c(-c6cc(S(=O)(=O)[O-])ccc6F)c6ccc3[nH]6)C=C5)C=C4)cc2)ncc1Br
REMARK SMILES IDX 18 1 17 2 16 3 15 4 13 5 14 6 12 8 9 9 10 10 11 11 8 12 6 13
REMARK SMILES IDX 5 14 7 16 4 17 1 18 2 19 3 20 90 21 89 22 91 23 88 24 19 25
REMARK SMILES IDX 20 26 21 27 22 28 23 29 24 31 25 32 26 33 87 34 27 35 86 36
REMARK SMILES IDX 28 37 29 38 30 39 80 40 31 41 85 42 79 43 81 44 32 45 84 46
REMARK SMILES IDX 78 47 77 48 33 50 65 51 45 52 64 53 46 54 49 55 63 56 82 57
REMARK SMILES IDX 47 58 48 59 62 61 83 62 50 63 34 64 35 65 43 66 36 67 42 68
REMARK SMILES IDX 44 69 41 70 37 71 38 72 39 73 40 74 66 75 67 76 75 77 68 78
REMARK SMILES IDX 74 79 76 80 73 81 69 82 70 83 71 84 72 85 51 86 52 87 60 88
REMARK SMILES IDX 53 89 59 90 61 91 58 92 54 93 55 94 56 95 57 96
REMARK H PARENT 15 7 5 15 22 30 81 49 49 60
REMARK Flexibility Score: inf
ROOT
ATOM      1  C   UNL A   1      31.696  28.888  24.766  1.00  0.00     0.002 C 
ENDROOT
BRANCH   1   2
ATOM      2  C   UNL A   1      30.543  28.107  24.138  1.00  0.00     0.021 C 
BRANCH   2   3
ATOM      3  C   UNL A   1      30.540  28.162  22.612  1.00  0.00     0.116 C 
BRANCH   3   4
ATOM      4  N   UNL A   1      31.874  27.903  22.122  1.00  0.00    -0.356 N 
ATOM      5  C   UNL A   1      32.542  26.724  22.022  1.00  0.00     0.220 C 
ATOM      6  O   UNL A   1      33.740  26.760  21.738  1.00  0.00    -0.275 OA
ATOM      7  H   UNL A   1      32.372  28.695  21.817  1.00  0.00     0.163 HD
BRANCH   5   8
ATOM      8  C   UNL A   1      31.799  25.409  22.165  1.00  0.00     0.107 C 
BRANCH   8   9
ATOM      9  C   UNL A   1      32.141  24.429  23.323  1.00  0.00    -0.018 C 
ATOM     10  C   UNL A   1      33.226  23.503  22.718  1.00  0.00     0.012 C 
ATOM     11  C   UNL A   1      30.978  23.496  23.711  1.00  0.00     0.012 C 
BRANCH   9  12
ATOM     12  C   UNL A   1      32.541  25.189  24.626  1.00  0.00     0.107 C 
BRANCH  12  13
ATOM     13  C   UNL A   1      31.922  24.718  25.926  1.00  0.00     0.226 C 
ATOM     14  N   UNL A   1      32.485  23.724  26.670  1.00  0.00    -0.311 N 
ATOM     15  H   UNL A   1      32.014  23.509  27.507  1.00  0.00     0.171 HD
ATOM     16  O   UNL A   1      30.910  25.261  26.379  1.00  0.00    -0.275 OA
BRANCH  14  17
ATOM     17  C   UNL A   1      33.631  22.968  26.421  1.00  0.00     0.132 A 
ATOM     18  C   UNL A   1      37.297  23.785  25.989  1.00  0.00     0.046 C 
ATOM     19  C   UNL A   1      36.011  23.011  25.992  1.00  0.00    -0.032 A 
ATOM     20  C   UNL A   1      34.848  23.639  26.470  1.00  0.00     0.051 A 
ATOM     21  C   UNL A   1      35.914  21.687  25.559  1.00  0.00     0.039 A 
ATOM     22  C   UNL A   1      34.676  21.069  25.621  1.00  0.00     0.129 A 
ATOM     23  Br  UNL A   1      37.376  20.712  24.860  1.00  0.00    -0.049 Br
ATOM     24  N   UNL A   1      33.544  21.684  26.040  1.00  0.00    -0.238 NA
ENDBRANCH  14  17
ENDBRANCH  12  13
ENDBRANCH   9  12
ENDBRANCH   8   9
ENDBRANCH   5   8
ENDBRANCH   3   4
ENDBRANCH   2   3
ENDBRANCH   1   2
BRANCH   1  25
ATOM     25  C   UNL A   1      31.786  28.759  26.287  1.00  0.00     0.002 C 
BRANCH  25  26
ATOM     26  C   UNL A   1      33.080  28.122  26.793  1.00  0.00     0.021 C 
BRANCH  26  27
ATOM     27  C   UNL A   1      34.332  28.926  26.464  1.00  0.00     0.116 C 
BRANCH  27  28
ATOM     28  N   UNL A   1      34.150  30.345  26.737  1.00  0.00    -0.352 N 
ATOM     29  C   UNL A   1      34.775  31.133  27.672  1.00  0.00     0.251 C 
ATOM     30  H   UNL A   1      33.486  30.803  26.173  1.00  0.00     0.163 HD
ATOM     31  O   UNL A   1      34.327  32.245  27.941  1.00  0.00    -0.269 OA
BRANCH  29  32
ATOM     32  C   UNL A   1      35.974  30.613  28.359  1.00  0.00     0.039 A 
ATOM     33  C   UNL A   1      37.241  30.959  27.892  1.00  0.00     0.014 A 
ATOM     34  C   UNL A   1      35.833  29.746  29.443  1.00  0.00     0.014 A 
ATOM     35  C   UNL A   1      38.355  30.292  28.379  1.00  0.00     0.010 A 
ATOM     36  C   UNL A   1      36.971  29.164  30.013  1.00  0.00     0.010 A 
ATOM     37  C   UNL A   1      38.237  29.393  29.454  1.00  0.00    -0.014 A 
BRANCH  37  38
ATOM     38  C   UNL A   1      39.470  28.753  29.985  1.00  0.00     0.031 A 
ATOM     39  C   UNL A   1      40.125  27.599  29.274  1.00  0.00     0.074 A 
ATOM     40  C   UNL A   1      40.038  29.275  31.090  1.00  0.00     0.049 A 
ATOM     41  N   UNL A   1      41.254  27.000  29.556  1.00  0.00    -0.248 NA
ATOM     42  C   UNL A   1      39.428  27.038  28.106  1.00  0.00     0.031 C 
ATOM     43  C   UNL A   1      39.477  30.381  31.868  1.00  0.00     0.029 A 
ATOM     44  N   UNL A   1      41.217  28.984  31.730  1.00  0.00    -0.354 N 
ATOM     45  C   UNL A   1      41.397  25.987  28.614  1.00  0.00     0.074 A 
ATOM     46  C   UNL A   1      40.218  26.023  27.778  1.00  0.00     0.031 C 
ATOM     47  C   UNL A   1      40.343  30.727  32.828  1.00  0.00     0.029 A 
ATOM     48  C   UNL A   1      41.483  29.815  32.793  1.00  0.00     0.049 A 
ATOM     49  H   UNL A   1      41.814  28.252  31.454  1.00  0.00     0.167 HD
ATOM     50  C   UNL A   1      42.429  25.122  28.454  1.00  0.00     0.034 A 
ATOM     51  C   UNL A   1      42.519  29.843  33.656  1.00  0.00     0.034 A 
ATOM     52  C   UNL A   1      43.605  25.116  29.289  1.00  0.00     0.049 A 
ATOM     53  C   UNL A   1      43.642  28.858  33.465  1.00  0.00     0.074 A 
ATOM     54  C   UNL A   1      44.725  24.310  29.174  1.00  0.00     0.029 A 
ATOM     55  N   UNL A   1      43.821  25.941  30.384  1.00  0.00    -0.354 N 
ATOM     56  N   UNL A   1      43.797  27.959  32.521  1.00  0.00    -0.248 NA
ATOM     57  C   UNL A   1      44.731  28.891  34.448  1.00  0.00     0.031 C 
ATOM     58  C   UNL A   1      45.577  24.591  30.243  1.00  0.00     0.029 A 
ATOM     59  C   UNL A   1      45.036  25.634  30.978  1.00  0.00     0.049 A 
ATOM     60  H   UNL A   1      43.202  26.641  30.694  1.00  0.00     0.167 HD
ATOM     61  C   UNL A   1      45.004  27.323  32.794  1.00  0.00     0.074 A 
ATOM     62  C   UNL A   1      45.559  27.974  33.963  1.00  0.00     0.031 C 
ATOM     63  C   UNL A   1      45.587  26.283  32.145  1.00  0.00     0.034 A 
BRANCH  50  64
ATOM     64  C   UNL A   1      42.367  24.111  27.332  1.00  0.00     0.023 A 
ATOM     65  C   UNL A   1      41.856  22.821  27.578  1.00  0.00     0.031 A 
ATOM     66  C   UNL A   1      42.949  24.365  26.078  1.00  0.00     0.131 A 
ATOM     67  C   UNL A   1      41.982  21.824  26.603  1.00  0.00     0.055 A 
ATOM     68  C   UNL A   1      43.025  23.381  25.090  1.00  0.00     0.041 A 
ATOM     69  F   UNL A   1      43.456  25.576  25.793  1.00  0.00    -0.206 F 
ATOM     70  C   UNL A   1      42.555  22.100  25.357  1.00  0.00     0.022 A 
BRANCH  67  71
ATOM     71  S   UNL A   1      41.486  20.112  26.940  1.00  0.00     0.124 S 
ATOM     72  O   UNL A   1      40.715  19.782  25.743  1.00  0.00    -0.237 OA
ATOM     73  O   UNL A   1      42.776  19.439  27.054  1.00  0.00    -0.237 OA
ATOM     74  O   UNL A   1      40.710  20.207  28.171  1.00  0.00    -0.744 OA
ENDBRANCH  67  71
ENDBRANCH  50  64
BRANCH  51  75
ATOM     75  C   UNL A   1      42.535  30.872  34.738  1.00  0.00     0.023 A 
ATOM     76  C   UNL A   1      43.118  32.135  34.519  1.00  0.00     0.031 A 
ATOM     77  C   UNL A   1      42.087  30.568  36.033  1.00  0.00     0.131 A 
ATOM     78  C   UNL A   1      43.320  33.005  35.596  1.00  0.00     0.055 A 
ATOM     79  C   UNL A   1      42.211  31.476  37.086  1.00  0.00     0.041 A 
ATOM     80  F   UNL A   1      41.537  29.373  36.296  1.00  0.00    -0.206 F 
ATOM     81  C   UNL A   1      42.851  32.693  36.875  1.00  0.00     0.022 A 
BRANCH  78  82
ATOM     82  S   UNL A   1      44.341  34.493  35.405  1.00  0.00     0.124 S 
ATOM     83  O   UNL A   1      45.682  33.931  35.281  1.00  0.00    -0.237 OA
ATOM     84  O   UNL A   1      43.786  35.080  34.188  1.00  0.00    -0.237 OA
ATOM     85  O   UNL A   1      44.083  35.247  36.628  1.00  0.00    -0.744 OA
ENDBRANCH  78  82
ENDBRANCH  51  75
BRANCH  63  86
ATOM     86  C   UNL A   1      46.896  25.747  32.679  1.00  0.00     0.023 A 
ATOM     87  C   UNL A   1      48.113  26.104  32.066  1.00  0.00     0.031 A 
ATOM     88  C   UNL A   1      46.927  24.779  33.699  1.00  0.00     0.131 A 
ATOM     89  C   UNL A   1      49.300  25.466  32.447  1.00  0.00     0.055 A 
ATOM     90  C   UNL A   1      48.122  24.190  34.116  1.00  0.00     0.041 A 
ATOM     91  F   UNL A   1      45.795  24.393  34.307  1.00  0.00    -0.206 F 
ATOM     92  C   UNL A   1      49.313  24.521  33.478  1.00  0.00     0.022 A 
BRANCH  89  93
ATOM     93  S   UNL A   1      50.853  25.766  31.556  1.00  0.00     0.124 S 
ATOM     94  O   UNL A   1      51.223  27.095  32.037  1.00  0.00    -0.237 OA
ATOM     95  O   UNL A   1      51.696  24.673  32.033  1.00  0.00    -0.237 OA
ATOM     96  O   UNL A   1      50.471  25.698  30.151  1.00  0.00    -0.744 OA
ENDBRANCH  89  93
ENDBRANCH  63  86
ENDBRANCH  37  38
ENDBRANCH  29  32
ENDBRANCH  27  28
ENDBRANCH  26  27
ENDBRANCH  25  26
ENDBRANCH   1  25
TORSDOF 20
ENDMDL
