MODEL 1
REMARK VINA RESULT:     -11.1      0.000      0.000
REMARK SMILES CCc1cccc(-c2ccc([C@@H](C)C(=O)NCCCCCCNC(=O)c3ccc(-c4c5nc(c(-c6cc(S(=O)(=O)[O-])ccc6F)c6ccc([nH]6)c(-c6cc(S(=O)(=O)[O-])ccc6F)c6nc(c(-c7cc(S(=O)(=O)[O-])ccc7F)c7ccc4[nH]7)C=C6)C=C5)cc3)cc2)c1
REMARK SMILES IDX 19 1 18 2 17 3 16 4 14 5 15 6 12 8 13 9 11 10 8 11 9 12
REMARK SMILES IDX 90 13 10 14 89 15 7 16 3 17 4 18 91 19 5 20 6 21 2 22 1 23
REMARK SMILES IDX 20 24 21 25 22 26 23 27 24 28 25 30 26 31 27 32 88 33 28 34
REMARK SMILES IDX 87 35 29 36 30 37 31 38 81 39 32 40 86 41 80 42 82 43 33 44
REMARK SMILES IDX 85 45 79 46 78 47 34 49 66 50 46 51 65 52 47 53 50 54 64 55
REMARK SMILES IDX 83 56 48 57 49 58 63 60 84 61 51 62 35 63 36 64 44 65 37 66
REMARK SMILES IDX 43 67 45 68 42 69 38 70 39 71 40 72 41 73 67 74 68 75 76 76
REMARK SMILES IDX 69 77 75 78 77 79 74 80 70 81 71 82 72 83 73 84 52 85 53 86
REMARK SMILES IDX 61 87 54 88 60 89 62 90 59 91 55 92 56 93 57 94 58 95
REMARK H PARENT 16 7 23 29 82 48 50 59
REMARK Flexibility Score: inf
ROOT
ATOM      1  C   UNL A   1      35.529  31.460  27.739  1.00  0.00     0.002 C 
ENDROOT
BRANCH   1   2
ATOM      2  C   UNL A   1      34.188  30.740  27.576  1.00  0.00     0.021 C 
BRANCH   2   3
ATOM      3  C   UNL A   1      34.276  29.438  26.777  1.00  0.00     0.116 C 
BRANCH   3   4
ATOM      4  N   UNL A   1      33.452  29.479  25.587  1.00  0.00    -0.356 N 
ATOM      5  C   UNL A   1      32.340  28.776  25.238  1.00  0.00     0.227 C 
ATOM      6  O   UNL A   1      31.892  28.979  24.102  1.00  0.00    -0.274 OA
ATOM      7  H   UNL A   1      33.746  30.132  24.912  1.00  0.00     0.163 HD
BRANCH   5   8
ATOM      8  C   UNL A   1      31.628  27.788  26.175  1.00  0.00     0.105 C 
ATOM      9  C   UNL A   1      31.510  28.278  27.619  1.00  0.00     0.023 C 
BRANCH   8  10
ATOM     10  C   UNL A   1      32.074  26.346  25.989  1.00  0.00    -0.036 A 
ATOM     11  C   UNL A   1      32.802  23.621  25.479  1.00  0.00    -0.018 A 
ATOM     12  C   UNL A   1      33.763  24.640  25.578  1.00  0.00     0.009 A 
ATOM     13  C   UNL A   1      31.466  23.998  25.685  1.00  0.00     0.009 A 
ATOM     14  C   UNL A   1      33.411  25.967  25.859  1.00  0.00     0.005 A 
ATOM     15  C   UNL A   1      31.105  25.335  25.912  1.00  0.00     0.005 A 
BRANCH  11  16
ATOM     16  C   UNL A   1      33.188  22.225  25.156  1.00  0.00    -0.018 A 
ATOM     17  C   UNL A   1      34.903  20.460  24.971  1.00  0.00    -0.048 A 
ATOM     18  C   UNL A   1      33.911  19.544  24.603  1.00  0.00     0.004 A 
ATOM     19  C   UNL A   1      34.526  21.788  25.240  1.00  0.00     0.012 A 
ATOM     20  C   UNL A   1      32.582  19.944  24.508  1.00  0.00     0.001 A 
ATOM     21  C   UNL A   1      32.229  21.270  24.774  1.00  0.00     0.009 A 
BRANCH  17  22
ATOM     22  C   UNL A   1      36.348  20.021  25.003  1.00  0.00     0.032 C 
ATOM     23  C   UNL A   1      37.353  21.110  24.651  1.00  0.00     0.009 C 
ENDBRANCH  17  22
ENDBRANCH  11  16
ENDBRANCH   8  10
ENDBRANCH   5   8
ENDBRANCH   3   4
ENDBRANCH   2   3
ENDBRANCH   1   2
BRANCH   1  24
ATOM     24  C   UNL A   1      35.433  32.944  28.118  1.00  0.00     0.002 C 
BRANCH  24  25
ATOM     25  C   UNL A   1      34.012  33.498  28.273  1.00  0.00     0.021 C 
BRANCH  25  26
ATOM     26  C   UNL A   1      33.925  35.013  28.440  1.00  0.00     0.116 C 
BRANCH  26  27
ATOM     27  N   UNL A   1      33.217  35.382  29.654  1.00  0.00    -0.352 N 
ATOM     28  C   UNL A   1      33.386  34.940  30.942  1.00  0.00     0.251 C 
ATOM     29  H   UNL A   1      32.506  36.053  29.534  1.00  0.00     0.163 HD
ATOM     30  O   UNL A   1      32.522  35.190  31.779  1.00  0.00    -0.269 OA
BRANCH  28  31
ATOM     31  C   UNL A   1      34.587  34.162  31.323  1.00  0.00     0.039 A 
ATOM     32  C   UNL A   1      35.842  34.764  31.211  1.00  0.00     0.014 A 
ATOM     33  C   UNL A   1      34.488  32.828  31.735  1.00  0.00     0.014 A 
ATOM     34  C   UNL A   1      36.993  34.047  31.551  1.00  0.00     0.010 A 
ATOM     35  C   UNL A   1      35.630  32.136  32.136  1.00  0.00     0.010 A 
ATOM     36  C   UNL A   1      36.896  32.733  32.038  1.00  0.00    -0.014 A 
BRANCH  36  37
ATOM     37  C   UNL A   1      38.114  31.972  32.423  1.00  0.00     0.031 A 
ATOM     38  C   UNL A   1      38.831  32.287  33.708  1.00  0.00     0.074 A 
ATOM     39  C   UNL A   1      38.590  31.016  31.599  1.00  0.00     0.049 A 
ATOM     40  N   UNL A   1      39.925  31.761  34.199  1.00  0.00    -0.248 NA
ATOM     41  C   UNL A   1      38.254  33.355  34.539  1.00  0.00     0.031 C 
ATOM     42  C   UNL A   1      38.007  30.650  30.306  1.00  0.00     0.029 A 
ATOM     43  N   UNL A   1      39.672  30.182  31.722  1.00  0.00    -0.354 N 
ATOM     44  C   UNL A   1      40.166  32.431  35.394  1.00  0.00     0.074 A 
ATOM     45  C   UNL A   1      39.145  33.450  35.515  1.00  0.00     0.031 C 
ATOM     46  C   UNL A   1      38.725  29.652  29.766  1.00  0.00     0.029 A 
ATOM     47  C   UNL A   1      39.839  29.330  30.655  1.00  0.00     0.049 A 
ATOM     48  H   UNL A   1      40.273  30.191  32.501  1.00  0.00     0.167 HD
ATOM     49  C   UNL A   1      41.132  32.200  36.319  1.00  0.00     0.034 A 
ATOM     50  C   UNL A   1      40.782  28.397  30.416  1.00  0.00     0.034 A 
ATOM     51  C   UNL A   1      42.145  31.180  36.186  1.00  0.00     0.049 A 
ATOM     52  C   UNL A   1      41.848  28.162  31.458  1.00  0.00     0.074 A 
ATOM     53  C   UNL A   1      43.165  30.852  37.063  1.00  0.00     0.029 A 
ATOM     54  N   UNL A   1      42.265  30.317  35.103  1.00  0.00    -0.354 N 
ATOM     55  N   UNL A   1      42.040  28.783  32.599  1.00  0.00    -0.248 NA
ATOM     56  C   UNL A   1      42.807  27.084  31.188  1.00  0.00     0.031 C 
ATOM     57  C   UNL A   1      43.930  29.830  36.489  1.00  0.00     0.029 A 
ATOM     58  C   UNL A   1      43.347  29.469  35.286  1.00  0.00     0.049 A 
ATOM     59  H   UNL A   1      41.669  30.311  34.320  1.00  0.00     0.167 HD
ATOM     60  C   UNL A   1      43.125  28.145  33.197  1.00  0.00     0.074 A 
ATOM     61  C   UNL A   1      43.524  27.079  32.302  1.00  0.00     0.031 C 
ATOM     62  C   UNL A   1      43.737  28.415  34.379  1.00  0.00     0.034 A 
BRANCH  49  63
ATOM     63  C   UNL A   1      41.136  33.081  37.548  1.00  0.00     0.023 A 
ATOM     64  C   UNL A   1      40.377  32.753  38.687  1.00  0.00     0.031 A 
ATOM     65  C   UNL A   1      41.879  34.273  37.577  1.00  0.00     0.131 A 
ATOM     66  C   UNL A   1      40.318  33.640  39.771  1.00  0.00     0.055 A 
ATOM     67  C   UNL A   1      41.881  35.113  38.693  1.00  0.00     0.041 A 
ATOM     68  F   UNL A   1      42.607  34.652  36.514  1.00  0.00    -0.206 F 
ATOM     69  C   UNL A   1      41.085  34.807  39.793  1.00  0.00     0.022 A 
BRANCH  66  70
ATOM     70  S   UNL A   1      39.116  33.317  41.090  1.00  0.00     0.124 S 
ATOM     71  O   UNL A   1      39.288  34.494  41.938  1.00  0.00    -0.237 OA
ATOM     72  O   UNL A   1      37.858  33.234  40.358  1.00  0.00    -0.237 OA
ATOM     73  O   UNL A   1      39.580  32.062  41.677  1.00  0.00    -0.744 OA
ENDBRANCH  66  70
ENDBRANCH  49  63
BRANCH  50  74
ATOM     74  C   UNL A   1      40.775  27.617  29.146  1.00  0.00     0.023 A 
ATOM     75  C   UNL A   1      41.684  27.899  28.115  1.00  0.00     0.031 A 
ATOM     76  C   UNL A   1      39.816  26.612  28.921  1.00  0.00     0.131 A 
ATOM     77  C   UNL A   1      41.578  27.232  26.885  1.00  0.00     0.055 A 
ATOM     78  C   UNL A   1      39.752  25.909  27.717  1.00  0.00     0.041 A 
ATOM     79  F   UNL A   1      38.928  26.294  29.876  1.00  0.00    -0.206 F 
ATOM     80  C   UNL A   1      40.626  26.231  26.682  1.00  0.00     0.022 A 
BRANCH  77  81
ATOM     81  S   UNL A   1      42.637  27.768  25.513  1.00  0.00     0.124 S 
ATOM     82  O   UNL A   1      42.635  26.588  24.656  1.00  0.00    -0.237 OA
ATOM     83  O   UNL A   1      41.912  28.930  25.009  1.00  0.00    -0.237 OA
ATOM     84  O   UNL A   1      43.911  28.065  26.164  1.00  0.00    -0.744 OA
ENDBRANCH  77  81
ENDBRANCH  50  74
BRANCH  62  85
ATOM     85  C   UNL A   1      44.871  27.503  34.780  1.00  0.00     0.023 A 
ATOM     86  C   UNL A   1      44.655  26.346  35.549  1.00  0.00     0.031 A 
ATOM     87  C   UNL A   1      46.193  27.821  34.422  1.00  0.00     0.131 A 
ATOM     88  C   UNL A   1      45.749  25.592  36.002  1.00  0.00     0.055 A 
ATOM     89  C   UNL A   1      47.273  27.030  34.820  1.00  0.00     0.041 A 
ATOM     90  F   UNL A   1      46.460  28.913  33.688  1.00  0.00    -0.206 F 
ATOM     91  C   UNL A   1      47.055  25.919  35.630  1.00  0.00     0.022 A 
BRANCH  88  92
ATOM     92  S   UNL A   1      45.449  24.249  37.183  1.00  0.00     0.124 S 
ATOM     93  O   UNL A   1      46.715  24.192  37.907  1.00  0.00    -0.237 OA
ATOM     94  O   UNL A   1      44.306  24.749  37.939  1.00  0.00    -0.237 OA
ATOM     95  O   UNL A   1      45.171  23.096  36.329  1.00  0.00    -0.744 OA
ENDBRANCH  88  92
ENDBRANCH  62  85
ENDBRANCH  36  37
ENDBRANCH  28  31
ENDBRANCH  26  27
ENDBRANCH  25  26
ENDBRANCH  24  25
ENDBRANCH   1  24
TORSDOF 19
ENDMDL
MODEL 2
REMARK VINA RESULT:     -10.8      4.524     13.590
REMARK SMILES CCc1cccc(-c2ccc([C@@H](C)C(=O)NCCCCCCNC(=O)c3ccc(-c4c5nc(c(-c6cc(S(=O)(=O)[O-])ccc6F)c6ccc([nH]6)c(-c6cc(S(=O)(=O)[O-])ccc6F)c6nc(c(-c7cc(S(=O)(=O)[O-])ccc7F)c7ccc4[nH]7)C=C6)C=C5)cc3)cc2)c1
REMARK SMILES IDX 19 1 18 2 17 3 16 4 14 5 15 6 12 8 13 9 11 10 8 11 9 12
REMARK SMILES IDX 90 13 10 14 89 15 7 16 3 17 4 18 91 19 5 20 6 21 2 22 1 23
REMARK SMILES IDX 20 24 21 25 22 26 23 27 24 28 25 30 26 31 27 32 88 33 28 34
REMARK SMILES IDX 87 35 29 36 30 37 31 38 81 39 32 40 86 41 80 42 82 43 33 44
REMARK SMILES IDX 85 45 79 46 78 47 34 49 66 50 46 51 65 52 47 53 50 54 64 55
REMARK SMILES IDX 83 56 48 57 49 58 63 60 84 61 51 62 35 63 36 64 44 65 37 66
REMARK SMILES IDX 43 67 45 68 42 69 38 70 39 71 40 72 41 73 67 74 68 75 76 76
REMARK SMILES IDX 69 77 75 78 77 79 74 80 70 81 71 82 72 83 73 84 52 85 53 86
REMARK SMILES IDX 61 87 54 88 60 89 62 90 59 91 55 92 56 93 57 94 58 95
REMARK H PARENT 16 7 23 29 82 48 50 59
REMARK Flexibility Score: inf
ROOT
ATOM      1  C   UNL A   1      49.146  26.052  32.697  1.00  0.00     0.002 C 
ENDROOT
BRANCH   1   2
ATOM      2  C   UNL A   1      49.644  27.094  31.692  1.00  0.00     0.021 C 
BRANCH   2   3
ATOM      3  C   UNL A   1      49.854  26.542  30.280  1.00  0.00     0.116 C 
BRANCH   3   4
ATOM      4  N   UNL A   1      48.646  25.945  29.750  1.00  0.00    -0.356 N 
ATOM      5  C   UNL A   1      47.588  26.489  29.089  1.00  0.00     0.227 C 
ATOM      6  O   UNL A   1      46.650  25.726  28.825  1.00  0.00    -0.274 OA
ATOM      7  H   UNL A   1      48.579  24.973  29.891  1.00  0.00     0.163 HD
BRANCH   5   8
ATOM      8  C   UNL A   1      47.524  27.961  28.652  1.00  0.00     0.105 C 
ATOM      9  C   UNL A   1      48.885  28.565  28.306  1.00  0.00     0.023 C 
BRANCH   8  10
ATOM     10  C   UNL A   1      46.610  28.813  29.519  1.00  0.00    -0.036 A 
ATOM     11  C   UNL A   1      45.044  30.527  31.199  1.00  0.00    -0.018 A 
ATOM     12  C   UNL A   1      44.741  30.339  29.842  1.00  0.00     0.009 A 
ATOM     13  C   UNL A   1      46.132  29.798  31.704  1.00  0.00     0.009 A 
ATOM     14  C   UNL A   1      45.486  29.477  29.027  1.00  0.00     0.005 A 
ATOM     15  C   UNL A   1      46.913  28.975  30.878  1.00  0.00     0.005 A 
BRANCH  11  16
ATOM     16  C   UNL A   1      44.261  31.462  32.044  1.00  0.00    -0.018 A 
ATOM     17  C   UNL A   1      42.346  32.989  32.349  1.00  0.00    -0.048 A 
ATOM     18  C   UNL A   1      42.731  33.197  33.678  1.00  0.00     0.004 A 
ATOM     19  C   UNL A   1      43.118  32.126  31.551  1.00  0.00     0.012 A 
ATOM     20  C   UNL A   1      43.855  32.560  34.193  1.00  0.00     0.001 A 
ATOM     21  C   UNL A   1      44.613  31.711  33.383  1.00  0.00     0.009 A 
BRANCH  17  22
ATOM     22  C   UNL A   1      41.162  33.742  31.789  1.00  0.00     0.032 C 
ATOM     23  C   UNL A   1      40.893  33.499  30.309  1.00  0.00     0.009 C 
ENDBRANCH  17  22
ENDBRANCH  11  16
ENDBRANCH   8  10
ENDBRANCH   5   8
ENDBRANCH   3   4
ENDBRANCH   2   3
ENDBRANCH   1   2
BRANCH   1  24
ATOM     24  C   UNL A   1      50.236  25.164  33.313  1.00  0.00     0.002 C 
BRANCH  24  25
ATOM     25  C   UNL A   1      49.734  23.996  34.169  1.00  0.00     0.021 C 
BRANCH  25  26
ATOM     26  C   UNL A   1      48.280  24.107  34.624  1.00  0.00     0.116 C 
BRANCH  26  27
ATOM     27  N   UNL A   1      48.178  24.598  35.988  1.00  0.00    -0.352 N 
ATOM     28  C   UNL A   1      47.433  25.630  36.500  1.00  0.00     0.251 C 
ATOM     29  H   UNL A   1      48.730  24.116  36.646  1.00  0.00     0.163 HD
ATOM     30  O   UNL A   1      47.678  26.042  37.631  1.00  0.00    -0.269 OA
BRANCH  28  31
ATOM     31  C   UNL A   1      46.351  26.252  35.701  1.00  0.00     0.039 A 
ATOM     32  C   UNL A   1      45.129  25.584  35.589  1.00  0.00     0.014 A 
ATOM     33  C   UNL A   1      46.552  27.456  35.019  1.00  0.00     0.014 A 
ATOM     34  C   UNL A   1      44.097  26.142  34.830  1.00  0.00     0.010 A 
ATOM     35  C   UNL A   1      45.501  28.043  34.315  1.00  0.00     0.010 A 
ATOM     36  C   UNL A   1      44.265  27.387  34.204  1.00  0.00    -0.014 A 
BRANCH  36  37
ATOM     37  C   UNL A   1      43.164  27.998  33.413  1.00  0.00     0.031 A 
ATOM     38  C   UNL A   1      42.994  27.654  31.957  1.00  0.00     0.074 A 
ATOM     39  C   UNL A   1      42.335  28.884  33.999  1.00  0.00     0.049 A 
ATOM     40  N   UNL A   1      42.122  28.107  31.093  1.00  0.00    -0.248 NA
ATOM     41  C   UNL A   1      43.953  26.691  31.392  1.00  0.00     0.031 C 
ATOM     42  C   UNL A   1      42.425  29.331  35.392  1.00  0.00     0.029 A 
ATOM     43  N   UNL A   1      41.258  29.572  33.501  1.00  0.00    -0.354 N 
ATOM     44  C   UNL A   1      42.423  27.485  29.886  1.00  0.00     0.074 A 
ATOM     45  C   UNL A   1      43.604  26.679  30.114  1.00  0.00     0.031 C 
ATOM     46  C   UNL A   1      41.433  30.201  35.640  1.00  0.00     0.029 A 
ATOM     47  C   UNL A   1      40.657  30.402  34.420  1.00  0.00     0.049 A 
ATOM     48  H   UNL A   1      40.944  29.482  32.573  1.00  0.00     0.167 HD
ATOM     49  C   UNL A   1      41.760  27.555  28.703  1.00  0.00     0.034 A 
ATOM     50  C   UNL A   1      39.603  31.233  34.294  1.00  0.00     0.034 A 
ATOM     51  C   UNL A   1      40.583  28.363  28.489  1.00  0.00     0.049 A 
ATOM     52  C   UNL A   1      38.886  31.297  32.968  1.00  0.00     0.074 A 
ATOM     53  C   UNL A   1      39.827  28.504  27.338  1.00  0.00     0.029 A 
ATOM     54  N   UNL A   1      39.987  29.169  29.451  1.00  0.00    -0.354 N 
ATOM     55  N   UNL A   1      39.164  30.674  31.846  1.00  0.00    -0.248 NA
ATOM     56  C   UNL A   1      37.698  32.157  32.902  1.00  0.00     0.031 C 
ATOM     57  C   UNL A   1      38.808  29.431  27.589  1.00  0.00     0.029 A 
ATOM     58  C   UNL A   1      38.883  29.816  28.917  1.00  0.00     0.049 A 
ATOM     59  H   UNL A   1      40.303  29.266  30.379  1.00  0.00     0.167 HD
ATOM     60  C   UNL A   1      38.164  31.045  30.950  1.00  0.00     0.074 A 
ATOM     61  C   UNL A   1      37.265  31.922  31.673  1.00  0.00     0.031 C 
ATOM     62  C   UNL A   1      38.000  30.694  29.649  1.00  0.00     0.034 A 
BRANCH  49  63
ATOM     63  C   UNL A   1      42.310  26.742  27.554  1.00  0.00     0.023 A 
ATOM     64  C   UNL A   1      41.995  25.378  27.405  1.00  0.00     0.031 A 
ATOM     65  C   UNL A   1      43.178  27.320  26.613  1.00  0.00     0.131 A 
ATOM     66  C   UNL A   1      42.603  24.624  26.390  1.00  0.00     0.055 A 
ATOM     67  C   UNL A   1      43.715  26.583  25.555  1.00  0.00     0.041 A 
ATOM     68  F   UNL A   1      43.533  28.612  26.712  1.00  0.00    -0.206 F 
ATOM     69  C   UNL A   1      43.441  25.223  25.448  1.00  0.00     0.022 A 
BRANCH  66  70
ATOM     70  S   UNL A   1      42.391  22.823  26.406  1.00  0.00     0.124 S 
ATOM     71  O   UNL A   1      41.040  22.691  26.946  1.00  0.00    -0.237 OA
ATOM     72  O   UNL A   1      42.555  22.473  25.000  1.00  0.00    -0.237 OA
ATOM     73  O   UNL A   1      43.457  22.360  27.293  1.00  0.00    -0.744 OA
ENDBRANCH  66  70
ENDBRANCH  49  63
BRANCH  50  74
ATOM     74  C   UNL A   1      39.158  32.075  35.441  1.00  0.00     0.023 A 
ATOM     75  C   UNL A   1      39.593  33.402  35.580  1.00  0.00     0.031 A 
ATOM     76  C   UNL A   1      38.334  31.543  36.450  1.00  0.00     0.131 A 
ATOM     77  C   UNL A   1      39.257  34.132  36.730  1.00  0.00     0.055 A 
ATOM     78  C   UNL A   1      37.954  32.294  37.564  1.00  0.00     0.041 A 
ATOM     79  F   UNL A   1      37.882  30.283  36.364  1.00  0.00    -0.206 F 
ATOM     80  C   UNL A   1      38.431  33.592  37.717  1.00  0.00     0.022 A 
BRANCH  77  81
ATOM     81  S   UNL A   1      40.006  35.768  36.968  1.00  0.00     0.124 S 
ATOM     82  O   UNL A   1      39.573  36.471  35.766  1.00  0.00    -0.237 OA
ATOM     83  O   UNL A   1      39.394  36.200  38.220  1.00  0.00    -0.237 OA
ATOM     84  O   UNL A   1      41.436  35.479  37.041  1.00  0.00    -0.744 OA
ENDBRANCH  77  81
ENDBRANCH  50  74
BRANCH  62  85
ATOM     85  C   UNL A   1      36.774  31.229  28.950  1.00  0.00     0.023 A 
ATOM     86  C   UNL A   1      35.731  30.383  28.532  1.00  0.00     0.031 A 
ATOM     87  C   UNL A   1      36.670  32.600  28.658  1.00  0.00     0.131 A 
ATOM     88  C   UNL A   1      34.667  30.903  27.780  1.00  0.00     0.055 A 
ATOM     89  C   UNL A   1      35.575  33.124  27.967  1.00  0.00     0.041 A 
ATOM     90  F   UNL A   1      37.635  33.456  29.032  1.00  0.00    -0.206 F 
ATOM     91  C   UNL A   1      34.576  32.270  27.507  1.00  0.00     0.022 A 
BRANCH  88  92
ATOM     92  S   UNL A   1      33.467  29.751  27.060  1.00  0.00     0.124 S 
ATOM     93  O   UNL A   1      32.316  30.616  26.827  1.00  0.00    -0.237 OA
ATOM     94  O   UNL A   1      34.163  29.283  25.866  1.00  0.00    -0.237 OA
ATOM     95  O   UNL A   1      33.286  28.746  28.106  1.00  0.00    -0.744 OA
ENDBRANCH  88  92
ENDBRANCH  62  85
ENDBRANCH  36  37
ENDBRANCH  28  31
ENDBRANCH  26  27
ENDBRANCH  25  26
ENDBRANCH  24  25
ENDBRANCH   1  24
TORSDOF 19
ENDMDL
MODEL 3
REMARK VINA RESULT:     -10.8      9.300     15.462
REMARK SMILES CCc1cccc(-c2ccc([C@@H](C)C(=O)NCCCCCCNC(=O)c3ccc(-c4c5nc(c(-c6cc(S(=O)(=O)[O-])ccc6F)c6ccc([nH]6)c(-c6cc(S(=O)(=O)[O-])ccc6F)c6nc(c(-c7cc(S(=O)(=O)[O-])ccc7F)c7ccc4[nH]7)C=C6)C=C5)cc3)cc2)c1
REMARK SMILES IDX 19 1 18 2 17 3 16 4 14 5 15 6 12 8 13 9 11 10 8 11 9 12
REMARK SMILES IDX 90 13 10 14 89 15 7 16 3 17 4 18 91 19 5 20 6 21 2 22 1 23
REMARK SMILES IDX 20 24 21 25 22 26 23 27 24 28 25 30 26 31 27 32 88 33 28 34
REMARK SMILES IDX 87 35 29 36 30 37 31 38 81 39 32 40 86 41 80 42 82 43 33 44
REMARK SMILES IDX 85 45 79 46 78 47 34 49 66 50 46 51 65 52 47 53 50 54 64 55
REMARK SMILES IDX 83 56 48 57 49 58 63 60 84 61 51 62 35 63 36 64 44 65 37 66
REMARK SMILES IDX 43 67 45 68 42 69 38 70 39 71 40 72 41 73 67 74 68 75 76 76
REMARK SMILES IDX 69 77 75 78 77 79 74 80 70 81 71 82 72 83 73 84 52 85 53 86
REMARK SMILES IDX 61 87 54 88 60 89 62 90 59 91 55 92 56 93 57 94 58 95
REMARK H PARENT 16 7 23 29 82 48 50 59
REMARK Flexibility Score: inf
ROOT
ATOM      1  C   UNL A   1      45.394  39.392  27.737  1.00  0.00     0.002 C 
ENDROOT
BRANCH   1   2
ATOM      2  C   UNL A   1      44.833  39.557  26.321  1.00  0.00     0.021 C 
BRANCH   2   3
ATOM      3  C   UNL A   1      45.575  40.598  25.478  1.00  0.00     0.116 C 
BRANCH   3   4
ATOM      4  N   UNL A   1      44.817  41.825  25.350  1.00  0.00    -0.356 N 
ATOM      5  C   UNL A   1      44.914  42.854  24.464  1.00  0.00     0.227 C 
ATOM      6  O   UNL A   1      44.167  43.821  24.656  1.00  0.00    -0.274 OA
ATOM      7  H   UNL A   1      44.105  41.935  26.021  1.00  0.00     0.163 HD
BRANCH   5   8
ATOM      8  C   UNL A   1      45.869  42.853  23.260  1.00  0.00     0.105 C 
ATOM      9  C   UNL A   1      47.297  43.279  23.601  1.00  0.00     0.023 C 
BRANCH   8  10
ATOM     10  C   UNL A   1      45.266  43.466  22.005  1.00  0.00    -0.036 A 
ATOM     11  C   UNL A   1      43.955  44.586  19.716  1.00  0.00    -0.018 A 
ATOM     12  C   UNL A   1      44.879  45.321  20.476  1.00  0.00     0.009 A 
ATOM     13  C   UNL A   1      43.736  43.257  20.111  1.00  0.00     0.009 A 
ATOM     14  C   UNL A   1      45.545  44.764  21.575  1.00  0.00     0.005 A 
ATOM     15  C   UNL A   1      44.360  42.714  21.244  1.00  0.00     0.005 A 
BRANCH  11  16
ATOM     16  C   UNL A   1      43.238  45.197  18.569  1.00  0.00    -0.018 A 
ATOM     17  C   UNL A   1      42.883  47.085  17.019  1.00  0.00    -0.048 A 
ATOM     18  C   UNL A   1      41.916  46.337  16.339  1.00  0.00     0.004 A 
ATOM     19  C   UNL A   1      43.529  46.504  18.126  1.00  0.00     0.012 A 
ATOM     20  C   UNL A   1      41.605  45.046  16.754  1.00  0.00     0.001 A 
ATOM     21  C   UNL A   1      42.252  44.489  17.859  1.00  0.00     0.009 A 
BRANCH  17  22
ATOM     22  C   UNL A   1      43.160  48.508  16.595  1.00  0.00     0.032 C 
ATOM     23  C   UNL A   1      44.173  49.246  17.460  1.00  0.00     0.009 C 
ENDBRANCH  17  22
ENDBRANCH  11  16
ENDBRANCH   8  10
ENDBRANCH   5   8
ENDBRANCH   3   4
ENDBRANCH   2   3
ENDBRANCH   1   2
BRANCH   1  24
ATOM     24  C   UNL A   1      44.368  39.541  28.868  1.00  0.00     0.002 C 
BRANCH  24  25
ATOM     25  C   UNL A   1      43.826  38.229  29.448  1.00  0.00     0.021 C 
BRANCH  25  26
ATOM     26  C   UNL A   1      44.560  37.721  30.688  1.00  0.00     0.116 C 
BRANCH  26  27
ATOM     27  N   UNL A   1      45.988  37.597  30.455  1.00  0.00    -0.352 N 
ATOM     28  C   UNL A   1      46.744  36.485  30.183  1.00  0.00     0.251 C 
ATOM     29  H   UNL A   1      46.492  38.442  30.499  1.00  0.00     0.163 HD
ATOM     30  O   UNL A   1      47.968  36.557  30.266  1.00  0.00    -0.269 OA
BRANCH  28  31
ATOM     31  C   UNL A   1      46.100  35.206  29.804  1.00  0.00     0.039 A 
ATOM     32  C   UNL A   1      46.198  34.119  30.676  1.00  0.00     0.014 A 
ATOM     33  C   UNL A   1      45.450  35.056  28.574  1.00  0.00     0.014 A 
ATOM     34  C   UNL A   1      45.611  32.897  30.337  1.00  0.00     0.010 A 
ATOM     35  C   UNL A   1      44.809  33.856  28.265  1.00  0.00     0.010 A 
ATOM     36  C   UNL A   1      44.893  32.760  29.138  1.00  0.00    -0.014 A 
BRANCH  36  37
ATOM     37  C   UNL A   1      44.247  31.470  28.780  1.00  0.00     0.031 A 
ATOM     38  C   UNL A   1      44.968  30.476  27.908  1.00  0.00     0.074 A 
ATOM     39  C   UNL A   1      42.999  31.206  29.216  1.00  0.00     0.049 A 
ATOM     40  N   UNL A   1      44.559  29.317  27.458  1.00  0.00    -0.248 NA
ATOM     41  C   UNL A   1      46.318  30.851  27.461  1.00  0.00     0.031 C 
ATOM     42  C   UNL A   1      42.181  32.108  30.031  1.00  0.00     0.029 A 
ATOM     43  N   UNL A   1      42.197  30.108  29.034  1.00  0.00    -0.354 N 
ATOM     44  C   UNL A   1      45.600  28.823  26.678  1.00  0.00     0.074 A 
ATOM     45  C   UNL A   1      46.628  29.844  26.659  1.00  0.00     0.031 C 
ATOM     46  C   UNL A   1      41.005  31.519  30.295  1.00  0.00     0.029 A 
ATOM     47  C   UNL A   1      40.967  30.213  29.642  1.00  0.00     0.049 A 
ATOM     48  H   UNL A   1      42.475  29.318  28.518  1.00  0.00     0.167 HD
ATOM     49  C   UNL A   1      45.704  27.619  26.060  1.00  0.00     0.034 A 
ATOM     50  C   UNL A   1      39.926  29.358  29.668  1.00  0.00     0.034 A 
ATOM     51  C   UNL A   1      44.671  26.611  26.086  1.00  0.00     0.049 A 
ATOM     52  C   UNL A   1      40.063  28.028  28.969  1.00  0.00     0.074 A 
ATOM     53  C   UNL A   1      44.672  25.355  25.504  1.00  0.00     0.029 A 
ATOM     54  N   UNL A   1      43.450  26.742  26.736  1.00  0.00    -0.354 N 
ATOM     55  N   UNL A   1      41.070  27.563  28.265  1.00  0.00    -0.248 NA
ATOM     56  C   UNL A   1      38.933  27.099  29.090  1.00  0.00     0.031 C 
ATOM     57  C   UNL A   1      43.435  24.750  25.757  1.00  0.00     0.029 A 
ATOM     58  C   UNL A   1      42.688  25.598  26.558  1.00  0.00     0.049 A 
ATOM     59  H   UNL A   1      43.167  27.534  27.248  1.00  0.00     0.167 HD
ATOM     60  C   UNL A   1      40.704  26.273  27.888  1.00  0.00     0.074 A 
ATOM     61  C   UNL A   1      39.397  26.028  28.465  1.00  0.00     0.031 C 
ATOM     62  C   UNL A   1      41.383  25.371  27.134  1.00  0.00     0.034 A 
BRANCH  49  63
ATOM     63  C   UNL A   1      46.978  27.344  25.294  1.00  0.00     0.023 A 
ATOM     64  C   UNL A   1      47.154  27.802  23.975  1.00  0.00     0.031 A 
ATOM     65  C   UNL A   1      48.017  26.594  25.871  1.00  0.00     0.131 A 
ATOM     66  C   UNL A   1      48.302  27.442  23.254  1.00  0.00     0.055 A 
ATOM     67  C   UNL A   1      49.194  26.309  25.176  1.00  0.00     0.041 A 
ATOM     68  F   UNL A   1      47.901  26.112  27.119  1.00  0.00    -0.206 F 
ATOM     69  C   UNL A   1      49.336  26.720  23.854  1.00  0.00     0.022 A 
BRANCH  66  70
ATOM     70  S   UNL A   1      48.360  27.811  21.479  1.00  0.00     0.124 S 
ATOM     71  O   UNL A   1      48.746  26.517  20.923  1.00  0.00    -0.237 OA
ATOM     72  O   UNL A   1      46.996  28.246  21.201  1.00  0.00    -0.237 OA
ATOM     73  O   UNL A   1      49.380  28.854  21.379  1.00  0.00    -0.744 OA
ENDBRANCH  66  70
ENDBRANCH  49  63
BRANCH  50  74
ATOM     74  C   UNL A   1      38.661  29.721  30.370  1.00  0.00     0.023 A 
ATOM     75  C   UNL A   1      37.679  30.500  29.741  1.00  0.00     0.031 A 
ATOM     76  C   UNL A   1      38.444  29.340  31.707  1.00  0.00     0.131 A 
ATOM     77  C   UNL A   1      36.555  30.929  30.463  1.00  0.00     0.055 A 
ATOM     78  C   UNL A   1      37.295  29.719  32.404  1.00  0.00     0.041 A 
ATOM     79  F   UNL A   1      39.345  28.587  32.355  1.00  0.00    -0.206 F 
ATOM     80  C   UNL A   1      36.350  30.534  31.787  1.00  0.00     0.022 A 
BRANCH  77  81
ATOM     81  S   UNL A   1      35.414  32.101  29.678  1.00  0.00     0.124 S 
ATOM     82  O   UNL A   1      34.851  31.293  28.602  1.00  0.00    -0.237 OA
ATOM     83  O   UNL A   1      34.511  32.424  30.778  1.00  0.00    -0.237 OA
ATOM     84  O   UNL A   1      36.288  33.190  29.250  1.00  0.00    -0.744 OA
ENDBRANCH  77  81
ENDBRANCH  50  74
BRANCH  62  85
ATOM     85  C   UNL A   1      40.733  24.023  26.938  1.00  0.00     0.023 A 
ATOM     86  C   UNL A   1      39.573  23.867  26.159  1.00  0.00     0.031 A 
ATOM     87  C   UNL A   1      41.258  22.886  27.576  1.00  0.00     0.131 A 
ATOM     88  C   UNL A   1      38.932  22.620  26.101  1.00  0.00     0.055 A 
ATOM     89  C   UNL A   1      40.653  21.633  27.461  1.00  0.00     0.041 A 
ATOM     90  F   UNL A   1      42.364  22.975  28.332  1.00  0.00    -0.206 F 
ATOM     91  C   UNL A   1      39.473  21.499  26.735  1.00  0.00     0.022 A 
BRANCH  88  92
ATOM     92  S   UNL A   1      37.316  22.511  25.284  1.00  0.00     0.124 S 
ATOM     93  O   UNL A   1      36.446  22.109  26.384  1.00  0.00    -0.237 OA
ATOM     94  O   UNL A   1      37.127  23.869  24.786  1.00  0.00    -0.237 OA
ATOM     95  O   UNL A   1      37.520  21.495  24.253  1.00  0.00    -0.744 OA
ENDBRANCH  88  92
ENDBRANCH  62  85
ENDBRANCH  36  37
ENDBRANCH  28  31
ENDBRANCH  26  27
ENDBRANCH  25  26
ENDBRANCH  24  25
ENDBRANCH   1  24
TORSDOF 19
ENDMDL
