MODEL 1
REMARK VINA RESULT:     -11.3      0.000      0.000
REMARK SMILES O=C(NCCCCCCNC(=O)[C@H]1CC[C@@H](C(F)F)[NH2+]1)c1ccc(-c2c3nc(c(-c4cc(S(=O)(=O)[O-])ccc4F)c4ccc([nH]4)c(-c4cc(S(=O)(=O)[O-])ccc4F)c4nc(c(-c5cc(S(=O)(=O)[O-])ccc5F)c5ccc2[nH]5)C=C4)C=C3)cc1
REMARK SMILES IDX 5 1 4 2 3 3 1 4 2 5 21 7 22 8 83 9 23 10 82 11 24 12 25 13
REMARK SMILES IDX 26 14 76 15 27 16 81 17 75 18 77 19 28 20 80 21 74 22 73 23
REMARK SMILES IDX 29 25 61 26 41 27 60 28 42 29 45 30 59 31 78 32 43 33 44 34
REMARK SMILES IDX 58 36 79 37 46 38 30 39 31 40 39 41 32 42 38 43 40 44 37 45
REMARK SMILES IDX 33 46 34 47 35 48 36 49 62 50 63 51 71 52 64 53 70 54 72 55
REMARK SMILES IDX 69 56 65 57 66 58 67 59 68 60 47 61 48 62 56 63 49 64 55 65
REMARK SMILES IDX 57 66 54 67 50 68 51 69 52 70 53 71 6 72 7 73 8 74 9 75
REMARK SMILES IDX 10 76 11 77 12 79 13 80 14 81 20 82 15 83 16 84 17 87 18 88
REMARK SMILES IDX 19 89
REMARK H PARENT 3 6 77 24 45 35 10 78 20 85 20 86
REMARK Flexibility Score: inf
ROOT
ATOM      1  C   UNL A   1      31.535  31.942  26.769  1.00  0.00     0.021 C 
ENDROOT
BRANCH   1   2
ATOM      2  C   UNL A   1      32.829  32.582  27.254  1.00  0.00     0.116 C 
BRANCH   2   3
ATOM      3  N   UNL A   1      32.629  33.961  27.668  1.00  0.00    -0.352 N 
ATOM      4  O   UNL A   1      32.811  35.743  29.040  1.00  0.00    -0.269 OA
ATOM      5  C   UNL A   1      33.245  34.649  28.682  1.00  0.00     0.251 C 
ATOM      6  H   UNL A   1      31.964  34.469  27.151  1.00  0.00     0.163 HD
BRANCH   5   7
ATOM      7  C   UNL A   1      34.425  34.061  29.348  1.00  0.00     0.039 A 
ATOM      8  C   UNL A   1      35.715  34.406  28.935  1.00  0.00     0.014 A 
ATOM      9  C   UNL A   1      34.237  33.161  30.400  1.00  0.00     0.014 A 
ATOM     10  C   UNL A   1      36.815  33.769  29.497  1.00  0.00     0.010 A 
ATOM     11  C   UNL A   1      35.348  32.583  31.017  1.00  0.00     0.010 A 
ATOM     12  C   UNL A   1      36.645  32.870  30.560  1.00  0.00    -0.014 A 
BRANCH  12  13
ATOM     13  C   UNL A   1      37.832  32.287  31.234  1.00  0.00     0.031 A 
ATOM     14  C   UNL A   1      38.589  31.150  30.613  1.00  0.00     0.074 A 
ATOM     15  C   UNL A   1      38.201  32.776  32.433  1.00  0.00     0.049 A 
ATOM     16  N   UNL A   1      39.589  30.461  31.099  1.00  0.00    -0.248 NA
ATOM     17  C   UNL A   1      38.154  30.724  29.277  1.00  0.00     0.031 C 
ATOM     18  C   UNL A   1      37.533  33.879  33.130  1.00  0.00     0.029 A 
ATOM     19  N   UNL A   1      39.210  32.406  33.285  1.00  0.00    -0.354 N 
ATOM     20  C   UNL A   1      39.894  29.502  30.138  1.00  0.00     0.074 A 
ATOM     21  C   UNL A   1      38.943  29.682  29.060  1.00  0.00     0.031 C 
ATOM     22  C   UNL A   1      38.154  34.099  34.298  1.00  0.00     0.029 A 
ATOM     23  C   UNL A   1      39.209  33.108  34.468  1.00  0.00     0.049 A 
ATOM     24  H   UNL A   1      39.870  31.709  33.070  1.00  0.00     0.167 HD
ATOM     25  C   UNL A   1      40.878  28.567  30.160  1.00  0.00     0.034 A 
ATOM     26  C   UNL A   1      39.938  32.941  35.588  1.00  0.00     0.034 A 
ATOM     27  C   UNL A   1      41.800  28.403  31.260  1.00  0.00     0.049 A 
ATOM     28  C   UNL A   1      40.977  31.856  35.623  1.00  0.00     0.074 A 
ATOM     29  C   UNL A   1      42.862  27.522  31.372  1.00  0.00     0.029 A 
ATOM     30  N   UNL A   1      41.755  29.119  32.453  1.00  0.00    -0.354 N 
ATOM     31  N   UNL A   1      41.279  30.977  34.695  1.00  0.00    -0.248 NA
ATOM     32  C   UNL A   1      41.777  31.740  36.847  1.00  0.00     0.031 C 
ATOM     33  C   UNL A   1      43.400  27.641  32.658  1.00  0.00     0.029 A 
ATOM     34  C   UNL A   1      42.740  28.665  33.320  1.00  0.00     0.049 A 
ATOM     35  H   UNL A   1      41.118  29.842  32.653  1.00  0.00     0.167 HD
ATOM     36  C   UNL A   1      42.324  30.219  35.215  1.00  0.00     0.074 A 
ATOM     37  C   UNL A   1      42.600  30.749  36.536  1.00  0.00     0.031 C 
ATOM     38  C   UNL A   1      42.998  29.190  34.643  1.00  0.00     0.034 A 
BRANCH  25  39
ATOM     39  C   UNL A   1      40.958  27.617  28.985  1.00  0.00     0.023 A 
ATOM     40  C   UNL A   1      41.930  27.760  27.979  1.00  0.00     0.031 A 
ATOM     41  C   UNL A   1      40.016  26.583  28.840  1.00  0.00     0.131 A 
ATOM     42  C   UNL A   1      41.876  26.956  26.829  1.00  0.00     0.055 A 
ATOM     43  C   UNL A   1      40.026  25.723  27.740  1.00  0.00     0.041 A 
ATOM     44  F   UNL A   1      39.050  26.403  29.755  1.00  0.00    -0.206 F 
ATOM     45  C   UNL A   1      40.946  25.921  26.715  1.00  0.00     0.022 A 
BRANCH  42  46
ATOM     46  S   UNL A   1      42.910  27.410  25.410  1.00  0.00     0.124 S 
ATOM     47  O   UNL A   1      42.106  28.452  24.775  1.00  0.00    -0.237 OA
ATOM     48  O   UNL A   1      44.143  27.856  26.048  1.00  0.00    -0.237 OA
ATOM     49  O   UNL A   1      43.014  26.167  24.649  1.00  0.00    -0.744 OA
ENDBRANCH  42  46
ENDBRANCH  25  39
BRANCH  26  50
ATOM     50  C   UNL A   1      39.654  33.792  36.777  1.00  0.00     0.023 A 
ATOM     51  C   UNL A   1      39.083  33.256  37.940  1.00  0.00     0.031 A 
ATOM     52  C   UNL A   1      39.980  35.161  36.769  1.00  0.00     0.131 A 
ATOM     53  C   UNL A   1      38.838  34.092  39.042  1.00  0.00     0.055 A 
ATOM     54  C   UNL A   1      39.783  35.975  37.883  1.00  0.00     0.041 A 
ATOM     55  F   UNL A   1      40.536  35.719  35.682  1.00  0.00    -0.206 F 
ATOM     56  C   UNL A   1      39.200  35.441  39.028  1.00  0.00     0.022 A 
BRANCH  53  57
ATOM     57  S   UNL A   1      37.987  33.399  40.485  1.00  0.00     0.124 S 
ATOM     58  O   UNL A   1      38.755  32.183  40.728  1.00  0.00    -0.237 OA
ATOM     59  O   UNL A   1      38.144  34.464  41.471  1.00  0.00    -0.237 OA
ATOM     60  O   UNL A   1      36.622  33.191  40.008  1.00  0.00    -0.744 OA
ENDBRANCH  53  57
ENDBRANCH  26  50
BRANCH  38  61
ATOM     61  C   UNL A   1      44.145  28.597  35.424  1.00  0.00     0.023 A 
ATOM     62  C   UNL A   1      43.959  27.567  36.361  1.00  0.00     0.031 A 
ATOM     63  C   UNL A   1      45.455  29.059  35.200  1.00  0.00     0.131 A 
ATOM     64  C   UNL A   1      45.062  27.053  37.064  1.00  0.00     0.055 A 
ATOM     65  C   UNL A   1      46.554  28.506  35.858  1.00  0.00     0.041 A 
ATOM     66  F   UNL A   1      45.690  30.046  34.321  1.00  0.00    -0.206 F 
ATOM     67  C   UNL A   1      46.359  27.502  36.802  1.00  0.00     0.022 A 
BRANCH  64  68
ATOM     68  S   UNL A   1      44.776  25.832  38.373  1.00  0.00     0.124 S 
ATOM     69  O   UNL A   1      43.867  26.548  39.263  1.00  0.00    -0.237 OA
ATOM     70  O   UNL A   1      44.198  24.712  37.637  1.00  0.00    -0.237 OA
ATOM     71  O   UNL A   1      46.112  25.591  38.916  1.00  0.00    -0.744 OA
ENDBRANCH  64  68
ENDBRANCH  38  61
ENDBRANCH  12  13
ENDBRANCH   5   7
ENDBRANCH   2   3
ENDBRANCH   1   2
BRANCH   1  72
ATOM     72  C   UNL A   1      31.590  30.417  26.666  1.00  0.00     0.002 C 
BRANCH  72  73
ATOM     73  C   UNL A   1      32.673  29.874  25.728  1.00  0.00     0.002 C 
BRANCH  73  74
ATOM     74  C   UNL A   1      32.380  28.494  25.122  1.00  0.00     0.021 C 
BRANCH  74  75
ATOM     75  C   UNL A   1      30.999  28.377  24.479  1.00  0.00     0.116 C 
BRANCH  75  76
ATOM     76  N   UNL A   1      31.021  28.901  23.130  1.00  0.00    -0.351 N 
ATOM     77  C   UNL A   1      30.054  29.539  22.415  1.00  0.00     0.278 C 
ATOM     78  H   UNL A   1      31.872  28.777  22.653  1.00  0.00     0.163 HD
ATOM     79  O   UNL A   1      30.322  29.814  21.243  1.00  0.00    -0.268 OA
BRANCH  77  80
ATOM     80  C   UNL A   1      28.752  29.982  23.119  1.00  0.00     0.273 C 
ATOM     81  C   UNL A   1      29.031  31.235  23.930  1.00  0.00     0.082 C 
ATOM     82  N   UNL A   1      27.715  30.380  22.140  1.00  0.00    -0.329 N 
ATOM     83  C   UNL A   1      28.912  32.335  22.892  1.00  0.00     0.078 C 
ATOM     84  C   UNL A   1      27.775  31.860  21.988  1.00  0.00     0.251 C 
ATOM     85  H   UNL A   1      26.793  30.104  22.480  1.00  0.00     0.347 HD
ATOM     86  H   UNL A   1      27.877  29.923  21.242  1.00  0.00     0.347 HD
BRANCH  84  87
ATOM     87  C   UNL A   1      27.899  32.378  20.543  1.00  0.00     0.399 C 
ATOM     88  F   UNL A   1      27.305  31.561  19.644  1.00  0.00    -0.204 F 
ATOM     89  F   UNL A   1      27.290  33.589  20.434  1.00  0.00    -0.204 F 
ENDBRANCH  84  87
ENDBRANCH  77  80
ENDBRANCH  75  76
ENDBRANCH  74  75
ENDBRANCH  73  74
ENDBRANCH  72  73
ENDBRANCH   1  72
TORSDOF 17
ENDMDL
MODEL 2
REMARK VINA RESULT:     -10.9      3.203      8.691
REMARK SMILES O=C(NCCCCCCNC(=O)[C@H]1CC[C@@H](C(F)F)[NH2+]1)c1ccc(-c2c3nc(c(-c4cc(S(=O)(=O)[O-])ccc4F)c4ccc([nH]4)c(-c4cc(S(=O)(=O)[O-])ccc4F)c4nc(c(-c5cc(S(=O)(=O)[O-])ccc5F)c5ccc2[nH]5)C=C4)C=C3)cc1
REMARK SMILES IDX 5 1 4 2 3 3 1 4 2 5 21 7 22 8 83 9 23 10 82 11 24 12 25 13
REMARK SMILES IDX 26 14 76 15 27 16 81 17 75 18 77 19 28 20 80 21 74 22 73 23
REMARK SMILES IDX 29 25 61 26 41 27 60 28 42 29 45 30 59 31 78 32 43 33 44 34
REMARK SMILES IDX 58 36 79 37 46 38 30 39 31 40 39 41 32 42 38 43 40 44 37 45
REMARK SMILES IDX 33 46 34 47 35 48 36 49 62 50 63 51 71 52 64 53 70 54 72 55
REMARK SMILES IDX 69 56 65 57 66 58 67 59 68 60 47 61 48 62 56 63 49 64 55 65
REMARK SMILES IDX 57 66 54 67 50 68 51 69 52 70 53 71 6 72 7 73 8 74 9 75
REMARK SMILES IDX 10 76 11 77 12 79 13 80 14 81 20 82 15 83 16 84 17 87 18 88
REMARK SMILES IDX 19 89
REMARK H PARENT 3 6 77 24 45 35 10 78 20 85 20 86
REMARK Flexibility Score: inf
ROOT
ATOM      1  C   UNL A   1      33.200  28.076  27.195  1.00  0.00     0.021 C 
ENDROOT
BRANCH   1   2
ATOM      2  C   UNL A   1      33.990  29.037  26.317  1.00  0.00     0.116 C 
BRANCH   2   3
ATOM      3  N   UNL A   1      33.799  30.421  26.721  1.00  0.00    -0.352 N 
ATOM      4  O   UNL A   1      34.071  32.235  28.034  1.00  0.00    -0.269 OA
ATOM      5  C   UNL A   1      34.493  31.142  27.658  1.00  0.00     0.251 C 
ATOM      6  H   UNL A   1      33.076  30.904  26.261  1.00  0.00     0.163 HD
BRANCH   5   7
ATOM      7  C   UNL A   1      35.744  30.593  28.219  1.00  0.00     0.039 A 
ATOM      8  C   UNL A   1      36.970  30.847  27.597  1.00  0.00     0.014 A 
ATOM      9  C   UNL A   1      35.690  29.823  29.383  1.00  0.00     0.014 A 
ATOM     10  C   UNL A   1      38.127  30.240  28.072  1.00  0.00     0.010 A 
ATOM     11  C   UNL A   1      36.866  29.281  29.905  1.00  0.00     0.010 A 
ATOM     12  C   UNL A   1      38.091  29.471  29.244  1.00  0.00    -0.014 A 
BRANCH  12  13
ATOM     13  C   UNL A   1      39.350  28.928  29.812  1.00  0.00     0.031 A 
ATOM     14  C   UNL A   1      40.033  29.611  30.961  1.00  0.00     0.074 A 
ATOM     15  C   UNL A   1      39.890  27.826  29.257  1.00  0.00     0.049 A 
ATOM     16  N   UNL A   1      41.180  29.331  31.524  1.00  0.00    -0.248 NA
ATOM     17  C   UNL A   1      39.341  30.768  31.543  1.00  0.00     0.031 C 
ATOM     18  C   UNL A   1      39.310  27.084  28.134  1.00  0.00     0.029 A 
ATOM     19  N   UNL A   1      41.045  27.147  29.545  1.00  0.00    -0.354 N 
ATOM     20  C   UNL A   1      41.363  30.290  32.515  1.00  0.00     0.074 A 
ATOM     21  C   UNL A   1      40.220  31.178  32.445  1.00  0.00     0.031 C 
ATOM     22  C   UNL A   1      40.109  26.051  27.833  1.00  0.00     0.029 A 
ATOM     23  C   UNL A   1      41.290  26.102  28.685  1.00  0.00     0.049 A 
ATOM     24  H   UNL A   1      41.639  27.383  30.293  1.00  0.00     0.167 HD
ATOM     25  C   UNL A   1      42.387  30.409  33.398  1.00  0.00     0.034 A 
ATOM     26  C   UNL A   1      42.368  25.304  28.558  1.00  0.00     0.034 A 
ATOM     27  C   UNL A   1      43.522  29.515  33.430  1.00  0.00     0.049 A 
ATOM     28  C   UNL A   1      43.525  25.492  29.498  1.00  0.00     0.074 A 
ATOM     29  C   UNL A   1      44.593  29.511  34.306  1.00  0.00     0.029 A 
ATOM     30  N   UNL A   1      43.748  28.478  32.528  1.00  0.00    -0.354 N 
ATOM     31  N   UNL A   1      43.672  26.381  30.455  1.00  0.00    -0.248 NA
ATOM     32  C   UNL A   1      44.658  24.572  29.351  1.00  0.00     0.031 C 
ATOM     33  C   UNL A   1      45.505  28.538  33.884  1.00  0.00     0.029 A 
ATOM     34  C   UNL A   1      44.962  27.863  32.801  1.00  0.00     0.049 A 
ATOM     35  H   UNL A   1      43.135  28.219  31.803  1.00  0.00     0.167 HD
ATOM     36  C   UNL A   1      44.904  26.109  31.040  1.00  0.00     0.074 A 
ATOM     37  C   UNL A   1      45.457  24.971  30.332  1.00  0.00     0.031 C 
ATOM     38  C   UNL A   1      45.512  26.738  32.078  1.00  0.00     0.034 A 
BRANCH  25  39
ATOM     39  C   UNL A   1      42.348  31.581  34.352  1.00  0.00     0.023 A 
ATOM     40  C   UNL A   1      41.585  31.554  35.533  1.00  0.00     0.031 A 
ATOM     41  C   UNL A   1      43.043  32.767  34.052  1.00  0.00     0.131 A 
ATOM     42  C   UNL A   1      41.451  32.714  36.311  1.00  0.00     0.055 A 
ATOM     43  C   UNL A   1      42.984  33.889  34.882  1.00  0.00     0.041 A 
ATOM     44  F   UNL A   1      43.775  32.867  32.931  1.00  0.00    -0.206 F 
ATOM     45  C   UNL A   1      42.167  33.874  36.008  1.00  0.00     0.022 A 
BRANCH  42  46
ATOM     46  S   UNL A   1      40.183  32.742  37.608  1.00  0.00     0.124 S 
ATOM     47  O   UNL A   1      39.727  34.129  37.551  1.00  0.00    -0.237 OA
ATOM     48  O   UNL A   1      39.233  31.738  37.142  1.00  0.00    -0.237 OA
ATOM     49  O   UNL A   1      40.921  32.389  38.819  1.00  0.00    -0.744 OA
ENDBRANCH  42  46
ENDBRANCH  25  39
BRANCH  26  50
ATOM     50  C   UNL A   1      42.409  24.303  27.456  1.00  0.00     0.023 A 
ATOM     51  C   UNL A   1      41.677  23.110  27.524  1.00  0.00     0.031 A 
ATOM     52  C   UNL A   1      43.171  24.548  26.297  1.00  0.00     0.131 A 
ATOM     53  C   UNL A   1      41.737  22.196  26.459  1.00  0.00     0.055 A 
ATOM     54  C   UNL A   1      43.187  23.662  25.222  1.00  0.00     0.041 A 
ATOM     55  F   UNL A   1      43.883  25.680  26.181  1.00  0.00    -0.206 F 
ATOM     56  C   UNL A   1      42.471  22.471  25.303  1.00  0.00     0.022 A 
BRANCH  53  57
ATOM     57  S   UNL A   1      40.879  20.608  26.628  1.00  0.00     0.124 S 
ATOM     58  O   UNL A   1      41.740  19.720  25.856  1.00  0.00    -0.237 OA
ATOM     59  O   UNL A   1      40.886  20.411  28.075  1.00  0.00    -0.237 OA
ATOM     60  O   UNL A   1      39.564  20.867  26.044  1.00  0.00    -0.744 OA
ENDBRANCH  53  57
ENDBRANCH  26  50
BRANCH  38  61
ATOM     61  C   UNL A   1      46.830  26.174  32.551  1.00  0.00     0.023 A 
ATOM     62  C   UNL A   1      46.905  25.174  33.536  1.00  0.00     0.031 A 
ATOM     63  C   UNL A   1      48.031  26.631  31.979  1.00  0.00     0.131 A 
ATOM     64  C   UNL A   1      48.159  24.687  33.942  1.00  0.00     0.055 A 
ATOM     65  C   UNL A   1      49.269  26.104  32.345  1.00  0.00     0.041 A 
ATOM     66  F   UNL A   1      48.017  27.590  31.039  1.00  0.00    -0.206 F 
ATOM     67  C   UNL A   1      49.338  25.131  33.338  1.00  0.00     0.022 A 
BRANCH  64  68
ATOM     68  S   UNL A   1      48.237  23.508  35.318  1.00  0.00     0.124 S 
ATOM     69  O   UNL A   1      49.488  22.808  35.045  1.00  0.00    -0.237 OA
ATOM     70  O   UNL A   1      48.238  24.386  36.483  1.00  0.00    -0.237 OA
ATOM     71  O   UNL A   1      47.028  22.704  35.150  1.00  0.00    -0.744 OA
ENDBRANCH  64  68
ENDBRANCH  38  61
ENDBRANCH  12  13
ENDBRANCH   5   7
ENDBRANCH   2   3
ENDBRANCH   1   2
BRANCH   1  72
ATOM     72  C   UNL A   1      31.743  27.888  26.769  1.00  0.00     0.002 C 
BRANCH  72  73
ATOM     73  C   UNL A   1      31.553  27.335  25.353  1.00  0.00     0.002 C 
BRANCH  73  74
ATOM     74  C   UNL A   1      30.241  26.570  25.122  1.00  0.00     0.021 C 
BRANCH  74  75
ATOM     75  C   UNL A   1      29.591  26.845  23.767  1.00  0.00     0.116 C 
BRANCH  75  76
ATOM     76  N   UNL A   1      30.218  27.980  23.123  1.00  0.00    -0.351 N 
ATOM     77  C   UNL A   1      29.680  28.970  22.359  1.00  0.00     0.278 C 
ATOM     78  H   UNL A   1      31.190  28.046  23.259  1.00  0.00     0.163 HD
ATOM     79  O   UNL A   1      30.468  29.781  21.867  1.00  0.00    -0.268 OA
BRANCH  77  80
ATOM     80  C   UNL A   1      28.144  29.098  22.248  1.00  0.00     0.273 C 
ATOM     81  C   UNL A   1      27.597  29.635  23.559  1.00  0.00     0.082 C 
ATOM     82  N   UNL A   1      27.755  30.099  21.229  1.00  0.00    -0.329 N 
ATOM     83  C   UNL A   1      27.790  31.133  23.409  1.00  0.00     0.078 C 
ATOM     84  C   UNL A   1      27.506  31.389  21.930  1.00  0.00     0.251 C 
ATOM     85  H   UNL A   1      26.907  29.795  20.750  1.00  0.00     0.347 HD
ATOM     86  H   UNL A   1      28.495  30.208  20.535  1.00  0.00     0.347 HD
BRANCH  84  87
ATOM     87  C   UNL A   1      28.266  32.608  21.373  1.00  0.00     0.399 C 
ATOM     88  F   UNL A   1      27.453  33.489  20.748  1.00  0.00    -0.204 F 
ATOM     89  F   UNL A   1      28.864  33.282  22.393  1.00  0.00    -0.204 F 
ENDBRANCH  84  87
ENDBRANCH  77  80
ENDBRANCH  75  76
ENDBRANCH  74  75
ENDBRANCH  73  74
ENDBRANCH  72  73
ENDBRANCH   1  72
TORSDOF 17
ENDMDL
MODEL 3
REMARK VINA RESULT:     -10.9      7.834     12.832
REMARK SMILES O=C(NCCCCCCNC(=O)[C@H]1CC[C@@H](C(F)F)[NH2+]1)c1ccc(-c2c3nc(c(-c4cc(S(=O)(=O)[O-])ccc4F)c4ccc([nH]4)c(-c4cc(S(=O)(=O)[O-])ccc4F)c4nc(c(-c5cc(S(=O)(=O)[O-])ccc5F)c5ccc2[nH]5)C=C4)C=C3)cc1
REMARK SMILES IDX 5 1 4 2 3 3 1 4 2 5 21 7 22 8 83 9 23 10 82 11 24 12 25 13
REMARK SMILES IDX 26 14 76 15 27 16 81 17 75 18 77 19 28 20 80 21 74 22 73 23
REMARK SMILES IDX 29 25 61 26 41 27 60 28 42 29 45 30 59 31 78 32 43 33 44 34
REMARK SMILES IDX 58 36 79 37 46 38 30 39 31 40 39 41 32 42 38 43 40 44 37 45
REMARK SMILES IDX 33 46 34 47 35 48 36 49 62 50 63 51 71 52 64 53 70 54 72 55
REMARK SMILES IDX 69 56 65 57 66 58 67 59 68 60 47 61 48 62 56 63 49 64 55 65
REMARK SMILES IDX 57 66 54 67 50 68 51 69 52 70 53 71 6 72 7 73 8 74 9 75
REMARK SMILES IDX 10 76 11 77 12 79 13 80 14 81 20 82 15 83 16 84 17 87 18 88
REMARK SMILES IDX 19 89
REMARK H PARENT 3 6 77 24 45 35 10 78 20 85 20 86
REMARK Flexibility Score: inf
ROOT
ATOM      1  C   UNL A   1      37.860  20.048  24.978  1.00  0.00     0.021 C 
ENDROOT
BRANCH   1   2
ATOM      2  C   UNL A   1      38.951  20.495  25.943  1.00  0.00     0.116 C 
BRANCH   2   3
ATOM      3  N   UNL A   1      40.049  19.543  25.996  1.00  0.00    -0.352 N 
ATOM      4  O   UNL A   1      42.207  18.889  25.934  1.00  0.00    -0.269 OA
ATOM      5  C   UNL A   1      41.392  19.792  26.118  1.00  0.00     0.251 C 
ATOM      6  H   UNL A   1      39.795  18.595  25.938  1.00  0.00     0.163 HD
BRANCH   5   7
ATOM      7  C   UNL A   1      41.852  21.153  26.461  1.00  0.00     0.039 A 
ATOM      8  C   UNL A   1      41.947  22.138  25.473  1.00  0.00     0.014 A 
ATOM      9  C   UNL A   1      42.181  21.448  27.786  1.00  0.00     0.014 A 
ATOM     10  C   UNL A   1      42.479  23.383  25.786  1.00  0.00     0.010 A 
ATOM     11  C   UNL A   1      42.639  22.726  28.113  1.00  0.00     0.010 A 
ATOM     12  C   UNL A   1      42.807  23.699  27.113  1.00  0.00    -0.014 A 
BRANCH  12  13
ATOM     13  C   UNL A   1      43.258  25.069  27.459  1.00  0.00     0.031 A 
ATOM     14  C   UNL A   1      42.321  26.049  28.103  1.00  0.00     0.074 A 
ATOM     15  C   UNL A   1      44.519  25.433  27.155  1.00  0.00     0.049 A 
ATOM     16  N   UNL A   1      42.514  27.310  28.391  1.00  0.00    -0.248 NA
ATOM     17  C   UNL A   1      40.987  25.546  28.455  1.00  0.00     0.031 C 
ATOM     18  C   UNL A   1      45.514  24.561  26.524  1.00  0.00     0.029 A 
ATOM     19  N   UNL A   1      45.176  26.625  27.317  1.00  0.00    -0.354 N 
ATOM     20  C   UNL A   1      41.320  27.763  28.940  1.00  0.00     0.074 A 
ATOM     21  C   UNL A   1      40.400  26.644  28.908  1.00  0.00     0.031 C 
ATOM     22  C   UNL A   1      46.654  25.245  26.359  1.00  0.00     0.029 A 
ATOM     23  C   UNL A   1      46.449  26.620  26.797  1.00  0.00     0.049 A 
ATOM     24  H   UNL A   1      44.776  27.407  27.761  1.00  0.00     0.167 HD
ATOM     25  C   UNL A   1      41.027  28.996  29.428  1.00  0.00     0.034 A 
ATOM     26  C   UNL A   1      47.338  27.620  26.640  1.00  0.00     0.034 A 
ATOM     27  C   UNL A   1      41.964  30.097  29.430  1.00  0.00     0.049 A 
ATOM     28  C   UNL A   1      46.974  28.996  27.121  1.00  0.00     0.074 A 
ATOM     29  C   UNL A   1      41.794  31.374  29.937  1.00  0.00     0.029 A 
ATOM     30  N   UNL A   1      43.240  30.061  28.875  1.00  0.00    -0.354 N 
ATOM     31  N   UNL A   1      45.853  29.405  27.671  1.00  0.00    -0.248 NA
ATOM     32  C   UNL A   1      47.989  30.044  26.970  1.00  0.00     0.031 C 
ATOM     33  C   UNL A   1      42.924  32.131  29.612  1.00  0.00     0.029 A 
ATOM     34  C   UNL A   1      43.846  31.304  28.988  1.00  0.00     0.049 A 
ATOM     35  H   UNL A   1      43.653  29.268  28.464  1.00  0.00     0.167 HD
ATOM     36  C   UNL A   1      46.039  30.755  27.955  1.00  0.00     0.074 A 
ATOM     37  C   UNL A   1      47.381  31.087  27.519  1.00  0.00     0.031 C 
ATOM     38  C   UNL A   1      45.180  31.631  28.535  1.00  0.00     0.034 A 
BRANCH  25  39
ATOM     39  C   UNL A   1      39.622  29.226  29.937  1.00  0.00     0.023 A 
ATOM     40  C   UNL A   1      38.661  29.919  29.178  1.00  0.00     0.031 A 
ATOM     41  C   UNL A   1      39.249  28.793  31.222  1.00  0.00     0.131 A 
ATOM     42  C   UNL A   1      37.420  30.247  29.745  1.00  0.00     0.055 A 
ATOM     43  C   UNL A   1      37.978  29.038  31.745  1.00  0.00     0.041 A 
ATOM     44  F   UNL A   1      40.124  28.143  32.005  1.00  0.00    -0.206 F 
ATOM     45  C   UNL A   1      37.061  29.788  31.014  1.00  0.00     0.022 A 
BRANCH  42  46
ATOM     46  S   UNL A   1      36.364  31.440  28.878  1.00  0.00     0.124 S 
ATOM     47  O   UNL A   1      36.098  30.745  27.621  1.00  0.00    -0.237 OA
ATOM     48  O   UNL A   1      35.230  31.575  29.784  1.00  0.00    -0.237 OA
ATOM     49  O   UNL A   1      37.211  32.625  28.756  1.00  0.00    -0.744 OA
ENDBRANCH  42  46
ENDBRANCH  25  39
BRANCH  26  50
ATOM     50  C   UNL A   1      48.625  27.350  25.942  1.00  0.00     0.023 A 
ATOM     51  C   UNL A   1      48.771  27.572  24.565  1.00  0.00     0.031 A 
ATOM     52  C   UNL A   1      49.743  26.886  26.661  1.00  0.00     0.131 A 
ATOM     53  C   UNL A   1      50.005  27.312  23.947  1.00  0.00     0.055 A 
ATOM     54  C   UNL A   1      50.980  26.678  26.051  1.00  0.00     0.041 A 
ATOM     55  F   UNL A   1      49.655  26.665  27.982  1.00  0.00    -0.206 F 
ATOM     56  C   UNL A   1      51.113  26.884  24.682  1.00  0.00     0.022 A 
BRANCH  53  57
ATOM     57  S   UNL A   1      50.129  27.491  22.147  1.00  0.00     0.124 S 
ATOM     58  O   UNL A   1      48.830  26.993  21.708  1.00  0.00    -0.237 OA
ATOM     59  O   UNL A   1      50.348  28.928  21.999  1.00  0.00    -0.237 OA
ATOM     60  O   UNL A   1      51.272  26.650  21.798  1.00  0.00    -0.744 OA
ENDBRANCH  53  57
ENDBRANCH  26  50
BRANCH  38  61
ATOM     61  C   UNL A   1      45.686  33.031  28.785  1.00  0.00     0.023 A 
ATOM     62  C   UNL A   1      45.469  34.078  27.873  1.00  0.00     0.031 A 
ATOM     63  C   UNL A   1      46.375  33.322  29.976  1.00  0.00     0.131 A 
ATOM     64  C   UNL A   1      45.965  35.362  28.154  1.00  0.00     0.055 A 
ATOM     65  C   UNL A   1      46.815  34.611  30.276  1.00  0.00     0.041 A 
ATOM     66  F   UNL A   1      46.616  32.358  30.879  1.00  0.00    -0.206 F 
ATOM     67  C   UNL A   1      46.617  35.639  29.358  1.00  0.00     0.022 A 
BRANCH  64  68
ATOM     68  S   UNL A   1      45.803  36.659  26.896  1.00  0.00     0.124 S 
ATOM     69  O   UNL A   1      46.355  36.004  25.714  1.00  0.00    -0.237 OA
ATOM     70  O   UNL A   1      44.365  36.901  26.879  1.00  0.00    -0.237 OA
ATOM     71  O   UNL A   1      46.609  37.756  27.429  1.00  0.00    -0.744 OA
ENDBRANCH  64  68
ENDBRANCH  38  61
ENDBRANCH  12  13
ENDBRANCH   5   7
ENDBRANCH   2   3
ENDBRANCH   1   2
BRANCH   1  72
ATOM     72  C   UNL A   1      36.940  21.175  24.507  1.00  0.00     0.002 C 
BRANCH  72  73
ATOM     73  C   UNL A   1      35.813  21.535  25.481  1.00  0.00     0.002 C 
BRANCH  73  74
ATOM     74  C   UNL A   1      34.591  22.213  24.843  1.00  0.00     0.021 C 
BRANCH  74  75
ATOM     75  C   UNL A   1      33.610  21.241  24.190  1.00  0.00     0.116 C 
BRANCH  75  76
ATOM     76  N   UNL A   1      33.062  20.333  25.176  1.00  0.00    -0.351 N 
ATOM     77  C   UNL A   1      32.854  18.989  25.119  1.00  0.00     0.278 C 
ATOM     78  H   UNL A   1      32.798  20.756  26.024  1.00  0.00     0.163 HD
ATOM     79  O   UNL A   1      32.295  18.473  26.089  1.00  0.00    -0.268 OA
BRANCH  77  80
ATOM     80  C   UNL A   1      33.420  18.180  23.930  1.00  0.00     0.273 C 
ATOM     81  C   UNL A   1      34.831  17.730  24.266  1.00  0.00     0.082 C 
ATOM     82  N   UNL A   1      32.658  16.928  23.714  1.00  0.00    -0.329 N 
ATOM     83  C   UNL A   1      34.592  16.473  25.083  1.00  0.00     0.078 C 
ATOM     84  C   UNL A   1      33.381  15.829  24.412  1.00  0.00     0.251 C 
ATOM     85  H   UNL A   1      32.599  16.726  22.716  1.00  0.00     0.347 HD
ATOM     86  H   UNL A   1      31.710  17.020  24.080  1.00  0.00     0.347 HD
BRANCH  84  87
ATOM     87  C   UNL A   1      32.533  14.985  25.383  1.00  0.00     0.399 C 
ATOM     88  F   UNL A   1      33.132  13.821  25.721  1.00  0.00    -0.204 F 
ATOM     89  F   UNL A   1      32.334  15.674  26.538  1.00  0.00    -0.204 F 
ENDBRANCH  84  87
ENDBRANCH  77  80
ENDBRANCH  75  76
ENDBRANCH  74  75
ENDBRANCH  73  74
ENDBRANCH  72  73
ENDBRANCH   1  72
TORSDOF 17
ENDMDL
