MODEL 1
REMARK VINA RESULT:     -11.7      0.000      0.000
REMARK SMILES CCc1cc(/C=C/C(=O)NCCCCCCNC(=O)c2ccc(-c3c4nc(c(-c5cc(S(=O)(=O)[O-])ccc5F)c5ccc([nH]5)c(-c5cc(S(=O)(=O)[O-])ccc5F)c5nc(c(-c6cc(S(=O)(=O)[O-])ccc6F)c6ccc3[nH]6)C=C5)C=C4)cc2)cc(C(=O)c2ccccc2)c1
REMARK SMILES IDX 13 1 12 2 11 3 10 4 8 5 9 6 7 8 6 9 5 10 3 11 4 12 93 13
REMARK SMILES IDX 84 14 83 15 2 16 1 17 85 18 86 19 87 20 88 21 92 22 89 23
REMARK SMILES IDX 91 24 90 25 14 26 15 27 16 28 17 29 18 30 19 32 20 33 21 34
REMARK SMILES IDX 82 35 22 36 81 37 23 38 24 39 25 40 75 41 26 42 80 43 74 44
REMARK SMILES IDX 76 45 27 46 79 47 73 48 72 49 28 51 60 52 40 53 59 54 41 55
REMARK SMILES IDX 44 56 58 57 77 58 42 59 43 60 57 62 78 63 45 64 29 65 30 66
REMARK SMILES IDX 38 67 31 68 37 69 39 70 36 71 32 72 33 73 34 74 35 75 61 76
REMARK SMILES IDX 62 77 70 78 63 79 69 80 71 81 68 82 64 83 65 84 66 85 67 86
REMARK SMILES IDX 46 87 47 88 55 89 48 90 54 91 56 92 53 93 49 94 50 95 51 96
REMARK SMILES IDX 52 97
REMARK H PARENT 10 7 17 31 76 50 44 61
REMARK Flexibility Score: inf
ROOT
ATOM      1  C   UNL A   1      31.027  26.790  25.609  1.00  0.00     0.002 C 
ENDROOT
BRANCH   1   2
ATOM      2  C   UNL A   1      30.682  27.727  24.444  1.00  0.00     0.021 C 
BRANCH   2   3
ATOM      3  C   UNL A   1      30.833  27.070  23.071  1.00  0.00     0.116 C 
BRANCH   3   4
ATOM      4  N   UNL A   1      31.987  27.612  22.380  1.00  0.00    -0.353 N 
ATOM      5  C   UNL A   1      33.288  27.231  22.365  1.00  0.00     0.243 C 
ATOM      6  O   UNL A   1      34.085  27.837  21.648  1.00  0.00    -0.270 OA
ATOM      7  H   UNL A   1      31.790  28.400  21.822  1.00  0.00     0.163 HD
BRANCH   5   8
ATOM      8  C   UNL A   1      33.772  26.050  23.120  1.00  0.00     0.072 C 
ATOM      9  C   UNL A   1      33.595  24.764  22.787  1.00  0.00     0.014 C 
BRANCH   9  10
ATOM     10  C   UNL A   1      34.048  23.626  23.603  1.00  0.00    -0.024 A 
ATOM     11  C   UNL A   1      35.702  22.555  25.055  1.00  0.00    -0.047 A 
ATOM     12  C   UNL A   1      35.313  23.604  24.209  1.00  0.00     0.011 A 
ATOM     13  C   UNL A   1      34.790  21.515  25.294  1.00  0.00     0.016 A 
ATOM     14  C   UNL A   1      33.513  21.531  24.717  1.00  0.00     0.023 A 
ATOM     15  C   UNL A   1      33.155  22.580  23.862  1.00  0.00     0.020 A 
BRANCH  11  16
ATOM     16  C   UNL A   1      37.033  22.518  25.772  1.00  0.00     0.032 C 
ATOM     17  C   UNL A   1      37.854  23.802  25.763  1.00  0.00     0.009 C 
ENDBRANCH  11  16
BRANCH  14  18
ATOM     18  C   UNL A   1      32.518  20.452  24.966  1.00  0.00     0.193 C 
ATOM     19  O   UNL A   1      31.398  20.744  25.377  1.00  0.00    -0.289 OA
BRANCH  18  20
ATOM     20  C   UNL A   1      32.836  19.028  24.709  1.00  0.00     0.022 A 
ATOM     21  C   UNL A   1      33.236  18.655  23.423  1.00  0.00     0.012 A 
ATOM     22  C   UNL A   1      32.723  18.063  25.718  1.00  0.00     0.012 A 
ATOM     23  C   UNL A   1      33.571  17.326  23.158  1.00  0.00     0.001 A 
ATOM     24  C   UNL A   1      33.060  16.735  25.447  1.00  0.00     0.001 A 
ATOM     25  C   UNL A   1      33.491  16.370  24.171  1.00  0.00     0.000 A 
ENDBRANCH  18  20
ENDBRANCH  14  18
ENDBRANCH   9  10
ENDBRANCH   5   8
ENDBRANCH   3   4
ENDBRANCH   2   3
ENDBRANCH   1   2
BRANCH   1  26
ATOM     26  C   UNL A   1      32.352  27.103  26.316  1.00  0.00     0.002 C 
BRANCH  26  27
ATOM     27  C   UNL A   1      32.462  28.523  26.879  1.00  0.00     0.021 C 
BRANCH  27  28
ATOM     28  C   UNL A   1      33.681  29.297  26.386  1.00  0.00     0.116 C 
BRANCH  28  29
ATOM     29  N   UNL A   1      33.645  30.681  26.830  1.00  0.00    -0.352 N 
ATOM     30  C   UNL A   1      34.423  31.313  27.767  1.00  0.00     0.251 C 
ATOM     31  H   UNL A   1      32.964  31.246  26.397  1.00  0.00     0.163 HD
ATOM     32  O   UNL A   1      34.077  32.403  28.212  1.00  0.00    -0.269 OA
BRANCH  30  33
ATOM     33  C   UNL A   1      35.668  30.671  28.240  1.00  0.00     0.039 A 
ATOM     34  C   UNL A   1      36.889  31.073  27.695  1.00  0.00     0.014 A 
ATOM     35  C   UNL A   1      35.627  29.661  29.207  1.00  0.00     0.014 A 
ATOM     36  C   UNL A   1      38.074  30.497  28.155  1.00  0.00     0.010 A 
ATOM     37  C   UNL A   1      36.813  29.141  29.716  1.00  0.00     0.010 A 
ATOM     38  C   UNL A   1      38.049  29.549  29.191  1.00  0.00    -0.014 A 
BRANCH  38  39
ATOM     39  C   UNL A   1      39.305  28.972  29.734  1.00  0.00     0.031 A 
ATOM     40  C   UNL A   1      39.981  29.609  30.918  1.00  0.00     0.074 A 
ATOM     41  C   UNL A   1      39.865  27.910  29.122  1.00  0.00     0.049 A 
ATOM     42  N   UNL A   1      41.108  29.291  31.499  1.00  0.00    -0.248 NA
ATOM     43  C   UNL A   1      39.313  30.782  31.505  1.00  0.00     0.031 C 
ATOM     44  C   UNL A   1      39.325  27.239  27.938  1.00  0.00     0.029 A 
ATOM     45  N   UNL A   1      41.015  27.215  29.401  1.00  0.00    -0.354 N 
ATOM     46  C   UNL A   1      41.294  30.228  32.509  1.00  0.00     0.074 A 
ATOM     47  C   UNL A   1      40.192  31.163  32.419  1.00  0.00     0.031 C 
ATOM     48  C   UNL A   1      40.130  26.217  27.607  1.00  0.00     0.029 A 
ATOM     49  C   UNL A   1      41.265  26.187  28.523  1.00  0.00     0.049 A 
ATOM     50  H   UNL A   1      41.605  27.432  30.158  1.00  0.00     0.167 HD
ATOM     51  C   UNL A   1      42.280  30.290  33.439  1.00  0.00     0.034 A 
ATOM     52  C   UNL A   1      42.299  25.326  28.454  1.00  0.00     0.034 A 
ATOM     53  C   UNL A   1      43.366  29.341  33.515  1.00  0.00     0.049 A 
ATOM     54  C   UNL A   1      43.394  25.423  29.485  1.00  0.00     0.074 A 
ATOM     55  C   UNL A   1      44.382  29.266  34.453  1.00  0.00     0.029 A 
ATOM     56  N   UNL A   1      43.588  28.309  32.609  1.00  0.00    -0.354 N 
ATOM     57  N   UNL A   1      43.522  26.275  30.477  1.00  0.00    -0.248 NA
ATOM     58  C   UNL A   1      44.476  24.435  29.397  1.00  0.00     0.031 C 
ATOM     59  C   UNL A   1      45.255  28.242  34.072  1.00  0.00     0.029 A 
ATOM     60  C   UNL A   1      44.743  27.620  32.945  1.00  0.00     0.049 A 
ATOM     61  H   UNL A   1      43.009  28.099  31.841  1.00  0.00     0.167 HD
ATOM     62  C   UNL A   1      44.687  25.907  31.145  1.00  0.00     0.074 A 
ATOM     63  C   UNL A   1      45.210  24.746  30.454  1.00  0.00     0.031 C 
ATOM     64  C   UNL A   1      45.266  26.473  32.235  1.00  0.00     0.034 A 
BRANCH  51  65
ATOM     65  C   UNL A   1      42.239  31.438  34.422  1.00  0.00     0.023 A 
ATOM     66  C   UNL A   1      41.339  31.459  35.503  1.00  0.00     0.031 A 
ATOM     67  C   UNL A   1      43.090  32.545  34.258  1.00  0.00     0.131 A 
ATOM     68  C   UNL A   1      41.251  32.595  36.322  1.00  0.00     0.055 A 
ATOM     69  C   UNL A   1      43.059  33.636  35.130  1.00  0.00     0.041 A 
ATOM     70  F   UNL A   1      43.957  32.597  33.234  1.00  0.00    -0.206 F 
ATOM     71  C   UNL A   1      42.124  33.673  36.159  1.00  0.00     0.022 A 
BRANCH  68  72
ATOM     72  S   UNL A   1      39.876  32.709  37.499  1.00  0.00     0.124 S 
ATOM     73  O   UNL A   1      39.341  34.036  37.200  1.00  0.00    -0.237 OA
ATOM     74  O   UNL A   1      39.037  31.580  37.115  1.00  0.00    -0.237 OA
ATOM     75  O   UNL A   1      40.528  32.588  38.801  1.00  0.00    -0.744 OA
ENDBRANCH  68  72
ENDBRANCH  51  65
BRANCH  52  76
ATOM     76  C   UNL A   1      42.357  24.308  27.367  1.00  0.00     0.023 A 
ATOM     77  C   UNL A   1      41.675  23.087  27.477  1.00  0.00     0.031 A 
ATOM     78  C   UNL A   1      43.119  24.536  26.205  1.00  0.00     0.131 A 
ATOM     79  C   UNL A   1      41.797  22.123  26.464  1.00  0.00     0.055 A 
ATOM     80  C   UNL A   1      43.194  23.595  25.177  1.00  0.00     0.041 A 
ATOM     81  F   UNL A   1      43.786  25.689  26.047  1.00  0.00    -0.206 F 
ATOM     82  C   UNL A   1      42.541  22.374  25.308  1.00  0.00     0.022 A 
BRANCH  79  83
ATOM     83  S   UNL A   1      41.028  20.498  26.711  1.00  0.00     0.124 S 
ATOM     84  O   UNL A   1      41.991  19.612  26.069  1.00  0.00    -0.237 OA
ATOM     85  O   UNL A   1      40.953  20.418  28.166  1.00  0.00    -0.237 OA
ATOM     86  O   UNL A   1      39.742  20.623  26.030  1.00  0.00    -0.744 OA
ENDBRANCH  79  83
ENDBRANCH  52  76
BRANCH  64  87
ATOM     87  C   UNL A   1      46.516  25.814  32.767  1.00  0.00     0.023 A 
ATOM     88  C   UNL A   1      47.788  26.101  32.240  1.00  0.00     0.031 A 
ATOM     89  C   UNL A   1      46.429  24.874  33.809  1.00  0.00     0.131 A 
ATOM     90  C   UNL A   1      48.914  25.412  32.719  1.00  0.00     0.055 A 
ATOM     91  C   UNL A   1      47.560  24.241  34.325  1.00  0.00     0.041 A 
ATOM     92  F   UNL A   1      45.240  24.558  34.347  1.00  0.00    -0.206 F 
ATOM     93  C   UNL A   1      48.810  24.498  33.770  1.00  0.00     0.022 A 
BRANCH  90  94
ATOM     94  S   UNL A   1      50.504  25.654  31.881  1.00  0.00     0.124 S 
ATOM     95  O   UNL A   1      50.297  24.940  30.625  1.00  0.00    -0.237 OA
ATOM     96  O   UNL A   1      50.587  27.108  31.782  1.00  0.00    -0.237 OA
ATOM     97  O   UNL A   1      51.469  25.040  32.791  1.00  0.00    -0.744 OA
ENDBRANCH  90  94
ENDBRANCH  64  87
ENDBRANCH  38  39
ENDBRANCH  30  33
ENDBRANCH  28  29
ENDBRANCH  27  28
ENDBRANCH  26  27
ENDBRANCH   1  26
TORSDOF 20
ENDMDL
MODEL 2
REMARK VINA RESULT:     -11.6      2.289      7.869
REMARK SMILES CCc1cc(/C=C/C(=O)NCCCCCCNC(=O)c2ccc(-c3c4nc(c(-c5cc(S(=O)(=O)[O-])ccc5F)c5ccc([nH]5)c(-c5cc(S(=O)(=O)[O-])ccc5F)c5nc(c(-c6cc(S(=O)(=O)[O-])ccc6F)c6ccc3[nH]6)C=C5)C=C4)cc2)cc(C(=O)c2ccccc2)c1
REMARK SMILES IDX 13 1 12 2 11 3 10 4 8 5 9 6 7 8 6 9 5 10 3 11 4 12 93 13
REMARK SMILES IDX 84 14 83 15 2 16 1 17 85 18 86 19 87 20 88 21 92 22 89 23
REMARK SMILES IDX 91 24 90 25 14 26 15 27 16 28 17 29 18 30 19 32 20 33 21 34
REMARK SMILES IDX 82 35 22 36 81 37 23 38 24 39 25 40 75 41 26 42 80 43 74 44
REMARK SMILES IDX 76 45 27 46 79 47 73 48 72 49 28 51 60 52 40 53 59 54 41 55
REMARK SMILES IDX 44 56 58 57 77 58 42 59 43 60 57 62 78 63 45 64 29 65 30 66
REMARK SMILES IDX 38 67 31 68 37 69 39 70 36 71 32 72 33 73 34 74 35 75 61 76
REMARK SMILES IDX 62 77 70 78 63 79 69 80 71 81 68 82 64 83 65 84 66 85 67 86
REMARK SMILES IDX 46 87 47 88 55 89 48 90 54 91 56 92 53 93 49 94 50 95 51 96
REMARK SMILES IDX 52 97
REMARK H PARENT 10 7 17 31 76 50 44 61
REMARK Flexibility Score: inf
ROOT
ATOM      1  C   UNL A   1      30.730  26.366  25.368  1.00  0.00     0.002 C 
ENDROOT
BRANCH   1   2
ATOM      2  C   UNL A   1      30.212  27.200  24.189  1.00  0.00     0.021 C 
BRANCH   2   3
ATOM      3  C   UNL A   1      30.661  26.668  22.826  1.00  0.00     0.116 C 
BRANCH   3   4
ATOM      4  N   UNL A   1      31.877  27.336  22.403  1.00  0.00    -0.353 N 
ATOM      5  C   UNL A   1      33.156  26.898  22.306  1.00  0.00     0.243 C 
ATOM      6  O   UNL A   1      34.020  27.658  21.868  1.00  0.00    -0.270 OA
ATOM      7  H   UNL A   1      31.750  28.276  22.140  1.00  0.00     0.163 HD
BRANCH   5   8
ATOM      8  C   UNL A   1      33.538  25.503  22.631  1.00  0.00     0.072 C 
ATOM      9  C   UNL A   1      33.921  25.039  23.829  1.00  0.00     0.014 C 
BRANCH   9  10
ATOM     10  C   UNL A   1      34.346  23.654  24.086  1.00  0.00    -0.024 A 
ATOM     11  C   UNL A   1      36.093  21.995  24.518  1.00  0.00    -0.047 A 
ATOM     12  C   UNL A   1      35.700  23.300  24.187  1.00  0.00     0.011 A 
ATOM     13  C   UNL A   1      35.095  21.036  24.757  1.00  0.00     0.016 A 
ATOM     14  C   UNL A   1      33.738  21.376  24.685  1.00  0.00     0.023 A 
ATOM     15  C   UNL A   1      33.371  22.681  24.335  1.00  0.00     0.020 A 
BRANCH  11  16
ATOM     16  C   UNL A   1      37.537  21.583  24.692  1.00  0.00     0.032 C 
ATOM     17  C   UNL A   1      37.800  20.110  24.985  1.00  0.00     0.009 C 
ENDBRANCH  11  16
BRANCH  14  18
ATOM     18  C   UNL A   1      32.658  20.387  24.950  1.00  0.00     0.193 C 
ATOM     19  O   UNL A   1      31.569  20.775  25.367  1.00  0.00    -0.289 OA
BRANCH  18  20
ATOM     20  C   UNL A   1      32.854  18.939  24.704  1.00  0.00     0.022 A 
ATOM     21  C   UNL A   1      33.074  18.509  23.393  1.00  0.00     0.012 A 
ATOM     22  C   UNL A   1      32.800  18.009  25.750  1.00  0.00     0.012 A 
ATOM     23  C   UNL A   1      33.291  17.155  23.133  1.00  0.00     0.001 A 
ATOM     24  C   UNL A   1      33.019  16.655  25.484  1.00  0.00     0.001 A 
ATOM     25  C   UNL A   1      33.272  16.232  24.179  1.00  0.00     0.000 A 
ENDBRANCH  18  20
ENDBRANCH  14  18
ENDBRANCH   9  10
ENDBRANCH   5   8
ENDBRANCH   3   4
ENDBRANCH   2   3
ENDBRANCH   1   2
BRANCH   1  26
ATOM     26  C   UNL A   1      31.907  26.988  26.129  1.00  0.00     0.002 C 
BRANCH  26  27
ATOM     27  C   UNL A   1      31.749  28.476  26.454  1.00  0.00     0.021 C 
BRANCH  27  28
ATOM     28  C   UNL A   1      32.829  29.367  25.845  1.00  0.00     0.116 C 
BRANCH  28  29
ATOM     29  N   UNL A   1      32.551  30.774  26.081  1.00  0.00    -0.352 N 
ATOM     30  C   UNL A   1      33.120  31.631  26.989  1.00  0.00     0.251 C 
ATOM     31  H   UNL A   1      31.854  31.169  25.508  1.00  0.00     0.163 HD
ATOM     32  O   UNL A   1      32.577  32.703  27.238  1.00  0.00    -0.269 OA
BRANCH  30  33
ATOM     33  C   UNL A   1      34.377  31.253  27.667  1.00  0.00     0.039 A 
ATOM     34  C   UNL A   1      35.375  32.216  27.837  1.00  0.00     0.014 A 
ATOM     35  C   UNL A   1      34.579  29.945  28.118  1.00  0.00     0.014 A 
ATOM     36  C   UNL A   1      36.554  31.879  28.503  1.00  0.00     0.010 A 
ATOM     37  C   UNL A   1      35.723  29.630  28.846  1.00  0.00     0.010 A 
ATOM     38  C   UNL A   1      36.725  30.592  29.040  1.00  0.00    -0.014 A 
BRANCH  38  39
ATOM     39  C   UNL A   1      37.948  30.236  29.805  1.00  0.00     0.031 A 
ATOM     40  C   UNL A   1      38.950  29.275  29.224  1.00  0.00     0.074 A 
ATOM     41  C   UNL A   1      38.122  30.734  31.045  1.00  0.00     0.049 A 
ATOM     42  N   UNL A   1      40.044  28.797  29.758  1.00  0.00    -0.248 NA
ATOM     43  C   UNL A   1      38.663  28.760  27.877  1.00  0.00     0.031 C 
ATOM     44  C   UNL A   1      37.193  31.636  31.729  1.00  0.00     0.029 A 
ATOM     45  N   UNL A   1      39.131  30.546  31.955  1.00  0.00    -0.354 N 
ATOM     46  C   UNL A   1      40.570  27.915  28.820  1.00  0.00     0.074 A 
ATOM     47  C   UNL A   1      39.639  27.880  27.712  1.00  0.00     0.031 C 
ATOM     48  C   UNL A   1      37.687  31.940  32.939  1.00  0.00     0.029 A 
ATOM     49  C   UNL A   1      38.941  31.220  33.138  1.00  0.00     0.049 A 
ATOM     50  H   UNL A   1      39.917  29.980  31.778  1.00  0.00     0.167 HD
ATOM     51  C   UNL A   1      41.733  27.217  28.871  1.00  0.00     0.034 A 
ATOM     52  C   UNL A   1      39.684  31.246  34.262  1.00  0.00     0.034 A 
ATOM     53  C   UNL A   1      42.650  27.274  29.984  1.00  0.00     0.049 A 
ATOM     54  C   UNL A   1      40.963  30.449  34.304  1.00  0.00     0.074 A 
ATOM     55  C   UNL A   1      43.886  26.664  30.116  1.00  0.00     0.029 A 
ATOM     56  N   UNL A   1      42.426  27.969  31.167  1.00  0.00    -0.354 N 
ATOM     57  N   UNL A   1      41.481  29.670  33.383  1.00  0.00    -0.248 NA
ATOM     58  C   UNL A   1      41.761  30.544  35.532  1.00  0.00     0.031 C 
ATOM     59  C   UNL A   1      44.370  26.927  31.401  1.00  0.00     0.029 A 
ATOM     60  C   UNL A   1      43.481  27.772  32.045  1.00  0.00     0.049 A 
ATOM     61  H   UNL A   1      41.633  28.523  31.354  1.00  0.00     0.167 HD
ATOM     62  C   UNL A   1      42.682  29.204  33.912  1.00  0.00     0.074 A 
ATOM     63  C   UNL A   1      42.816  29.805  35.224  1.00  0.00     0.031 C 
ATOM     64  C   UNL A   1      43.594  28.362  33.360  1.00  0.00     0.034 A 
BRANCH  51  65
ATOM     65  C   UNL A   1      42.054  26.314  27.702  1.00  0.00     0.023 A 
ATOM     66  C   UNL A   1      41.721  24.947  27.706  1.00  0.00     0.031 A 
ATOM     67  C   UNL A   1      42.732  26.819  26.578  1.00  0.00     0.131 A 
ATOM     68  C   UNL A   1      42.141  24.119  26.654  1.00  0.00     0.055 A 
ATOM     69  C   UNL A   1      43.070  26.006  25.493  1.00  0.00     0.041 A 
ATOM     70  F   UNL A   1      43.097  28.109  26.521  1.00  0.00    -0.206 F 
ATOM     71  C   UNL A   1      42.790  24.644  25.534  1.00  0.00     0.022 A 
BRANCH  68  72
ATOM     72  S   UNL A   1      41.968  22.323  26.844  1.00  0.00     0.124 S 
ATOM     73  O   UNL A   1      43.171  21.838  26.170  1.00  0.00    -0.237 OA
ATOM     74  O   UNL A   1      41.937  22.160  28.293  1.00  0.00    -0.237 OA
ATOM     75  O   UNL A   1      40.714  22.024  26.155  1.00  0.00    -0.744 OA
ENDBRANCH  68  72
ENDBRANCH  51  65
BRANCH  52  76
ATOM     76  C   UNL A   1      39.235  32.041  35.441  1.00  0.00     0.023 A 
ATOM     77  C   UNL A   1      39.677  33.357  35.640  1.00  0.00     0.031 A 
ATOM     78  C   UNL A   1      38.371  31.482  36.400  1.00  0.00     0.131 A 
ATOM     79  C   UNL A   1      39.286  34.059  36.791  1.00  0.00     0.055 A 
ATOM     80  C   UNL A   1      37.943  32.203  37.516  1.00  0.00     0.041 A 
ATOM     81  F   UNL A   1      37.914  30.228  36.254  1.00  0.00    -0.206 F 
ATOM     82  C   UNL A   1      38.410  33.497  37.723  1.00  0.00     0.022 A 
BRANCH  79  83
ATOM     83  S   UNL A   1      39.999  35.700  37.093  1.00  0.00     0.124 S 
ATOM     84  O   UNL A   1      39.319  36.099  38.319  1.00  0.00    -0.237 OA
ATOM     85  O   UNL A   1      41.421  35.394  37.218  1.00  0.00    -0.237 OA
ATOM     86  O   UNL A   1      39.631  36.457  35.899  1.00  0.00    -0.744 OA
ENDBRANCH  79  83
ENDBRANCH  52  76
BRANCH  64  87
ATOM     87  C   UNL A   1      44.837  28.075  34.168  1.00  0.00     0.023 A 
ATOM     88  C   UNL A   1      44.924  26.964  35.027  1.00  0.00     0.031 A 
ATOM     89  C   UNL A   1      45.947  28.934  34.085  1.00  0.00     0.131 A 
ATOM     90  C   UNL A   1      46.073  26.775  35.810  1.00  0.00     0.055 A 
ATOM     91  C   UNL A   1      47.112  28.704  34.817  1.00  0.00     0.041 A 
ATOM     92  F   UNL A   1      45.918  30.012  33.285  1.00  0.00    -0.206 F 
ATOM     93  C   UNL A   1      47.174  27.627  35.697  1.00  0.00     0.022 A 
BRANCH  90  94
ATOM     94  S   UNL A   1      46.072  25.455  37.054  1.00  0.00     0.124 S 
ATOM     95  O   UNL A   1      44.652  25.336  37.369  1.00  0.00    -0.237 OA
ATOM     96  O   UNL A   1      46.659  24.336  36.323  1.00  0.00    -0.237 OA
ATOM     97  O   UNL A   1      46.902  25.995  38.128  1.00  0.00    -0.744 OA
ENDBRANCH  90  94
ENDBRANCH  64  87
ENDBRANCH  38  39
ENDBRANCH  30  33
ENDBRANCH  28  29
ENDBRANCH  27  28
ENDBRANCH  26  27
ENDBRANCH   1  26
TORSDOF 20
ENDMDL
MODEL 3
REMARK VINA RESULT:     -11.4      4.756      8.295
REMARK SMILES CCc1cc(/C=C/C(=O)NCCCCCCNC(=O)c2ccc(-c3c4nc(c(-c5cc(S(=O)(=O)[O-])ccc5F)c5ccc([nH]5)c(-c5cc(S(=O)(=O)[O-])ccc5F)c5nc(c(-c6cc(S(=O)(=O)[O-])ccc6F)c6ccc3[nH]6)C=C5)C=C4)cc2)cc(C(=O)c2ccccc2)c1
REMARK SMILES IDX 13 1 12 2 11 3 10 4 8 5 9 6 7 8 6 9 5 10 3 11 4 12 93 13
REMARK SMILES IDX 84 14 83 15 2 16 1 17 85 18 86 19 87 20 88 21 92 22 89 23
REMARK SMILES IDX 91 24 90 25 14 26 15 27 16 28 17 29 18 30 19 32 20 33 21 34
REMARK SMILES IDX 82 35 22 36 81 37 23 38 24 39 25 40 75 41 26 42 80 43 74 44
REMARK SMILES IDX 76 45 27 46 79 47 73 48 72 49 28 51 60 52 40 53 59 54 41 55
REMARK SMILES IDX 44 56 58 57 77 58 42 59 43 60 57 62 78 63 45 64 29 65 30 66
REMARK SMILES IDX 38 67 31 68 37 69 39 70 36 71 32 72 33 73 34 74 35 75 61 76
REMARK SMILES IDX 62 77 70 78 63 79 69 80 71 81 68 82 64 83 65 84 66 85 67 86
REMARK SMILES IDX 46 87 47 88 55 89 48 90 54 91 56 92 53 93 49 94 50 95 51 96
REMARK SMILES IDX 52 97
REMARK H PARENT 10 7 17 31 76 50 44 61
REMARK Flexibility Score: inf
ROOT
ATOM      1  C   UNL A   1      33.978  22.986  25.219  1.00  0.00     0.002 C 
ENDROOT
BRANCH   1   2
ATOM      2  C   UNL A   1      33.207  21.702  25.550  1.00  0.00     0.021 C 
BRANCH   2   3
ATOM      3  C   UNL A   1      31.754  21.726  25.072  1.00  0.00     0.116 C 
BRANCH   3   4
ATOM      4  N   UNL A   1      30.864  21.989  26.187  1.00  0.00    -0.353 N 
ATOM      5  C   UNL A   1      30.409  23.149  26.721  1.00  0.00     0.243 C 
ATOM      6  O   UNL A   1      29.610  23.108  27.656  1.00  0.00    -0.270 OA
ATOM      7  H   UNL A   1      30.531  21.178  26.638  1.00  0.00     0.163 HD
BRANCH   5   8
ATOM      8  C   UNL A   1      30.778  24.471  26.161  1.00  0.00     0.072 C 
ATOM      9  C   UNL A   1      31.617  25.363  26.707  1.00  0.00     0.014 C 
BRANCH   9  10
ATOM     10  C   UNL A   1      31.906  26.688  26.138  1.00  0.00    -0.024 A 
ATOM     11  C   UNL A   1      33.262  28.723  26.029  1.00  0.00    -0.047 A 
ATOM     12  C   UNL A   1      32.938  27.499  26.634  1.00  0.00     0.011 A 
ATOM     13  C   UNL A   1      32.530  29.127  24.900  1.00  0.00     0.016 A 
ATOM     14  C   UNL A   1      31.513  28.319  24.377  1.00  0.00     0.023 A 
ATOM     15  C   UNL A   1      31.196  27.111  25.008  1.00  0.00     0.020 A 
BRANCH  11  16
ATOM     16  C   UNL A   1      34.401  29.603  26.494  1.00  0.00     0.032 C 
ATOM     17  C   UNL A   1      35.093  29.200  27.791  1.00  0.00     0.009 C 
ENDBRANCH  11  16
BRANCH  14  18
ATOM     18  C   UNL A   1      30.731  28.711  23.171  1.00  0.00     0.193 C 
ATOM     19  O   UNL A   1      31.009  28.215  22.082  1.00  0.00    -0.289 OA
BRANCH  18  20
ATOM     20  C   UNL A   1      29.607  29.673  23.253  1.00  0.00     0.022 A 
ATOM     21  C   UNL A   1      28.361  29.287  22.751  1.00  0.00     0.012 A 
ATOM     22  C   UNL A   1      29.781  30.951  23.798  1.00  0.00     0.012 A 
ATOM     23  C   UNL A   1      27.276  30.160  22.841  1.00  0.00     0.001 A 
ATOM     24  C   UNL A   1      28.692  31.821  23.886  1.00  0.00     0.001 A 
ATOM     25  C   UNL A   1      27.440  31.421  23.415  1.00  0.00     0.000 A 
ENDBRANCH  18  20
ENDBRANCH  14  18
ENDBRANCH   9  10
ENDBRANCH   5   8
ENDBRANCH   3   4
ENDBRANCH   2   3
ENDBRANCH   1   2
BRANCH   1  26
ATOM     26  C   UNL A   1      34.869  22.899  23.973  1.00  0.00     0.002 C 
BRANCH  26  27
ATOM     27  C   UNL A   1      36.179  22.131  24.170  1.00  0.00     0.021 C 
BRANCH  27  28
ATOM     28  C   UNL A   1      36.663  22.084  25.617  1.00  0.00     0.116 C 
BRANCH  28  29
ATOM     29  N   UNL A   1      37.608  20.998  25.824  1.00  0.00    -0.352 N 
ATOM     30  C   UNL A   1      38.954  21.057  26.085  1.00  0.00     0.251 C 
ATOM     31  H   UNL A   1      37.228  20.091  25.768  1.00  0.00     0.163 HD
ATOM     32  O   UNL A   1      39.643  20.049  25.959  1.00  0.00    -0.269 OA
BRANCH  30  33
ATOM     33  C   UNL A   1      39.564  22.335  26.507  1.00  0.00     0.039 A 
ATOM     34  C   UNL A   1      40.564  22.321  27.483  1.00  0.00     0.014 A 
ATOM     35  C   UNL A   1      39.138  23.546  25.954  1.00  0.00     0.014 A 
ATOM     36  C   UNL A   1      41.170  23.518  27.867  1.00  0.00     0.010 A 
ATOM     37  C   UNL A   1      39.793  24.729  26.284  1.00  0.00     0.010 A 
ATOM     38  C   UNL A   1      40.812  24.728  27.249  1.00  0.00    -0.014 A 
BRANCH  38  39
ATOM     39  C   UNL A   1      41.490  26.001  27.603  1.00  0.00     0.031 A 
ATOM     40  C   UNL A   1      40.750  27.066  28.367  1.00  0.00     0.074 A 
ATOM     41  C   UNL A   1      42.752  26.218  27.184  1.00  0.00     0.049 A 
ATOM     42  N   UNL A   1      41.147  28.261  28.717  1.00  0.00    -0.248 NA
ATOM     43  C   UNL A   1      39.367  26.753  28.758  1.00  0.00     0.031 C 
ATOM     44  C   UNL A   1      43.552  25.277  26.396  1.00  0.00     0.029 A 
ATOM     45  N   UNL A   1      43.581  27.298  27.350  1.00  0.00    -0.354 N 
ATOM     46  C   UNL A   1      40.063  28.850  29.358  1.00  0.00     0.074 A 
ATOM     47  C   UNL A   1      38.972  27.900  29.290  1.00  0.00     0.031 C 
ATOM     48  C   UNL A   1      44.762  25.812  26.169  1.00  0.00     0.029 A 
ATOM     49  C   UNL A   1      44.810  27.149  26.751  1.00  0.00     0.049 A 
ATOM     50  H   UNL A   1      43.321  28.105  27.852  1.00  0.00     0.167 HD
ATOM     51  C   UNL A   1      39.991  30.062  29.965  1.00  0.00     0.034 A 
ATOM     52  C   UNL A   1      45.853  27.999  26.667  1.00  0.00     0.034 A 
ATOM     53  C   UNL A   1      41.095  30.990  30.027  1.00  0.00     0.049 A 
ATOM     54  C   UNL A   1      45.746  29.347  27.332  1.00  0.00     0.074 A 
ATOM     55  C   UNL A   1      41.158  32.213  30.671  1.00  0.00     0.029 A 
ATOM     56  N   UNL A   1      42.327  30.806  29.409  1.00  0.00    -0.354 N 
ATOM     57  N   UNL A   1      44.735  29.865  27.992  1.00  0.00    -0.248 NA
ATOM     58  C   UNL A   1      46.924  30.219  27.253  1.00  0.00     0.031 C 
ATOM     59  C   UNL A   1      42.394  32.800  30.380  1.00  0.00     0.029 A 
ATOM     60  C   UNL A   1      43.140  31.908  29.625  1.00  0.00     0.049 A 
ATOM     61  H   UNL A   1      42.585  30.008  28.893  1.00  0.00     0.167 HD
ATOM     62  C   UNL A   1      45.167  31.114  28.429  1.00  0.00     0.074 A 
ATOM     63  C   UNL A   1      46.535  31.261  27.972  1.00  0.00     0.031 C 
ATOM     64  C   UNL A   1      44.497  32.051  29.148  1.00  0.00     0.034 A 
BRANCH  51  65
ATOM     65  C   UNL A   1      38.667  30.455  30.578  1.00  0.00     0.023 A 
ATOM     66  C   UNL A   1      37.776  31.328  29.926  1.00  0.00     0.031 A 
ATOM     67  C   UNL A   1      38.301  29.978  31.850  1.00  0.00     0.131 A 
ATOM     68  C   UNL A   1      36.613  31.761  30.579  1.00  0.00     0.055 A 
ATOM     69  C   UNL A   1      37.098  30.344  32.458  1.00  0.00     0.041 A 
ATOM     70  F   UNL A   1      39.116  29.159  32.533  1.00  0.00    -0.206 F 
ATOM     71  C   UNL A   1      36.254  31.255  31.830  1.00  0.00     0.022 A 
BRANCH  68  72
ATOM     72  S   UNL A   1      35.658  33.115  29.841  1.00  0.00     0.124 S 
ATOM     73  O   UNL A   1      35.296  33.899  31.020  1.00  0.00    -0.237 OA
ATOM     74  O   UNL A   1      36.626  33.728  28.938  1.00  0.00    -0.237 OA
ATOM     75  O   UNL A   1      34.542  32.434  29.190  1.00  0.00    -0.744 OA
ENDBRANCH  68  72
ENDBRANCH  51  65
BRANCH  52  76
ATOM     76  C   UNL A   1      47.080  27.608  25.916  1.00  0.00     0.023 A 
ATOM     77  C   UNL A   1      47.213  27.882  24.547  1.00  0.00     0.031 A 
ATOM     78  C   UNL A   1      48.134  26.931  26.559  1.00  0.00     0.131 A 
ATOM     79  C   UNL A   1      48.354  27.447  23.854  1.00  0.00     0.055 A 
ATOM     80  C   UNL A   1      49.289  26.548  25.877  1.00  0.00     0.041 A 
ATOM     81  F   UNL A   1      48.060  26.650  27.870  1.00  0.00    -0.206 F 
ATOM     82  C   UNL A   1      49.399  26.796  24.512  1.00  0.00     0.022 A 
BRANCH  79  83
ATOM     83  S   UNL A   1      48.421  27.682  22.056  1.00  0.00     0.124 S 
ATOM     84  O   UNL A   1      49.561  28.580  21.915  1.00  0.00    -0.237 OA
ATOM     85  O   UNL A   1      48.617  26.316  21.580  1.00  0.00    -0.237 OA
ATOM     86  O   UNL A   1      47.120  28.268  21.740  1.00  0.00    -0.744 OA
ENDBRANCH  79  83
ENDBRANCH  52  76
BRANCH  64  87
ATOM     87  C   UNL A   1      45.255  33.304  29.516  1.00  0.00     0.023 A 
ATOM     88  C   UNL A   1      45.288  34.427  28.669  1.00  0.00     0.031 A 
ATOM     89  C   UNL A   1      45.966  33.369  30.726  1.00  0.00     0.131 A 
ATOM     90  C   UNL A   1      46.062  35.544  29.020  1.00  0.00     0.055 A 
ATOM     91  C   UNL A   1      46.681  34.507  31.100  1.00  0.00     0.041 A 
ATOM     92  F   UNL A   1      45.974  32.325  31.571  1.00  0.00    -0.206 F 
ATOM     93  C   UNL A   1      46.744  35.598  30.238  1.00  0.00     0.022 A 
BRANCH  90  94
ATOM     94  S   UNL A   1      46.247  36.888  27.816  1.00  0.00     0.124 S 
ATOM     95  O   UNL A   1      47.613  37.338  28.072  1.00  0.00    -0.237 OA
ATOM     96  O   UNL A   1      46.029  36.203  26.547  1.00  0.00    -0.237 OA
ATOM     97  O   UNL A   1      45.202  37.836  28.196  1.00  0.00    -0.744 OA
ENDBRANCH  90  94
ENDBRANCH  64  87
ENDBRANCH  38  39
ENDBRANCH  30  33
ENDBRANCH  28  29
ENDBRANCH  27  28
ENDBRANCH  26  27
ENDBRANCH   1  26
TORSDOF 20
ENDMDL
