MODEL 1
REMARK VINA RESULT:     -13.6      0.000      0.000
REMARK SMILES Cc1ccccc1[C@@H]1[NH2+][C@@H](C(=O)NCCCCCCNC(=O)c2ccc(-c3c4nc(c(-c5cc(S(=O)(=O)[O-])ccc5F)c5ccc([nH]5)c(-c5cc(S(=O)(=O)[O-])ccc5F)c5nc(c(-c6cc(S(=O)(=O)[O-])ccc6F)c6ccc3[nH]6)C=C5)C=C4)cc2)CC2=c3ccccc3=N[C@H]21
REMARK SMILES IDX 17 1 16 2 15 3 14 4 13 5 11 6 12 7 10 9 8 10 9 11 95 12
REMARK SMILES IDX 87 15 94 16 86 17 88 18 93 19 89 20 92 21 90 22 91 23 7 24
REMARK SMILES IDX 1 25 2 26 3 27 4 28 6 29 5 30 18 31 19 32 20 33 21 34 22 36
REMARK SMILES IDX 23 37 24 38 85 39 25 40 84 41 26 42 27 43 28 44 78 45 29 46
REMARK SMILES IDX 83 47 77 48 79 49 30 50 82 51 76 52 75 53 31 55 63 56 43 57
REMARK SMILES IDX 62 58 44 59 47 60 61 61 80 62 45 63 46 64 60 66 81 67 48 68
REMARK SMILES IDX 32 69 33 70 41 71 34 72 40 73 42 74 39 75 35 76 36 77 37 78
REMARK SMILES IDX 38 79 64 80 65 81 73 82 66 83 72 84 74 85 71 86 67 87 68 88
REMARK SMILES IDX 69 89 70 90 49 91 50 92 58 93 51 94 57 95 59 96 56 97 52 98
REMARK SMILES IDX 53 99 54 100 55 101
REMARK H PARENT 13 8 9 13 9 14 20 35 79 54 47 65
REMARK Flexibility Score: inf
ROOT
ATOM      1  C   UNL A   1      33.374  28.899  27.198  1.00  0.00     0.002 C 
ENDROOT
BRANCH   1   2
ATOM      2  C   UNL A   1      32.518  28.332  26.049  1.00  0.00     0.002 C 
BRANCH   2   3
ATOM      3  C   UNL A   1      31.406  27.332  26.406  1.00  0.00     0.021 C 
BRANCH   3   4
ATOM      4  C   UNL A   1      31.841  25.878  26.594  1.00  0.00     0.116 C 
BRANCH   4   5
ATOM      5  N   UNL A   1      30.786  24.897  26.787  1.00  0.00    -0.351 N 
ATOM      6  C   UNL A   1      30.820  23.529  26.807  1.00  0.00     0.278 C 
ATOM      7  O   UNL A   1      29.991  22.970  27.540  1.00  0.00    -0.268 OA
ATOM      8  H   UNL A   1      29.891  25.284  26.929  1.00  0.00     0.163 HD
BRANCH   6   9
ATOM      9  C   UNL A   1      31.691  22.688  25.823  1.00  0.00     0.277 C 
ATOM     10  C   UNL A   1      34.115  23.446  25.357  1.00  0.00     0.243 C 
ATOM     11  N   UNL A   1      33.130  22.764  26.237  1.00  0.00    -0.327 N 
ATOM     12  C   UNL A   1      33.750  23.660  23.855  1.00  0.00     0.196 C 
ATOM     13  H   UNL A   1      33.154  23.245  27.136  1.00  0.00     0.347 HD
ATOM     14  H   UNL A   1      33.434  21.791  26.220  1.00  0.00     0.347 HD
ATOM     15  C   UNL A   1      32.284  23.916  23.752  1.00  0.00    -0.024 C 
ATOM     16  N   UNL A   1      34.388  24.885  23.272  1.00  0.00    -0.270 NA
ATOM     17  C   UNL A   1      31.433  22.850  24.325  1.00  0.00     0.109 C 
ATOM     18  C   UNL A   1      32.020  25.104  23.229  1.00  0.00     0.002 A 
ATOM     19  C   UNL A   1      33.369  25.609  22.921  1.00  0.00     0.066 A 
ATOM     20  C   UNL A   1      30.852  25.888  23.005  1.00  0.00     0.010 A 
ATOM     21  C   UNL A   1      33.432  26.916  22.230  1.00  0.00     0.028 A 
ATOM     22  C   UNL A   1      30.990  27.097  22.438  1.00  0.00     0.001 A 
ATOM     23  C   UNL A   1      32.290  27.590  22.012  1.00  0.00     0.002 A 
BRANCH  10  24
ATOM     24  C   UNL A   1      35.479  22.737  25.444  1.00  0.00     0.015 A 
ATOM     25  C   UNL A   1      34.565  20.427  24.735  1.00  0.00     0.045 C 
ATOM     26  C   UNL A   1      35.674  21.368  25.131  1.00  0.00    -0.042 A 
ATOM     27  C   UNL A   1      36.982  20.845  25.109  1.00  0.00     0.004 A 
ATOM     28  C   UNL A   1      38.083  21.635  25.428  1.00  0.00     0.000 A 
ATOM     29  C   UNL A   1      36.609  23.512  25.781  1.00  0.00     0.010 A 
ATOM     30  C   UNL A   1      37.896  22.966  25.778  1.00  0.00     0.001 A 
ENDBRANCH  10  24
ENDBRANCH   6   9
ENDBRANCH   4   5
ENDBRANCH   3   4
ENDBRANCH   2   3
ENDBRANCH   1   2
BRANCH   1  31
ATOM     31  C   UNL A   1      33.401  30.420  27.362  1.00  0.00     0.021 C 
BRANCH  31  32
ATOM     32  C   UNL A   1      34.795  31.042  27.325  1.00  0.00     0.116 C 
BRANCH  32  33
ATOM     33  N   UNL A   1      35.214  31.653  28.583  1.00  0.00    -0.352 N 
ATOM     34  C   UNL A   1      36.096  31.174  29.542  1.00  0.00     0.251 C 
ATOM     35  H   UNL A   1      34.814  32.531  28.780  1.00  0.00     0.163 HD
ATOM     36  O   UNL A   1      36.279  31.773  30.590  1.00  0.00    -0.269 OA
BRANCH  34  37
ATOM     37  C   UNL A   1      36.919  29.980  29.225  1.00  0.00     0.039 A 
ATOM     38  C   UNL A   1      37.115  29.040  30.245  1.00  0.00     0.014 A 
ATOM     39  C   UNL A   1      37.658  29.904  28.050  1.00  0.00     0.014 A 
ATOM     40  C   UNL A   1      38.221  28.193  30.192  1.00  0.00     0.010 A 
ATOM     41  C   UNL A   1      38.808  29.142  28.041  1.00  0.00     0.010 A 
ATOM     42  C   UNL A   1      39.127  28.339  29.143  1.00  0.00    -0.014 A 
BRANCH  42  43
ATOM     43  C   UNL A   1      40.492  27.827  29.184  1.00  0.00     0.031 A 
ATOM     44  C   UNL A   1      40.815  26.466  28.714  1.00  0.00     0.074 A 
ATOM     45  C   UNL A   1      41.495  28.653  29.555  1.00  0.00     0.049 A 
ATOM     46  N   UNL A   1      41.887  25.824  29.035  1.00  0.00    -0.248 NA
ATOM     47  C   UNL A   1      39.924  25.701  27.854  1.00  0.00     0.031 C 
ATOM     48  C   UNL A   1      42.930  28.445  29.388  1.00  0.00     0.029 A 
ATOM     49  N   UNL A   1      41.401  29.760  30.396  1.00  0.00    -0.354 N 
ATOM     50  C   UNL A   1      41.976  24.719  28.223  1.00  0.00     0.074 A 
ATOM     51  C   UNL A   1      40.699  24.654  27.550  1.00  0.00     0.031 C 
ATOM     52  C   UNL A   1      43.582  29.190  30.292  1.00  0.00     0.029 A 
ATOM     53  C   UNL A   1      42.587  29.792  31.159  1.00  0.00     0.049 A 
ATOM     54  H   UNL A   1      40.653  30.396  30.448  1.00  0.00     0.167 HD
ATOM     55  C   UNL A   1      43.167  24.059  28.119  1.00  0.00     0.034 A 
ATOM     56  C   UNL A   1      42.531  29.668  32.519  1.00  0.00     0.034 A 
ATOM     57  C   UNL A   1      44.177  24.609  29.027  1.00  0.00     0.049 A 
ATOM     58  C   UNL A   1      43.213  28.420  33.053  1.00  0.00     0.074 A 
ATOM     59  C   UNL A   1      45.281  25.434  28.880  1.00  0.00     0.029 A 
ATOM     60  N   UNL A   1      43.961  24.509  30.390  1.00  0.00    -0.354 N 
ATOM     61  N   UNL A   1      43.808  27.528  32.309  1.00  0.00    -0.248 NA
ATOM     62  C   UNL A   1      43.206  28.039  34.467  1.00  0.00     0.031 C 
ATOM     63  C   UNL A   1      45.697  25.854  30.179  1.00  0.00     0.029 A 
ATOM     64  C   UNL A   1      44.862  25.265  31.112  1.00  0.00     0.049 A 
ATOM     65  H   UNL A   1      43.250  23.963  30.796  1.00  0.00     0.167 HD
ATOM     66  C   UNL A   1      44.178  26.457  33.081  1.00  0.00     0.074 A 
ATOM     67  C   UNL A   1      43.794  26.831  34.430  1.00  0.00     0.031 C 
ATOM     68  C   UNL A   1      44.722  25.319  32.559  1.00  0.00     0.034 A 
BRANCH  55  69
ATOM     69  C   UNL A   1      43.494  23.065  27.030  1.00  0.00     0.023 A 
ATOM     70  C   UNL A   1      42.901  21.786  27.070  1.00  0.00     0.031 A 
ATOM     71  C   UNL A   1      44.384  23.279  25.960  1.00  0.00     0.131 A 
ATOM     72  C   UNL A   1      43.271  20.773  26.166  1.00  0.00     0.055 A 
ATOM     73  C   UNL A   1      44.804  22.255  25.100  1.00  0.00     0.041 A 
ATOM     74  F   UNL A   1      44.838  24.501  25.655  1.00  0.00    -0.206 F 
ATOM     75  C   UNL A   1      44.257  20.987  25.209  1.00  0.00     0.022 A 
BRANCH  72  76
ATOM     76  S   UNL A   1      42.431  19.168  26.253  1.00  0.00     0.124 S 
ATOM     77  O   UNL A   1      42.253  18.990  27.690  1.00  0.00    -0.237 OA
ATOM     78  O   UNL A   1      41.222  19.414  25.476  1.00  0.00    -0.237 OA
ATOM     79  O   UNL A   1      43.387  18.253  25.631  1.00  0.00    -0.744 OA
ENDBRANCH  72  76
ENDBRANCH  55  69
BRANCH  56  80
ATOM     80  C   UNL A   1      41.322  30.336  33.089  1.00  0.00     0.023 A 
ATOM     81  C   UNL A   1      41.344  31.750  33.139  1.00  0.00     0.031 A 
ATOM     82  C   UNL A   1      40.077  29.699  33.159  1.00  0.00     0.131 A 
ATOM     83  C   UNL A   1      40.149  32.479  33.059  1.00  0.00     0.055 A 
ATOM     84  C   UNL A   1      38.885  30.434  33.172  1.00  0.00     0.041 A 
ATOM     85  F   UNL A   1      39.985  28.363  33.079  1.00  0.00    -0.206 F 
ATOM     86  C   UNL A   1      38.916  31.827  33.068  1.00  0.00     0.022 A 
BRANCH  83  87
ATOM     87  S   UNL A   1      40.229  34.248  32.634  1.00  0.00     0.124 S 
ATOM     88  O   UNL A   1      38.821  34.628  32.652  1.00  0.00    -0.237 OA
ATOM     89  O   UNL A   1      41.055  34.807  33.702  1.00  0.00    -0.237 OA
ATOM     90  O   UNL A   1      40.869  34.253  31.321  1.00  0.00    -0.744 OA
ENDBRANCH  83  87
ENDBRANCH  56  80
BRANCH  68  91
ATOM     91  C   UNL A   1      45.144  24.143  33.400  1.00  0.00     0.023 A 
ATOM     92  C   UNL A   1      46.466  23.990  33.848  1.00  0.00     0.031 A 
ATOM     93  C   UNL A   1      44.252  23.091  33.707  1.00  0.00     0.131 A 
ATOM     94  C   UNL A   1      46.839  22.867  34.608  1.00  0.00     0.055 A 
ATOM     95  C   UNL A   1      44.649  21.936  34.386  1.00  0.00     0.041 A 
ATOM     96  F   UNL A   1      42.948  23.160  33.400  1.00  0.00    -0.206 F 
ATOM     97  C   UNL A   1      45.948  21.823  34.852  1.00  0.00     0.022 A 
BRANCH  94  98
ATOM     98  S   UNL A   1      48.490  22.833  35.351  1.00  0.00     0.124 S 
ATOM     99  O   UNL A   1      48.468  23.995  36.234  1.00  0.00    -0.237 OA
ATOM    100  O   UNL A   1      48.487  21.532  36.015  1.00  0.00    -0.237 OA
ATOM    101  O   UNL A   1      49.388  22.939  34.203  1.00  0.00    -0.744 OA
ENDBRANCH  94  98
ENDBRANCH  68  91
ENDBRANCH  42  43
ENDBRANCH  34  37
ENDBRANCH  32  33
ENDBRANCH  31  32
ENDBRANCH   1  31
TORSDOF 17
ENDMDL
MODEL 2
REMARK VINA RESULT:     -13.3      2.067      2.465
REMARK SMILES Cc1ccccc1[C@@H]1[NH2+][C@@H](C(=O)NCCCCCCNC(=O)c2ccc(-c3c4nc(c(-c5cc(S(=O)(=O)[O-])ccc5F)c5ccc([nH]5)c(-c5cc(S(=O)(=O)[O-])ccc5F)c5nc(c(-c6cc(S(=O)(=O)[O-])ccc6F)c6ccc3[nH]6)C=C5)C=C4)cc2)CC2=c3ccccc3=N[C@H]21
REMARK SMILES IDX 17 1 16 2 15 3 14 4 13 5 11 6 12 7 10 9 8 10 9 11 95 12
REMARK SMILES IDX 87 15 94 16 86 17 88 18 93 19 89 20 92 21 90 22 91 23 7 24
REMARK SMILES IDX 1 25 2 26 3 27 4 28 6 29 5 30 18 31 19 32 20 33 21 34 22 36
REMARK SMILES IDX 23 37 24 38 85 39 25 40 84 41 26 42 27 43 28 44 78 45 29 46
REMARK SMILES IDX 83 47 77 48 79 49 30 50 82 51 76 52 75 53 31 55 63 56 43 57
REMARK SMILES IDX 62 58 44 59 47 60 61 61 80 62 45 63 46 64 60 66 81 67 48 68
REMARK SMILES IDX 32 69 33 70 41 71 34 72 40 73 42 74 39 75 35 76 36 77 37 78
REMARK SMILES IDX 38 79 64 80 65 81 73 82 66 83 72 84 74 85 71 86 67 87 68 88
REMARK SMILES IDX 69 89 70 90 49 91 50 92 58 93 51 94 57 95 59 96 56 97 52 98
REMARK SMILES IDX 53 99 54 100 55 101
REMARK H PARENT 13 8 9 13 9 14 20 35 79 54 47 65
REMARK Flexibility Score: inf
ROOT
ATOM      1  C   UNL A   1      32.799  28.990  27.415  1.00  0.00     0.002 C 
ENDROOT
BRANCH   1   2
ATOM      2  C   UNL A   1      32.438  28.235  26.121  1.00  0.00     0.002 C 
BRANCH   2   3
ATOM      3  C   UNL A   1      31.347  27.155  26.198  1.00  0.00     0.021 C 
BRANCH   3   4
ATOM      4  C   UNL A   1      31.828  25.729  26.472  1.00  0.00     0.116 C 
BRANCH   4   5
ATOM      5  N   UNL A   1      30.805  24.731  26.734  1.00  0.00    -0.351 N 
ATOM      6  C   UNL A   1      30.876  23.365  26.809  1.00  0.00     0.278 C 
ATOM      7  O   UNL A   1      30.082  22.816  27.586  1.00  0.00    -0.268 OA
ATOM      8  H   UNL A   1      29.905  25.099  26.883  1.00  0.00     0.163 HD
BRANCH   6   9
ATOM      9  C   UNL A   1      31.744  22.508  25.837  1.00  0.00     0.277 C 
ATOM     10  C   UNL A   1      34.161  23.266  25.337  1.00  0.00     0.243 C 
ATOM     11  N   UNL A   1      33.186  22.599  26.238  1.00  0.00    -0.327 N 
ATOM     12  C   UNL A   1      33.784  23.445  23.833  1.00  0.00     0.196 C 
ATOM     13  H   UNL A   1      33.214  23.100  27.126  1.00  0.00     0.347 HD
ATOM     14  H   UNL A   1      33.494  21.627  26.241  1.00  0.00     0.347 HD
ATOM     15  C   UNL A   1      32.316  23.691  23.735  1.00  0.00    -0.024 C 
ATOM     16  N   UNL A   1      34.412  24.659  23.218  1.00  0.00    -0.270 NA
ATOM     17  C   UNL A   1      31.475  22.634  24.337  1.00  0.00     0.109 C 
ATOM     18  C   UNL A   1      32.042  24.866  23.187  1.00  0.00     0.002 A 
ATOM     19  C   UNL A   1      33.387  25.370  22.858  1.00  0.00     0.066 A 
ATOM     20  C   UNL A   1      30.869  25.639  22.955  1.00  0.00     0.010 A 
ATOM     21  C   UNL A   1      33.439  26.662  22.138  1.00  0.00     0.028 A 
ATOM     22  C   UNL A   1      30.997  26.836  22.360  1.00  0.00     0.001 A 
ATOM     23  C   UNL A   1      32.291  27.326  21.914  1.00  0.00     0.002 A 
BRANCH  10  24
ATOM     24  C   UNL A   1      35.529  22.566  25.429  1.00  0.00     0.015 A 
ATOM     25  C   UNL A   1      34.622  20.236  24.778  1.00  0.00     0.045 C 
ATOM     26  C   UNL A   1      35.729  21.191  25.145  1.00  0.00    -0.042 A 
ATOM     27  C   UNL A   1      37.039  20.674  25.124  1.00  0.00     0.004 A 
ATOM     28  C   UNL A   1      38.139  21.476  25.419  1.00  0.00     0.000 A 
ATOM     29  C   UNL A   1      36.658  23.353  25.740  1.00  0.00     0.010 A 
ATOM     30  C   UNL A   1      37.948  22.814  25.740  1.00  0.00     0.001 A 
ENDBRANCH  10  24
ENDBRANCH   6   9
ENDBRANCH   4   5
ENDBRANCH   3   4
ENDBRANCH   2   3
ENDBRANCH   1   2
BRANCH   1  31
ATOM     31  C   UNL A   1      32.772  30.520  27.360  1.00  0.00     0.021 C 
BRANCH  31  32
ATOM     32  C   UNL A   1      34.136  31.175  27.156  1.00  0.00     0.116 C 
BRANCH  32  33
ATOM     33  N   UNL A   1      34.652  31.869  28.333  1.00  0.00    -0.352 N 
ATOM     34  C   UNL A   1      35.594  31.448  29.260  1.00  0.00     0.251 C 
ATOM     35  H   UNL A   1      34.276  32.766  28.491  1.00  0.00     0.163 HD
ATOM     36  O   UNL A   1      35.858  32.119  30.245  1.00  0.00    -0.269 OA
BRANCH  34  37
ATOM     37  C   UNL A   1      36.377  30.220  28.976  1.00  0.00     0.039 A 
ATOM     38  C   UNL A   1      36.756  29.427  30.068  1.00  0.00     0.014 A 
ATOM     39  C   UNL A   1      36.917  29.983  27.718  1.00  0.00     0.014 A 
ATOM     40  C   UNL A   1      37.855  28.578  29.949  1.00  0.00     0.010 A 
ATOM     41  C   UNL A   1      38.065  29.224  27.623  1.00  0.00     0.010 A 
ATOM     42  C   UNL A   1      38.575  28.577  28.755  1.00  0.00    -0.014 A 
BRANCH  42  43
ATOM     43  C   UNL A   1      39.938  28.072  28.641  1.00  0.00     0.031 A 
ATOM     44  C   UNL A   1      40.215  26.626  28.543  1.00  0.00     0.074 A 
ATOM     45  C   UNL A   1      40.957  28.949  28.510  1.00  0.00     0.049 A 
ATOM     46  N   UNL A   1      41.360  26.089  28.793  1.00  0.00    -0.248 NA
ATOM     47  C   UNL A   1      39.194  25.655  28.178  1.00  0.00     0.031 C 
ATOM     48  C   UNL A   1      42.329  28.669  28.095  1.00  0.00     0.029 A 
ATOM     49  N   UNL A   1      40.999  30.262  28.975  1.00  0.00    -0.354 N 
ATOM     50  C   UNL A   1      41.321  24.787  28.354  1.00  0.00     0.074 A 
ATOM     51  C   UNL A   1      39.931  24.548  28.038  1.00  0.00     0.031 C 
ATOM     52  C   UNL A   1      43.128  29.639  28.561  1.00  0.00     0.029 A 
ATOM     53  C   UNL A   1      42.321  30.499  29.406  1.00  0.00     0.049 A 
ATOM     54  H   UNL A   1      40.250  30.900  29.001  1.00  0.00     0.167 HD
ATOM     55  C   UNL A   1      42.490  24.101  28.190  1.00  0.00     0.034 A 
ATOM     56  C   UNL A   1      42.573  30.797  30.716  1.00  0.00     0.034 A 
ATOM     57  C   UNL A   1      43.648  24.879  28.638  1.00  0.00     0.049 A 
ATOM     58  C   UNL A   1      43.415  29.757  31.433  1.00  0.00     0.074 A 
ATOM     59  C   UNL A   1      44.651  25.595  28.004  1.00  0.00     0.029 A 
ATOM     60  N   UNL A   1      43.744  25.204  29.979  1.00  0.00    -0.354 N 
ATOM     61  N   UNL A   1      43.874  28.667  30.880  1.00  0.00    -0.248 NA
ATOM     62  C   UNL A   1      43.739  29.824  32.861  1.00  0.00     0.031 C 
ATOM     63  C   UNL A   1      45.323  26.381  28.987  1.00  0.00     0.029 A 
ATOM     64  C   UNL A   1      44.744  26.124  30.217  1.00  0.00     0.049 A 
ATOM     65  H   UNL A   1      43.167  24.824  30.680  1.00  0.00     0.167 HD
ATOM     66  C   UNL A   1      44.456  27.874  31.836  1.00  0.00     0.074 A 
ATOM     67  C   UNL A   1      44.362  28.650  33.059  1.00  0.00     0.031 C 
ATOM     68  C   UNL A   1      44.925  26.619  31.573  1.00  0.00     0.034 A 
BRANCH  55  69
ATOM     69  C   UNL A   1      42.615  22.815  27.408  1.00  0.00     0.023 A 
ATOM     70  C   UNL A   1      43.659  22.683  26.469  1.00  0.00     0.031 A 
ATOM     71  C   UNL A   1      41.749  21.707  27.500  1.00  0.00     0.131 A 
ATOM     72  C   UNL A   1      43.747  21.569  25.614  1.00  0.00     0.055 A 
ATOM     73  C   UNL A   1      41.793  20.628  26.607  1.00  0.00     0.041 A 
ATOM     74  F   UNL A   1      40.864  21.586  28.497  1.00  0.00    -0.206 F 
ATOM     75  C   UNL A   1      42.788  20.561  25.645  1.00  0.00     0.022 A 
BRANCH  72  76
ATOM     76  S   UNL A   1      45.144  21.451  24.465  1.00  0.00     0.124 S 
ATOM     77  O   UNL A   1      45.209  22.802  23.917  1.00  0.00    -0.237 OA
ATOM     78  O   UNL A   1      46.234  21.057  25.349  1.00  0.00    -0.237 OA
ATOM     79  O   UNL A   1      44.716  20.421  23.519  1.00  0.00    -0.744 OA
ENDBRANCH  72  76
ENDBRANCH  55  69
BRANCH  56  80
ATOM     80  C   UNL A   1      41.489  31.634  31.315  1.00  0.00     0.023 A 
ATOM     81  C   UNL A   1      40.379  30.940  31.853  1.00  0.00     0.031 A 
ATOM     82  C   UNL A   1      41.706  32.950  31.738  1.00  0.00     0.131 A 
ATOM     83  C   UNL A   1      39.652  31.490  32.918  1.00  0.00     0.055 A 
ATOM     84  C   UNL A   1      40.918  33.529  32.741  1.00  0.00     0.041 A 
ATOM     85  F   UNL A   1      42.762  33.648  31.295  1.00  0.00    -0.206 F 
ATOM     86  C   UNL A   1      39.921  32.782  33.372  1.00  0.00     0.022 A 
BRANCH  83  87
ATOM     87  S   UNL A   1      38.573  30.398  33.899  1.00  0.00     0.124 S 
ATOM     88  O   UNL A   1      39.068  30.619  35.252  1.00  0.00    -0.237 OA
ATOM     89  O   UNL A   1      37.235  30.916  33.616  1.00  0.00    -0.237 OA
ATOM     90  O   UNL A   1      38.830  29.074  33.338  1.00  0.00    -0.744 OA
ENDBRANCH  83  87
ENDBRANCH  56  80
BRANCH  68  91
ATOM     91  C   UNL A   1      45.579  25.747  32.612  1.00  0.00     0.023 A 
ATOM     92  C   UNL A   1      44.829  24.915  33.458  1.00  0.00     0.031 A 
ATOM     93  C   UNL A   1      46.972  25.787  32.844  1.00  0.00     0.131 A 
ATOM     94  C   UNL A   1      45.464  24.132  34.438  1.00  0.00     0.055 A 
ATOM     95  C   UNL A   1      47.587  25.075  33.878  1.00  0.00     0.041 A 
ATOM     96  F   UNL A   1      47.801  26.483  32.052  1.00  0.00    -0.206 F 
ATOM     97  C   UNL A   1      46.834  24.231  34.677  1.00  0.00     0.022 A 
BRANCH  94  98
ATOM     98  S   UNL A   1      44.478  22.912  35.345  1.00  0.00     0.124 S 
ATOM     99  O   UNL A   1      43.130  23.464  35.260  1.00  0.00    -0.237 OA
ATOM    100  O   UNL A   1      44.719  21.701  34.563  1.00  0.00    -0.237 OA
ATOM    101  O   UNL A   1      45.069  22.913  36.680  1.00  0.00    -0.744 OA
ENDBRANCH  94  98
ENDBRANCH  68  91
ENDBRANCH  42  43
ENDBRANCH  34  37
ENDBRANCH  32  33
ENDBRANCH  31  32
ENDBRANCH   1  31
TORSDOF 17
ENDMDL
MODEL 3
REMARK VINA RESULT:     -13.2      3.896     10.364
REMARK SMILES Cc1ccccc1[C@@H]1[NH2+][C@@H](C(=O)NCCCCCCNC(=O)c2ccc(-c3c4nc(c(-c5cc(S(=O)(=O)[O-])ccc5F)c5ccc([nH]5)c(-c5cc(S(=O)(=O)[O-])ccc5F)c5nc(c(-c6cc(S(=O)(=O)[O-])ccc6F)c6ccc3[nH]6)C=C5)C=C4)cc2)CC2=c3ccccc3=N[C@H]21
REMARK SMILES IDX 17 1 16 2 15 3 14 4 13 5 11 6 12 7 10 9 8 10 9 11 95 12
REMARK SMILES IDX 87 15 94 16 86 17 88 18 93 19 89 20 92 21 90 22 91 23 7 24
REMARK SMILES IDX 1 25 2 26 3 27 4 28 6 29 5 30 18 31 19 32 20 33 21 34 22 36
REMARK SMILES IDX 23 37 24 38 85 39 25 40 84 41 26 42 27 43 28 44 78 45 29 46
REMARK SMILES IDX 83 47 77 48 79 49 30 50 82 51 76 52 75 53 31 55 63 56 43 57
REMARK SMILES IDX 62 58 44 59 47 60 61 61 80 62 45 63 46 64 60 66 81 67 48 68
REMARK SMILES IDX 32 69 33 70 41 71 34 72 40 73 42 74 39 75 35 76 36 77 37 78
REMARK SMILES IDX 38 79 64 80 65 81 73 82 66 83 72 84 74 85 71 86 67 87 68 88
REMARK SMILES IDX 69 89 70 90 49 91 50 92 58 93 51 94 57 95 59 96 56 97 52 98
REMARK SMILES IDX 53 99 54 100 55 101
REMARK H PARENT 13 8 9 13 9 14 20 35 79 54 47 65
REMARK Flexibility Score: inf
ROOT
ATOM      1  C   UNL A   1      36.814  21.619  24.812  1.00  0.00     0.002 C 
ENDROOT
BRANCH   1   2
ATOM      2  C   UNL A   1      36.344  22.986  24.277  1.00  0.00     0.002 C 
BRANCH   2   3
ATOM      3  C   UNL A   1      35.019  23.036  23.498  1.00  0.00     0.021 C 
BRANCH   3   4
ATOM      4  C   UNL A   1      34.477  24.430  23.180  1.00  0.00     0.116 C 
BRANCH   4   5
ATOM      5  N   UNL A   1      33.736  24.578  21.938  1.00  0.00    -0.351 N 
ATOM      6  C   UNL A   1      32.941  25.594  21.479  1.00  0.00     0.278 C 
ATOM      7  O   UNL A   1      32.921  25.763  20.251  1.00  0.00    -0.268 OA
ATOM      8  H   UNL A   1      33.822  23.817  21.320  1.00  0.00     0.163 HD
BRANCH   6   9
ATOM      9  C   UNL A   1      31.946  26.371  22.395  1.00  0.00     0.277 C 
ATOM     10  C   UNL A   1      32.741  27.116  24.736  1.00  0.00     0.243 C 
ATOM     11  N   UNL A   1      32.707  27.326  23.265  1.00  0.00    -0.327 N 
ATOM     12  C   UNL A   1      31.646  26.213  25.385  1.00  0.00     0.196 C 
ATOM     13  H   UNL A   1      33.674  27.314  22.942  1.00  0.00     0.347 HD
ATOM     14  H   UNL A   1      32.192  28.201  23.163  1.00  0.00     0.347 HD
ATOM     15  C   UNL A   1      31.310  25.113  24.435  1.00  0.00    -0.024 C 
ATOM     16  N   UNL A   1      32.131  25.511  26.618  1.00  0.00    -0.270 NA
ATOM     17  C   UNL A   1      30.853  25.571  23.104  1.00  0.00     0.109 C 
ATOM     18  C   UNL A   1      31.562  23.917  24.945  1.00  0.00     0.002 A 
ATOM     19  C   UNL A   1      32.018  24.255  26.305  1.00  0.00     0.066 A 
ATOM     20  C   UNL A   1      31.538  22.575  24.470  1.00  0.00     0.010 A 
ATOM     21  C   UNL A   1      32.310  23.111  27.196  1.00  0.00     0.028 A 
ATOM     22  C   UNL A   1      31.883  21.589  25.313  1.00  0.00     0.001 A 
ATOM     23  C   UNL A   1      32.231  21.865  26.698  1.00  0.00     0.002 A 
BRANCH  10  24
ATOM     24  C   UNL A   1      32.763  28.474  25.462  1.00  0.00     0.015 A 
ATOM     25  C   UNL A   1      30.659  29.388  24.272  1.00  0.00     0.045 C 
ATOM     26  C   UNL A   1      31.792  29.488  25.261  1.00  0.00    -0.042 A 
ATOM     27  C   UNL A   1      31.820  30.640  26.072  1.00  0.00     0.004 A 
ATOM     28  C   UNL A   1      32.806  30.822  27.038  1.00  0.00     0.000 A 
ATOM     29  C   UNL A   1      33.761  28.690  26.435  1.00  0.00     0.010 A 
ATOM     30  C   UNL A   1      33.786  29.852  27.211  1.00  0.00     0.001 A 
ENDBRANCH  10  24
ENDBRANCH   6   9
ENDBRANCH   4   5
ENDBRANCH   3   4
ENDBRANCH   2   3
ENDBRANCH   1   2
BRANCH   1  31
ATOM     31  C   UNL A   1      38.223  21.552  25.409  1.00  0.00     0.021 C 
BRANCH  31  32
ATOM     32  C   UNL A   1      38.687  22.835  26.094  1.00  0.00     0.116 C 
BRANCH  32  33
ATOM     33  N   UNL A   1      40.123  22.892  26.353  1.00  0.00    -0.352 N 
ATOM     34  C   UNL A   1      40.918  23.985  26.664  1.00  0.00     0.251 C 
ATOM     35  H   UNL A   1      40.596  22.029  26.299  1.00  0.00     0.163 HD
ATOM     36  O   UNL A   1      42.130  23.879  26.771  1.00  0.00    -0.269 OA
BRANCH  34  37
ATOM     37  C   UNL A   1      40.263  25.276  26.994  1.00  0.00     0.039 A 
ATOM     38  C   UNL A   1      40.650  26.405  26.260  1.00  0.00     0.014 A 
ATOM     39  C   UNL A   1      39.475  25.415  28.130  1.00  0.00     0.014 A 
ATOM     40  C   UNL A   1      40.467  27.673  26.807  1.00  0.00     0.010 A 
ATOM     41  C   UNL A   1      39.383  26.658  28.723  1.00  0.00     0.010 A 
ATOM     42  C   UNL A   1      39.941  27.778  28.094  1.00  0.00    -0.014 A 
BRANCH  42  43
ATOM     43  C   UNL A   1      40.079  28.970  28.923  1.00  0.00     0.031 A 
ATOM     44  C   UNL A   1      39.029  30.007  28.956  1.00  0.00     0.074 A 
ATOM     45  C   UNL A   1      41.135  29.073  29.759  1.00  0.00     0.049 A 
ATOM     46  N   UNL A   1      39.217  31.216  29.362  1.00  0.00    -0.248 NA
ATOM     47  C   UNL A   1      37.669  29.761  28.497  1.00  0.00     0.031 C 
ATOM     48  C   UNL A   1      41.311  30.013  30.862  1.00  0.00     0.029 A 
ATOM     49  N   UNL A   1      42.387  28.483  29.605  1.00  0.00    -0.354 N 
ATOM     50  C   UNL A   1      37.986  31.813  29.498  1.00  0.00     0.074 A 
ATOM     51  C   UNL A   1      37.061  30.886  28.887  1.00  0.00     0.031 C 
ATOM     52  C   UNL A   1      42.622  30.148  31.109  1.00  0.00     0.029 A 
ATOM     53  C   UNL A   1      43.336  29.410  30.084  1.00  0.00     0.049 A 
ATOM     54  H   UNL A   1      42.574  27.592  29.232  1.00  0.00     0.167 HD
ATOM     55  C   UNL A   1      37.877  32.963  30.224  1.00  0.00     0.034 A 
ATOM     56  C   UNL A   1      44.281  29.922  29.242  1.00  0.00     0.034 A 
ATOM     57  C   UNL A   1      39.183  33.454  30.671  1.00  0.00     0.049 A 
ATOM     58  C   UNL A   1      44.166  31.422  29.025  1.00  0.00     0.074 A 
ATOM     59  C   UNL A   1      39.875  33.443  31.872  1.00  0.00     0.029 A 
ATOM     60  N   UNL A   1      40.098  33.856  29.714  1.00  0.00    -0.354 N 
ATOM     61  N   UNL A   1      43.260  32.181  29.579  1.00  0.00    -0.248 NA
ATOM     62  C   UNL A   1      45.018  32.171  28.099  1.00  0.00     0.031 C 
ATOM     63  C   UNL A   1      41.228  33.812  31.608  1.00  0.00     0.029 A 
ATOM     64  C   UNL A   1      41.351  34.068  30.254  1.00  0.00     0.049 A 
ATOM     65  H   UNL A   1      39.881  33.978  28.762  1.00  0.00     0.167 HD
ATOM     66  C   UNL A   1      43.336  33.446  29.055  1.00  0.00     0.074 A 
ATOM     67  C   UNL A   1      44.464  33.395  28.143  1.00  0.00     0.031 C 
ATOM     68  C   UNL A   1      42.440  34.430  29.361  1.00  0.00     0.034 A 
BRANCH  55  69
ATOM     69  C   UNL A   1      36.570  33.525  30.732  1.00  0.00     0.023 A 
ATOM     70  C   UNL A   1      35.689  34.141  29.820  1.00  0.00     0.031 A 
ATOM     71  C   UNL A   1      36.140  33.525  32.073  1.00  0.00     0.131 A 
ATOM     72  C   UNL A   1      34.525  34.803  30.251  1.00  0.00     0.055 A 
ATOM     73  C   UNL A   1      35.018  34.240  32.515  1.00  0.00     0.041 A 
ATOM     74  F   UNL A   1      36.746  32.782  33.008  1.00  0.00    -0.206 F 
ATOM     75  C   UNL A   1      34.209  34.898  31.603  1.00  0.00     0.022 A 
BRANCH  72  76
ATOM     76  S   UNL A   1      33.419  35.532  29.013  1.00  0.00     0.124 S 
ATOM     77  O   UNL A   1      32.737  34.358  28.477  1.00  0.00    -0.237 OA
ATOM     78  O   UNL A   1      32.610  36.438  29.822  1.00  0.00    -0.237 OA
ATOM     79  O   UNL A   1      34.338  36.190  28.085  1.00  0.00    -0.744 OA
ENDBRANCH  72  76
ENDBRANCH  55  69
BRANCH  56  80
ATOM     80  C   UNL A   1      44.745  28.911  28.244  1.00  0.00     0.023 A 
ATOM     81  C   UNL A   1      45.565  27.868  28.735  1.00  0.00     0.031 A 
ATOM     82  C   UNL A   1      44.090  28.708  27.024  1.00  0.00     0.131 A 
ATOM     83  C   UNL A   1      45.556  26.611  28.115  1.00  0.00     0.055 A 
ATOM     84  C   UNL A   1      44.157  27.477  26.359  1.00  0.00     0.041 A 
ATOM     85  F   UNL A   1      43.268  29.642  26.523  1.00  0.00    -0.206 F 
ATOM     86  C   UNL A   1      44.848  26.406  26.931  1.00  0.00     0.022 A 
BRANCH  83  87
ATOM     87  S   UNL A   1      46.216  25.179  29.028  1.00  0.00     0.124 S 
ATOM     88  O   UNL A   1      46.858  24.412  27.967  1.00  0.00    -0.237 OA
ATOM     89  O   UNL A   1      47.113  25.795  30.004  1.00  0.00    -0.237 OA
ATOM     90  O   UNL A   1      45.023  24.572  29.616  1.00  0.00    -0.744 OA
ENDBRANCH  83  87
ENDBRANCH  56  80
BRANCH  68  91
ATOM     91  C   UNL A   1      42.523  35.826  28.802  1.00  0.00     0.023 A 
ATOM     92  C   UNL A   1      43.006  36.901  29.565  1.00  0.00     0.031 A 
ATOM     93  C   UNL A   1      42.039  36.139  27.512  1.00  0.00     0.131 A 
ATOM     94  C   UNL A   1      43.046  38.200  29.027  1.00  0.00     0.055 A 
ATOM     95  C   UNL A   1      41.999  37.445  27.015  1.00  0.00     0.041 A 
ATOM     96  F   UNL A   1      41.627  35.187  26.663  1.00  0.00    -0.206 F 
ATOM     97  C   UNL A   1      42.515  38.485  27.770  1.00  0.00     0.022 A 
BRANCH  94  98
ATOM     98  S   UNL A   1      43.886  39.501  29.967  1.00  0.00     0.124 S 
ATOM     99  O   UNL A   1      42.990  40.641  29.804  1.00  0.00    -0.237 OA
ATOM    100  O   UNL A   1      43.931  38.915  31.304  1.00  0.00    -0.237 OA
ATOM    101  O   UNL A   1      45.181  39.626  29.302  1.00  0.00    -0.744 OA
ENDBRANCH  94  98
ENDBRANCH  68  91
ENDBRANCH  42  43
ENDBRANCH  34  37
ENDBRANCH  32  33
ENDBRANCH  31  32
ENDBRANCH   1  31
TORSDOF 17
ENDMDL
