MODEL 1
REMARK VINA RESULT:      -9.2      0.000      0.000
REMARK SMILES CC(C)CCN(C(=O)N[C@H](C(=O)NCCCCCCNC(=O)c1ccc(-c2c3nc(c(-c4cc(S(=O)(=O)[O-])ccc4F)c4ccc([nH]4)c(-c4cc(S(=O)(=O)[O-])ccc4F)c4nc(c(-c5cc(S(=O)(=O)[O-])ccc5F)c5ccc2[nH]5)C=C4)C=C3)cc1)[C@H](C)O)C1CCCC1
REMARK SMILES IDX 15 1 14 2 13 3 11 4 12 5 10 7 9 8 7 9 8 10 6 12 5 13 4 14
REMARK SMILES IDX 2 15 1 16 3 17 89 18 90 19 93 20 91 21 92 22 86 23 87 24
REMARK SMILES IDX 88 25 16 27 17 28 18 29 19 30 20 31 21 32 22 34 23 35 24 36
REMARK SMILES IDX 85 37 25 38 84 39 26 40 27 41 28 42 78 43 29 44 83 45 77 46
REMARK SMILES IDX 79 47 30 48 82 49 76 50 75 51 31 53 63 54 43 55 62 56 44 57
REMARK SMILES IDX 47 58 61 59 80 60 45 61 46 62 60 64 81 65 48 66 32 67 33 68
REMARK SMILES IDX 41 69 34 70 40 71 42 72 39 73 35 74 36 75 37 76 38 77 64 78
REMARK SMILES IDX 65 79 73 80 66 81 72 82 74 83 71 84 67 85 68 86 69 87 70 88
REMARK SMILES IDX 49 89 50 90 58 91 51 92 57 93 59 94 56 95 52 96 53 97 54 98
REMARK SMILES IDX 55 99
REMARK H PARENT 13 6 9 11 88 26 20 33 79 52 47 63
REMARK Flexibility Score: inf
ROOT
ATOM      1  C   UNL A   1      46.836  39.995  24.679  1.00  0.00     0.021 C 
ENDROOT
BRANCH   1   2
ATOM      2  C   UNL A   1      46.688  41.298  23.893  1.00  0.00     0.116 C 
BRANCH   2   3
ATOM      3  N   UNL A   1      47.259  41.175  22.570  1.00  0.00    -0.354 N 
ATOM      4  C   UNL A   1      47.460  42.012  21.532  1.00  0.00     0.245 C 
ATOM      5  O   UNL A   1      47.967  41.460  20.540  1.00  0.00    -0.273 OA
ATOM      6  H   UNL A   1      47.578  40.262  22.383  1.00  0.00     0.163 HD
BRANCH   4   7
ATOM      7  C   UNL A   1      47.157  43.533  21.461  1.00  0.00     0.201 C 
BRANCH   7   8
ATOM      8  N   UNL A   1      45.711  43.601  21.131  1.00  0.00    -0.324 N 
ATOM      9  C   UNL A   1      44.898  44.435  20.469  1.00  0.00     0.318 C 
ATOM     10  O   UNL A   1      43.734  44.449  20.884  1.00  0.00    -0.249 OA
ATOM     11  H   UNL A   1      45.220  42.829  21.494  1.00  0.00     0.166 HD
BRANCH   9  12
ATOM     12  N   UNL A   1      45.319  45.255  19.450  1.00  0.00    -0.322 N 
BRANCH  12  13
ATOM     13  C   UNL A   1      44.868  45.134  18.046  1.00  0.00     0.122 C 
BRANCH  13  14
ATOM     14  C   UNL A   1      44.371  46.419  17.355  1.00  0.00     0.024 C 
BRANCH  14  15
ATOM     15  C   UNL A   1      42.918  46.841  17.625  1.00  0.00    -0.016 C 
ATOM     16  C   UNL A   1      42.271  47.599  16.464  1.00  0.00     0.007 C 
ATOM     17  C   UNL A   1      42.064  45.628  17.995  1.00  0.00     0.007 C 
ENDBRANCH  14  15
ENDBRANCH  13  14
ENDBRANCH  12  13
BRANCH  12  18
ATOM     18  C   UNL A   1      46.021  46.477  19.903  1.00  0.00     0.087 C 
ATOM     19  C   UNL A   1      47.059  47.092  18.965  1.00  0.00     0.025 C 
ATOM     20  C   UNL A   1      45.083  47.623  20.326  1.00  0.00     0.025 C 
ATOM     21  C   UNL A   1      47.144  48.553  19.392  1.00  0.00     0.002 C 
ATOM     22  C   UNL A   1      45.765  48.926  19.919  1.00  0.00     0.002 C 
ENDBRANCH  12  18
ENDBRANCH   9  12
ENDBRANCH   7   8
BRANCH   7  23
ATOM     23  C   UNL A   1      47.510  44.532  22.579  1.00  0.00     0.143 C 
ATOM     24  C   UNL A   1      48.897  44.400  23.201  1.00  0.00     0.041 C 
BRANCH  23  25
ATOM     25  O   UNL A   1      46.555  44.383  23.650  1.00  0.00    -0.391 OA
ATOM     26  H   UNL A   1      45.805  44.979  23.499  1.00  0.00     0.211 HD
ENDBRANCH  23  25
ENDBRANCH   7  23
ENDBRANCH   4   7
ENDBRANCH   2   3
ENDBRANCH   1   2
BRANCH   1  27
ATOM     27  C   UNL A   1      46.086  39.971  26.016  1.00  0.00     0.002 C 
BRANCH  27  28
ATOM     28  C   UNL A   1      46.269  38.696  26.846  1.00  0.00     0.002 C 
BRANCH  28  29
ATOM     29  C   UNL A   1      47.701  38.157  26.907  1.00  0.00     0.021 C 
BRANCH  29  30
ATOM     30  C   UNL A   1      47.960  37.159  28.031  1.00  0.00     0.116 C 
BRANCH  30  31
ATOM     31  N   UNL A   1      47.388  37.603  29.292  1.00  0.00    -0.352 N 
ATOM     32  C   UNL A   1      46.364  37.056  30.019  1.00  0.00     0.251 C 
ATOM     33  H   UNL A   1      47.795  38.412  29.677  1.00  0.00     0.163 HD
ATOM     34  O   UNL A   1      45.858  37.703  30.938  1.00  0.00    -0.269 OA
BRANCH  32  35
ATOM     35  C   UNL A   1      45.857  35.707  29.689  1.00  0.00     0.039 A 
ATOM     36  C   UNL A   1      46.180  34.637  30.526  1.00  0.00     0.014 A 
ATOM     37  C   UNL A   1      45.075  35.495  28.549  1.00  0.00     0.014 A 
ATOM     38  C   UNL A   1      45.672  33.366  30.251  1.00  0.00     0.010 A 
ATOM     39  C   UNL A   1      44.508  34.244  28.319  1.00  0.00     0.010 A 
ATOM     40  C   UNL A   1      44.806  33.165  29.164  1.00  0.00    -0.014 A 
BRANCH  40  41
ATOM     41  C   UNL A   1      44.209  31.830  28.892  1.00  0.00     0.031 A 
ATOM     42  C   UNL A   1      42.833  31.499  29.402  1.00  0.00     0.074 A 
ATOM     43  C   UNL A   1      44.930  30.899  28.234  1.00  0.00     0.049 A 
ATOM     44  N   UNL A   1      42.170  30.374  29.326  1.00  0.00    -0.248 NA
ATOM     45  C   UNL A   1      42.123  32.568  30.119  1.00  0.00     0.031 C 
ATOM     46  C   UNL A   1      46.289  31.092  27.722  1.00  0.00     0.029 A 
ATOM     47  N   UNL A   1      44.626  29.607  27.886  1.00  0.00    -0.354 N 
ATOM     48  C   UNL A   1      40.969  30.595  29.992  1.00  0.00     0.074 A 
ATOM     49  C   UNL A   1      41.029  31.941  30.524  1.00  0.00     0.031 C 
ATOM     50  C   UNL A   1      46.689  29.970  27.105  1.00  0.00     0.029 A 
ATOM     51  C   UNL A   1      45.640  28.961  27.218  1.00  0.00     0.049 A 
ATOM     52  H   UNL A   1      43.763  29.182  28.095  1.00  0.00     0.167 HD
ATOM     53  C   UNL A   1      39.907  29.763  30.128  1.00  0.00     0.034 A 
ATOM     54  C   UNL A   1      45.722  27.696  26.760  1.00  0.00     0.034 A 
ATOM     55  C   UNL A   1      39.864  28.426  29.586  1.00  0.00     0.049 A 
ATOM     56  C   UNL A   1      44.543  26.775  26.954  1.00  0.00     0.074 A 
ATOM     57  C   UNL A   1      38.822  27.515  29.618  1.00  0.00     0.029 A 
ATOM     58  N   UNL A   1      40.914  27.801  28.923  1.00  0.00    -0.354 N 
ATOM     59  N   UNL A   1      43.394  27.016  27.543  1.00  0.00    -0.248 NA
ATOM     60  C   UNL A   1      44.670  25.415  26.414  1.00  0.00     0.031 C 
ATOM     61  C   UNL A   1      39.266  26.318  29.047  1.00  0.00     0.029 A 
ATOM     62  C   UNL A   1      40.557  26.506  28.577  1.00  0.00     0.049 A 
ATOM     63  H   UNL A   1      41.785  28.218  28.728  1.00  0.00     0.167 HD
ATOM     64  C   UNL A   1      42.649  25.847  27.412  1.00  0.00     0.074 A 
ATOM     65  C   UNL A   1      43.474  24.910  26.677  1.00  0.00     0.031 C 
ATOM     66  C   UNL A   1      41.394  25.575  27.855  1.00  0.00     0.034 A 
BRANCH  53  67
ATOM     67  C   UNL A   1      38.722  30.270  30.918  1.00  0.00     0.023 A 
ATOM     68  C   UNL A   1      37.764  31.130  30.349  1.00  0.00     0.031 A 
ATOM     69  C   UNL A   1      38.560  29.916  32.270  1.00  0.00     0.131 A 
ATOM     70  C   UNL A   1      36.745  31.672  31.145  1.00  0.00     0.055 A 
ATOM     71  C   UNL A   1      37.489  30.387  33.033  1.00  0.00     0.041 A 
ATOM     72  F   UNL A   1      39.450  29.117  32.878  1.00  0.00    -0.206 F 
ATOM     73  C   UNL A   1      36.584  31.284  32.476  1.00  0.00     0.022 A 
BRANCH  70  74
ATOM     74  S   UNL A   1      35.732  33.011  30.459  1.00  0.00     0.124 S 
ATOM     75  O   UNL A   1      36.357  33.214  29.153  1.00  0.00    -0.237 OA
ATOM     76  O   UNL A   1      34.398  32.422  30.444  1.00  0.00    -0.237 OA
ATOM     77  O   UNL A   1      35.921  34.106  31.408  1.00  0.00    -0.744 OA
ENDBRANCH  70  74
ENDBRANCH  53  67
BRANCH  54  78
ATOM     78  C   UNL A   1      46.963  27.216  26.086  1.00  0.00     0.023 A 
ATOM     79  C   UNL A   1      48.034  26.692  26.826  1.00  0.00     0.031 A 
ATOM     80  C   UNL A   1      47.112  27.312  24.690  1.00  0.00     0.131 A 
ATOM     81  C   UNL A   1      49.222  26.325  26.174  1.00  0.00     0.055 A 
ATOM     82  C   UNL A   1      48.274  26.893  24.040  1.00  0.00     0.041 A 
ATOM     83  F   UNL A   1      46.117  27.803  23.934  1.00  0.00    -0.206 F 
ATOM     84  C   UNL A   1      49.344  26.408  24.786  1.00  0.00     0.022 A 
BRANCH  81  85
ATOM     85  S   UNL A   1      50.644  25.819  27.181  1.00  0.00     0.124 S 
ATOM     86  O   UNL A   1      51.402  27.062  27.269  1.00  0.00    -0.237 OA
ATOM     87  O   UNL A   1      50.000  25.370  28.411  1.00  0.00    -0.237 OA
ATOM     88  O   UNL A   1      51.266  24.764  26.383  1.00  0.00    -0.744 OA
ENDBRANCH  81  85
ENDBRANCH  54  78
BRANCH  66  89
ATOM     89  C   UNL A   1      40.823  24.220  27.511  1.00  0.00     0.023 A 
ATOM     90  C   UNL A   1      39.714  24.074  26.657  1.00  0.00     0.031 A 
ATOM     91  C   UNL A   1      41.394  23.055  28.056  1.00  0.00     0.131 A 
ATOM     92  C   UNL A   1      39.177  22.801  26.421  1.00  0.00     0.055 A 
ATOM     93  C   UNL A   1      40.896  21.785  27.762  1.00  0.00     0.041 A 
ATOM     94  F   UNL A   1      42.450  23.133  28.880  1.00  0.00    -0.206 F 
ATOM     95  C   UNL A   1      39.772  21.654  26.953  1.00  0.00     0.022 A 
BRANCH  92  96
ATOM     96  S   UNL A   1      37.625  22.669  25.491  1.00  0.00     0.124 S 
ATOM     97  O   UNL A   1      37.795  23.702  24.473  1.00  0.00    -0.237 OA
ATOM     98  O   UNL A   1      37.663  21.291  25.013  1.00  0.00    -0.237 OA
ATOM     99  O   UNL A   1      36.599  22.950  26.493  1.00  0.00    -0.744 OA
ENDBRANCH  92  96
ENDBRANCH  66  89
ENDBRANCH  40  41
ENDBRANCH  32  35
ENDBRANCH  30  31
ENDBRANCH  29  30
ENDBRANCH  28  29
ENDBRANCH  27  28
ENDBRANCH   1  27
TORSDOF 24
ENDMDL
MODEL 2
REMARK VINA RESULT:      -9.0      6.977     13.878
REMARK SMILES CC(C)CCN(C(=O)N[C@H](C(=O)NCCCCCCNC(=O)c1ccc(-c2c3nc(c(-c4cc(S(=O)(=O)[O-])ccc4F)c4ccc([nH]4)c(-c4cc(S(=O)(=O)[O-])ccc4F)c4nc(c(-c5cc(S(=O)(=O)[O-])ccc5F)c5ccc2[nH]5)C=C4)C=C3)cc1)[C@H](C)O)C1CCCC1
REMARK SMILES IDX 15 1 14 2 13 3 11 4 12 5 10 7 9 8 7 9 8 10 6 12 5 13 4 14
REMARK SMILES IDX 2 15 1 16 3 17 89 18 90 19 93 20 91 21 92 22 86 23 87 24
REMARK SMILES IDX 88 25 16 27 17 28 18 29 19 30 20 31 21 32 22 34 23 35 24 36
REMARK SMILES IDX 85 37 25 38 84 39 26 40 27 41 28 42 78 43 29 44 83 45 77 46
REMARK SMILES IDX 79 47 30 48 82 49 76 50 75 51 31 53 63 54 43 55 62 56 44 57
REMARK SMILES IDX 47 58 61 59 80 60 45 61 46 62 60 64 81 65 48 66 32 67 33 68
REMARK SMILES IDX 41 69 34 70 40 71 42 72 39 73 35 74 36 75 37 76 38 77 64 78
REMARK SMILES IDX 65 79 73 80 66 81 72 82 74 83 71 84 67 85 68 86 69 87 70 88
REMARK SMILES IDX 49 89 50 90 58 91 51 92 57 93 59 94 56 95 52 96 53 97 54 98
REMARK SMILES IDX 55 99
REMARK H PARENT 13 6 9 11 88 26 20 33 79 52 47 63
REMARK Flexibility Score: inf
ROOT
ATOM      1  C   UNL A   1      47.276  31.361  26.905  1.00  0.00     0.021 C 
ENDROOT
BRANCH   1   2
ATOM      2  C   UNL A   1      46.205  30.427  27.470  1.00  0.00     0.116 C 
BRANCH   2   3
ATOM      3  N   UNL A   1      46.340  29.093  26.928  1.00  0.00    -0.354 N 
ATOM      4  C   UNL A   1      45.620  27.955  26.995  1.00  0.00     0.245 C 
ATOM      5  O   UNL A   1      46.140  27.003  26.387  1.00  0.00    -0.273 OA
ATOM      6  H   UNL A   1      47.151  28.993  26.378  1.00  0.00     0.163 HD
BRANCH   4   7
ATOM      7  C   UNL A   1      44.257  27.729  27.703  1.00  0.00     0.201 C 
BRANCH   7   8
ATOM      8  N   UNL A   1      43.263  27.770  26.600  1.00  0.00    -0.324 N 
ATOM      9  C   UNL A   1      42.744  26.903  25.721  1.00  0.00     0.318 C 
ATOM     10  O   UNL A   1      42.397  27.410  24.649  1.00  0.00    -0.249 OA
ATOM     11  H   UNL A   1      42.886  28.671  26.487  1.00  0.00     0.166 HD
BRANCH   9  12
ATOM     12  N   UNL A   1      42.651  25.552  25.952  1.00  0.00    -0.322 N 
BRANCH  12  13
ATOM     13  C   UNL A   1      43.726  24.581  25.647  1.00  0.00     0.122 C 
BRANCH  13  14
ATOM     14  C   UNL A   1      43.321  23.299  24.893  1.00  0.00     0.024 C 
BRANCH  14  15
ATOM     15  C   UNL A   1      43.907  21.973  25.405  1.00  0.00    -0.016 C 
ATOM     16  C   UNL A   1      42.846  20.937  25.782  1.00  0.00     0.007 C 
ATOM     17  C   UNL A   1      44.874  21.379  24.381  1.00  0.00     0.007 C 
ENDBRANCH  14  15
ENDBRANCH  13  14
ENDBRANCH  12  13
BRANCH  12  18
ATOM     18  C   UNL A   1      41.519  25.159  26.820  1.00  0.00     0.087 C 
ATOM     19  C   UNL A   1      40.157  24.943  26.161  1.00  0.00     0.025 C 
ATOM     20  C   UNL A   1      41.788  23.912  27.682  1.00  0.00     0.025 C 
ATOM     21  C   UNL A   1      39.410  24.020  27.116  1.00  0.00     0.002 C 
ATOM     22  C   UNL A   1      40.468  23.155  27.789  1.00  0.00     0.002 C 
ENDBRANCH  12  18
ENDBRANCH   9  12
ENDBRANCH   7   8
BRANCH   7  23
ATOM     23  C   UNL A   1      43.969  26.554  28.655  1.00  0.00     0.143 C 
ATOM     24  C   UNL A   1      43.260  26.892  29.963  1.00  0.00     0.041 C 
BRANCH  23  25
ATOM     25  O   UNL A   1      45.218  25.925  29.006  1.00  0.00    -0.391 OA
ATOM     26  H   UNL A   1      45.950  26.403  28.585  1.00  0.00     0.211 HD
ENDBRANCH  23  25
ENDBRANCH   7  23
ENDBRANCH   4   7
ENDBRANCH   2   3
ENDBRANCH   1   2
BRANCH   1  27
ATOM     27  C   UNL A   1      47.939  32.270  27.947  1.00  0.00     0.002 C 
BRANCH  27  28
ATOM     28  C   UNL A   1      47.872  33.771  27.643  1.00  0.00     0.002 C 
BRANCH  28  29
ATOM     29  C   UNL A   1      47.698  34.130  26.165  1.00  0.00     0.021 C 
BRANCH  29  30
ATOM     30  C   UNL A   1      46.816  35.347  25.903  1.00  0.00     0.116 C 
BRANCH  30  31
ATOM     31  N   UNL A   1      45.709  35.031  25.015  1.00  0.00    -0.352 N 
ATOM     32  C   UNL A   1      44.466  34.542  25.318  1.00  0.00     0.251 C 
ATOM     33  H   UNL A   1      45.878  35.192  24.058  1.00  0.00     0.163 HD
ATOM     34  O   UNL A   1      43.745  34.111  24.416  1.00  0.00    -0.269 OA
BRANCH  32  35
ATOM     35  C   UNL A   1      44.003  34.513  26.722  1.00  0.00     0.039 A 
ATOM     36  C   UNL A   1      43.483  35.678  27.289  1.00  0.00     0.014 A 
ATOM     37  C   UNL A   1      44.091  33.342  27.481  1.00  0.00     0.014 A 
ATOM     38  C   UNL A   1      43.001  35.654  28.599  1.00  0.00     0.010 A 
ATOM     39  C   UNL A   1      43.541  33.300  28.760  1.00  0.00     0.010 A 
ATOM     40  C   UNL A   1      42.996  34.458  29.335  1.00  0.00    -0.014 A 
BRANCH  40  41
ATOM     41  C   UNL A   1      42.432  34.403  30.710  1.00  0.00     0.031 A 
ATOM     42  C   UNL A   1      40.947  34.272  30.912  1.00  0.00     0.074 A 
ATOM     43  C   UNL A   1      43.253  34.524  31.773  1.00  0.00     0.049 A 
ATOM     44  N   UNL A   1      40.260  34.273  32.026  1.00  0.00    -0.248 NA
ATOM     45  C   UNL A   1      40.125  34.156  29.699  1.00  0.00     0.031 C 
ATOM     46  C   UNL A   1      44.706  34.692  31.700  1.00  0.00     0.029 A 
ATOM     47  N   UNL A   1      42.986  34.532  33.119  1.00  0.00    -0.354 N 
ATOM     48  C   UNL A   1      38.925  34.168  31.648  1.00  0.00     0.074 A 
ATOM     49  C   UNL A   1      38.899  34.174  30.201  1.00  0.00     0.031 C 
ATOM     50  C   UNL A   1      45.203  34.759  32.945  1.00  0.00     0.029 A 
ATOM     51  C   UNL A   1      44.105  34.691  33.903  1.00  0.00     0.049 A 
ATOM     52  H   UNL A   1      42.079  34.434  33.488  1.00  0.00     0.167 HD
ATOM     53  C   UNL A   1      37.826  34.052  32.435  1.00  0.00     0.034 A 
ATOM     54  C   UNL A   1      44.231  34.784  35.242  1.00  0.00     0.034 A 
ATOM     55  C   UNL A   1      37.873  34.042  33.877  1.00  0.00     0.049 A 
ATOM     56  C   UNL A   1      42.992  34.690  36.097  1.00  0.00     0.074 A 
ATOM     57  C   UNL A   1      36.830  33.878  34.773  1.00  0.00     0.029 A 
ATOM     58  N   UNL A   1      39.023  34.214  34.638  1.00  0.00    -0.354 N 
ATOM     59  N   UNL A   1      41.741  34.539  35.725  1.00  0.00    -0.248 NA
ATOM     60  C   UNL A   1      43.183  34.769  37.551  1.00  0.00     0.031 C 
ATOM     61  C   UNL A   1      37.335  34.029  36.069  1.00  0.00     0.029 A 
ATOM     62  C   UNL A   1      38.708  34.198  35.989  1.00  0.00     0.049 A 
ATOM     63  H   UNL A   1      39.929  34.330  34.272  1.00  0.00     0.167 HD
ATOM     64  C   UNL A   1      41.001  34.471  36.903  1.00  0.00     0.074 A 
ATOM     65  C   UNL A   1      41.949  34.583  37.994  1.00  0.00     0.031 C 
ATOM     66  C   UNL A   1      39.661  34.324  37.069  1.00  0.00     0.034 A 
BRANCH  53  67
ATOM     67  C   UNL A   1      36.484  33.958  31.746  1.00  0.00     0.023 A 
ATOM     68  C   UNL A   1      35.566  35.024  31.763  1.00  0.00     0.031 A 
ATOM     69  C   UNL A   1      36.100  32.775  31.088  1.00  0.00     0.131 A 
ATOM     70  C   UNL A   1      34.286  34.859  31.213  1.00  0.00     0.055 A 
ATOM     71  C   UNL A   1      34.857  32.649  30.463  1.00  0.00     0.041 A 
ATOM     72  F   UNL A   1      36.921  31.714  31.055  1.00  0.00    -0.206 F 
ATOM     73  C   UNL A   1      33.935  33.688  30.538  1.00  0.00     0.022 A 
BRANCH  70  74
ATOM     74  S   UNL A   1      33.035  36.132  31.534  1.00  0.00     0.124 S 
ATOM     75  O   UNL A   1      33.813  37.128  32.271  1.00  0.00    -0.237 OA
ATOM     76  O   UNL A   1      32.620  36.513  30.190  1.00  0.00    -0.237 OA
ATOM     77  O   UNL A   1      32.027  35.432  32.326  1.00  0.00    -0.744 OA
ENDBRANCH  70  74
ENDBRANCH  53  67
BRANCH  54  78
ATOM     78  C   UNL A   1      45.572  34.989  35.861  1.00  0.00     0.023 A 
ATOM     79  C   UNL A   1      46.359  33.898  36.263  1.00  0.00     0.031 A 
ATOM     80  C   UNL A   1      46.072  36.283  36.096  1.00  0.00     0.131 A 
ATOM     81  C   UNL A   1      47.580  34.120  36.919  1.00  0.00     0.055 A 
ATOM     82  C   UNL A   1      47.313  36.498  36.697  1.00  0.00     0.041 A 
ATOM     83  F   UNL A   1      45.362  37.361  35.729  1.00  0.00    -0.206 F 
ATOM     84  C   UNL A   1      48.069  35.411  37.126  1.00  0.00     0.022 A 
BRANCH  81  85
ATOM     85  S   UNL A   1      48.483  32.692  37.580  1.00  0.00     0.124 S 
ATOM     86  O   UNL A   1      49.490  33.339  38.414  1.00  0.00    -0.237 OA
ATOM     87  O   UNL A   1      47.431  31.970  38.287  1.00  0.00    -0.237 OA
ATOM     88  O   UNL A   1      48.995  32.030  36.382  1.00  0.00    -0.744 OA
ENDBRANCH  81  85
ENDBRANCH  54  78
BRANCH  66  89
ATOM     89  C   UNL A   1      39.150  34.229  38.487  1.00  0.00     0.023 A 
ATOM     90  C   UNL A   1      38.752  33.005  39.054  1.00  0.00     0.031 A 
ATOM     91  C   UNL A   1      39.051  35.387  39.281  1.00  0.00     0.131 A 
ATOM     92  C   UNL A   1      38.220  32.976  40.352  1.00  0.00     0.055 A 
ATOM     93  C   UNL A   1      38.584  35.341  40.595  1.00  0.00     0.041 A 
ATOM     94  F   UNL A   1      39.411  36.584  38.791  1.00  0.00    -0.206 F 
ATOM     95  C   UNL A   1      38.152  34.133  41.132  1.00  0.00     0.022 A 
BRANCH  92  96
ATOM     96  S   UNL A   1      37.523  31.421  40.972  1.00  0.00     0.124 S 
ATOM     97  O   UNL A   1      36.503  31.896  41.902  1.00  0.00    -0.237 OA
ATOM     98  O   UNL A   1      37.030  30.791  39.751  1.00  0.00    -0.237 OA
ATOM     99  O   UNL A   1      38.666  30.756  41.594  1.00  0.00    -0.744 OA
ENDBRANCH  92  96
ENDBRANCH  66  89
ENDBRANCH  40  41
ENDBRANCH  32  35
ENDBRANCH  30  31
ENDBRANCH  29  30
ENDBRANCH  28  29
ENDBRANCH  27  28
ENDBRANCH   1  27
TORSDOF 24
ENDMDL
MODEL 3
REMARK VINA RESULT:      -9.0      4.715      7.745
REMARK SMILES CC(C)CCN(C(=O)N[C@H](C(=O)NCCCCCCNC(=O)c1ccc(-c2c3nc(c(-c4cc(S(=O)(=O)[O-])ccc4F)c4ccc([nH]4)c(-c4cc(S(=O)(=O)[O-])ccc4F)c4nc(c(-c5cc(S(=O)(=O)[O-])ccc5F)c5ccc2[nH]5)C=C4)C=C3)cc1)[C@H](C)O)C1CCCC1
REMARK SMILES IDX 15 1 14 2 13 3 11 4 12 5 10 7 9 8 7 9 8 10 6 12 5 13 4 14
REMARK SMILES IDX 2 15 1 16 3 17 89 18 90 19 93 20 91 21 92 22 86 23 87 24
REMARK SMILES IDX 88 25 16 27 17 28 18 29 19 30 20 31 21 32 22 34 23 35 24 36
REMARK SMILES IDX 85 37 25 38 84 39 26 40 27 41 28 42 78 43 29 44 83 45 77 46
REMARK SMILES IDX 79 47 30 48 82 49 76 50 75 51 31 53 63 54 43 55 62 56 44 57
REMARK SMILES IDX 47 58 61 59 80 60 45 61 46 62 60 64 81 65 48 66 32 67 33 68
REMARK SMILES IDX 41 69 34 70 40 71 42 72 39 73 35 74 36 75 37 76 38 77 64 78
REMARK SMILES IDX 65 79 73 80 66 81 72 82 74 83 71 84 67 85 68 86 69 87 70 88
REMARK SMILES IDX 49 89 50 90 58 91 51 92 57 93 59 94 56 95 52 96 53 97 54 98
REMARK SMILES IDX 55 99
REMARK H PARENT 13 6 9 11 88 26 20 33 79 52 47 63
REMARK Flexibility Score: inf
ROOT
ATOM      1  C   UNL A   1      45.867  42.684  31.473  1.00  0.00     0.021 C 
ENDROOT
BRANCH   1   2
ATOM      2  C   UNL A   1      45.738  42.138  30.051  1.00  0.00     0.116 C 
BRANCH   2   3
ATOM      3  N   UNL A   1      46.797  42.640  29.203  1.00  0.00    -0.354 N 
ATOM      4  C   UNL A   1      47.721  42.084  28.393  1.00  0.00     0.245 C 
ATOM      5  O   UNL A   1      48.482  42.914  27.867  1.00  0.00    -0.273 OA
ATOM      6  H   UNL A   1      46.856  43.623  29.221  1.00  0.00     0.163 HD
BRANCH   4   7
ATOM      7  C   UNL A   1      47.907  40.582  28.050  1.00  0.00     0.201 C 
BRANCH   7   8
ATOM      8  N   UNL A   1      47.412  40.464  26.655  1.00  0.00    -0.324 N 
ATOM      9  C   UNL A   1      46.231  40.276  26.051  1.00  0.00     0.318 C 
ATOM     10  O   UNL A   1      46.301  39.688  24.966  1.00  0.00    -0.249 OA
ATOM     11  H   UNL A   1      48.143  40.545  26.003  1.00  0.00     0.166 HD
BRANCH   9  12
ATOM     12  N   UNL A   1      45.029  40.648  26.602  1.00  0.00    -0.322 N 
BRANCH  12  13
ATOM     13  C   UNL A   1      44.487  42.025  26.561  1.00  0.00     0.122 C 
BRANCH  13  14
ATOM     14  C   UNL A   1      44.298  42.665  25.171  1.00  0.00     0.024 C 
BRANCH  14  15
ATOM     15  C   UNL A   1      45.142  43.911  24.855  1.00  0.00    -0.016 C 
ATOM     16  C   UNL A   1      44.454  44.895  23.909  1.00  0.00     0.007 C 
ATOM     17  C   UNL A   1      45.551  44.625  26.144  1.00  0.00     0.007 C 
ENDBRANCH  14  15
ENDBRANCH  13  14
ENDBRANCH  12  13
BRANCH  12  18
ATOM     18  C   UNL A   1      44.152  39.515  26.973  1.00  0.00     0.087 C 
ATOM     19  C   UNL A   1      43.974  39.209  28.460  1.00  0.00     0.025 C 
ATOM     20  C   UNL A   1      42.737  39.589  26.372  1.00  0.00     0.025 C 
ATOM     21  C   UNL A   1      42.647  38.464  28.542  1.00  0.00     0.002 C 
ATOM     22  C   UNL A   1      41.784  39.001  27.409  1.00  0.00     0.002 C 
ENDBRANCH  12  18
ENDBRANCH   9  12
ENDBRANCH   7   8
BRANCH   7  23
ATOM     23  C   UNL A   1      49.234  39.819  28.225  1.00  0.00     0.143 C 
ATOM     24  C   UNL A   1      49.567  39.342  29.635  1.00  0.00     0.041 C 
BRANCH  23  25
ATOM     25  O   UNL A   1      50.317  40.673  27.803  1.00  0.00    -0.391 OA
ATOM     26  H   UNL A   1      50.684  40.343  26.968  1.00  0.00     0.211 HD
ENDBRANCH  23  25
ENDBRANCH   7  23
ENDBRANCH   4   7
ENDBRANCH   2   3
ENDBRANCH   1   2
BRANCH   1  27
ATOM     27  C   UNL A   1      44.940  43.864  31.786  1.00  0.00     0.002 C 
BRANCH  27  28
ATOM     28  C   UNL A   1      45.119  44.486  33.176  1.00  0.00     0.002 C 
BRANCH  28  29
ATOM     29  C   UNL A   1      46.440  44.154  33.874  1.00  0.00     0.021 C 
BRANCH  29  30
ATOM     30  C   UNL A   1      46.329  43.122  34.992  1.00  0.00     0.116 C 
BRANCH  30  31
ATOM     31  N   UNL A   1      45.043  43.191  35.666  1.00  0.00    -0.352 N 
ATOM     32  C   UNL A   1      43.932  42.407  35.496  1.00  0.00     0.251 C 
ATOM     33  H   UNL A   1      44.958  43.902  36.341  1.00  0.00     0.163 HD
ATOM     34  O   UNL A   1      42.857  42.763  35.982  1.00  0.00    -0.269 OA
BRANCH  32  35
ATOM     35  C   UNL A   1      44.020  41.154  34.718  1.00  0.00     0.039 A 
ATOM     36  C   UNL A   1      44.801  40.104  35.207  1.00  0.00     0.014 A 
ATOM     37  C   UNL A   1      43.345  41.017  33.501  1.00  0.00     0.014 A 
ATOM     38  C   UNL A   1      44.858  38.899  34.505  1.00  0.00     0.010 A 
ATOM     39  C   UNL A   1      43.342  39.791  32.842  1.00  0.00     0.010 A 
ATOM     40  C   UNL A   1      44.104  38.721  33.333  1.00  0.00    -0.014 A 
BRANCH  40  41
ATOM     41  C   UNL A   1      44.108  37.423  32.606  1.00  0.00     0.031 A 
ATOM     42  C   UNL A   1      43.176  36.319  33.025  1.00  0.00     0.074 A 
ATOM     43  C   UNL A   1      44.989  37.223  31.604  1.00  0.00     0.049 A 
ATOM     44  N   UNL A   1      43.076  35.100  32.562  1.00  0.00    -0.248 NA
ATOM     45  C   UNL A   1      42.258  36.619  34.133  1.00  0.00     0.031 C 
ATOM     46  C   UNL A   1      45.966  38.207  31.132  1.00  0.00     0.029 A 
ATOM     47  N   UNL A   1      45.211  36.129  30.807  1.00  0.00    -0.354 N 
ATOM     48  C   UNL A   1      42.091  34.483  33.326  1.00  0.00     0.074 A 
ATOM     49  C   UNL A   1      41.676  35.444  34.326  1.00  0.00     0.031 C 
ATOM     50  C   UNL A   1      46.662  37.680  30.113  1.00  0.00     0.029 A 
ATOM     51  C   UNL A   1      46.220  36.308  29.890  1.00  0.00     0.049 A 
ATOM     52  H   UNL A   1      44.696  35.293  30.885  1.00  0.00     0.167 HD
ATOM     53  C   UNL A   1      41.565  33.240  33.192  1.00  0.00     0.034 A 
ATOM     54  C   UNL A   1      46.739  35.459  28.981  1.00  0.00     0.034 A 
ATOM     55  C   UNL A   1      41.988  32.297  32.184  1.00  0.00     0.049 A 
ATOM     56  C   UNL A   1      46.164  34.068  28.872  1.00  0.00     0.074 A 
ATOM     57  C   UNL A   1      41.490  31.032  31.923  1.00  0.00     0.029 A 
ATOM     58  N   UNL A   1      43.019  32.510  31.278  1.00  0.00    -0.354 N 
ATOM     59  N   UNL A   1      45.197  33.518  29.570  1.00  0.00    -0.248 NA
ATOM     60  C   UNL A   1      46.745  33.190  27.849  1.00  0.00     0.031 C 
ATOM     61  C   UNL A   1      42.268  30.452  30.916  1.00  0.00     0.029 A 
ATOM     62  C   UNL A   1      43.197  31.386  30.484  1.00  0.00     0.049 A 
ATOM     63  H   UNL A   1      43.548  33.338  31.209  1.00  0.00     0.167 HD
ATOM     64  C   UNL A   1      45.032  32.239  29.044  1.00  0.00     0.074 A 
ATOM     65  C   UNL A   1      45.989  32.109  27.964  1.00  0.00     0.031 C 
ATOM     66  C   UNL A   1      44.164  31.263  29.417  1.00  0.00     0.034 A 
BRANCH  53  67
ATOM     67  C   UNL A   1      40.497  32.826  34.179  1.00  0.00     0.023 A 
ATOM     68  C   UNL A   1      39.141  33.148  33.982  1.00  0.00     0.031 A 
ATOM     69  C   UNL A   1      40.839  32.126  35.350  1.00  0.00     0.131 A 
ATOM     70  C   UNL A   1      38.197  32.849  34.975  1.00  0.00     0.055 A 
ATOM     71  C   UNL A   1      39.879  31.750  36.292  1.00  0.00     0.041 A 
ATOM     72  F   UNL A   1      42.117  31.807  35.607  1.00  0.00    -0.206 F 
ATOM     73  C   UNL A   1      38.552  32.127  36.116  1.00  0.00     0.022 A 
BRANCH  70  74
ATOM     74  S   UNL A   1      36.534  33.557  34.829  1.00  0.00     0.124 S 
ATOM     75  O   UNL A   1      36.127  33.646  36.230  1.00  0.00    -0.237 OA
ATOM     76  O   UNL A   1      36.789  34.826  34.157  1.00  0.00    -0.237 OA
ATOM     77  O   UNL A   1      35.806  32.566  34.039  1.00  0.00    -0.744 OA
ENDBRANCH  70  74
ENDBRANCH  53  67
BRANCH  54  78
ATOM     78  C   UNL A   1      47.870  35.888  28.108  1.00  0.00     0.023 A 
ATOM     79  C   UNL A   1      49.203  35.646  28.477  1.00  0.00     0.031 A 
ATOM     80  C   UNL A   1      47.636  36.581  26.907  1.00  0.00     0.131 A 
ATOM     81  C   UNL A   1      50.250  36.133  27.680  1.00  0.00     0.055 A 
ATOM     82  C   UNL A   1      48.680  37.014  26.087  1.00  0.00     0.041 A 
ATOM     83  F   UNL A   1      46.381  36.836  26.504  1.00  0.00    -0.206 F 
ATOM     84  C   UNL A   1      49.998  36.803  26.480  1.00  0.00     0.022 A 
BRANCH  81  85
ATOM     85  S   UNL A   1      51.953  35.956  28.279  1.00  0.00     0.124 S 
ATOM     86  O   UNL A   1      51.806  36.288  29.692  1.00  0.00    -0.237 OA
ATOM     87  O   UNL A   1      52.238  34.559  27.973  1.00  0.00    -0.237 OA
ATOM     88  O   UNL A   1      52.696  36.932  27.483  1.00  0.00    -0.744 OA
ENDBRANCH  81  85
ENDBRANCH  54  78
BRANCH  66  89
ATOM     89  C   UNL A   1      44.182  29.984  28.614  1.00  0.00     0.023 A 
ATOM     90  C   UNL A   1      43.216  29.709  27.630  1.00  0.00     0.031 A 
ATOM     91  C   UNL A   1      45.181  29.019  28.846  1.00  0.00     0.131 A 
ATOM     92  C   UNL A   1      43.233  28.478  26.957  1.00  0.00     0.055 A 
ATOM     93  C   UNL A   1      45.232  27.825  28.125  1.00  0.00     0.041 A 
ATOM     94  F   UNL A   1      46.126  29.224  29.776  1.00  0.00    -0.206 F 
ATOM     95  C   UNL A   1      44.246  27.543  27.185  1.00  0.00     0.022 A 
BRANCH  92  96
ATOM     96  S   UNL A   1      41.855  28.071  25.851  1.00  0.00     0.124 S 
ATOM     97  O   UNL A   1      41.630  26.661  26.154  1.00  0.00    -0.237 OA
ATOM     98  O   UNL A   1      40.815  28.993  26.296  1.00  0.00    -0.237 OA
ATOM     99  O   UNL A   1      42.393  28.340  24.519  1.00  0.00    -0.744 OA
ENDBRANCH  92  96
ENDBRANCH  66  89
ENDBRANCH  40  41
ENDBRANCH  32  35
ENDBRANCH  30  31
ENDBRANCH  29  30
ENDBRANCH  28  29
ENDBRANCH  27  28
ENDBRANCH   1  27
TORSDOF 24
ENDMDL
