MODEL 1
REMARK VINA RESULT:     -11.9      0.000      0.000
REMARK SMILES C[C@H]1SC[C@H](C(=O)NCCCCCCNC(=O)c2ccc(-c3c4nc(c(-c5cc(S(=O)(=O)[O-])ccc5F)c5ccc([nH]5)c(-c5cc(S(=O)(=O)[O-])ccc5F)c5nc(c(-c6cc(S(=O)(=O)[O-])ccc6F)c6ccc3[nH]6)C=C5)C=C4)cc2)N1C(=O)[C@@H]1CSc2ccccc21
REMARK SMILES IDX 12 1 11 2 10 3 9 4 8 5 6 6 7 7 5 9 1 10 2 11 3 12 81 13 4 14
REMARK SMILES IDX 82 15 83 16 84 17 85 18 92 19 86 20 87 21 91 22 88 23 90 24
REMARK SMILES IDX 89 25 13 26 14 27 15 28 16 29 17 31 18 32 19 33 80 34 20 35
REMARK SMILES IDX 79 36 21 37 22 38 23 39 73 40 24 41 78 42 72 43 74 44 25 45
REMARK SMILES IDX 77 46 71 47 70 48 26 50 58 51 38 52 57 53 39 54 42 55 56 56
REMARK SMILES IDX 75 57 40 58 41 59 55 61 76 62 43 63 27 64 28 65 36 66 29 67
REMARK SMILES IDX 35 68 37 69 34 70 30 71 31 72 32 73 33 74 59 75 60 76 68 77
REMARK SMILES IDX 61 78 67 79 69 80 66 81 62 82 63 83 64 84 65 85 44 86 45 87
REMARK SMILES IDX 53 88 46 89 52 90 54 91 51 92 47 93 48 94 49 95 50 96
REMARK H PARENT 8 8 15 30 74 49 42 60
REMARK Flexibility Score: inf
ROOT
ATOM      1  C   UNL A   1      31.584  30.833  26.138  1.00  0.00     0.002 C 
ENDROOT
BRANCH   1   2
ATOM      2  C   UNL A   1      32.427  29.881  26.990  1.00  0.00     0.002 C 
BRANCH   2   3
ATOM      3  C   UNL A   1      33.609  29.229  26.261  1.00  0.00     0.021 C 
BRANCH   3   4
ATOM      4  C   UNL A   1      33.726  27.721  26.468  1.00  0.00     0.116 C 
BRANCH   4   5
ATOM      5  N   UNL A   1      32.441  27.140  26.792  1.00  0.00    -0.354 N 
ATOM      6  C   UNL A   1      31.535  26.507  25.997  1.00  0.00     0.243 C 
ATOM      7  O   UNL A   1      30.400  26.339  26.455  1.00  0.00    -0.273 OA
ATOM      8  H   UNL A   1      32.180  27.213  27.738  1.00  0.00     0.163 HD
BRANCH   6   9
ATOM      9  C   UNL A   1      31.823  26.203  24.515  1.00  0.00     0.185 C 
ATOM     10  C   UNL A   1      32.772  25.034  21.738  1.00  0.00     0.043 C 
ATOM     11  C   UNL A   1      33.547  25.730  22.859  1.00  0.00     0.141 C 
ATOM     12  S   UNL A   1      33.293  27.512  22.659  1.00  0.00    -0.135 SA
ATOM     13  N   UNL A   1      33.028  25.413  24.183  1.00  0.00    -0.318 N 
ATOM     14  C   UNL A   1      31.873  27.554  23.782  1.00  0.00     0.107 C 
BRANCH  13  15
ATOM     15  C   UNL A   1      33.276  24.255  24.901  1.00  0.00     0.232 C 
ATOM     16  O   UNL A   1      33.473  24.318  26.122  1.00  0.00    -0.274 OA
BRANCH  15  17
ATOM     17  C   UNL A   1      33.342  22.868  24.246  1.00  0.00     0.120 C 
ATOM     18  C   UNL A   1      32.318  21.842  24.752  1.00  0.00     0.093 C 
ATOM     19  C   UNL A   1      34.718  22.263  24.276  1.00  0.00    -0.021 A 
ATOM     20  S   UNL A   1      33.215  20.349  25.307  1.00  0.00    -0.125 SA
ATOM     21  C   UNL A   1      34.791  20.994  24.844  1.00  0.00     0.011 A 
ATOM     22  C   UNL A   1      35.868  22.893  23.802  1.00  0.00     0.006 A 
ATOM     23  C   UNL A   1      36.015  20.366  25.022  1.00  0.00     0.015 A 
ATOM     24  C   UNL A   1      37.102  22.265  23.971  1.00  0.00     0.000 A 
ATOM     25  C   UNL A   1      37.176  21.014  24.592  1.00  0.00     0.001 A 
ENDBRANCH  15  17
ENDBRANCH  13  15
ENDBRANCH   6   9
ENDBRANCH   4   5
ENDBRANCH   3   4
ENDBRANCH   2   3
ENDBRANCH   1   2
BRANCH   1  26
ATOM     26  C   UNL A   1      31.445  32.255  26.690  1.00  0.00     0.021 C 
BRANCH  26  27
ATOM     27  C   UNL A   1      32.710  32.829  27.323  1.00  0.00     0.116 C 
BRANCH  27  28
ATOM     28  N   UNL A   1      32.553  34.222  27.704  1.00  0.00    -0.352 N 
ATOM     29  C   UNL A   1      33.192  34.932  28.688  1.00  0.00     0.251 C 
ATOM     30  H   UNL A   1      31.892  34.729  27.181  1.00  0.00     0.163 HD
ATOM     31  O   UNL A   1      32.795  36.064  28.965  1.00  0.00    -0.269 OA
BRANCH  29  32
ATOM     32  C   UNL A   1      34.325  34.337  29.430  1.00  0.00     0.039 A 
ATOM     33  C   UNL A   1      34.052  33.588  30.575  1.00  0.00     0.014 A 
ATOM     34  C   UNL A   1      35.649  34.531  29.021  1.00  0.00     0.014 A 
ATOM     35  C   UNL A   1      35.099  32.993  31.283  1.00  0.00     0.010 A 
ATOM     36  C   UNL A   1      36.687  33.882  29.689  1.00  0.00     0.010 A 
ATOM     37  C   UNL A   1      36.423  33.112  30.831  1.00  0.00    -0.014 A 
BRANCH  37  38
ATOM     38  C   UNL A   1      37.528  32.426  31.552  1.00  0.00     0.031 A 
ATOM     39  C   UNL A   1      38.272  31.288  30.908  1.00  0.00     0.074 A 
ATOM     40  C   UNL A   1      37.842  32.819  32.803  1.00  0.00     0.049 A 
ATOM     41  N   UNL A   1      39.276  30.587  31.372  1.00  0.00    -0.248 NA
ATOM     42  C   UNL A   1      37.807  30.862  29.580  1.00  0.00     0.031 C 
ATOM     43  C   UNL A   1      37.151  33.870  33.554  1.00  0.00     0.029 A 
ATOM     44  N   UNL A   1      38.821  32.388  33.660  1.00  0.00    -0.354 N 
ATOM     45  C   UNL A   1      39.561  29.637  30.397  1.00  0.00     0.074 A 
ATOM     46  C   UNL A   1      38.580  29.812  29.348  1.00  0.00     0.031 C 
ATOM     47  C   UNL A   1      37.751  34.025  34.745  1.00  0.00     0.029 A 
ATOM     48  C   UNL A   1      38.847  33.068  34.856  1.00  0.00     0.049 A 
ATOM     49  H   UNL A   1      39.446  31.659  33.441  1.00  0.00     0.167 HD
ATOM     50  C   UNL A   1      40.562  28.721  30.370  1.00  0.00     0.034 A 
ATOM     51  C   UNL A   1      39.667  32.942  35.917  1.00  0.00     0.034 A 
ATOM     52  C   UNL A   1      41.537  28.565  31.424  1.00  0.00     0.049 A 
ATOM     53  C   UNL A   1      40.785  31.934  35.855  1.00  0.00     0.074 A 
ATOM     54  C   UNL A   1      42.618  27.703  31.481  1.00  0.00     0.029 A 
ATOM     55  N   UNL A   1      41.545  29.285  32.613  1.00  0.00    -0.354 N 
ATOM     56  N   UNL A   1      41.081  31.085  34.897  1.00  0.00    -0.248 NA
ATOM     57  C   UNL A   1      41.694  31.887  37.005  1.00  0.00     0.031 C 
ATOM     58  C   UNL A   1      43.243  27.860  32.724  1.00  0.00     0.029 A 
ATOM     59  C   UNL A   1      42.598  28.872  33.417  1.00  0.00     0.049 A 
ATOM     60  H   UNL A   1      40.897  29.988  32.850  1.00  0.00     0.167 HD
ATOM     61  C   UNL A   1      42.228  30.422  35.322  1.00  0.00     0.074 A 
ATOM     62  C   UNL A   1      42.583  30.990  36.607  1.00  0.00     0.031 C 
ATOM     63  C   UNL A   1      42.929  29.434  34.706  1.00  0.00     0.034 A 
BRANCH  50  64
ATOM     64  C   UNL A   1      40.631  27.807  29.168  1.00  0.00     0.023 A 
ATOM     65  C   UNL A   1      41.569  28.008  28.139  1.00  0.00     0.031 A 
ATOM     66  C   UNL A   1      39.728  26.737  29.030  1.00  0.00     0.131 A 
ATOM     67  C   UNL A   1      41.532  27.207  26.987  1.00  0.00     0.055 A 
ATOM     68  C   UNL A   1      39.751  25.891  27.919  1.00  0.00     0.041 A 
ATOM     69  F   UNL A   1      38.796  26.505  29.968  1.00  0.00    -0.206 F 
ATOM     70  C   UNL A   1      40.646  26.133  26.882  1.00  0.00     0.022 A 
BRANCH  67  71
ATOM     71  S   UNL A   1      42.560  27.679  25.569  1.00  0.00     0.124 S 
ATOM     72  O   UNL A   1      41.819  28.822  25.037  1.00  0.00    -0.237 OA
ATOM     73  O   UNL A   1      43.841  27.983  26.194  1.00  0.00    -0.237 OA
ATOM     74  O   UNL A   1      42.545  26.489  24.722  1.00  0.00    -0.744 OA
ENDBRANCH  67  71
ENDBRANCH  50  64
BRANCH  51  75
ATOM     75  C   UNL A   1      39.478  33.798  37.122  1.00  0.00     0.023 A 
ATOM     76  C   UNL A   1      38.892  33.285  38.290  1.00  0.00     0.031 A 
ATOM     77  C   UNL A   1      39.847  35.154  37.110  1.00  0.00     0.131 A 
ATOM     78  C   UNL A   1      38.649  34.133  39.381  1.00  0.00     0.055 A 
ATOM     79  C   UNL A   1      39.649  35.982  38.216  1.00  0.00     0.041 A 
ATOM     80  F   UNL A   1      40.421  35.691  36.021  1.00  0.00    -0.206 F 
ATOM     81  C   UNL A   1      39.032  35.475  39.356  1.00  0.00     0.022 A 
BRANCH  78  82
ATOM     82  S   UNL A   1      37.748  33.471  40.811  1.00  0.00     0.124 S 
ATOM     83  O   UNL A   1      36.901  32.460  40.187  1.00  0.00    -0.237 OA
ATOM     84  O   UNL A   1      38.834  32.973  41.647  1.00  0.00    -0.237 OA
ATOM     85  O   UNL A   1      37.043  34.639  41.337  1.00  0.00    -0.744 OA
ENDBRANCH  78  82
ENDBRANCH  51  75
BRANCH  63  86
ATOM     86  C   UNL A   1      44.169  28.941  35.413  1.00  0.00     0.023 A 
ATOM     87  C   UNL A   1      44.113  27.923  36.380  1.00  0.00     0.031 A 
ATOM     88  C   UNL A   1      45.416  29.536  35.152  1.00  0.00     0.131 A 
ATOM     89  C   UNL A   1      45.264  27.583  37.107  1.00  0.00     0.055 A 
ATOM     90  C   UNL A   1      46.571  29.147  35.832  1.00  0.00     0.041 A 
ATOM     91  F   UNL A   1      45.530  30.515  34.240  1.00  0.00    -0.206 F 
ATOM     92  C   UNL A   1      46.496  28.179  36.829  1.00  0.00     0.022 A 
BRANCH  89  93
ATOM     93  S   UNL A   1      45.101  26.447  38.512  1.00  0.00     0.124 S 
ATOM     94  O   UNL A   1      46.483  26.035  38.733  1.00  0.00    -0.237 OA
ATOM     95  O   UNL A   1      44.521  27.305  39.540  1.00  0.00    -0.237 OA
ATOM     96  O   UNL A   1      44.216  25.401  38.006  1.00  0.00    -0.744 OA
ENDBRANCH  89  93
ENDBRANCH  63  86
ENDBRANCH  37  38
ENDBRANCH  29  32
ENDBRANCH  27  28
ENDBRANCH  26  27
ENDBRANCH   1  26
TORSDOF 18
ENDMDL
MODEL 2
REMARK VINA RESULT:     -11.9      3.616      8.684
REMARK SMILES C[C@H]1SC[C@H](C(=O)NCCCCCCNC(=O)c2ccc(-c3c4nc(c(-c5cc(S(=O)(=O)[O-])ccc5F)c5ccc([nH]5)c(-c5cc(S(=O)(=O)[O-])ccc5F)c5nc(c(-c6cc(S(=O)(=O)[O-])ccc6F)c6ccc3[nH]6)C=C5)C=C4)cc2)N1C(=O)[C@@H]1CSc2ccccc21
REMARK SMILES IDX 12 1 11 2 10 3 9 4 8 5 6 6 7 7 5 9 1 10 2 11 3 12 81 13 4 14
REMARK SMILES IDX 82 15 83 16 84 17 85 18 92 19 86 20 87 21 91 22 88 23 90 24
REMARK SMILES IDX 89 25 13 26 14 27 15 28 16 29 17 31 18 32 19 33 80 34 20 35
REMARK SMILES IDX 79 36 21 37 22 38 23 39 73 40 24 41 78 42 72 43 74 44 25 45
REMARK SMILES IDX 77 46 71 47 70 48 26 50 58 51 38 52 57 53 39 54 42 55 56 56
REMARK SMILES IDX 75 57 40 58 41 59 55 61 76 62 43 63 27 64 28 65 36 66 29 67
REMARK SMILES IDX 35 68 37 69 34 70 30 71 31 72 32 73 33 74 59 75 60 76 68 77
REMARK SMILES IDX 61 78 67 79 69 80 66 81 62 82 63 83 64 84 65 85 44 86 45 87
REMARK SMILES IDX 53 88 46 89 52 90 54 91 51 92 47 93 48 94 49 95 50 96
REMARK H PARENT 8 8 15 30 74 49 42 60
REMARK Flexibility Score: inf
ROOT
ATOM      1  C   UNL A   1      33.658  27.985  25.170  1.00  0.00     0.002 C 
ENDROOT
BRANCH   1   2
ATOM      2  C   UNL A   1      33.237  29.182  24.315  1.00  0.00     0.002 C 
BRANCH   2   3
ATOM      3  C   UNL A   1      33.625  29.093  22.834  1.00  0.00     0.021 C 
BRANCH   3   4
ATOM      4  C   UNL A   1      34.075  27.707  22.380  1.00  0.00     0.116 C 
BRANCH   4   5
ATOM      5  N   UNL A   1      33.117  27.124  21.465  1.00  0.00    -0.354 N 
ATOM      6  C   UNL A   1      31.897  26.569  21.703  1.00  0.00     0.243 C 
ATOM      7  O   UNL A   1      31.390  25.903  20.794  1.00  0.00    -0.273 OA
ATOM      8  H   UNL A   1      33.391  27.129  20.520  1.00  0.00     0.163 HD
BRANCH   6   9
ATOM      9  C   UNL A   1      31.257  26.574  23.104  1.00  0.00     0.185 C 
ATOM     10  C   UNL A   1      30.208  25.934  26.014  1.00  0.00     0.043 C 
ATOM     11  C   UNL A   1      29.788  25.391  24.647  1.00  0.00     0.141 C 
ATOM     12  S   UNL A   1      28.674  26.611  23.905  1.00  0.00    -0.135 SA
ATOM     13  N   UNL A   1      30.905  25.277  23.719  1.00  0.00    -0.318 N 
ATOM     14  C   UNL A   1      30.005  27.462  23.021  1.00  0.00     0.107 C 
BRANCH  13  15
ATOM     15  C   UNL A   1      31.845  24.259  23.695  1.00  0.00     0.232 C 
ATOM     16  O   UNL A   1      31.558  23.169  23.182  1.00  0.00    -0.274 OA
BRANCH  15  17
ATOM     17  C   UNL A   1      33.247  24.406  24.302  1.00  0.00     0.120 C 
ATOM     18  C   UNL A   1      34.418  24.238  23.325  1.00  0.00     0.093 C 
ATOM     19  C   UNL A   1      33.466  23.531  25.506  1.00  0.00    -0.021 A 
ATOM     20  S   UNL A   1      35.535  22.942  23.971  1.00  0.00    -0.125 SA
ATOM     21  C   UNL A   1      34.579  22.698  25.434  1.00  0.00     0.011 A 
ATOM     22  C   UNL A   1      32.635  23.506  26.626  1.00  0.00     0.006 A 
ATOM     23  C   UNL A   1      34.838  21.773  26.434  1.00  0.00     0.015 A 
ATOM     24  C   UNL A   1      32.893  22.584  27.639  1.00  0.00     0.000 A 
ATOM     25  C   UNL A   1      33.981  21.710  27.536  1.00  0.00     0.001 A 
ENDBRANCH  15  17
ENDBRANCH  13  15
ENDBRANCH   6   9
ENDBRANCH   4   5
ENDBRANCH   3   4
ENDBRANCH   2   3
ENDBRANCH   1   2
BRANCH   1  26
ATOM     26  C   UNL A   1      34.220  28.335  26.551  1.00  0.00     0.021 C 
BRANCH  26  27
ATOM     27  C   UNL A   1      33.219  28.961  27.518  1.00  0.00     0.116 C 
BRANCH  27  28
ATOM     28  N   UNL A   1      33.313  30.410  27.549  1.00  0.00    -0.352 N 
ATOM     29  C   UNL A   1      34.315  31.206  28.042  1.00  0.00     0.251 C 
ATOM     30  H   UNL A   1      32.547  30.890  27.161  1.00  0.00     0.163 HD
ATOM     31  O   UNL A   1      34.129  32.421  28.127  1.00  0.00    -0.269 OA
BRANCH  29  32
ATOM     32  C   UNL A   1      35.593  30.614  28.495  1.00  0.00     0.039 A 
ATOM     33  C   UNL A   1      36.746  30.870  27.751  1.00  0.00     0.014 A 
ATOM     34  C   UNL A   1      35.659  29.794  29.626  1.00  0.00     0.014 A 
ATOM     35  C   UNL A   1      37.972  30.346  28.167  1.00  0.00     0.010 A 
ATOM     36  C   UNL A   1      36.894  29.327  30.078  1.00  0.00     0.010 A 
ATOM     37  C   UNL A   1      38.061  29.593  29.349  1.00  0.00    -0.014 A 
BRANCH  37  38
ATOM     38  C   UNL A   1      39.378  29.088  29.822  1.00  0.00     0.031 A 
ATOM     39  C   UNL A   1      40.069  29.733  30.993  1.00  0.00     0.074 A 
ATOM     40  C   UNL A   1      39.961  28.060  29.173  1.00  0.00     0.049 A 
ATOM     41  N   UNL A   1      41.206  29.416  31.559  1.00  0.00    -0.248 NA
ATOM     42  C   UNL A   1      39.410  30.906  31.585  1.00  0.00     0.031 C 
ATOM     43  C   UNL A   1      39.416  27.394  27.988  1.00  0.00     0.029 A 
ATOM     44  N   UNL A   1      41.132  27.392  29.419  1.00  0.00    -0.354 N 
ATOM     45  C   UNL A   1      41.401  30.350  32.572  1.00  0.00     0.074 A 
ATOM     46  C   UNL A   1      40.296  31.283  32.494  1.00  0.00     0.031 C 
ATOM     47  C   UNL A   1      40.233  26.390  27.632  1.00  0.00     0.029 A 
ATOM     48  C   UNL A   1      41.374  26.360  28.542  1.00  0.00     0.049 A 
ATOM     49  H   UNL A   1      41.744  27.629  30.153  1.00  0.00     0.167 HD
ATOM     50  C   UNL A   1      42.395  30.410  33.493  1.00  0.00     0.034 A 
ATOM     51  C   UNL A   1      42.394  25.481  28.484  1.00  0.00     0.034 A 
ATOM     52  C   UNL A   1      43.487  29.467  33.559  1.00  0.00     0.049 A 
ATOM     53  C   UNL A   1      43.475  25.553  29.531  1.00  0.00     0.074 A 
ATOM     54  C   UNL A   1      44.522  29.405  34.476  1.00  0.00     0.029 A 
ATOM     55  N   UNL A   1      43.690  28.421  32.666  1.00  0.00    -0.354 N 
ATOM     56  N   UNL A   1      43.611  26.405  30.522  1.00  0.00    -0.248 NA
ATOM     57  C   UNL A   1      44.522  24.528  29.466  1.00  0.00     0.031 C 
ATOM     58  C   UNL A   1      45.379  28.362  34.105  1.00  0.00     0.029 A 
ATOM     59  C   UNL A   1      44.842  27.724  32.999  1.00  0.00     0.049 A 
ATOM     60  H   UNL A   1      43.100  28.205  31.908  1.00  0.00     0.167 HD
ATOM     61  C   UNL A   1      44.748  25.999  31.214  1.00  0.00     0.074 A 
ATOM     62  C   UNL A   1      45.240  24.813  30.542  1.00  0.00     0.031 C 
ATOM     63  C   UNL A   1      45.333  26.553  32.308  1.00  0.00     0.034 A 
BRANCH  50  64
ATOM     64  C   UNL A   1      42.351  31.549  34.486  1.00  0.00     0.023 A 
ATOM     65  C   UNL A   1      41.469  31.541  35.582  1.00  0.00     0.031 A 
ATOM     66  C   UNL A   1      43.178  32.674  34.320  1.00  0.00     0.131 A 
ATOM     67  C   UNL A   1      41.377  32.663  36.420  1.00  0.00     0.055 A 
ATOM     68  C   UNL A   1      43.142  33.754  35.207  1.00  0.00     0.041 A 
ATOM     69  F   UNL A   1      44.027  32.752  33.284  1.00  0.00    -0.206 F 
ATOM     70  C   UNL A   1      42.226  33.759  36.255  1.00  0.00     0.022 A 
BRANCH  67  71
ATOM     71  S   UNL A   1      40.034  32.729  37.637  1.00  0.00     0.124 S 
ATOM     72  O   UNL A   1      39.525  34.085  37.438  1.00  0.00    -0.237 OA
ATOM     73  O   UNL A   1      39.159  31.648  37.202  1.00  0.00    -0.237 OA
ATOM     74  O   UNL A   1      40.714  32.509  38.911  1.00  0.00    -0.744 OA
ENDBRANCH  67  71
ENDBRANCH  50  64
BRANCH  51  75
ATOM     75  C   UNL A   1      42.438  24.449  27.410  1.00  0.00     0.023 A 
ATOM     76  C   UNL A   1      41.675  23.274  27.504  1.00  0.00     0.031 A 
ATOM     77  C   UNL A   1      43.274  24.605  26.291  1.00  0.00     0.131 A 
ATOM     78  C   UNL A   1      41.798  22.280  26.522  1.00  0.00     0.055 A 
ATOM     79  C   UNL A   1      43.354  23.636  25.290  1.00  0.00     0.041 A 
ATOM     80  F   UNL A   1      44.015  25.715  26.148  1.00  0.00    -0.206 F 
ATOM     81  C   UNL A   1      42.624  22.457  25.410  1.00  0.00     0.022 A 
BRANCH  78  82
ATOM     82  S   UNL A   1      40.918  20.711  26.759  1.00  0.00     0.124 S 
ATOM     83  O   UNL A   1      40.817  20.643  28.213  1.00  0.00    -0.237 OA
ATOM     84  O   UNL A   1      39.673  20.952  26.039  1.00  0.00    -0.237 OA
ATOM     85  O   UNL A   1      41.809  19.726  26.147  1.00  0.00    -0.744 OA
ENDBRANCH  78  82
ENDBRANCH  51  75
BRANCH  63  86
ATOM     86  C   UNL A   1      46.551  25.848  32.855  1.00  0.00     0.023 A 
ATOM     87  C   UNL A   1      47.837  26.088  32.341  1.00  0.00     0.031 A 
ATOM     88  C   UNL A   1      46.415  24.884  33.870  1.00  0.00     0.131 A 
ATOM     89  C   UNL A   1      48.924  25.319  32.786  1.00  0.00     0.055 A 
ATOM     90  C   UNL A   1      47.510  24.170  34.356  1.00  0.00     0.041 A 
ATOM     91  F   UNL A   1      45.211  24.612  34.397  1.00  0.00    -0.206 F 
ATOM     92  C   UNL A   1      48.771  24.372  33.800  1.00  0.00     0.022 A 
BRANCH  89  93
ATOM     93  S   UNL A   1      50.513  25.483  31.928  1.00  0.00     0.124 S 
ATOM     94  O   UNL A   1      50.248  26.579  31.001  1.00  0.00    -0.237 OA
ATOM     95  O   UNL A   1      51.429  25.783  33.023  1.00  0.00    -0.237 OA
ATOM     96  O   UNL A   1      50.702  24.176  31.303  1.00  0.00    -0.744 OA
ENDBRANCH  89  93
ENDBRANCH  63  86
ENDBRANCH  37  38
ENDBRANCH  29  32
ENDBRANCH  27  28
ENDBRANCH  26  27
ENDBRANCH   1  26
TORSDOF 18
ENDMDL
MODEL 3
REMARK VINA RESULT:     -11.9      2.706      8.285
REMARK SMILES C[C@H]1SC[C@H](C(=O)NCCCCCCNC(=O)c2ccc(-c3c4nc(c(-c5cc(S(=O)(=O)[O-])ccc5F)c5ccc([nH]5)c(-c5cc(S(=O)(=O)[O-])ccc5F)c5nc(c(-c6cc(S(=O)(=O)[O-])ccc6F)c6ccc3[nH]6)C=C5)C=C4)cc2)N1C(=O)[C@@H]1CSc2ccccc21
REMARK SMILES IDX 12 1 11 2 10 3 9 4 8 5 6 6 7 7 5 9 1 10 2 11 3 12 81 13 4 14
REMARK SMILES IDX 82 15 83 16 84 17 85 18 92 19 86 20 87 21 91 22 88 23 90 24
REMARK SMILES IDX 89 25 13 26 14 27 15 28 16 29 17 31 18 32 19 33 80 34 20 35
REMARK SMILES IDX 79 36 21 37 22 38 23 39 73 40 24 41 78 42 72 43 74 44 25 45
REMARK SMILES IDX 77 46 71 47 70 48 26 50 58 51 38 52 57 53 39 54 42 55 56 56
REMARK SMILES IDX 75 57 40 58 41 59 55 61 76 62 43 63 27 64 28 65 36 66 29 67
REMARK SMILES IDX 35 68 37 69 34 70 30 71 31 72 32 73 33 74 59 75 60 76 68 77
REMARK SMILES IDX 61 78 67 79 69 80 66 81 62 82 63 83 64 84 65 85 44 86 45 87
REMARK SMILES IDX 53 88 46 89 52 90 54 91 51 92 47 93 48 94 49 95 50 96
REMARK H PARENT 8 8 15 30 74 49 42 60
REMARK Flexibility Score: inf
ROOT
ATOM      1  C   UNL A   1      31.480  27.446  25.232  1.00  0.00     0.002 C 
ENDROOT
BRANCH   1   2
ATOM      2  C   UNL A   1      31.891  26.483  26.348  1.00  0.00     0.002 C 
BRANCH   2   3
ATOM      3  C   UNL A   1      33.217  25.748  26.118  1.00  0.00     0.021 C 
BRANCH   3   4
ATOM      4  C   UNL A   1      33.067  24.275  25.746  1.00  0.00     0.116 C 
BRANCH   4   5
ATOM      5  N   UNL A   1      33.383  24.057  24.350  1.00  0.00    -0.354 N 
ATOM      6  C   UNL A   1      33.445  22.903  23.631  1.00  0.00     0.243 C 
ATOM      7  O   UNL A   1      33.995  22.954  22.526  1.00  0.00    -0.273 OA
ATOM      8  H   UNL A   1      33.585  24.873  23.839  1.00  0.00     0.163 HD
BRANCH   6   9
ATOM      9  C   UNL A   1      33.052  21.543  24.236  1.00  0.00     0.185 C 
ATOM     10  C   UNL A   1      32.891  18.779  25.757  1.00  0.00     0.043 C 
ATOM     11  C   UNL A   1      33.703  19.213  24.535  1.00  0.00     0.141 C 
ATOM     12  S   UNL A   1      32.599  19.130  23.101  1.00  0.00    -0.135 SA
ATOM     13  N   UNL A   1      34.131  20.603  24.609  1.00  0.00    -0.318 N 
ATOM     14  C   UNL A   1      32.102  20.865  23.235  1.00  0.00     0.107 C 
BRANCH  13  15
ATOM     15  C   UNL A   1      35.205  21.088  25.338  1.00  0.00     0.232 C 
ATOM     16  O   UNL A   1      35.037  21.454  26.510  1.00  0.00    -0.274 OA
BRANCH  15  17
ATOM     17  C   UNL A   1      36.618  21.219  24.753  1.00  0.00     0.120 C 
ATOM     18  C   UNL A   1      37.421  19.916  24.652  1.00  0.00     0.093 C 
ATOM     19  C   UNL A   1      37.448  22.270  25.437  1.00  0.00    -0.021 A 
ATOM     20  S   UNL A   1      39.012  20.141  25.523  1.00  0.00    -0.125 SA
ATOM     21  C   UNL A   1      38.676  21.828  25.921  1.00  0.00     0.011 A 
ATOM     22  C   UNL A   1      37.054  23.596  25.615  1.00  0.00     0.006 A 
ATOM     23  C   UNL A   1      39.494  22.672  26.657  1.00  0.00     0.015 A 
ATOM     24  C   UNL A   1      37.873  24.453  26.348  1.00  0.00     0.000 A 
ATOM     25  C   UNL A   1      39.081  23.988  26.881  1.00  0.00     0.001 A 
ENDBRANCH  15  17
ENDBRANCH  13  15
ENDBRANCH   6   9
ENDBRANCH   4   5
ENDBRANCH   3   4
ENDBRANCH   2   3
ENDBRANCH   1   2
BRANCH   1  26
ATOM     26  C   UNL A   1      32.617  27.911  24.318  1.00  0.00     0.021 C 
BRANCH  26  27
ATOM     27  C   UNL A   1      33.574  28.925  24.940  1.00  0.00     0.116 C 
BRANCH  27  28
ATOM     28  N   UNL A   1      32.884  30.102  25.438  1.00  0.00    -0.352 N 
ATOM     29  C   UNL A   1      33.128  30.841  26.566  1.00  0.00     0.251 C 
ATOM     30  H   UNL A   1      32.132  30.414  24.885  1.00  0.00     0.163 HD
ATOM     31  O   UNL A   1      32.321  31.709  26.902  1.00  0.00    -0.269 OA
BRANCH  29  32
ATOM     32  C   UNL A   1      34.330  30.584  27.389  1.00  0.00     0.039 A 
ATOM     33  C   UNL A   1      34.501  29.311  27.939  1.00  0.00     0.014 A 
ATOM     34  C   UNL A   1      35.273  31.586  27.641  1.00  0.00     0.014 A 
ATOM     35  C   UNL A   1      35.638  29.030  28.700  1.00  0.00     0.010 A 
ATOM     36  C   UNL A   1      36.440  31.285  28.344  1.00  0.00     0.010 A 
ATOM     37  C   UNL A   1      36.631  30.006  28.886  1.00  0.00    -0.014 A 
BRANCH  37  38
ATOM     38  C   UNL A   1      37.869  29.685  29.644  1.00  0.00     0.031 A 
ATOM     39  C   UNL A   1      38.055  30.182  31.052  1.00  0.00     0.074 A 
ATOM     40  C   UNL A   1      38.837  28.961  29.048  1.00  0.00     0.049 A 
ATOM     41  N   UNL A   1      39.054  29.983  31.875  1.00  0.00    -0.248 NA
ATOM     42  C   UNL A   1      36.993  31.041  31.596  1.00  0.00     0.031 C 
ATOM     43  C   UNL A   1      38.796  28.475  27.666  1.00  0.00     0.029 A 
ATOM     44  N   UNL A   1      40.039  28.504  29.524  1.00  0.00    -0.354 N 
ATOM     45  C   UNL A   1      38.744  30.693  33.030  1.00  0.00     0.074 A 
ATOM     46  C   UNL A   1      37.496  31.379  32.773  1.00  0.00     0.031 C 
ATOM     47  C   UNL A   1      39.904  27.758  27.419  1.00  0.00     0.029 A 
ATOM     48  C   UNL A   1      40.747  27.758  28.610  1.00  0.00     0.049 A 
ATOM     49  H   UNL A   1      40.364  28.692  30.434  1.00  0.00     0.167 HD
ATOM     50  C   UNL A   1      39.425  30.747  34.203  1.00  0.00     0.034 A 
ATOM     51  C   UNL A   1      41.937  27.136  28.722  1.00  0.00     0.034 A 
ATOM     52  C   UNL A   1      40.667  30.050  34.443  1.00  0.00     0.049 A 
ATOM     53  C   UNL A   1      42.664  27.192  30.041  1.00  0.00     0.074 A 
ATOM     54  C   UNL A   1      41.418  29.998  35.605  1.00  0.00     0.029 A 
ATOM     55  N   UNL A   1      41.347  29.287  33.501  1.00  0.00    -0.354 N 
ATOM     56  N   UNL A   1      42.325  27.815  31.146  1.00  0.00    -0.248 NA
ATOM     57  C   UNL A   1      43.919  26.437  30.133  1.00  0.00     0.031 C 
ATOM     58  C   UNL A   1      42.576  29.254  35.349  1.00  0.00     0.029 A 
ATOM     59  C   UNL A   1      42.516  28.780  34.049  1.00  0.00     0.049 A 
ATOM     60  H   UNL A   1      41.041  29.130  32.578  1.00  0.00     0.167 HD
ATOM     61  C   UNL A   1      43.316  27.504  32.073  1.00  0.00     0.074 A 
ATOM     62  C   UNL A   1      44.245  26.617  31.404  1.00  0.00     0.031 C 
ATOM     63  C   UNL A   1      43.445  27.911  33.363  1.00  0.00     0.034 A 
BRANCH  50  64
ATOM     64  C   UNL A   1      38.844  31.609  35.301  1.00  0.00     0.023 A 
ATOM     65  C   UNL A   1      38.350  31.052  36.495  1.00  0.00     0.031 A 
ATOM     66  C   UNL A   1      38.753  33.003  35.143  1.00  0.00     0.131 A 
ATOM     67  C   UNL A   1      37.719  31.870  37.444  1.00  0.00     0.055 A 
ATOM     68  C   UNL A   1      38.199  33.823  36.129  1.00  0.00     0.041 A 
ATOM     69  F   UNL A   1      39.188  33.594  34.018  1.00  0.00    -0.206 F 
ATOM     70  C   UNL A   1      37.663  33.256  37.281  1.00  0.00     0.022 A 
BRANCH  67  71
ATOM     71  S   UNL A   1      36.844  31.082  38.824  1.00  0.00     0.124 S 
ATOM     72  O   UNL A   1      36.699  29.712  38.335  1.00  0.00    -0.237 OA
ATOM     73  O   UNL A   1      37.771  31.269  39.934  1.00  0.00    -0.237 OA
ATOM     74  O   UNL A   1      35.597  31.838  38.917  1.00  0.00    -0.744 OA
ENDBRANCH  67  71
ENDBRANCH  50  64
BRANCH  51  75
ATOM     75  C   UNL A   1      42.511  26.394  27.565  1.00  0.00     0.023 A 
ATOM     76  C   UNL A   1      42.500  24.990  27.527  1.00  0.00     0.031 A 
ATOM     77  C   UNL A   1      43.113  27.078  26.495  1.00  0.00     0.131 A 
ATOM     78  C   UNL A   1      43.121  24.314  26.467  1.00  0.00     0.055 A 
ATOM     79  C   UNL A   1      43.686  26.401  25.417  1.00  0.00     0.041 A 
ATOM     80  F   UNL A   1      43.141  28.420  26.477  1.00  0.00    -0.206 F 
ATOM     81  C   UNL A   1      43.705  25.009  25.406  1.00  0.00     0.022 A 
BRANCH  78  82
ATOM     82  S   UNL A   1      43.225  22.503  26.534  1.00  0.00     0.124 S 
ATOM     83  O   UNL A   1      42.408  22.116  25.389  1.00  0.00    -0.237 OA
ATOM     84  O   UNL A   1      44.660  22.279  26.404  1.00  0.00    -0.237 OA
ATOM     85  O   UNL A   1      42.661  22.180  27.843  1.00  0.00    -0.744 OA
ENDBRANCH  78  82
ENDBRANCH  51  75
BRANCH  63  86
ATOM     86  C   UNL A   1      44.623  27.362  34.131  1.00  0.00     0.023 A 
ATOM     87  C   UNL A   1      44.560  26.126  34.797  1.00  0.00     0.031 A 
ATOM     88  C   UNL A   1      45.809  28.111  34.241  1.00  0.00     0.131 A 
ATOM     89  C   UNL A   1      45.629  25.711  35.607  1.00  0.00     0.055 A 
ATOM     90  C   UNL A   1      46.895  27.661  34.993  1.00  0.00     0.041 A 
ATOM     91  F   UNL A   1      45.926  29.299  33.627  1.00  0.00    -0.206 F 
ATOM     92  C   UNL A   1      46.801  26.464  35.697  1.00  0.00     0.022 A 
BRANCH  89  93
ATOM     93  S   UNL A   1      45.412  24.239  36.644  1.00  0.00     0.124 S 
ATOM     94  O   UNL A   1      44.754  23.313  35.727  1.00  0.00    -0.237 OA
ATOM     95  O   UNL A   1      46.787  23.907  37.004  1.00  0.00    -0.237 OA
ATOM     96  O   UNL A   1      44.580  24.714  37.747  1.00  0.00    -0.744 OA
ENDBRANCH  89  93
ENDBRANCH  63  86
ENDBRANCH  37  38
ENDBRANCH  29  32
ENDBRANCH  27  28
ENDBRANCH  26  27
ENDBRANCH   1  26
TORSDOF 18
ENDMDL
