MODEL 1
REMARK VINA RESULT:     -10.2      0.000      0.000
REMARK SMILES CC(C)(C)c1cc(NC(=O)CSC[C@H]([NH3+])C(=O)NCCCCCCNC(=O)c2ccc(-c3c4nc(c(-c5cc(S(=O)(=O)[O-])ccc5F)c5ccc([nH]5)c(-c5cc(S(=O)(=O)[O-])ccc5F)c5nc(c(-c6cc(S(=O)(=O)[O-])ccc6F)c6ccc3[nH]6)C=C5)C=C4)cc2)on1
REMARK SMILES IDX 20 1 19 2 18 3 16 4 17 5 14 7 13 8 12 9 11 10 9 11 8 12
REMARK SMILES IDX 10 14 7 15 5 16 6 17 92 18 91 19 2 20 1 21 3 22 4 23 15 24
REMARK SMILES IDX 21 28 22 29 23 30 24 31 25 32 26 33 27 35 28 36 29 37 90 38
REMARK SMILES IDX 30 39 89 40 31 41 32 42 33 43 83 44 34 45 88 46 82 47 84 48
REMARK SMILES IDX 35 49 87 50 81 51 80 52 36 54 68 55 48 56 67 57 49 58 52 59
REMARK SMILES IDX 66 60 85 61 50 62 51 63 65 65 86 66 53 67 37 68 38 69 46 70
REMARK SMILES IDX 39 71 45 72 47 73 44 74 40 75 41 76 42 77 43 78 69 79 70 80
REMARK SMILES IDX 78 81 71 82 77 83 79 84 76 85 72 86 73 87 74 88 75 89 54 90
REMARK SMILES IDX 55 91 63 92 56 93 62 94 64 95 61 96 57 97 58 98 59 99 60 100
REMARK H PARENT 18 6 8 13 15 25 15 26 15 27 25 34 84 53 52 64
REMARK Flexibility Score: inf
ROOT
ATOM      1  C   UNL A   1      33.385  27.484  25.972  1.00  0.00     0.021 C 
ENDROOT
BRANCH   1   2
ATOM      2  C   UNL A   1      32.943  26.025  25.962  1.00  0.00     0.116 C 
BRANCH   2   3
ATOM      3  N   UNL A   1      31.552  25.921  26.351  1.00  0.00    -0.351 N 
ATOM      4  C   UNL A   1      30.630  24.940  26.164  1.00  0.00     0.279 C 
ATOM      5  O   UNL A   1      29.469  25.162  26.521  1.00  0.00    -0.268 OA
ATOM      6  H   UNL A   1      31.212  26.705  26.840  1.00  0.00     0.163 HD
BRANCH   4   7
ATOM      7  C   UNL A   1      31.020  23.585  25.559  1.00  0.00     0.280 C 
BRANCH   7   8
ATOM      8  C   UNL A   1      30.817  23.586  24.033  1.00  0.00     0.145 C 
BRANCH   8   9
ATOM      9  S   UNL A   1      32.353  23.769  23.054  1.00  0.00    -0.145 SA
BRANCH   9  10
ATOM     10  C   UNL A   1      32.003  25.203  21.976  1.00  0.00     0.170 C 
BRANCH  10  11
ATOM     11  C   UNL A   1      32.974  26.368  22.097  1.00  0.00     0.236 C 
ATOM     12  N   UNL A   1      32.607  27.620  22.485  1.00  0.00    -0.294 N 
ATOM     13  H   UNL A   1      33.342  28.271  22.568  1.00  0.00     0.173 HD
ATOM     14  O   UNL A   1      34.167  26.221  21.802  1.00  0.00    -0.274 OA
BRANCH  12  15
ATOM     15  C   UNL A   1      31.361  28.095  22.774  1.00  0.00     0.231 A 
ATOM     16  C   UNL A   1      29.445  29.180  22.929  1.00  0.00     0.091 A 
ATOM     17  C   UNL A   1      30.679  29.155  22.231  1.00  0.00     0.097 A 
ATOM     18  N   UNL A   1      29.384  28.173  23.811  1.00  0.00    -0.082 NA
ATOM     19  O   UNL A   1      30.575  27.494  23.697  1.00  0.00    -0.338 OA
BRANCH  16  20
ATOM     20  C   UNL A   1      28.274  30.128  22.791  1.00  0.00     0.008 C 
ATOM     21  C   UNL A   1      28.073  30.587  21.333  1.00  0.00     0.018 C 
ATOM     22  C   UNL A   1      28.501  31.384  23.657  1.00  0.00     0.018 C 
ATOM     23  C   UNL A   1      26.983  29.422  23.254  1.00  0.00     0.018 C 
ENDBRANCH  16  20
ENDBRANCH  12  15
ENDBRANCH  10  11
ENDBRANCH   9  10
ENDBRANCH   8   9
ENDBRANCH   7   8
BRANCH   7  24
ATOM     24  N   UNL A   1      30.310  22.478  26.247  1.00  0.00    -0.347 N 
ATOM     25  H   UNL A   1      30.291  21.657  25.640  1.00  0.00     0.345 HD
ATOM     26  H   UNL A   1      29.354  22.766  26.458  1.00  0.00     0.345 HD
ATOM     27  H   UNL A   1      30.796  22.248  27.114  1.00  0.00     0.345 HD
ENDBRANCH   7  24
ENDBRANCH   4   7
ENDBRANCH   2   3
ENDBRANCH   1   2
BRANCH   1  28
ATOM     28  C   UNL A   1      32.740  28.308  27.093  1.00  0.00     0.002 C 
BRANCH  28  29
ATOM     29  C   UNL A   1      31.760  29.385  26.614  1.00  0.00     0.002 C 
BRANCH  29  30
ATOM     30  C   UNL A   1      32.380  30.768  26.403  1.00  0.00     0.021 C 
BRANCH  30  31
ATOM     31  C   UNL A   1      33.218  31.268  27.576  1.00  0.00     0.116 C 
BRANCH  31  32
ATOM     32  N   UNL A   1      33.308  32.719  27.600  1.00  0.00    -0.352 N 
ATOM     33  C   UNL A   1      34.193  33.518  28.278  1.00  0.00     0.251 C 
ATOM     34  H   UNL A   1      32.640  33.194  27.056  1.00  0.00     0.163 HD
ATOM     35  O   UNL A   1      33.990  34.727  28.355  1.00  0.00    -0.269 OA
BRANCH  33  36
ATOM     36  C   UNL A   1      35.371  32.912  28.933  1.00  0.00     0.039 A 
ATOM     37  C   UNL A   1      35.173  31.978  29.952  1.00  0.00     0.014 A 
ATOM     38  C   UNL A   1      36.667  33.257  28.537  1.00  0.00     0.014 A 
ATOM     39  C   UNL A   1      36.275  31.346  30.531  1.00  0.00     0.010 A 
ATOM     40  C   UNL A   1      37.757  32.566  29.058  1.00  0.00     0.010 A 
ATOM     41  C   UNL A   1      37.573  31.607  30.065  1.00  0.00    -0.014 A 
BRANCH  41  42
ATOM     42  C   UNL A   1      38.747  30.885  30.620  1.00  0.00     0.031 A 
ATOM     43  C   UNL A   1      39.348  31.309  31.931  1.00  0.00     0.074 A 
ATOM     44  C   UNL A   1      39.311  29.886  29.911  1.00  0.00     0.049 A 
ATOM     45  N   UNL A   1      40.405  30.845  32.548  1.00  0.00    -0.248 NA
ATOM     46  C   UNL A   1      38.691  32.428  32.621  1.00  0.00     0.031 C 
ATOM     47  C   UNL A   1      38.848  29.417  28.603  1.00  0.00     0.029 A 
ATOM     48  N   UNL A   1      40.398  29.094  30.181  1.00  0.00    -0.354 N 
ATOM     49  C   UNL A   1      40.548  31.624  33.692  1.00  0.00     0.074 A 
ATOM     50  C   UNL A   1      39.511  32.634  33.639  1.00  0.00     0.031 C 
ATOM     51  C   UNL A   1      39.629  28.404  28.198  1.00  0.00     0.029 A 
ATOM     52  C   UNL A   1      40.678  28.184  29.188  1.00  0.00     0.049 A 
ATOM     53  H   UNL A   1      40.926  29.169  31.008  1.00  0.00     0.167 HD
ATOM     54  C   UNL A   1      41.446  31.495  34.700  1.00  0.00     0.034 A 
ATOM     55  C   UNL A   1      41.677  27.287  29.076  1.00  0.00     0.034 A 
ATOM     56  C   UNL A   1      42.473  30.478  34.730  1.00  0.00     0.049 A 
ATOM     57  C   UNL A   1      42.682  27.174  30.191  1.00  0.00     0.074 A 
ATOM     58  C   UNL A   1      43.392  30.210  35.729  1.00  0.00     0.029 A 
ATOM     59  N   UNL A   1      42.730  29.576  33.704  1.00  0.00    -0.354 N 
ATOM     60  N   UNL A   1      42.767  27.871  31.301  1.00  0.00    -0.248 NA
ATOM     61  C   UNL A   1      43.719  26.145  30.046  1.00  0.00     0.031 C 
ATOM     62  C   UNL A   1      44.257  29.211  35.272  1.00  0.00     0.029 A 
ATOM     63  C   UNL A   1      43.823  28.783  34.027  1.00  0.00     0.049 A 
ATOM     64  H   UNL A   1      42.213  29.508  32.869  1.00  0.00     0.167 HD
ATOM     65  C   UNL A   1      43.851  27.348  31.999  1.00  0.00     0.074 A 
ATOM     66  C   UNL A   1      44.379  26.267  31.189  1.00  0.00     0.031 C 
ATOM     67  C   UNL A   1      44.358  27.722  33.202  1.00  0.00     0.034 A 
BRANCH  54  68
ATOM     68  C   UNL A   1      41.376  32.504  35.824  1.00  0.00     0.023 A 
ATOM     69  C   UNL A   1      40.536  32.319  36.938  1.00  0.00     0.031 A 
ATOM     70  C   UNL A   1      42.117  33.698  35.759  1.00  0.00     0.131 A 
ATOM     71  C   UNL A   1      40.375  33.349  37.876  1.00  0.00     0.055 A 
ATOM     72  C   UNL A   1      42.030  34.677  36.751  1.00  0.00     0.041 A 
ATOM     73  F   UNL A   1      42.922  33.948  34.714  1.00  0.00    -0.206 F 
ATOM     74  C   UNL A   1      41.137  34.516  37.807  1.00  0.00     0.022 A 
BRANCH  71  75
ATOM     75  S   UNL A   1      39.016  33.222  39.073  1.00  0.00     0.124 S 
ATOM     76  O   UNL A   1      38.799  34.625  39.420  1.00  0.00    -0.237 OA
ATOM     77  O   UNL A   1      37.964  32.587  38.289  1.00  0.00    -0.237 OA
ATOM     78  O   UNL A   1      39.579  32.404  40.145  1.00  0.00    -0.744 OA
ENDBRANCH  71  75
ENDBRANCH  54  68
BRANCH  55  79
ATOM     79  C   UNL A   1      41.782  26.441  27.853  1.00  0.00     0.023 A 
ATOM     80  C   UNL A   1      41.284  25.129  27.826  1.00  0.00     0.031 A 
ATOM     81  C   UNL A   1      42.382  26.942  26.684  1.00  0.00     0.131 A 
ATOM     82  C   UNL A   1      41.421  24.353  26.664  1.00  0.00     0.055 A 
ATOM     83  C   UNL A   1      42.471  26.185  25.514  1.00  0.00     0.041 A 
ATOM     84  F   UNL A   1      42.868  28.193  26.653  1.00  0.00    -0.206 F 
ATOM     85  C   UNL A   1      41.995  24.878  25.504  1.00  0.00     0.022 A 
BRANCH  82  86
ATOM     86  S   UNL A   1      40.884  22.620  26.702  1.00  0.00     0.124 S 
ATOM     87  O   UNL A   1      41.680  22.040  25.627  1.00  0.00    -0.237 OA
ATOM     88  O   UNL A   1      41.246  22.221  28.059  1.00  0.00    -0.237 OA
ATOM     89  O   UNL A   1      39.449  22.705  26.443  1.00  0.00    -0.744 OA
ENDBRANCH  82  86
ENDBRANCH  55  79
BRANCH  67  90
ATOM     90  C   UNL A   1      45.529  26.926  33.735  1.00  0.00     0.023 A 
ATOM     91  C   UNL A   1      45.349  25.790  34.545  1.00  0.00     0.031 A 
ATOM     92  C   UNL A   1      46.845  27.316  33.430  1.00  0.00     0.131 A 
ATOM     93  C   UNL A   1      46.466  25.121  35.069  1.00  0.00     0.055 A 
ATOM     94  C   UNL A   1      47.951  26.605  33.896  1.00  0.00     0.041 A 
ATOM     95  F   UNL A   1      47.079  28.396  32.667  1.00  0.00    -0.206 F 
ATOM     96  C   UNL A   1      47.766  25.509  34.731  1.00  0.00     0.022 A 
BRANCH  93  97
ATOM     97  S   UNL A   1      46.201  23.801  36.284  1.00  0.00     0.124 S 
ATOM     98  O   UNL A   1      45.443  24.493  37.321  1.00  0.00    -0.237 OA
ATOM     99  O   UNL A   1      45.464  22.807  35.510  1.00  0.00    -0.237 OA
ATOM    100  O   UNL A   1      47.556  23.408  36.665  1.00  0.00    -0.744 OA
ENDBRANCH  93  97
ENDBRANCH  67  90
ENDBRANCH  41  42
ENDBRANCH  33  36
ENDBRANCH  31  32
ENDBRANCH  30  31
ENDBRANCH  29  30
ENDBRANCH  28  29
ENDBRANCH   1  28
TORSDOF 23
ENDMDL
MODEL 2
REMARK VINA RESULT:     -10.0      1.808      3.544
REMARK SMILES CC(C)(C)c1cc(NC(=O)CSC[C@H]([NH3+])C(=O)NCCCCCCNC(=O)c2ccc(-c3c4nc(c(-c5cc(S(=O)(=O)[O-])ccc5F)c5ccc([nH]5)c(-c5cc(S(=O)(=O)[O-])ccc5F)c5nc(c(-c6cc(S(=O)(=O)[O-])ccc6F)c6ccc3[nH]6)C=C5)C=C4)cc2)on1
REMARK SMILES IDX 20 1 19 2 18 3 16 4 17 5 14 7 13 8 12 9 11 10 9 11 8 12
REMARK SMILES IDX 10 14 7 15 5 16 6 17 92 18 91 19 2 20 1 21 3 22 4 23 15 24
REMARK SMILES IDX 21 28 22 29 23 30 24 31 25 32 26 33 27 35 28 36 29 37 90 38
REMARK SMILES IDX 30 39 89 40 31 41 32 42 33 43 83 44 34 45 88 46 82 47 84 48
REMARK SMILES IDX 35 49 87 50 81 51 80 52 36 54 68 55 48 56 67 57 49 58 52 59
REMARK SMILES IDX 66 60 85 61 50 62 51 63 65 65 86 66 53 67 37 68 38 69 46 70
REMARK SMILES IDX 39 71 45 72 47 73 44 74 40 75 41 76 42 77 43 78 69 79 70 80
REMARK SMILES IDX 78 81 71 82 77 83 79 84 76 85 72 86 73 87 74 88 75 89 54 90
REMARK SMILES IDX 55 91 63 92 56 93 62 94 64 95 61 96 57 97 58 98 59 99 60 100
REMARK H PARENT 18 6 8 13 15 25 15 26 15 27 25 34 84 53 52 64
REMARK Flexibility Score: inf
ROOT
ATOM      1  C   UNL A   1      31.406  28.468  22.678  1.00  0.00     0.021 C 
ENDROOT
BRANCH   1   2
ATOM      2  C   UNL A   1      32.496  27.414  22.832  1.00  0.00     0.116 C 
BRANCH   2   3
ATOM      3  N   UNL A   1      32.678  26.696  21.587  1.00  0.00    -0.351 N 
ATOM      4  C   UNL A   1      32.980  25.397  21.326  1.00  0.00     0.279 C 
ATOM      5  O   UNL A   1      33.174  25.074  20.151  1.00  0.00    -0.268 OA
ATOM      6  H   UNL A   1      32.559  27.252  20.782  1.00  0.00     0.163 HD
BRANCH   4   7
ATOM      7  C   UNL A   1      33.049  24.354  22.449  1.00  0.00     0.280 C 
BRANCH   7   8
ATOM      8  C   UNL A   1      34.334  24.524  23.279  1.00  0.00     0.145 C 
BRANCH   8   9
ATOM      9  S   UNL A   1      35.499  23.115  23.187  1.00  0.00    -0.145 SA
BRANCH   9  10
ATOM     10  C   UNL A   1      36.420  23.219  24.763  1.00  0.00     0.170 C 
BRANCH  10  11
ATOM     11  C   UNL A   1      36.472  21.936  25.578  1.00  0.00     0.236 C 
ATOM     12  N   UNL A   1      35.452  21.500  26.367  1.00  0.00    -0.294 N 
ATOM     13  H   UNL A   1      35.596  20.630  26.806  1.00  0.00     0.173 HD
ATOM     14  O   UNL A   1      37.494  21.238  25.581  1.00  0.00    -0.274 OA
BRANCH  12  15
ATOM     15  C   UNL A   1      34.258  22.106  26.633  1.00  0.00     0.231 A 
ATOM     16  C   UNL A   1      32.244  23.008  26.618  1.00  0.00     0.091 A 
ATOM     17  C   UNL A   1      33.187  22.331  25.805  1.00  0.00     0.097 A 
ATOM     18  N   UNL A   1      32.713  23.146  27.866  1.00  0.00    -0.082 NA
ATOM     19  O   UNL A   1      33.962  22.569  27.869  1.00  0.00    -0.338 OA
BRANCH  16  20
ATOM     20  C   UNL A   1      30.868  23.535  26.272  1.00  0.00     0.008 C 
ATOM     21  C   UNL A   1      30.727  25.036  26.597  1.00  0.00     0.018 C 
ATOM     22  C   UNL A   1      29.791  22.773  27.072  1.00  0.00     0.018 C 
ATOM     23  C   UNL A   1      30.608  23.344  24.764  1.00  0.00     0.018 C 
ENDBRANCH  16  20
ENDBRANCH  12  15
ENDBRANCH  10  11
ENDBRANCH   9  10
ENDBRANCH   8   9
ENDBRANCH   7   8
BRANCH   7  24
ATOM     24  N   UNL A   1      32.875  22.984  21.905  1.00  0.00    -0.347 N 
ATOM     25  H   UNL A   1      31.929  22.882  21.537  1.00  0.00     0.345 HD
ATOM     26  H   UNL A   1      33.026  22.302  22.649  1.00  0.00     0.345 HD
ATOM     27  H   UNL A   1      33.550  22.826  21.157  1.00  0.00     0.345 HD
ENDBRANCH   7  24
ENDBRANCH   4   7
ENDBRANCH   2   3
ENDBRANCH   1   2
BRANCH   1  28
ATOM     28  C   UNL A   1      30.660  28.770  23.984  1.00  0.00     0.002 C 
BRANCH  28  29
ATOM     29  C   UNL A   1      31.473  29.554  25.019  1.00  0.00     0.002 C 
BRANCH  29  30
ATOM     30  C   UNL A   1      32.166  28.693  26.077  1.00  0.00     0.021 C 
BRANCH  30  31
ATOM     31  C   UNL A   1      32.585  29.452  27.332  1.00  0.00     0.116 C 
BRANCH  31  32
ATOM     32  N   UNL A   1      32.701  30.880  27.089  1.00  0.00    -0.352 N 
ATOM     33  C   UNL A   1      33.708  31.739  27.453  1.00  0.00     0.251 C 
ATOM     34  H   UNL A   1      31.955  31.289  26.595  1.00  0.00     0.163 HD
ATOM     35  O   UNL A   1      33.542  32.952  27.354  1.00  0.00    -0.269 OA
BRANCH  33  36
ATOM     36  C   UNL A   1      34.974  31.196  27.989  1.00  0.00     0.039 A 
ATOM     37  C   UNL A   1      36.083  32.038  28.087  1.00  0.00     0.014 A 
ATOM     38  C   UNL A   1      35.063  29.863  28.402  1.00  0.00     0.014 A 
ATOM     39  C   UNL A   1      37.264  31.559  28.656  1.00  0.00     0.010 A 
ATOM     40  C   UNL A   1      36.214  29.413  29.042  1.00  0.00     0.010 A 
ATOM     41  C   UNL A   1      37.329  30.254  29.171  1.00  0.00    -0.014 A 
BRANCH  41  42
ATOM     42  C   UNL A   1      38.554  29.756  29.848  1.00  0.00     0.031 A 
ATOM     43  C   UNL A   1      38.950  30.299  31.193  1.00  0.00     0.074 A 
ATOM     44  C   UNL A   1      39.344  28.862  29.222  1.00  0.00     0.049 A 
ATOM     45  N   UNL A   1      40.010  30.036  31.915  1.00  0.00    -0.248 NA
ATOM     46  C   UNL A   1      38.049  31.296  31.789  1.00  0.00     0.031 C 
ATOM     47  C   UNL A   1      39.090  28.300  27.894  1.00  0.00     0.029 A 
ATOM     48  N   UNL A   1      40.522  28.275  29.611  1.00  0.00    -0.354 N 
ATOM     49  C   UNL A   1      39.911  30.845  33.043  1.00  0.00     0.074 A 
ATOM     50  C   UNL A   1      38.725  31.657  32.869  1.00  0.00     0.031 C 
ATOM     51  C   UNL A   1      40.069  27.432  27.590  1.00  0.00     0.029 A 
ATOM     52  C   UNL A   1      41.045  27.414  28.675  1.00  0.00     0.049 A 
ATOM     53  H   UNL A   1      40.952  28.454  30.478  1.00  0.00     0.167 HD
ATOM     54  C   UNL A   1      40.722  30.889  34.129  1.00  0.00     0.034 A 
ATOM     55  C   UNL A   1      42.190  26.703  28.678  1.00  0.00     0.034 A 
ATOM     56  C   UNL A   1      41.901  30.068  34.279  1.00  0.00     0.049 A 
ATOM     57  C   UNL A   1      43.093  26.784  29.880  1.00  0.00     0.074 A 
ATOM     58  C   UNL A   1      42.757  29.979  35.363  1.00  0.00     0.029 A 
ATOM     59  N   UNL A   1      42.404  29.209  33.309  1.00  0.00    -0.354 N 
ATOM     60  N   UNL A   1      42.954  27.501  30.972  1.00  0.00    -0.248 NA
ATOM     61  C   UNL A   1      44.301  25.950  29.858  1.00  0.00     0.031 C 
ATOM     62  C   UNL A   1      43.821  29.140  35.015  1.00  0.00     0.029 A 
ATOM     63  C   UNL A   1      43.583  28.624  33.750  1.00  0.00     0.049 A 
ATOM     64  H   UNL A   1      41.985  29.040  32.434  1.00  0.00     0.167 HD
ATOM     65  C   UNL A   1      44.044  27.187  31.777  1.00  0.00     0.074 A 
ATOM     66  C   UNL A   1      44.822  26.203  31.050  1.00  0.00     0.031 C 
ATOM     67  C   UNL A   1      44.366  27.661  33.008  1.00  0.00     0.034 A 
BRANCH  54  68
ATOM     68  C   UNL A   1      40.377  31.887  35.212  1.00  0.00     0.023 A 
ATOM     69  C   UNL A   1      39.452  31.589  36.229  1.00  0.00     0.031 A 
ATOM     70  C   UNL A   1      40.935  33.178  35.197  1.00  0.00     0.131 A 
ATOM     71  C   UNL A   1      39.035  32.592  37.117  1.00  0.00     0.055 A 
ATOM     72  C   UNL A   1      40.592  34.142  36.147  1.00  0.00     0.041 A 
ATOM     73  F   UNL A   1      41.808  33.535  34.242  1.00  0.00    -0.206 F 
ATOM     74  C   UNL A   1      39.619  33.860  37.102  1.00  0.00     0.022 A 
BRANCH  71  75
ATOM     75  S   UNL A   1      37.582  32.275  38.158  1.00  0.00     0.124 S 
ATOM     76  O   UNL A   1      37.353  30.851  37.915  1.00  0.00    -0.237 OA
ATOM     77  O   UNL A   1      38.065  32.626  39.488  1.00  0.00    -0.237 OA
ATOM     78  O   UNL A   1      36.564  33.164  37.605  1.00  0.00    -0.744 OA
ENDBRANCH  71  75
ENDBRANCH  54  68
BRANCH  55  79
ATOM     79  C   UNL A   1      42.550  25.870  27.495  1.00  0.00     0.023 A 
ATOM     80  C   UNL A   1      42.152  24.528  27.397  1.00  0.00     0.031 A 
ATOM     81  C   UNL A   1      43.300  26.415  26.437  1.00  0.00     0.131 A 
ATOM     82  C   UNL A   1      42.530  23.767  26.279  1.00  0.00     0.055 A 
ATOM     83  C   UNL A   1      43.631  25.669  25.304  1.00  0.00     0.041 A 
ATOM     84  F   UNL A   1      43.700  27.696  26.477  1.00  0.00    -0.206 F 
ATOM     85  C   UNL A   1      43.251  24.333  25.225  1.00  0.00     0.022 A 
BRANCH  82  86
ATOM     86  S   UNL A   1      42.111  22.002  26.242  1.00  0.00     0.124 S 
ATOM     87  O   UNL A   1      42.527  21.571  27.571  1.00  0.00    -0.237 OA
ATOM     88  O   UNL A   1      40.672  22.038  25.997  1.00  0.00    -0.237 OA
ATOM     89  O   UNL A   1      42.915  21.486  25.136  1.00  0.00    -0.744 OA
ENDBRANCH  82  86
ENDBRANCH  55  79
BRANCH  67  90
ATOM     90  C   UNL A   1      45.603  27.089  33.665  1.00  0.00     0.023 A 
ATOM     91  C   UNL A   1      45.554  25.932  34.463  1.00  0.00     0.031 A 
ATOM     92  C   UNL A   1      46.848  27.719  33.494  1.00  0.00     0.131 A 
ATOM     93  C   UNL A   1      46.716  25.475  35.105  1.00  0.00     0.055 A 
ATOM     94  C   UNL A   1      48.013  27.220  34.077  1.00  0.00     0.041 A 
ATOM     95  F   UNL A   1      46.955  28.832  32.750  1.00  0.00    -0.206 F 
ATOM     96  C   UNL A   1      47.949  26.100  34.899  1.00  0.00     0.022 A 
BRANCH  93  97
ATOM     97  S   UNL A   1      46.576  24.116  36.297  1.00  0.00     0.124 S 
ATOM     98  O   UNL A   1      45.399  23.406  35.808  1.00  0.00    -0.237 OA
ATOM     99  O   UNL A   1      47.851  23.425  36.136  1.00  0.00    -0.237 OA
ATOM    100  O   UNL A   1      46.399  24.800  37.577  1.00  0.00    -0.744 OA
ENDBRANCH  93  97
ENDBRANCH  67  90
ENDBRANCH  41  42
ENDBRANCH  33  36
ENDBRANCH  31  32
ENDBRANCH  30  31
ENDBRANCH  29  30
ENDBRANCH  28  29
ENDBRANCH   1  28
TORSDOF 23
ENDMDL
MODEL 3
REMARK VINA RESULT:      -9.8      2.743      8.728
REMARK SMILES CC(C)(C)c1cc(NC(=O)CSC[C@H]([NH3+])C(=O)NCCCCCCNC(=O)c2ccc(-c3c4nc(c(-c5cc(S(=O)(=O)[O-])ccc5F)c5ccc([nH]5)c(-c5cc(S(=O)(=O)[O-])ccc5F)c5nc(c(-c6cc(S(=O)(=O)[O-])ccc6F)c6ccc3[nH]6)C=C5)C=C4)cc2)on1
REMARK SMILES IDX 20 1 19 2 18 3 16 4 17 5 14 7 13 8 12 9 11 10 9 11 8 12
REMARK SMILES IDX 10 14 7 15 5 16 6 17 92 18 91 19 2 20 1 21 3 22 4 23 15 24
REMARK SMILES IDX 21 28 22 29 23 30 24 31 25 32 26 33 27 35 28 36 29 37 90 38
REMARK SMILES IDX 30 39 89 40 31 41 32 42 33 43 83 44 34 45 88 46 82 47 84 48
REMARK SMILES IDX 35 49 87 50 81 51 80 52 36 54 68 55 48 56 67 57 49 58 52 59
REMARK SMILES IDX 66 60 85 61 50 62 51 63 65 65 86 66 53 67 37 68 38 69 46 70
REMARK SMILES IDX 39 71 45 72 47 73 44 74 40 75 41 76 42 77 43 78 69 79 70 80
REMARK SMILES IDX 78 81 71 82 77 83 79 84 76 85 72 86 73 87 74 88 75 89 54 90
REMARK SMILES IDX 55 91 63 92 56 93 62 94 64 95 61 96 57 97 58 98 59 99 60 100
REMARK H PARENT 18 6 8 13 15 25 15 26 15 27 25 34 84 53 52 64
REMARK Flexibility Score: inf
ROOT
ATOM      1  C   UNL A   1      31.012  28.433  22.553  1.00  0.00     0.021 C 
ENDROOT
BRANCH   1   2
ATOM      2  C   UNL A   1      31.958  27.252  22.743  1.00  0.00     0.116 C 
BRANCH   2   3
ATOM      3  N   UNL A   1      31.225  26.005  22.654  1.00  0.00    -0.351 N 
ATOM      4  C   UNL A   1      30.808  25.130  23.606  1.00  0.00     0.279 C 
ATOM      5  O   UNL A   1      30.280  24.079  23.233  1.00  0.00    -0.268 OA
ATOM      6  H   UNL A   1      30.985  25.746  21.735  1.00  0.00     0.163 HD
BRANCH   4   7
ATOM      7  C   UNL A   1      30.958  25.447  25.100  1.00  0.00     0.280 C 
BRANCH   7   8
ATOM      8  C   UNL A   1      32.181  24.727  25.695  1.00  0.00     0.145 C 
BRANCH   8   9
ATOM      9  S   UNL A   1      31.784  23.312  26.787  1.00  0.00    -0.145 SA
BRANCH   9  10
ATOM     10  C   UNL A   1      33.424  22.620  27.202  1.00  0.00     0.170 C 
BRANCH  10  11
ATOM     11  C   UNL A   1      34.488  22.758  26.123  1.00  0.00     0.236 C 
ATOM     12  N   UNL A   1      34.772  21.786  25.213  1.00  0.00    -0.294 N 
ATOM     13  H   UNL A   1      35.450  22.021  24.539  1.00  0.00     0.173 HD
ATOM     14  O   UNL A   1      35.181  23.781  26.056  1.00  0.00    -0.274 OA
BRANCH  12  15
ATOM     15  C   UNL A   1      34.243  20.532  25.109  1.00  0.00     0.231 A 
ATOM     16  C   UNL A   1      33.817  18.384  24.835  1.00  0.00     0.091 A 
ATOM     17  C   UNL A   1      34.863  19.342  24.825  1.00  0.00     0.097 A 
ATOM     18  N   UNL A   1      32.650  18.967  25.142  1.00  0.00    -0.082 NA
ATOM     19  O   UNL A   1      32.928  20.302  25.325  1.00  0.00    -0.338 OA
BRANCH  16  20
ATOM     20  C   UNL A   1      33.866  16.893  24.578  1.00  0.00     0.008 C 
ATOM     21  C   UNL A   1      35.086  16.233  25.251  1.00  0.00     0.018 C 
ATOM     22  C   UNL A   1      33.952  16.617  23.064  1.00  0.00     0.018 C 
ATOM     23  C   UNL A   1      32.592  16.232  25.142  1.00  0.00     0.018 C 
ENDBRANCH  16  20
ENDBRANCH  12  15
ENDBRANCH  10  11
ENDBRANCH   9  10
ENDBRANCH   8   9
ENDBRANCH   7   8
BRANCH   7  24
ATOM     24  N   UNL A   1      29.696  25.162  25.827  1.00  0.00    -0.347 N 
ATOM     25  H   UNL A   1      29.238  26.040  26.070  1.00  0.00     0.345 HD
ATOM     26  H   UNL A   1      29.905  24.641  26.679  1.00  0.00     0.345 HD
ATOM     27  H   UNL A   1      29.078  24.609  25.233  1.00  0.00     0.345 HD
ENDBRANCH   7  24
ENDBRANCH   4   7
ENDBRANCH   2   3
ENDBRANCH   1   2
BRANCH   1  28
ATOM     28  C   UNL A   1      30.273  28.835  23.836  1.00  0.00     0.002 C 
BRANCH  28  29
ATOM     29  C   UNL A   1      30.881  30.030  24.578  1.00  0.00     0.002 C 
BRANCH  29  30
ATOM     30  C   UNL A   1      32.117  29.702  25.419  1.00  0.00     0.021 C 
BRANCH  30  31
ATOM     31  C   UNL A   1      32.086  30.272  26.833  1.00  0.00     0.116 C 
BRANCH  31  32
ATOM     32  N   UNL A   1      32.035  31.725  26.831  1.00  0.00    -0.352 N 
ATOM     33  C   UNL A   1      32.886  32.619  27.430  1.00  0.00     0.251 C 
ATOM     34  H   UNL A   1      31.286  32.123  26.332  1.00  0.00     0.163 HD
ATOM     35  O   UNL A   1      32.572  33.805  27.506  1.00  0.00    -0.269 OA
BRANCH  33  36
ATOM     36  C   UNL A   1      34.163  32.143  28.003  1.00  0.00     0.039 A 
ATOM     37  C   UNL A   1      35.227  33.039  28.123  1.00  0.00     0.014 A 
ATOM     38  C   UNL A   1      34.305  30.820  28.430  1.00  0.00     0.014 A 
ATOM     39  C   UNL A   1      36.414  32.622  28.727  1.00  0.00     0.010 A 
ATOM     40  C   UNL A   1      35.459  30.430  29.105  1.00  0.00     0.010 A 
ATOM     41  C   UNL A   1      36.528  31.326  29.256  1.00  0.00    -0.014 A 
BRANCH  41  42
ATOM     42  C   UNL A   1      37.757  30.894  29.969  1.00  0.00     0.031 A 
ATOM     43  C   UNL A   1      38.700  29.914  29.328  1.00  0.00     0.074 A 
ATOM     44  C   UNL A   1      37.991  31.335  31.221  1.00  0.00     0.049 A 
ATOM     45  N   UNL A   1      39.790  29.372  29.812  1.00  0.00    -0.248 NA
ATOM     46  C   UNL A   1      38.352  29.458  27.975  1.00  0.00     0.031 C 
ATOM     47  C   UNL A   1      37.123  32.249  31.966  1.00  0.00     0.029 A 
ATOM     48  N   UNL A   1      39.019  31.071  32.091  1.00  0.00    -0.354 N 
ATOM     49  C   UNL A   1      40.248  28.501  28.829  1.00  0.00     0.074 A 
ATOM     50  C   UNL A   1      39.277  28.537  27.756  1.00  0.00     0.031 C 
ATOM     51  C   UNL A   1      37.668  32.488  33.170  1.00  0.00     0.029 A 
ATOM     52  C   UNL A   1      38.893  31.706  33.304  1.00  0.00     0.049 A 
ATOM     53  H   UNL A   1      39.775  30.481  31.867  1.00  0.00     0.167 HD
ATOM     54  C   UNL A   1      41.384  27.758  28.816  1.00  0.00     0.034 A 
ATOM     55  C   UNL A   1      39.665  31.653  34.407  1.00  0.00     0.034 A 
ATOM     56  C   UNL A   1      42.338  27.740  29.900  1.00  0.00     0.049 A 
ATOM     57  C   UNL A   1      40.907  30.803  34.386  1.00  0.00     0.074 A 
ATOM     58  C   UNL A   1      43.553  27.080  29.967  1.00  0.00     0.029 A 
ATOM     59  N   UNL A   1      42.176  28.393  31.116  1.00  0.00    -0.354 N 
ATOM     60  N   UNL A   1      41.367  30.036  33.424  1.00  0.00    -0.248 NA
ATOM     61  C   UNL A   1      41.742  30.822  35.593  1.00  0.00     0.031 C 
ATOM     62  C   UNL A   1      44.079  27.261  31.250  1.00  0.00     0.029 A 
ATOM     63  C   UNL A   1      43.245  28.114  31.957  1.00  0.00     0.049 A 
ATOM     64  H   UNL A   1      41.413  28.970  31.349  1.00  0.00     0.167 HD
ATOM     65  C   UNL A   1      42.559  29.499  33.901  1.00  0.00     0.074 A 
ATOM     66  C   UNL A   1      42.753  30.043  35.231  1.00  0.00     0.031 C 
ATOM     67  C   UNL A   1      43.418  28.642  33.292  1.00  0.00     0.034 A 
BRANCH  54  68
ATOM     68  C   UNL A   1      41.623  26.880  27.607  1.00  0.00     0.023 A 
ATOM     69  C   UNL A   1      41.322  25.506  27.617  1.00  0.00     0.031 A 
ATOM     70  C   UNL A   1      42.213  27.410  26.446  1.00  0.00     0.131 A 
ATOM     71  C   UNL A   1      41.709  24.694  26.540  1.00  0.00     0.055 A 
ATOM     72  C   UNL A   1      42.502  26.614  25.335  1.00  0.00     0.041 A 
ATOM     73  F   UNL A   1      42.544  28.709  26.378  1.00  0.00    -0.206 F 
ATOM     74  C   UNL A   1      42.271  25.243  25.386  1.00  0.00     0.022 A 
BRANCH  71  75
ATOM     75  S   UNL A   1      41.645  22.893  26.750  1.00  0.00     0.124 S 
ATOM     76  O   UNL A   1      40.330  22.578  26.195  1.00  0.00    -0.237 OA
ATOM     77  O   UNL A   1      42.792  22.443  25.971  1.00  0.00    -0.237 OA
ATOM     78  O   UNL A   1      41.760  22.712  28.195  1.00  0.00    -0.744 OA
ENDBRANCH  71  75
ENDBRANCH  54  68
BRANCH  55  79
ATOM     79  C   UNL A   1      39.270  32.415  35.627  1.00  0.00     0.023 A 
ATOM     80  C   UNL A   1      39.735  33.720  35.856  1.00  0.00     0.031 A 
ATOM     81  C   UNL A   1      38.411  31.843  36.583  1.00  0.00     0.131 A 
ATOM     82  C   UNL A   1      39.361  34.397  37.028  1.00  0.00     0.055 A 
ATOM     83  C   UNL A   1      38.002  32.539  37.721  1.00  0.00     0.041 A 
ATOM     84  F   UNL A   1      37.932  30.601  36.407  1.00  0.00    -0.206 F 
ATOM     85  C   UNL A   1      38.485  33.824  37.952  1.00  0.00     0.022 A 
BRANCH  82  86
ATOM     86  S   UNL A   1      40.080  36.030  37.358  1.00  0.00     0.124 S 
ATOM     87  O   UNL A   1      39.728  36.760  36.145  1.00  0.00    -0.237 OA
ATOM     88  O   UNL A   1      39.380  36.429  38.575  1.00  0.00    -0.237 OA
ATOM     89  O   UNL A   1      41.503  35.746  37.527  1.00  0.00    -0.744 OA
ENDBRANCH  82  86
ENDBRANCH  55  79
BRANCH  67  90
ATOM     90  C   UNL A   1      44.672  28.268  34.049  1.00  0.00     0.023 A 
ATOM     91  C   UNL A   1      44.737  27.121  34.861  1.00  0.00     0.031 A 
ATOM     92  C   UNL A   1      45.818  29.078  33.961  1.00  0.00     0.131 A 
ATOM     93  C   UNL A   1      45.902  26.849  35.595  1.00  0.00     0.055 A 
ATOM     94  C   UNL A   1      46.997  28.764  34.638  1.00  0.00     0.041 A 
ATOM     95  F   UNL A   1      45.814  30.190  33.208  1.00  0.00    -0.206 F 
ATOM     96  C   UNL A   1      47.040  27.651  35.472  1.00  0.00     0.022 A 
BRANCH  93  97
ATOM     97  S   UNL A   1      45.877  25.490  36.797  1.00  0.00     0.124 S 
ATOM     98  O   UNL A   1      46.820  25.962  37.805  1.00  0.00    -0.237 OA
ATOM     99  O   UNL A   1      44.475  25.455  37.200  1.00  0.00    -0.237 OA
ATOM    100  O   UNL A   1      46.326  24.336  36.019  1.00  0.00    -0.744 OA
ENDBRANCH  93  97
ENDBRANCH  67  90
ENDBRANCH  41  42
ENDBRANCH  33  36
ENDBRANCH  31  32
ENDBRANCH  30  31
ENDBRANCH  29  30
ENDBRANCH  28  29
ENDBRANCH   1  28
TORSDOF 23
ENDMDL
