MODEL 1
REMARK VINA RESULT:     -11.4      0.000      0.000
REMARK SMILES CCc1noc(C)c1C(=O)Nc1cc(Cl)ccc1C(=O)NCCCCCCNC(=O)c1ccc(-c2c3nc(c(-c4cc(S(=O)(=O)[O-])ccc4F)c4ccc([nH]4)c(-c4cc(S(=O)(=O)[O-])ccc4F)c4nc(c(-c5cc(S(=O)(=O)[O-])ccc5F)c5ccc2[nH]5)C=C4)C=C3)cc1
REMARK SMILES IDX 24 1 23 2 22 3 21 4 19 5 20 6 18 8 12 9 13 10 14 11 17 12
REMARK SMILES IDX 15 13 16 14 11 15 9 16 10 17 8 19 3 20 4 21 5 22 6 23 7 24
REMARK SMILES IDX 2 25 1 26 25 27 26 28 27 29 28 30 29 31 30 33 31 34 32 35
REMARK SMILES IDX 93 36 33 37 92 38 34 39 35 40 36 41 86 42 37 43 91 44 85 45
REMARK SMILES IDX 87 46 38 47 90 48 84 49 83 50 39 52 71 53 51 54 70 55 52 56
REMARK SMILES IDX 55 57 69 58 88 59 53 60 54 61 68 63 89 64 56 65 40 66 41 67
REMARK SMILES IDX 49 68 42 69 48 70 50 71 47 72 43 73 44 74 45 75 46 76 72 77
REMARK SMILES IDX 73 78 81 79 74 80 80 81 82 82 79 83 75 84 76 85 77 86 78 87
REMARK SMILES IDX 57 88 58 89 66 90 59 91 65 92 67 93 64 94 60 95 61 96 62 97
REMARK SMILES IDX 63 98
REMARK H PARENT 21 7 11 18 28 32 87 51 55 62
REMARK Flexibility Score: inf
ROOT
ATOM      1  C   UNL A   1      32.075  28.802  23.378  1.00  0.00     0.002 C 
ENDROOT
BRANCH   1   2
ATOM      2  C   UNL A   1      31.685  27.672  22.423  1.00  0.00     0.021 C 
BRANCH   2   3
ATOM      3  C   UNL A   1      32.337  26.314  22.643  1.00  0.00     0.116 C 
BRANCH   3   4
ATOM      4  N   UNL A   1      33.388  26.249  23.628  1.00  0.00    -0.352 N 
ATOM      5  C   UNL A   1      33.515  25.537  24.797  1.00  0.00     0.253 C 
ATOM      6  O   UNL A   1      34.584  25.691  25.398  1.00  0.00    -0.269 OA
ATOM      7  H   UNL A   1      34.160  26.825  23.426  1.00  0.00     0.163 HD
BRANCH   5   8
ATOM      8  C   UNL A   1      32.487  24.634  25.435  1.00  0.00     0.063 A 
ATOM      9  C   UNL A   1      32.612  23.307  25.899  1.00  0.00     0.055 A 
ATOM     10  C   UNL A   1      31.552  22.682  26.585  1.00  0.00     0.047 A 
ATOM     11  C   UNL A   1      30.331  23.331  26.744  1.00  0.00     0.043 A 
ATOM     12  C   UNL A   1      31.219  25.246  25.587  1.00  0.00     0.017 A 
ATOM     13  Cl  UNL A   1      29.041  22.547  27.564  1.00  0.00    -0.084 Cl
ATOM     14  C   UNL A   1      30.151  24.603  26.223  1.00  0.00     0.021 A 
BRANCH   9  15
ATOM     15  N   UNL A   1      33.808  22.607  25.858  1.00  0.00    -0.321 N 
ATOM     16  C   UNL A   1      34.144  21.344  25.411  1.00  0.00     0.261 C 
ATOM     17  O   UNL A   1      35.307  21.040  25.687  1.00  0.00    -0.269 OA
ATOM     18  H   UNL A   1      34.572  23.111  26.221  1.00  0.00     0.170 HD
BRANCH  16  19
ATOM     19  C   UNL A   1      33.324  20.468  24.566  1.00  0.00     0.105 A 
ATOM     20  C   UNL A   1      32.655  20.870  23.333  1.00  0.00     0.096 A 
ATOM     21  N   UNL A   1      32.077  19.818  22.737  1.00  0.00    -0.084 NA
ATOM     22  O   UNL A   1      32.201  18.777  23.594  1.00  0.00    -0.361 OA
ATOM     23  C   UNL A   1      32.836  19.171  24.727  1.00  0.00     0.146 A 
ATOM     24  C   UNL A   1      32.745  18.116  25.755  1.00  0.00     0.092 C 
BRANCH  20  25
ATOM     25  C   UNL A   1      32.335  22.192  22.692  1.00  0.00     0.057 C 
ATOM     26  C   UNL A   1      33.434  23.011  22.057  1.00  0.00     0.011 C 
ENDBRANCH  20  25
ENDBRANCH  16  19
ENDBRANCH   9  15
ENDBRANCH   5   8
ENDBRANCH   3   4
ENDBRANCH   2   3
ENDBRANCH   1   2
BRANCH   1  27
ATOM     27  C   UNL A   1      31.239  28.998  24.646  1.00  0.00     0.002 C 
BRANCH  27  28
ATOM     28  C   UNL A   1      31.937  28.833  25.998  1.00  0.00     0.021 C 
BRANCH  28  29
ATOM     29  C   UNL A   1      33.258  29.571  26.191  1.00  0.00     0.116 C 
BRANCH  29  30
ATOM     30  N   UNL A   1      33.088  30.950  26.604  1.00  0.00    -0.352 N 
ATOM     31  C   UNL A   1      33.812  31.705  27.494  1.00  0.00     0.251 C 
ATOM     32  H   UNL A   1      32.335  31.420  26.177  1.00  0.00     0.163 HD
ATOM     33  O   UNL A   1      33.407  32.829  27.784  1.00  0.00    -0.269 OA
BRANCH  31  34
ATOM     34  C   UNL A   1      35.047  31.178  28.128  1.00  0.00     0.039 A 
ATOM     35  C   UNL A   1      36.198  31.973  28.108  1.00  0.00     0.014 A 
ATOM     36  C   UNL A   1      35.105  29.900  28.693  1.00  0.00     0.014 A 
ATOM     37  C   UNL A   1      37.384  31.510  28.683  1.00  0.00     0.010 A 
ATOM     38  C   UNL A   1      36.268  29.468  29.333  1.00  0.00     0.010 A 
ATOM     39  C   UNL A   1      37.427  30.259  29.320  1.00  0.00    -0.014 A 
BRANCH  39  40
ATOM     40  C   UNL A   1      38.687  29.749  29.926  1.00  0.00     0.031 A 
ATOM     41  C   UNL A   1      39.138  30.261  31.271  1.00  0.00     0.074 A 
ATOM     42  C   UNL A   1      39.444  28.853  29.261  1.00  0.00     0.049 A 
ATOM     43  N   UNL A   1      40.224  29.983  31.946  1.00  0.00    -0.248 NA
ATOM     44  C   UNL A   1      38.260  31.242  31.927  1.00  0.00     0.031 C 
ATOM     45  C   UNL A   1      39.134  28.303  27.940  1.00  0.00     0.029 A 
ATOM     46  N   UNL A   1      40.627  28.246  29.603  1.00  0.00    -0.354 N 
ATOM     47  C   UNL A   1      40.167  30.761  33.099  1.00  0.00     0.074 A 
ATOM     48  C   UNL A   1      38.973  31.573  32.993  1.00  0.00     0.031 C 
ATOM     49  C   UNL A   1      40.088  27.422  27.596  1.00  0.00     0.029 A 
ATOM     50  C   UNL A   1      41.097  27.372  28.650  1.00  0.00     0.049 A 
ATOM     51  H   UNL A   1      41.095  28.420  30.450  1.00  0.00     0.167 HD
ATOM     52  C   UNL A   1      41.015  30.781  34.158  1.00  0.00     0.034 A 
ATOM     53  C   UNL A   1      42.215  26.618  28.625  1.00  0.00     0.034 A 
ATOM     54  C   UNL A   1      42.196  29.957  34.254  1.00  0.00     0.049 A 
ATOM     55  C   UNL A   1      43.148  26.661  29.811  1.00  0.00     0.074 A 
ATOM     56  C   UNL A   1      43.110  29.873  35.291  1.00  0.00     0.029 A 
ATOM     57  N   UNL A   1      42.631  29.071  33.275  1.00  0.00    -0.354 N 
ATOM     58  N   UNL A   1      43.061  27.378  30.908  1.00  0.00    -0.248 NA
ATOM     59  C   UNL A   1      44.318  25.776  29.761  1.00  0.00     0.031 C 
ATOM     60  C   UNL A   1      44.126  28.987  34.914  1.00  0.00     0.029 A 
ATOM     61  C   UNL A   1      43.806  28.453  33.678  1.00  0.00     0.049 A 
ATOM     62  H   UNL A   1      42.171  28.907  32.420  1.00  0.00     0.167 HD
ATOM     63  C   UNL A   1      44.143  26.993  31.697  1.00  0.00     0.074 A 
ATOM     64  C   UNL A   1      44.856  25.975  30.954  1.00  0.00     0.031 C 
ATOM     65  C   UNL A   1      44.510  27.438  32.927  1.00  0.00     0.034 A 
BRANCH  52  66
ATOM     66  C   UNL A   1      40.701  31.746  35.279  1.00  0.00     0.023 A 
ATOM     67  C   UNL A   1      39.624  31.532  36.159  1.00  0.00     0.031 A 
ATOM     68  C   UNL A   1      41.462  32.916  35.451  1.00  0.00     0.131 A 
ATOM     69  C   UNL A   1      39.285  32.509  37.108  1.00  0.00     0.055 A 
ATOM     70  C   UNL A   1      41.175  33.842  36.457  1.00  0.00     0.041 A 
ATOM     71  F   UNL A   1      42.491  33.188  34.633  1.00  0.00    -0.206 F 
ATOM     72  C   UNL A   1      40.070  33.651  37.281  1.00  0.00     0.022 A 
BRANCH  69  73
ATOM     73  S   UNL A   1      37.714  32.342  37.999  1.00  0.00     0.124 S 
ATOM     74  O   UNL A   1      37.516  30.895  37.979  1.00  0.00    -0.237 OA
ATOM     75  O   UNL A   1      38.024  32.927  39.298  1.00  0.00    -0.237 OA
ATOM     76  O   UNL A   1      36.773  33.103  37.179  1.00  0.00    -0.744 OA
ENDBRANCH  69  73
ENDBRANCH  52  66
BRANCH  53  77
ATOM     77  C   UNL A   1      42.520  25.751  27.450  1.00  0.00     0.023 A 
ATOM     78  C   UNL A   1      42.052  24.429  27.385  1.00  0.00     0.031 A 
ATOM     79  C   UNL A   1      43.329  26.216  26.398  1.00  0.00     0.131 A 
ATOM     80  C   UNL A   1      42.441  23.600  26.321  1.00  0.00     0.055 A 
ATOM     81  C   UNL A   1      43.667  25.404  25.314  1.00  0.00     0.041 A 
ATOM     82  F   UNL A   1      43.799  27.473  26.407  1.00  0.00    -0.206 F 
ATOM     83  C   UNL A   1      43.235  24.082  25.279  1.00  0.00     0.022 A 
BRANCH  80  84
ATOM     84  S   UNL A   1      41.970  21.847  26.368  1.00  0.00     0.124 S 
ATOM     85  O   UNL A   1      42.775  21.295  25.285  1.00  0.00    -0.237 OA
ATOM     86  O   UNL A   1      42.363  21.466  27.721  1.00  0.00    -0.237 OA
ATOM     87  O   UNL A   1      40.530  21.877  26.126  1.00  0.00    -0.744 OA
ENDBRANCH  80  84
ENDBRANCH  53  77
BRANCH  65  88
ATOM     88  C   UNL A   1      45.702  26.767  33.571  1.00  0.00     0.023 A 
ATOM     89  C   UNL A   1      45.565  25.658  34.424  1.00  0.00     0.031 A 
ATOM     90  C   UNL A   1      46.996  27.272  33.351  1.00  0.00     0.131 A 
ATOM     91  C   UNL A   1      46.689  25.140  35.085  1.00  0.00     0.055 A 
ATOM     92  C   UNL A   1      48.120  26.709  33.956  1.00  0.00     0.041 A 
ATOM     93  F   UNL A   1      47.190  28.330  32.547  1.00  0.00    -0.206 F 
ATOM     94  C   UNL A   1      47.968  25.648  34.843  1.00  0.00     0.022 A 
BRANCH  91  95
ATOM     95  S   UNL A   1      46.443  23.875  36.362  1.00  0.00     0.124 S 
ATOM     96  O   UNL A   1      46.438  24.673  37.584  1.00  0.00    -0.237 OA
ATOM     97  O   UNL A   1      45.162  23.291  35.978  1.00  0.00    -0.237 OA
ATOM     98  O   UNL A   1      47.599  22.995  36.201  1.00  0.00    -0.744 OA
ENDBRANCH  91  95
ENDBRANCH  65  88
ENDBRANCH  39  40
ENDBRANCH  31  34
ENDBRANCH  29  30
ENDBRANCH  28  29
ENDBRANCH  27  28
ENDBRANCH   1  27
TORSDOF 19
ENDMDL
MODEL 2
REMARK VINA RESULT:     -11.4      2.046      7.781
REMARK SMILES CCc1noc(C)c1C(=O)Nc1cc(Cl)ccc1C(=O)NCCCCCCNC(=O)c1ccc(-c2c3nc(c(-c4cc(S(=O)(=O)[O-])ccc4F)c4ccc([nH]4)c(-c4cc(S(=O)(=O)[O-])ccc4F)c4nc(c(-c5cc(S(=O)(=O)[O-])ccc5F)c5ccc2[nH]5)C=C4)C=C3)cc1
REMARK SMILES IDX 24 1 23 2 22 3 21 4 19 5 20 6 18 8 12 9 13 10 14 11 17 12
REMARK SMILES IDX 15 13 16 14 11 15 9 16 10 17 8 19 3 20 4 21 5 22 6 23 7 24
REMARK SMILES IDX 2 25 1 26 25 27 26 28 27 29 28 30 29 31 30 33 31 34 32 35
REMARK SMILES IDX 93 36 33 37 92 38 34 39 35 40 36 41 86 42 37 43 91 44 85 45
REMARK SMILES IDX 87 46 38 47 90 48 84 49 83 50 39 52 71 53 51 54 70 55 52 56
REMARK SMILES IDX 55 57 69 58 88 59 53 60 54 61 68 63 89 64 56 65 40 66 41 67
REMARK SMILES IDX 49 68 42 69 48 70 50 71 47 72 43 73 44 74 45 75 46 76 72 77
REMARK SMILES IDX 73 78 81 79 74 80 80 81 82 82 79 83 75 84 76 85 77 86 78 87
REMARK SMILES IDX 57 88 58 89 66 90 59 91 65 92 67 93 64 94 60 95 61 96 62 97
REMARK SMILES IDX 63 98
REMARK H PARENT 21 7 11 18 28 32 87 51 55 62
REMARK Flexibility Score: inf
ROOT
ATOM      1  C   UNL A   1      30.525  27.133  23.925  1.00  0.00     0.002 C 
ENDROOT
BRANCH   1   2
ATOM      2  C   UNL A   1      29.806  25.982  24.633  1.00  0.00     0.021 C 
BRANCH   2   3
ATOM      3  C   UNL A   1      30.590  25.209  25.683  1.00  0.00     0.116 C 
BRANCH   3   4
ATOM      4  N   UNL A   1      30.294  23.804  25.813  1.00  0.00    -0.352 N 
ATOM      5  C   UNL A   1      31.062  22.678  25.632  1.00  0.00     0.253 C 
ATOM      6  O   UNL A   1      30.493  21.605  25.866  1.00  0.00    -0.269 OA
ATOM      7  H   UNL A   1      29.366  23.616  26.081  1.00  0.00     0.163 HD
BRANCH   5   8
ATOM      8  C   UNL A   1      32.489  22.612  25.145  1.00  0.00     0.063 A 
ATOM      9  C   UNL A   1      33.449  21.589  25.297  1.00  0.00     0.055 A 
ATOM     10  C   UNL A   1      34.698  21.673  24.649  1.00  0.00     0.047 A 
ATOM     11  C   UNL A   1      35.040  22.806  23.915  1.00  0.00     0.043 A 
ATOM     12  C   UNL A   1      32.888  23.760  24.419  1.00  0.00     0.017 A 
ATOM     13  Cl  UNL A   1      36.575  22.903  23.149  1.00  0.00    -0.084 Cl
ATOM     14  C   UNL A   1      34.149  23.864  23.820  1.00  0.00     0.021 A 
BRANCH   9  15
ATOM     15  N   UNL A   1      33.177  20.391  25.940  1.00  0.00    -0.321 N 
ATOM     16  C   UNL A   1      32.763  19.154  25.488  1.00  0.00     0.261 C 
ATOM     17  O   UNL A   1      32.493  18.381  26.410  1.00  0.00    -0.269 OA
ATOM     18  H   UNL A   1      33.303  20.431  26.915  1.00  0.00     0.170 HD
BRANCH  16  19
ATOM     19  C   UNL A   1      32.768  18.684  24.097  1.00  0.00     0.105 A 
ATOM     20  C   UNL A   1      33.395  17.454  23.623  1.00  0.00     0.096 A 
ATOM     21  N   UNL A   1      33.131  17.252  22.326  1.00  0.00    -0.084 NA
ATOM     22  O   UNL A   1      32.493  18.362  21.887  1.00  0.00    -0.361 OA
ATOM     23  C   UNL A   1      32.369  19.265  22.892  1.00  0.00     0.146 A 
ATOM     24  C   UNL A   1      31.910  20.561  22.360  1.00  0.00     0.092 C 
BRANCH  20  25
ATOM     25  C   UNL A   1      34.384  16.485  24.209  1.00  0.00     0.057 C 
ATOM     26  C   UNL A   1      33.948  15.513  25.279  1.00  0.00     0.011 C 
ENDBRANCH  20  25
ENDBRANCH  16  19
ENDBRANCH   9  15
ENDBRANCH   5   8
ENDBRANCH   3   4
ENDBRANCH   2   3
ENDBRANCH   1   2
BRANCH   1  27
ATOM     27  C   UNL A   1      31.214  28.194  24.788  1.00  0.00     0.002 C 
BRANCH  27  28
ATOM     28  C   UNL A   1      32.732  28.101  24.964  1.00  0.00     0.021 C 
BRANCH  28  29
ATOM     29  C   UNL A   1      33.504  29.414  25.032  1.00  0.00     0.116 C 
BRANCH  29  30
ATOM     30  N   UNL A   1      32.769  30.477  25.690  1.00  0.00    -0.352 N 
ATOM     31  C   UNL A   1      33.068  31.188  26.827  1.00  0.00     0.251 C 
ATOM     32  H   UNL A   1      31.924  30.729  25.253  1.00  0.00     0.163 HD
ATOM     33  O   UNL A   1      32.229  31.967  27.275  1.00  0.00    -0.269 OA
BRANCH  31  34
ATOM     34  C   UNL A   1      34.362  31.009  27.533  1.00  0.00     0.039 A 
ATOM     35  C   UNL A   1      34.678  29.743  28.034  1.00  0.00     0.014 A 
ATOM     36  C   UNL A   1      35.241  32.075  27.754  1.00  0.00     0.014 A 
ATOM     37  C   UNL A   1      35.881  29.535  28.716  1.00  0.00     0.010 A 
ATOM     38  C   UNL A   1      36.474  31.851  28.368  1.00  0.00     0.010 A 
ATOM     39  C   UNL A   1      36.802  30.583  28.873  1.00  0.00    -0.014 A 
BRANCH  39  40
ATOM     40  C   UNL A   1      38.081  30.378  29.606  1.00  0.00     0.031 A 
ATOM     41  C   UNL A   1      39.172  29.535  28.996  1.00  0.00     0.074 A 
ATOM     42  C   UNL A   1      38.253  30.917  30.829  1.00  0.00     0.049 A 
ATOM     43  N   UNL A   1      40.335  29.195  29.491  1.00  0.00    -0.248 NA
ATOM     44  C   UNL A   1      38.902  28.977  27.663  1.00  0.00     0.031 C 
ATOM     45  C   UNL A   1      37.262  31.725  31.542  1.00  0.00     0.029 A 
ATOM     46  N   UNL A   1      39.321  30.869  31.691  1.00  0.00    -0.354 N 
ATOM     47  C   UNL A   1      40.931  28.375  28.537  1.00  0.00     0.074 A 
ATOM     48  C   UNL A   1      39.968  28.215  27.467  1.00  0.00     0.031 C 
ATOM     49  C   UNL A   1      37.779  32.118  32.718  1.00  0.00     0.029 A 
ATOM     50  C   UNL A   1      39.119  31.559  32.864  1.00  0.00     0.049 A 
ATOM     51  H   UNL A   1      40.154  30.385  31.488  1.00  0.00     0.167 HD
ATOM     52  C   UNL A   1      42.172  27.826  28.537  1.00  0.00     0.034 A 
ATOM     53  C   UNL A   1      39.921  31.720  33.937  1.00  0.00     0.034 A 
ATOM     54  C   UNL A   1      43.125  28.004  29.606  1.00  0.00     0.049 A 
ATOM     55  C   UNL A   1      41.294  31.095  33.919  1.00  0.00     0.074 A 
ATOM     56  C   UNL A   1      44.419  27.520  29.700  1.00  0.00     0.029 A 
ATOM     57  N   UNL A   1      42.891  28.724  30.772  1.00  0.00    -0.354 N 
ATOM     58  N   UNL A   1      41.855  30.350  32.993  1.00  0.00    -0.248 NA
ATOM     59  C   UNL A   1      42.150  31.351  35.084  1.00  0.00     0.031 C 
ATOM     60  C   UNL A   1      44.942  27.893  30.944  1.00  0.00     0.029 A 
ATOM     61  C   UNL A   1      44.007  28.681  31.594  1.00  0.00     0.049 A 
ATOM     62  H   UNL A   1      42.052  29.195  30.983  1.00  0.00     0.167 HD
ATOM     63  C   UNL A   1      43.145  30.089  33.448  1.00  0.00     0.074 A 
ATOM     64  C   UNL A   1      43.281  30.767  34.721  1.00  0.00     0.031 C 
ATOM     65  C   UNL A   1      44.131  29.360  32.863  1.00  0.00     0.034 A 
BRANCH  52  66
ATOM     66  C   UNL A   1      42.548  26.963  27.354  1.00  0.00     0.023 A 
ATOM     67  C   UNL A   1      42.415  25.562  27.387  1.00  0.00     0.031 A 
ATOM     68  C   UNL A   1      43.085  27.540  26.189  1.00  0.00     0.131 A 
ATOM     69  C   UNL A   1      42.890  24.785  26.321  1.00  0.00     0.055 A 
ATOM     70  C   UNL A   1      43.473  26.766  25.093  1.00  0.00     0.041 A 
ATOM     71  F   UNL A   1      43.257  28.868  26.101  1.00  0.00    -0.206 F 
ATOM     72  C   UNL A   1      43.394  25.378  25.162  1.00  0.00     0.022 A 
BRANCH  69  73
ATOM     73  S   UNL A   1      42.989  22.986  26.538  1.00  0.00     0.124 S 
ATOM     74  O   UNL A   1      44.418  22.797  26.778  1.00  0.00    -0.237 OA
ATOM     75  O   UNL A   1      42.113  22.757  27.681  1.00  0.00    -0.237 OA
ATOM     76  O   UNL A   1      42.505  22.461  25.263  1.00  0.00    -0.744 OA
ENDBRANCH  69  73
ENDBRANCH  52  66
BRANCH  53  77
ATOM     77  C   UNL A   1      39.461  32.509  35.116  1.00  0.00     0.023 A 
ATOM     78  C   UNL A   1      38.830  31.883  36.204  1.00  0.00     0.031 A 
ATOM     79  C   UNL A   1      39.598  33.907  35.151  1.00  0.00     0.131 A 
ATOM     80  C   UNL A   1      38.310  32.657  37.253  1.00  0.00     0.055 A 
ATOM     81  C   UNL A   1      39.129  34.668  36.224  1.00  0.00     0.041 A 
ATOM     82  F   UNL A   1      40.198  34.557  34.141  1.00  0.00    -0.206 F 
ATOM     83  C   UNL A   1      38.466  34.044  37.277  1.00  0.00     0.022 A 
BRANCH  80  84
ATOM     84  S   UNL A   1      37.339  31.830  38.545  1.00  0.00     0.124 S 
ATOM     85  O   UNL A   1      36.160  32.683  38.622  1.00  0.00    -0.237 OA
ATOM     86  O   UNL A   1      37.138  30.505  37.968  1.00  0.00    -0.237 OA
ATOM     87  O   UNL A   1      38.220  31.872  39.709  1.00  0.00    -0.744 OA
ENDBRANCH  80  84
ENDBRANCH  53  77
BRANCH  65  88
ATOM     88  C   UNL A   1      45.467  29.323  33.570  1.00  0.00     0.023 A 
ATOM     89  C   UNL A   1      45.772  28.351  34.539  1.00  0.00     0.031 A 
ATOM     90  C   UNL A   1      46.437  30.303  33.291  1.00  0.00     0.131 A 
ATOM     91  C   UNL A   1      46.981  28.424  35.248  1.00  0.00     0.055 A 
ATOM     92  C   UNL A   1      47.667  30.329  33.949  1.00  0.00     0.041 A 
ATOM     93  F   UNL A   1      46.202  31.257  32.377  1.00  0.00    -0.206 F 
ATOM     94  C   UNL A   1      47.937  29.398  34.947  1.00  0.00     0.022 A 
BRANCH  91  95
ATOM     95  S   UNL A   1      47.235  27.308  36.655  1.00  0.00     0.124 S 
ATOM     96  O   UNL A   1      47.879  28.186  37.627  1.00  0.00    -0.237 OA
ATOM     97  O   UNL A   1      45.873  26.895  36.974  1.00  0.00    -0.237 OA
ATOM     98  O   UNL A   1      48.090  26.256  36.108  1.00  0.00    -0.744 OA
ENDBRANCH  91  95
ENDBRANCH  65  88
ENDBRANCH  39  40
ENDBRANCH  31  34
ENDBRANCH  29  30
ENDBRANCH  28  29
ENDBRANCH  27  28
ENDBRANCH   1  27
TORSDOF 19
ENDMDL
MODEL 3
REMARK VINA RESULT:     -11.1      3.226      8.544
REMARK SMILES CCc1noc(C)c1C(=O)Nc1cc(Cl)ccc1C(=O)NCCCCCCNC(=O)c1ccc(-c2c3nc(c(-c4cc(S(=O)(=O)[O-])ccc4F)c4ccc([nH]4)c(-c4cc(S(=O)(=O)[O-])ccc4F)c4nc(c(-c5cc(S(=O)(=O)[O-])ccc5F)c5ccc2[nH]5)C=C4)C=C3)cc1
REMARK SMILES IDX 24 1 23 2 22 3 21 4 19 5 20 6 18 8 12 9 13 10 14 11 17 12
REMARK SMILES IDX 15 13 16 14 11 15 9 16 10 17 8 19 3 20 4 21 5 22 6 23 7 24
REMARK SMILES IDX 2 25 1 26 25 27 26 28 27 29 28 30 29 31 30 33 31 34 32 35
REMARK SMILES IDX 93 36 33 37 92 38 34 39 35 40 36 41 86 42 37 43 91 44 85 45
REMARK SMILES IDX 87 46 38 47 90 48 84 49 83 50 39 52 71 53 51 54 70 55 52 56
REMARK SMILES IDX 55 57 69 58 88 59 53 60 54 61 68 63 89 64 56 65 40 66 41 67
REMARK SMILES IDX 49 68 42 69 48 70 50 71 47 72 43 73 44 74 45 75 46 76 72 77
REMARK SMILES IDX 73 78 81 79 74 80 80 81 82 82 79 83 75 84 76 85 77 86 78 87
REMARK SMILES IDX 57 88 58 89 66 90 59 91 65 92 67 93 64 94 60 95 61 96 62 97
REMARK SMILES IDX 63 98
REMARK H PARENT 21 7 11 18 28 32 87 51 55 62
REMARK Flexibility Score: inf
ROOT
ATOM      1  C   UNL A   1      34.151  29.768  27.400  1.00  0.00     0.002 C 
ENDROOT
BRANCH   1   2
ATOM      2  C   UNL A   1      32.789  29.306  26.875  1.00  0.00     0.021 C 
BRANCH   2   3
ATOM      3  C   UNL A   1      32.135  28.122  27.574  1.00  0.00     0.116 C 
BRANCH   3   4
ATOM      4  N   UNL A   1      31.133  27.401  26.831  1.00  0.00    -0.352 N 
ATOM      5  C   UNL A   1      31.142  26.167  26.225  1.00  0.00     0.253 C 
ATOM      6  O   UNL A   1      30.079  25.829  25.692  1.00  0.00    -0.269 OA
ATOM      7  H   UNL A   1      30.280  27.884  26.739  1.00  0.00     0.163 HD
BRANCH   5   8
ATOM      8  C   UNL A   1      32.307  25.214  26.107  1.00  0.00     0.063 A 
ATOM      9  C   UNL A   1      33.597  25.424  25.574  1.00  0.00     0.055 A 
ATOM     10  C   UNL A   1      34.589  24.429  25.676  1.00  0.00     0.047 A 
ATOM     11  C   UNL A   1      34.291  23.188  26.231  1.00  0.00     0.043 A 
ATOM     12  C   UNL A   1      32.036  23.927  26.632  1.00  0.00     0.017 A 
ATOM     13  Cl  UNL A   1      35.506  21.976  26.328  1.00  0.00    -0.084 Cl
ATOM     14  C   UNL A   1      33.008  22.922  26.685  1.00  0.00     0.021 A 
BRANCH   9  15
ATOM     15  N   UNL A   1      34.013  26.650  25.075  1.00  0.00    -0.321 N 
ATOM     16  C   UNL A   1      33.731  27.335  23.910  1.00  0.00     0.261 C 
ATOM     17  O   UNL A   1      34.426  28.346  23.777  1.00  0.00    -0.269 OA
ATOM     18  H   UNL A   1      34.634  27.127  25.671  1.00  0.00     0.170 HD
BRANCH  16  19
ATOM     19  C   UNL A   1      32.642  27.049  22.967  1.00  0.00     0.105 A 
ATOM     20  C   UNL A   1      31.494  27.913  22.717  1.00  0.00     0.096 A 
ATOM     21  N   UNL A   1      30.736  27.427  21.725  1.00  0.00    -0.084 NA
ATOM     22  O   UNL A   1      31.244  26.210  21.417  1.00  0.00    -0.361 OA
ATOM     23  C   UNL A   1      32.302  25.923  22.217  1.00  0.00     0.146 A 
ATOM     24  C   UNL A   1      32.692  24.509  22.059  1.00  0.00     0.092 C 
BRANCH  20  25
ATOM     25  C   UNL A   1      30.898  29.101  23.420  1.00  0.00     0.057 C 
ATOM     26  C   UNL A   1      29.400  29.293  23.444  1.00  0.00     0.011 C 
ENDBRANCH  20  25
ENDBRANCH  16  19
ENDBRANCH   9  15
ENDBRANCH   5   8
ENDBRANCH   3   4
ENDBRANCH   2   3
ENDBRANCH   1   2
BRANCH   1  27
ATOM     27  C   UNL A   1      34.274  31.201  27.925  1.00  0.00     0.002 C 
BRANCH  27  28
ATOM     28  C   UNL A   1      33.025  32.086  27.897  1.00  0.00     0.021 C 
BRANCH  28  29
ATOM     29  C   UNL A   1      33.145  33.433  27.194  1.00  0.00     0.116 C 
BRANCH  29  30
ATOM     30  N   UNL A   1      32.741  34.551  28.025  1.00  0.00    -0.352 N 
ATOM     31  C   UNL A   1      33.205  34.956  29.252  1.00  0.00     0.251 C 
ATOM     32  H   UNL A   1      32.020  35.107  27.649  1.00  0.00     0.163 HD
ATOM     33  O   UNL A   1      32.623  35.870  29.833  1.00  0.00    -0.269 OA
BRANCH  31  34
ATOM     34  C   UNL A   1      34.369  34.295  29.896  1.00  0.00     0.039 A 
ATOM     35  C   UNL A   1      34.136  33.455  30.990  1.00  0.00     0.014 A 
ATOM     36  C   UNL A   1      35.682  34.527  29.475  1.00  0.00     0.014 A 
ATOM     37  C   UNL A   1      35.205  32.822  31.632  1.00  0.00     0.010 A 
ATOM     38  C   UNL A   1      36.741  33.837  30.067  1.00  0.00     0.010 A 
ATOM     39  C   UNL A   1      36.518  32.991  31.164  1.00  0.00    -0.014 A 
BRANCH  39  40
ATOM     40  C   UNL A   1      37.666  32.332  31.846  1.00  0.00     0.031 A 
ATOM     41  C   UNL A   1      38.402  31.207  31.164  1.00  0.00     0.074 A 
ATOM     42  C   UNL A   1      38.029  32.719  33.085  1.00  0.00     0.049 A 
ATOM     43  N   UNL A   1      39.392  30.473  31.605  1.00  0.00    -0.248 NA
ATOM     44  C   UNL A   1      37.939  30.841  29.817  1.00  0.00     0.031 C 
ATOM     45  C   UNL A   1      37.378  33.773  33.865  1.00  0.00     0.029 A 
ATOM     46  N   UNL A   1      39.033  32.271  33.908  1.00  0.00    -0.354 N 
ATOM     47  C   UNL A   1      39.662  29.551  30.597  1.00  0.00     0.074 A 
ATOM     48  C   UNL A   1      38.684  29.779  29.553  1.00  0.00     0.031 C 
ATOM     49  C   UNL A   1      38.015  33.909  35.040  1.00  0.00     0.029 A 
ATOM     50  C   UNL A   1      39.093  32.927  35.116  1.00  0.00     0.049 A 
ATOM     51  H   UNL A   1      39.652  31.549  33.657  1.00  0.00     0.167 HD
ATOM     52  C   UNL A   1      40.647  28.620  30.532  1.00  0.00     0.034 A 
ATOM     53  C   UNL A   1      39.919  32.755  36.168  1.00  0.00     0.034 A 
ATOM     54  C   UNL A   1      41.623  28.413  31.576  1.00  0.00     0.049 A 
ATOM     55  C   UNL A   1      41.004  31.709  36.079  1.00  0.00     0.074 A 
ATOM     56  C   UNL A   1      42.681  27.521  31.607  1.00  0.00     0.029 A 
ATOM     57  N   UNL A   1      41.662  29.109  32.780  1.00  0.00    -0.354 N 
ATOM     58  N   UNL A   1      41.267  30.869  35.103  1.00  0.00    -0.248 NA
ATOM     59  C   UNL A   1      41.914  31.604  37.225  1.00  0.00     0.031 C 
ATOM     60  C   UNL A   1      43.318  27.633  32.848  1.00  0.00     0.029 A 
ATOM     61  C   UNL A   1      42.712  28.652  33.562  1.00  0.00     0.049 A 
ATOM     62  H   UNL A   1      41.033  29.822  33.039  1.00  0.00     0.167 HD
ATOM     63  C   UNL A   1      42.402  30.169  35.503  1.00  0.00     0.074 A 
ATOM     64  C   UNL A   1      42.778  30.694  36.800  1.00  0.00     0.031 C 
ATOM     65  C   UNL A   1      43.077  29.184  34.855  1.00  0.00     0.034 A 
BRANCH  52  66
ATOM     66  C   UNL A   1      40.694  27.744  29.301  1.00  0.00     0.023 A 
ATOM     67  C   UNL A   1      41.636  27.954  28.278  1.00  0.00     0.031 A 
ATOM     68  C   UNL A   1      39.761  26.706  29.126  1.00  0.00     0.131 A 
ATOM     69  C   UNL A   1      41.570  27.203  27.095  1.00  0.00     0.055 A 
ATOM     70  C   UNL A   1      39.757  25.902  27.985  1.00  0.00     0.041 A 
ATOM     71  F   UNL A   1      38.823  26.466  30.056  1.00  0.00    -0.206 F 
ATOM     72  C   UNL A   1      40.654  26.159  26.952  1.00  0.00     0.022 A 
BRANCH  69  73
ATOM     73  S   UNL A   1      42.591  27.716  25.686  1.00  0.00     0.124 S 
ATOM     74  O   UNL A   1      41.971  28.986  25.320  1.00  0.00    -0.237 OA
ATOM     75  O   UNL A   1      43.922  27.800  26.274  1.00  0.00    -0.237 OA
ATOM     76  O   UNL A   1      42.402  26.638  24.717  1.00  0.00    -0.744 OA
ENDBRANCH  69  73
ENDBRANCH  52  66
BRANCH  53  77
ATOM     77  C   UNL A   1      39.769  33.589  37.396  1.00  0.00     0.023 A 
ATOM     78  C   UNL A   1      40.537  34.751  37.580  1.00  0.00     0.031 A 
ATOM     79  C   UNL A   1      38.893  33.209  38.428  1.00  0.00     0.131 A 
ATOM     80  C   UNL A   1      40.456  35.460  38.789  1.00  0.00     0.055 A 
ATOM     81  C   UNL A   1      38.775  33.949  39.605  1.00  0.00     0.041 A 
ATOM     82  F   UNL A   1      38.132  32.110  38.302  1.00  0.00    -0.206 F 
ATOM     83  C   UNL A   1      39.571  35.075  39.797  1.00  0.00     0.022 A 
BRANCH  80  84
ATOM     84  S   UNL A   1      41.597  36.845  39.062  1.00  0.00     0.124 S 
ATOM     85  O   UNL A   1      42.397  36.354  40.178  1.00  0.00    -0.237 OA
ATOM     86  O   UNL A   1      42.276  36.934  37.773  1.00  0.00    -0.237 OA
ATOM     87  O   UNL A   1      40.707  37.961  39.373  1.00  0.00    -0.744 OA
ENDBRANCH  80  84
ENDBRANCH  53  77
BRANCH  65  88
ATOM     88  C   UNL A   1      44.334  28.666  35.516  1.00  0.00     0.023 A 
ATOM     89  C   UNL A   1      44.306  27.634  36.470  1.00  0.00     0.031 A 
ATOM     90  C   UNL A   1      45.580  29.243  35.207  1.00  0.00     0.131 A 
ATOM     91  C   UNL A   1      45.484  27.264  37.137  1.00  0.00     0.055 A 
ATOM     92  C   UNL A   1      46.759  28.823  35.823  1.00  0.00     0.041 A 
ATOM     93  F   UNL A   1      45.670  30.233  34.305  1.00  0.00    -0.206 F 
ATOM     94  C   UNL A   1      46.713  27.841  36.807  1.00  0.00     0.022 A 
BRANCH  91  95
ATOM     95  S   UNL A   1      45.370  26.108  38.531  1.00  0.00     0.124 S 
ATOM     96  O   UNL A   1      44.385  26.761  39.387  1.00  0.00    -0.237 OA
ATOM     97  O   UNL A   1      44.932  24.878  37.880  1.00  0.00    -0.237 OA
ATOM     98  O   UNL A   1      46.731  26.077  39.063  1.00  0.00    -0.744 OA
ENDBRANCH  91  95
ENDBRANCH  65  88
ENDBRANCH  39  40
ENDBRANCH  31  34
ENDBRANCH  29  30
ENDBRANCH  28  29
ENDBRANCH  27  28
ENDBRANCH   1  27
TORSDOF 19
ENDMDL
