MODEL 1
REMARK VINA RESULT:     -11.6      0.000      0.000
REMARK SMILES CC(C)(C)c1ccc(NS(=O)(=O)c2cccc(C(=O)NCCCCCCNC(=O)c3ccc(-c4c5nc(c(-c6cc(S(=O)(=O)[O-])ccc6F)c6ccc([nH]6)c(-c6cc(S(=O)(=O)[O-])ccc6F)c6nc(c(-c7cc(S(=O)(=O)[O-])ccc7F)c7ccc4[nH]7)C=C6)C=C5)cc3)c2)cc1
REMARK SMILES IDX 23 1 22 2 21 3 20 4 18 5 19 6 17 8 13 9 14 10 93 11 15 12
REMARK SMILES IDX 16 13 10 14 11 15 12 16 9 17 8 19 5 20 6 21 95 22 7 23 94 24
REMARK SMILES IDX 2 25 1 26 3 27 4 28 24 29 25 30 26 31 27 32 28 33 29 35
REMARK SMILES IDX 30 36 31 37 92 38 32 39 91 40 33 41 34 42 35 43 85 44 36 45
REMARK SMILES IDX 90 46 84 47 86 48 37 49 89 50 83 51 82 52 38 54 70 55 50 56
REMARK SMILES IDX 69 57 51 58 54 59 68 60 87 61 52 62 53 63 67 65 88 66 55 67
REMARK SMILES IDX 39 68 40 69 48 70 41 71 47 72 49 73 46 74 42 75 43 76 44 77
REMARK SMILES IDX 45 78 71 79 72 80 80 81 73 82 79 83 81 84 78 85 74 86 75 87
REMARK SMILES IDX 76 88 77 89 56 90 57 91 65 92 58 93 64 94 66 95 63 96 59 97
REMARK SMILES IDX 60 98 61 99 62 100
REMARK H PARENT 20 7 9 18 27 34 86 53 54 64
REMARK Flexibility Score: inf
ROOT
ATOM      1  C   UNL A   1      35.110  31.857  27.911  1.00  0.00     0.002 C 
ENDROOT
BRANCH   1   2
ATOM      2  C   UNL A   1      33.743  31.243  27.627  1.00  0.00     0.021 C 
BRANCH   2   3
ATOM      3  C   UNL A   1      33.737  29.829  27.063  1.00  0.00     0.116 C 
BRANCH   3   4
ATOM      4  N   UNL A   1      33.652  29.755  25.610  1.00  0.00    -0.352 N 
ATOM      5  C   UNL A   1      33.223  28.725  24.799  1.00  0.00     0.251 C 
ATOM      6  O   UNL A   1      33.257  28.848  23.577  1.00  0.00    -0.269 OA
ATOM      7  H   UNL A   1      33.945  30.566  25.134  1.00  0.00     0.163 HD
BRANCH   5   8
ATOM      8  C   UNL A   1      32.770  27.439  25.388  1.00  0.00     0.041 A 
ATOM      9  C   UNL A   1      33.159  25.098  25.830  1.00  0.00     0.088 A 
ATOM     10  C   UNL A   1      31.809  24.909  26.129  1.00  0.00     0.022 A 
ATOM     11  C   UNL A   1      33.650  26.375  25.550  1.00  0.00     0.036 A 
ATOM     12  C   UNL A   1      30.953  26.017  26.132  1.00  0.00     0.002 A 
ATOM     13  C   UNL A   1      31.426  27.276  25.743  1.00  0.00     0.014 A 
BRANCH   9  14
ATOM     14  S   UNL A   1      34.330  23.760  25.762  1.00  0.00     0.261 S 
ATOM     15  O   UNL A   1      34.390  23.177  27.087  1.00  0.00    -0.201 OA
ATOM     16  O   UNL A   1      35.509  24.296  25.122  1.00  0.00    -0.201 OA
BRANCH  14  17
ATOM     17  N   UNL A   1      33.710  22.619  24.726  1.00  0.00    -0.280 N 
ATOM     18  H   UNL A   1      33.331  22.945  23.878  1.00  0.00     0.180 HD
BRANCH  17  19
ATOM     19  C   UNL A   1      33.676  21.222  24.951  1.00  0.00     0.049 A 
ATOM     20  C   UNL A   1      33.799  18.416  24.730  1.00  0.00    -0.042 A 
ATOM     21  C   UNL A   1      32.571  19.075  24.880  1.00  0.00     0.006 A 
ATOM     22  C   UNL A   1      34.966  19.184  24.884  1.00  0.00     0.006 A 
ATOM     23  C   UNL A   1      32.513  20.463  25.026  1.00  0.00     0.027 A 
ATOM     24  C   UNL A   1      34.906  20.572  24.981  1.00  0.00     0.027 A 
BRANCH  20  25
ATOM     25  C   UNL A   1      33.903  16.932  24.354  1.00  0.00    -0.013 C 
ATOM     26  C   UNL A   1      34.025  16.683  22.834  1.00  0.00     0.016 C 
ATOM     27  C   UNL A   1      32.664  16.178  24.865  1.00  0.00     0.016 C 
ATOM     28  C   UNL A   1      35.177  16.338  25.002  1.00  0.00     0.016 C 
ENDBRANCH  20  25
ENDBRANCH  17  19
ENDBRANCH  14  17
ENDBRANCH   9  14
ENDBRANCH   5   8
ENDBRANCH   3   4
ENDBRANCH   2   3
ENDBRANCH   1   2
BRANCH   1  29
ATOM     29  C   UNL A   1      35.161  33.379  28.064  1.00  0.00     0.002 C 
BRANCH  29  30
ATOM     30  C   UNL A   1      33.821  34.109  28.199  1.00  0.00     0.021 C 
BRANCH  30  31
ATOM     31  C   UNL A   1      33.876  35.535  28.741  1.00  0.00     0.116 C 
BRANCH  31  32
ATOM     32  N   UNL A   1      33.102  35.707  29.957  1.00  0.00    -0.352 N 
ATOM     33  C   UNL A   1      33.278  35.149  31.199  1.00  0.00     0.251 C 
ATOM     34  H   UNL A   1      32.335  36.319  29.880  1.00  0.00     0.163 HD
ATOM     35  O   UNL A   1      32.420  35.322  32.061  1.00  0.00    -0.269 OA
BRANCH  33  36
ATOM     36  C   UNL A   1      34.470  34.319  31.498  1.00  0.00     0.039 A 
ATOM     37  C   UNL A   1      35.714  34.951  31.600  1.00  0.00     0.014 A 
ATOM     38  C   UNL A   1      34.383  32.932  31.647  1.00  0.00     0.014 A 
ATOM     39  C   UNL A   1      36.854  34.204  31.911  1.00  0.00     0.010 A 
ATOM     40  C   UNL A   1      35.510  32.198  32.020  1.00  0.00     0.010 A 
ATOM     41  C   UNL A   1      36.757  32.825  32.155  1.00  0.00    -0.014 A 
BRANCH  41  42
ATOM     42  C   UNL A   1      37.953  32.031  32.547  1.00  0.00     0.031 A 
ATOM     43  C   UNL A   1      38.663  32.315  33.843  1.00  0.00     0.074 A 
ATOM     44  C   UNL A   1      38.432  31.090  31.709  1.00  0.00     0.049 A 
ATOM     45  N   UNL A   1      39.749  31.771  34.331  1.00  0.00    -0.248 NA
ATOM     46  C   UNL A   1      38.090  33.373  34.687  1.00  0.00     0.031 C 
ATOM     47  C   UNL A   1      37.860  30.754  30.404  1.00  0.00     0.029 A 
ATOM     48  N   UNL A   1      39.513  30.252  31.823  1.00  0.00    -0.354 N 
ATOM     49  C   UNL A   1      39.998  32.426  35.533  1.00  0.00     0.074 A 
ATOM     50  C   UNL A   1      38.980  33.449  35.665  1.00  0.00     0.031 C 
ATOM     51  C   UNL A   1      38.583  29.769  29.847  1.00  0.00     0.029 A 
ATOM     52  C   UNL A   1      39.691  29.429  30.735  1.00  0.00     0.049 A 
ATOM     53  H   UNL A   1      40.105  30.240  32.609  1.00  0.00     0.167 HD
ATOM     54  C   UNL A   1      40.969  32.185  36.448  1.00  0.00     0.034 A 
ATOM     55  C   UNL A   1      40.645  28.514  30.474  1.00  0.00     0.034 A 
ATOM     56  C   UNL A   1      41.971  31.156  36.305  1.00  0.00     0.049 A 
ATOM     57  C   UNL A   1      41.722  28.269  31.499  1.00  0.00     0.074 A 
ATOM     58  C   UNL A   1      42.961  30.782  37.199  1.00  0.00     0.029 A 
ATOM     59  N   UNL A   1      42.120  30.339  35.190  1.00  0.00    -0.354 N 
ATOM     60  N   UNL A   1      41.910  28.859  32.658  1.00  0.00    -0.248 NA
ATOM     61  C   UNL A   1      42.709  27.229  31.185  1.00  0.00     0.031 C 
ATOM     62  C   UNL A   1      43.745  29.790  36.599  1.00  0.00     0.029 A 
ATOM     63  C   UNL A   1      43.204  29.489  35.359  1.00  0.00     0.049 A 
ATOM     64  H   UNL A   1      41.541  30.360  34.395  1.00  0.00     0.167 HD
ATOM     65  C   UNL A   1      43.024  28.243  33.220  1.00  0.00     0.074 A 
ATOM     66  C   UNL A   1      43.452  27.225  32.282  1.00  0.00     0.031 C 
ATOM     67  C   UNL A   1      43.636  28.494  34.405  1.00  0.00     0.034 A 
BRANCH  54  68
ATOM     68  C   UNL A   1      41.006  33.076  37.669  1.00  0.00     0.023 A 
ATOM     69  C   UNL A   1      40.330  32.734  38.854  1.00  0.00     0.031 A 
ATOM     70  C   UNL A   1      41.693  34.302  37.638  1.00  0.00     0.131 A 
ATOM     71  C   UNL A   1      40.282  33.642  39.923  1.00  0.00     0.055 A 
ATOM     72  C   UNL A   1      41.714  35.164  38.737  1.00  0.00     0.041 A 
ATOM     73  F   UNL A   1      42.344  34.693  36.531  1.00  0.00    -0.206 F 
ATOM     74  C   UNL A   1      40.990  34.845  39.882  1.00  0.00     0.022 A 
BRANCH  71  75
ATOM     75  S   UNL A   1      39.155  33.298  41.302  1.00  0.00     0.124 S 
ATOM     76  O   UNL A   1      37.901  33.857  40.804  1.00  0.00    -0.237 OA
ATOM     77  O   UNL A   1      39.212  31.844  41.401  1.00  0.00    -0.237 OA
ATOM     78  O   UNL A   1      39.752  34.024  42.422  1.00  0.00    -0.744 OA
ENDBRANCH  71  75
ENDBRANCH  54  68
BRANCH  55  79
ATOM     79  C   UNL A   1      40.635  27.763  29.186  1.00  0.00     0.023 A 
ATOM     80  C   UNL A   1      41.535  28.080  28.157  1.00  0.00     0.031 A 
ATOM     81  C   UNL A   1      39.702  26.737  28.957  1.00  0.00     0.131 A 
ATOM     82  C   UNL A   1      41.459  27.403  26.929  1.00  0.00     0.055 A 
ATOM     83  C   UNL A   1      39.661  26.034  27.752  1.00  0.00     0.041 A 
ATOM     84  F   UNL A   1      38.824  26.392  29.911  1.00  0.00    -0.206 F 
ATOM     85  C   UNL A   1      40.537  26.374  26.725  1.00  0.00     0.022 A 
BRANCH  82  86
ATOM     86  S   UNL A   1      42.544  27.934  25.576  1.00  0.00     0.124 S 
ATOM     87  O   UNL A   1      41.900  29.169  25.145  1.00  0.00    -0.237 OA
ATOM     88  O   UNL A   1      43.827  28.081  26.256  1.00  0.00    -0.237 OA
ATOM     89  O   UNL A   1      42.469  26.826  24.626  1.00  0.00    -0.744 OA
ENDBRANCH  82  86
ENDBRANCH  55  79
BRANCH  67  90
ATOM     90  C   UNL A   1      44.819  27.625  34.758  1.00  0.00     0.023 A 
ATOM     91  C   UNL A   1      44.660  26.390  35.412  1.00  0.00     0.031 A 
ATOM     92  C   UNL A   1      46.126  28.051  34.459  1.00  0.00     0.131 A 
ATOM     93  C   UNL A   1      45.789  25.654  35.800  1.00  0.00     0.055 A 
ATOM     94  C   UNL A   1      47.243  27.285  34.794  1.00  0.00     0.041 A 
ATOM     95  F   UNL A   1      46.337  29.223  33.838  1.00  0.00    -0.206 F 
ATOM     96  C   UNL A   1      47.079  26.085  35.481  1.00  0.00     0.022 A 
BRANCH  93  97
ATOM     97  S   UNL A   1      45.555  24.167  36.813  1.00  0.00     0.124 S 
ATOM     98  O   UNL A   1      46.924  23.689  36.972  1.00  0.00    -0.237 OA
ATOM     99  O   UNL A   1      44.924  24.704  38.014  1.00  0.00    -0.237 OA
ATOM    100  O   UNL A   1      44.695  23.321  35.987  1.00  0.00    -0.744 OA
ENDBRANCH  93  97
ENDBRANCH  67  90
ENDBRANCH  41  42
ENDBRANCH  33  36
ENDBRANCH  31  32
ENDBRANCH  30  31
ENDBRANCH  29  30
ENDBRANCH   1  29
TORSDOF 20
ENDMDL
MODEL 2
REMARK VINA RESULT:     -11.3      2.361      7.988
REMARK SMILES CC(C)(C)c1ccc(NS(=O)(=O)c2cccc(C(=O)NCCCCCCNC(=O)c3ccc(-c4c5nc(c(-c6cc(S(=O)(=O)[O-])ccc6F)c6ccc([nH]6)c(-c6cc(S(=O)(=O)[O-])ccc6F)c6nc(c(-c7cc(S(=O)(=O)[O-])ccc7F)c7ccc4[nH]7)C=C6)C=C5)cc3)c2)cc1
REMARK SMILES IDX 23 1 22 2 21 3 20 4 18 5 19 6 17 8 13 9 14 10 93 11 15 12
REMARK SMILES IDX 16 13 10 14 11 15 12 16 9 17 8 19 5 20 6 21 95 22 7 23 94 24
REMARK SMILES IDX 2 25 1 26 3 27 4 28 24 29 25 30 26 31 27 32 28 33 29 35
REMARK SMILES IDX 30 36 31 37 92 38 32 39 91 40 33 41 34 42 35 43 85 44 36 45
REMARK SMILES IDX 90 46 84 47 86 48 37 49 89 50 83 51 82 52 38 54 70 55 50 56
REMARK SMILES IDX 69 57 51 58 54 59 68 60 87 61 52 62 53 63 67 65 88 66 55 67
REMARK SMILES IDX 39 68 40 69 48 70 41 71 47 72 49 73 46 74 42 75 43 76 44 77
REMARK SMILES IDX 45 78 71 79 72 80 80 81 73 82 79 83 81 84 78 85 74 86 75 87
REMARK SMILES IDX 76 88 77 89 56 90 57 91 65 92 58 93 64 94 66 95 63 96 59 97
REMARK SMILES IDX 60 98 61 99 62 100
REMARK H PARENT 20 7 9 18 27 34 86 53 54 64
REMARK Flexibility Score: inf
ROOT
ATOM      1  C   UNL A   1      33.076  29.659  26.508  1.00  0.00     0.002 C 
ENDROOT
BRANCH   1   2
ATOM      2  C   UNL A   1      33.576  28.637  25.491  1.00  0.00     0.021 C 
BRANCH   2   3
ATOM      3  C   UNL A   1      33.411  27.171  25.864  1.00  0.00     0.116 C 
BRANCH   3   4
ATOM      4  N   UNL A   1      32.030  26.708  25.915  1.00  0.00    -0.352 N 
ATOM      5  C   UNL A   1      31.466  25.546  25.433  1.00  0.00     0.251 C 
ATOM      6  O   UNL A   1      30.258  25.352  25.550  1.00  0.00    -0.269 OA
ATOM      7  H   UNL A   1      31.403  27.320  26.366  1.00  0.00     0.163 HD
BRANCH   5   8
ATOM      8  C   UNL A   1      32.297  24.545  24.716  1.00  0.00     0.041 A 
ATOM      9  C   UNL A   1      33.679  22.567  24.763  1.00  0.00     0.088 A 
ATOM     10  C   UNL A   1      34.180  22.861  23.495  1.00  0.00     0.022 A 
ATOM     11  C   UNL A   1      32.677  23.356  25.329  1.00  0.00     0.036 A 
ATOM     12  C   UNL A   1      33.671  23.967  22.804  1.00  0.00     0.002 A 
ATOM     13  C   UNL A   1      32.747  24.820  23.420  1.00  0.00     0.014 A 
BRANCH   9  14
ATOM     14  S   UNL A   1      34.277  21.209  25.746  1.00  0.00     0.261 S 
ATOM     15  O   UNL A   1      33.206  20.236  25.826  1.00  0.00    -0.201 OA
ATOM     16  O   UNL A   1      34.846  21.800  26.936  1.00  0.00    -0.201 OA
BRANCH  14  17
ATOM     17  N   UNL A   1      35.538  20.519  24.914  1.00  0.00    -0.280 N 
ATOM     18  H   UNL A   1      35.312  19.811  24.269  1.00  0.00     0.180 HD
BRANCH  17  19
ATOM     19  C   UNL A   1      36.907  20.857  25.046  1.00  0.00     0.049 A 
ATOM     20  C   UNL A   1      39.555  21.230  25.932  1.00  0.00    -0.042 A 
ATOM     21  C   UNL A   1      38.682  22.317  25.790  1.00  0.00     0.006 A 
ATOM     22  C   UNL A   1      39.122  19.986  25.439  1.00  0.00     0.006 A 
ATOM     23  C   UNL A   1      37.380  22.137  25.316  1.00  0.00     0.027 A 
ATOM     24  C   UNL A   1      37.809  19.799  25.013  1.00  0.00     0.027 A 
BRANCH  20  25
ATOM     25  C   UNL A   1      40.910  21.342  26.644  1.00  0.00    -0.013 C 
ATOM     26  C   UNL A   1      41.981  22.097  25.827  1.00  0.00     0.016 C 
ATOM     27  C   UNL A   1      41.449  19.936  26.957  1.00  0.00     0.016 C 
ATOM     28  C   UNL A   1      40.721  22.132  27.962  1.00  0.00     0.016 C 
ENDBRANCH  20  25
ENDBRANCH  17  19
ENDBRANCH  14  17
ENDBRANCH   9  14
ENDBRANCH   5   8
ENDBRANCH   3   4
ENDBRANCH   2   3
ENDBRANCH   1   2
BRANCH   1  29
ATOM     29  C   UNL A   1      31.744  30.343  26.194  1.00  0.00     0.002 C 
BRANCH  29  30
ATOM     30  C   UNL A   1      31.626  31.830  26.541  1.00  0.00     0.021 C 
BRANCH  30  31
ATOM     31  C   UNL A   1      32.857  32.483  27.162  1.00  0.00     0.116 C 
BRANCH  31  32
ATOM     32  N   UNL A   1      32.618  33.850  27.585  1.00  0.00    -0.352 N 
ATOM     33  C   UNL A   1      33.220  34.583  28.579  1.00  0.00     0.251 C 
ATOM     34  H   UNL A   1      31.919  34.326  27.082  1.00  0.00     0.163 HD
ATOM     35  O   UNL A   1      32.767  35.689  28.866  1.00  0.00    -0.269 OA
BRANCH  33  36
ATOM     36  C   UNL A   1      34.382  34.042  29.325  1.00  0.00     0.039 A 
ATOM     37  C   UNL A   1      34.141  33.180  30.400  1.00  0.00     0.014 A 
ATOM     38  C   UNL A   1      35.694  34.396  29.000  1.00  0.00     0.014 A 
ATOM     39  C   UNL A   1      35.213  32.627  31.106  1.00  0.00     0.010 A 
ATOM     40  C   UNL A   1      36.764  33.794  29.664  1.00  0.00     0.010 A 
ATOM     41  C   UNL A   1      36.535  32.904  30.724  1.00  0.00    -0.014 A 
BRANCH  41  42
ATOM     42  C   UNL A   1      37.684  32.273  31.429  1.00  0.00     0.031 A 
ATOM     43  C   UNL A   1      38.447  31.148  30.784  1.00  0.00     0.074 A 
ATOM     44  C   UNL A   1      38.006  32.677  32.674  1.00  0.00     0.049 A 
ATOM     45  N   UNL A   1      39.438  30.437  31.259  1.00  0.00    -0.248 NA
ATOM     46  C   UNL A   1      38.017  30.752  29.435  1.00  0.00     0.031 C 
ATOM     47  C   UNL A   1      37.313  33.726  33.425  1.00  0.00     0.029 A 
ATOM     48  N   UNL A   1      38.987  32.249  33.532  1.00  0.00    -0.354 N 
ATOM     49  C   UNL A   1      39.744  29.502  30.275  1.00  0.00     0.074 A 
ATOM     50  C   UNL A   1      38.790  29.701  29.203  1.00  0.00     0.031 C 
ATOM     51  C   UNL A   1      37.903  33.873  34.622  1.00  0.00     0.029 A 
ATOM     52  C   UNL A   1      38.989  32.905  34.742  1.00  0.00     0.049 A 
ATOM     53  H   UNL A   1      39.631  31.540  33.304  1.00  0.00     0.167 HD
ATOM     54  C   UNL A   1      40.737  28.578  30.258  1.00  0.00     0.034 A 
ATOM     55  C   UNL A   1      39.768  32.739  35.828  1.00  0.00     0.034 A 
ATOM     56  C   UNL A   1      41.685  28.398  31.332  1.00  0.00     0.049 A 
ATOM     57  C   UNL A   1      40.858  31.699  35.793  1.00  0.00     0.074 A 
ATOM     58  C   UNL A   1      42.769  27.538  31.392  1.00  0.00     0.029 A 
ATOM     59  N   UNL A   1      41.658  29.082  32.542  1.00  0.00    -0.354 N 
ATOM     60  N   UNL A   1      41.171  30.861  34.832  1.00  0.00    -0.248 NA
ATOM     61  C   UNL A   1      41.707  31.592  36.986  1.00  0.00     0.031 C 
ATOM     62  C   UNL A   1      43.355  27.655  32.659  1.00  0.00     0.029 A 
ATOM     63  C   UNL A   1      42.684  28.640  33.366  1.00  0.00     0.049 A 
ATOM     64  H   UNL A   1      41.006  29.779  32.780  1.00  0.00     0.167 HD
ATOM     65  C   UNL A   1      42.268  30.142  35.297  1.00  0.00     0.074 A 
ATOM     66  C   UNL A   1      42.573  30.660  36.616  1.00  0.00     0.031 C 
ATOM     67  C   UNL A   1      42.963  29.147  34.690  1.00  0.00     0.034 A 
BRANCH  54  68
ATOM     68  C   UNL A   1      40.822  27.675  29.049  1.00  0.00     0.023 A 
ATOM     69  C   UNL A   1      41.779  27.881  28.039  1.00  0.00     0.031 A 
ATOM     70  C   UNL A   1      39.911  26.618  28.881  1.00  0.00     0.131 A 
ATOM     71  C   UNL A   1      41.748  27.102  26.872  1.00  0.00     0.055 A 
ATOM     72  C   UNL A   1      39.940  25.790  27.756  1.00  0.00     0.041 A 
ATOM     73  F   UNL A   1      38.963  26.380  29.802  1.00  0.00    -0.206 F 
ATOM     74  C   UNL A   1      40.851  26.042  26.734  1.00  0.00     0.022 A 
BRANCH  71  75
ATOM     75  S   UNL A   1      42.793  27.595  25.473  1.00  0.00     0.124 S 
ATOM     76  O   UNL A   1      42.074  28.760  24.964  1.00  0.00    -0.237 OA
ATOM     77  O   UNL A   1      44.074  27.865  26.116  1.00  0.00    -0.237 OA
ATOM     78  O   UNL A   1      42.768  26.425  24.598  1.00  0.00    -0.744 OA
ENDBRANCH  71  75
ENDBRANCH  54  68
BRANCH  55  79
ATOM     79  C   UNL A   1      39.544  33.567  37.047  1.00  0.00     0.023 A 
ATOM     80  C   UNL A   1      40.323  34.706  37.302  1.00  0.00     0.031 A 
ATOM     81  C   UNL A   1      38.564  33.210  37.991  1.00  0.00     0.131 A 
ATOM     82  C   UNL A   1      40.137  35.428  38.492  1.00  0.00     0.055 A 
ATOM     83  C   UNL A   1      38.349  33.959  39.149  1.00  0.00     0.041 A 
ATOM     84  F   UNL A   1      37.789  32.133  37.790  1.00  0.00    -0.206 F 
ATOM     85  C   UNL A   1      39.147  35.069  39.410  1.00  0.00     0.022 A 
BRANCH  82  86
ATOM     86  S   UNL A   1      41.255  36.810  38.854  1.00  0.00     0.124 S 
ATOM     87  O   UNL A   1      41.958  36.964  37.586  1.00  0.00    -0.237 OA
ATOM     88  O   UNL A   1      40.318  37.873  39.203  1.00  0.00    -0.237 OA
ATOM     89  O   UNL A   1      42.066  36.309  39.961  1.00  0.00    -0.744 OA
ENDBRANCH  82  86
ENDBRANCH  55  79
BRANCH  67  90
ATOM     90  C   UNL A   1      44.140  28.579  35.445  1.00  0.00     0.023 A 
ATOM     91  C   UNL A   1      43.989  27.522  36.361  1.00  0.00     0.031 A 
ATOM     92  C   UNL A   1      45.425  29.120  35.265  1.00  0.00     0.131 A 
ATOM     93  C   UNL A   1      45.093  27.081  37.106  1.00  0.00     0.055 A 
ATOM     94  C   UNL A   1      46.531  28.636  35.966  1.00  0.00     0.041 A 
ATOM     95  F   UNL A   1      45.627  30.132  34.405  1.00  0.00    -0.206 F 
ATOM     96  C   UNL A   1      46.366  27.620  36.903  1.00  0.00     0.022 A 
BRANCH  93  97
ATOM     97  S   UNL A   1      44.825  25.855  38.417  1.00  0.00     0.124 S 
ATOM     98  O   UNL A   1      43.662  25.128  37.920  1.00  0.00    -0.237 OA
ATOM     99  O   UNL A   1      46.085  25.118  38.417  1.00  0.00    -0.237 OA
ATOM    100  O   UNL A   1      44.585  26.671  39.606  1.00  0.00    -0.744 OA
ENDBRANCH  93  97
ENDBRANCH  67  90
ENDBRANCH  41  42
ENDBRANCH  33  36
ENDBRANCH  31  32
ENDBRANCH  30  31
ENDBRANCH  29  30
ENDBRANCH   1  29
TORSDOF 20
ENDMDL
MODEL 3
REMARK VINA RESULT:     -11.3      2.440      8.207
REMARK SMILES CC(C)(C)c1ccc(NS(=O)(=O)c2cccc(C(=O)NCCCCCCNC(=O)c3ccc(-c4c5nc(c(-c6cc(S(=O)(=O)[O-])ccc6F)c6ccc([nH]6)c(-c6cc(S(=O)(=O)[O-])ccc6F)c6nc(c(-c7cc(S(=O)(=O)[O-])ccc7F)c7ccc4[nH]7)C=C6)C=C5)cc3)c2)cc1
REMARK SMILES IDX 23 1 22 2 21 3 20 4 18 5 19 6 17 8 13 9 14 10 93 11 15 12
REMARK SMILES IDX 16 13 10 14 11 15 12 16 9 17 8 19 5 20 6 21 95 22 7 23 94 24
REMARK SMILES IDX 2 25 1 26 3 27 4 28 24 29 25 30 26 31 27 32 28 33 29 35
REMARK SMILES IDX 30 36 31 37 92 38 32 39 91 40 33 41 34 42 35 43 85 44 36 45
REMARK SMILES IDX 90 46 84 47 86 48 37 49 89 50 83 51 82 52 38 54 70 55 50 56
REMARK SMILES IDX 69 57 51 58 54 59 68 60 87 61 52 62 53 63 67 65 88 66 55 67
REMARK SMILES IDX 39 68 40 69 48 70 41 71 47 72 49 73 46 74 42 75 43 76 44 77
REMARK SMILES IDX 45 78 71 79 72 80 80 81 73 82 79 83 81 84 78 85 74 86 75 87
REMARK SMILES IDX 76 88 77 89 56 90 57 91 65 92 58 93 64 94 66 95 63 96 59 97
REMARK SMILES IDX 60 98 61 99 62 100
REMARK H PARENT 20 7 9 18 27 34 86 53 54 64
REMARK Flexibility Score: inf
ROOT
ATOM      1  C   UNL A   1      33.101  29.524  26.533  1.00  0.00     0.002 C 
ENDROOT
BRANCH   1   2
ATOM      2  C   UNL A   1      33.508  28.390  25.597  1.00  0.00     0.021 C 
BRANCH   2   3
ATOM      3  C   UNL A   1      33.361  26.975  26.138  1.00  0.00     0.116 C 
BRANCH   3   4
ATOM      4  N   UNL A   1      31.987  26.496  26.221  1.00  0.00    -0.352 N 
ATOM      5  C   UNL A   1      31.415  25.351  25.706  1.00  0.00     0.251 C 
ATOM      6  O   UNL A   1      30.215  25.139  25.861  1.00  0.00    -0.269 OA
ATOM      7  H   UNL A   1      31.373  27.079  26.723  1.00  0.00     0.163 HD
BRANCH   5   8
ATOM      8  C   UNL A   1      32.227  24.394  24.912  1.00  0.00     0.041 A 
ATOM      9  C   UNL A   1      33.657  22.452  24.818  1.00  0.00     0.088 A 
ATOM     10  C   UNL A   1      34.076  22.796  23.533  1.00  0.00     0.022 A 
ATOM     11  C   UNL A   1      32.671  23.198  25.465  1.00  0.00     0.036 A 
ATOM     12  C   UNL A   1      33.500  23.909  22.907  1.00  0.00     0.002 A 
ATOM     13  C   UNL A   1      32.593  24.719  23.601  1.00  0.00     0.014 A 
BRANCH   9  14
ATOM     14  S   UNL A   1      34.344  21.082  25.723  1.00  0.00     0.261 S 
ATOM     15  O   UNL A   1      33.327  20.050  25.773  1.00  0.00    -0.201 OA
ATOM     16  O   UNL A   1      34.904  21.643  26.930  1.00  0.00    -0.201 OA
BRANCH  14  17
ATOM     17  N   UNL A   1      35.622  20.501  24.836  1.00  0.00    -0.280 N 
ATOM     18  H   UNL A   1      35.412  19.869  24.112  1.00  0.00     0.180 HD
BRANCH  17  19
ATOM     19  C   UNL A   1      36.986  20.833  25.026  1.00  0.00     0.049 A 
ATOM     20  C   UNL A   1      39.598  21.189  26.020  1.00  0.00    -0.042 A 
ATOM     21  C   UNL A   1      38.735  22.280  25.852  1.00  0.00     0.006 A 
ATOM     22  C   UNL A   1      39.181  19.950  25.501  1.00  0.00     0.006 A 
ATOM     23  C   UNL A   1      37.452  22.108  25.324  1.00  0.00     0.027 A 
ATOM     24  C   UNL A   1      37.885  19.771  25.021  1.00  0.00     0.027 A 
BRANCH  20  25
ATOM     25  C   UNL A   1      40.923  21.289  26.787  1.00  0.00    -0.013 C 
ATOM     26  C   UNL A   1      41.469  19.925  27.266  1.00  0.00     0.016 C 
ATOM     27  C   UNL A   1      40.743  22.192  28.019  1.00  0.00     0.016 C 
ATOM     28  C   UNL A   1      42.000  21.893  25.853  1.00  0.00     0.016 C 
ENDBRANCH  20  25
ENDBRANCH  17  19
ENDBRANCH  14  17
ENDBRANCH   9  14
ENDBRANCH   5   8
ENDBRANCH   3   4
ENDBRANCH   2   3
ENDBRANCH   1   2
BRANCH   1  29
ATOM     29  C   UNL A   1      31.753  30.192  26.255  1.00  0.00     0.002 C 
BRANCH  29  30
ATOM     30  C   UNL A   1      31.639  31.686  26.569  1.00  0.00     0.021 C 
BRANCH  30  31
ATOM     31  C   UNL A   1      32.863  32.345  27.199  1.00  0.00     0.116 C 
BRANCH  31  32
ATOM     32  N   UNL A   1      32.615  33.711  27.621  1.00  0.00    -0.352 N 
ATOM     33  C   UNL A   1      33.221  34.453  28.606  1.00  0.00     0.251 C 
ATOM     34  H   UNL A   1      31.905  34.178  27.126  1.00  0.00     0.163 HD
ATOM     35  O   UNL A   1      32.761  35.554  28.895  1.00  0.00    -0.269 OA
BRANCH  33  36
ATOM     36  C   UNL A   1      34.398  33.926  29.339  1.00  0.00     0.039 A 
ATOM     37  C   UNL A   1      34.182  33.027  30.388  1.00  0.00     0.014 A 
ATOM     38  C   UNL A   1      35.700  34.327  29.026  1.00  0.00     0.014 A 
ATOM     39  C   UNL A   1      35.270  32.486  31.080  1.00  0.00     0.010 A 
ATOM     40  C   UNL A   1      36.787  33.739  29.675  1.00  0.00     0.010 A 
ATOM     41  C   UNL A   1      36.584  32.813  30.709  1.00  0.00    -0.014 A 
BRANCH  41  42
ATOM     42  C   UNL A   1      37.750  32.197  31.398  1.00  0.00     0.031 A 
ATOM     43  C   UNL A   1      38.502  31.063  30.755  1.00  0.00     0.074 A 
ATOM     44  C   UNL A   1      38.098  32.623  32.628  1.00  0.00     0.049 A 
ATOM     45  N   UNL A   1      39.505  30.363  31.220  1.00  0.00    -0.248 NA
ATOM     46  C   UNL A   1      38.042  30.644  29.423  1.00  0.00     0.031 C 
ATOM     47  C   UNL A   1      37.419  33.683  33.377  1.00  0.00     0.029 A 
ATOM     48  N   UNL A   1      39.100  32.212  33.471  1.00  0.00    -0.354 N 
ATOM     49  C   UNL A   1      39.791  29.413  30.245  1.00  0.00     0.074 A 
ATOM     50  C   UNL A   1      38.813  29.592  29.191  1.00  0.00     0.031 C 
ATOM     51  C   UNL A   1      38.036  33.851  34.558  1.00  0.00     0.029 A 
ATOM     52  C   UNL A   1      39.128  32.889  34.669  1.00  0.00     0.049 A 
ATOM     53  H   UNL A   1      39.741  31.501  33.240  1.00  0.00     0.167 HD
ATOM     54  C   UNL A   1      40.787  28.491  30.221  1.00  0.00     0.034 A 
ATOM     55  C   UNL A   1      39.931  32.743  35.740  1.00  0.00     0.034 A 
ATOM     56  C   UNL A   1      41.759  28.332  31.276  1.00  0.00     0.049 A 
ATOM     57  C   UNL A   1      41.024  31.706  35.698  1.00  0.00     0.074 A 
ATOM     58  C   UNL A   1      42.847  27.477  31.326  1.00  0.00     0.029 A 
ATOM     59  N   UNL A   1      41.758  29.036  32.474  1.00  0.00    -0.354 N 
ATOM     60  N   UNL A   1      41.317  30.853  34.744  1.00  0.00    -0.248 NA
ATOM     61  C   UNL A   1      41.900  31.621  36.873  1.00  0.00     0.031 C 
ATOM     62  C   UNL A   1      43.461  27.616  32.576  1.00  0.00     0.029 A 
ATOM     63  C   UNL A   1      42.803  28.611  33.281  1.00  0.00     0.049 A 
ATOM     64  H   UNL A   1      41.109  29.735  32.715  1.00  0.00     0.167 HD
ATOM     65  C   UNL A   1      42.427  30.144  35.197  1.00  0.00     0.074 A 
ATOM     66  C   UNL A   1      42.760  30.686  36.499  1.00  0.00     0.031 C 
ATOM     67  C   UNL A   1      43.111  29.141  34.590  1.00  0.00     0.034 A 
BRANCH  54  68
ATOM     68  C   UNL A   1      40.847  27.568  29.025  1.00  0.00     0.023 A 
ATOM     69  C   UNL A   1      41.805  27.738  28.009  1.00  0.00     0.031 A 
ATOM     70  C   UNL A   1      39.912  26.529  28.877  1.00  0.00     0.131 A 
ATOM     71  C   UNL A   1      41.752  26.942  26.854  1.00  0.00     0.055 A 
ATOM     72  C   UNL A   1      39.918  25.685  27.764  1.00  0.00     0.041 A 
ATOM     73  F   UNL A   1      38.962  26.327  29.804  1.00  0.00    -0.206 F 
ATOM     74  C   UNL A   1      40.831  25.900  26.736  1.00  0.00     0.022 A 
BRANCH  71  75
ATOM     75  S   UNL A   1      42.803  27.390  25.445  1.00  0.00     0.124 S 
ATOM     76  O   UNL A   1      44.034  27.803  26.115  1.00  0.00    -0.237 OA
ATOM     77  O   UNL A   1      42.872  26.142  24.693  1.00  0.00    -0.237 OA
ATOM     78  O   UNL A   1      42.063  28.470  24.795  1.00  0.00    -0.744 OA
ENDBRANCH  71  75
ENDBRANCH  54  68
BRANCH  55  79
ATOM     79  C   UNL A   1      39.732  33.591  36.950  1.00  0.00     0.023 A 
ATOM     80  C   UNL A   1      39.011  33.116  38.057  1.00  0.00     0.031 A 
ATOM     81  C   UNL A   1      40.238  34.902  37.003  1.00  0.00     0.131 A 
ATOM     82  C   UNL A   1      38.781  33.959  39.155  1.00  0.00     0.055 A 
ATOM     83  C   UNL A   1      40.047  35.721  38.117  1.00  0.00     0.041 A 
ATOM     84  F   UNL A   1      40.939  35.401  35.974  1.00  0.00    -0.206 F 
ATOM     85  C   UNL A   1      39.305  35.253  39.197  1.00  0.00     0.022 A 
BRANCH  82  86
ATOM     86  S   UNL A   1      37.727  33.361  40.504  1.00  0.00     0.124 S 
ATOM     87  O   UNL A   1      37.565  34.564  41.312  1.00  0.00    -0.237 OA
ATOM     88  O   UNL A   1      36.542  32.906  39.784  1.00  0.00    -0.237 OA
ATOM     89  O   UNL A   1      38.526  32.300  41.115  1.00  0.00    -0.744 OA
ENDBRANCH  82  86
ENDBRANCH  55  79
BRANCH  67  90
ATOM     90  C   UNL A   1      44.306  28.589  35.328  1.00  0.00     0.023 A 
ATOM     91  C   UNL A   1      45.595  29.123  35.150  1.00  0.00     0.031 A 
ATOM     92  C   UNL A   1      44.158  27.496  36.199  1.00  0.00     0.131 A 
ATOM     93  C   UNL A   1      46.693  28.526  35.787  1.00  0.00     0.055 A 
ATOM     94  C   UNL A   1      45.246  26.944  36.877  1.00  0.00     0.041 A 
ATOM     95  F   UNL A   1      42.951  26.944  36.404  1.00  0.00    -0.206 F 
ATOM     96  C   UNL A   1      46.525  27.450  36.662  1.00  0.00     0.022 A 
BRANCH  93  97
ATOM     97  S   UNL A   1      48.361  29.115  35.383  1.00  0.00     0.124 S 
ATOM     98  O   UNL A   1      48.969  27.924  34.797  1.00  0.00    -0.237 OA
ATOM     99  O   UNL A   1      48.091  30.211  34.459  1.00  0.00    -0.237 OA
ATOM    100  O   UNL A   1      48.907  29.516  36.678  1.00  0.00    -0.744 OA
ENDBRANCH  93  97
ENDBRANCH  67  90
ENDBRANCH  41  42
ENDBRANCH  33  36
ENDBRANCH  31  32
ENDBRANCH  30  31
ENDBRANCH  29  30
ENDBRANCH   1  29
TORSDOF 20
ENDMDL
