MODEL 1
REMARK VINA RESULT:     -11.9      0.000      0.000
REMARK SMILES CCc1ccc(S(=O)(=O)c2nnn(-c3ccc(C(=O)NCCCCCCNC(=O)c4ccc(-c5c6nc(c(-c7cc(S(=O)(=O)[O-])ccc7F)c7ccc([nH]7)c(-c7cc(S(=O)(=O)[O-])ccc7F)c7nc(c(-c8cc(S(=O)(=O)[O-])ccc8F)c8ccc5[nH]8)C=C7)C=C6)cc4)cc3)c2C)cc1
REMARK SMILES IDX 23 1 22 2 21 3 20 4 18 5 19 6 17 8 14 9 15 10 94 11 16 12
REMARK SMILES IDX 93 13 13 14 10 15 11 16 95 17 12 18 96 19 7 20 8 21 9 22
REMARK SMILES IDX 6 23 3 24 4 25 98 26 5 27 97 28 2 29 1 30 24 31 25 32 26 33
REMARK SMILES IDX 27 34 28 35 29 37 30 38 31 39 92 40 32 41 91 42 33 43 34 44
REMARK SMILES IDX 35 45 85 46 36 47 90 48 84 49 86 50 37 51 89 52 83 53 82 54
REMARK SMILES IDX 38 56 70 57 50 58 69 59 51 60 54 61 68 62 87 63 52 64 53 65
REMARK SMILES IDX 67 67 88 68 55 69 39 70 40 71 48 72 41 73 47 74 49 75 46 76
REMARK SMILES IDX 42 77 43 78 44 79 45 80 71 81 72 82 80 83 73 84 79 85 81 86
REMARK SMILES IDX 78 87 74 88 75 89 76 90 77 91 56 92 57 93 65 94 58 95 64 96
REMARK SMILES IDX 66 97 63 98 59 99 60 100 61 101 62 102
REMARK H PARENT 20 7 27 36 86 55 54 66
REMARK Flexibility Score: inf
ROOT
ATOM      1  C   UNL A   1      35.819  18.326  24.439  1.00  0.00     0.002 C 
ENDROOT
BRANCH   1   2
ATOM      2  C   UNL A   1      35.608  16.814  24.606  1.00  0.00     0.021 C 
BRANCH   2   3
ATOM      3  C   UNL A   1      34.438  16.277  23.779  1.00  0.00     0.116 C 
BRANCH   3   4
ATOM      4  N   UNL A   1      33.258  16.127  24.611  1.00  0.00    -0.352 N 
ATOM      5  C   UNL A   1      32.343  17.018  25.112  1.00  0.00     0.251 C 
ATOM      6  O   UNL A   1      31.415  16.565  25.784  1.00  0.00    -0.269 OA
ATOM      7  H   UNL A   1      33.076  15.194  24.869  1.00  0.00     0.163 HD
BRANCH   5   8
ATOM      8  C   UNL A   1      32.363  18.475  24.797  1.00  0.00     0.039 A 
ATOM      9  C   UNL A   1      32.738  21.106  23.940  1.00  0.00     0.067 A 
ATOM     10  C   UNL A   1      32.194  20.178  23.053  1.00  0.00     0.029 A 
ATOM     11  C   UNL A   1      32.954  20.770  25.279  1.00  0.00     0.029 A 
ATOM     12  C   UNL A   1      32.046  18.854  23.479  1.00  0.00     0.016 A 
ATOM     13  C   UNL A   1      32.704  19.470  25.714  1.00  0.00     0.016 A 
BRANCH   9  14
ATOM     14  N   UNL A   1      33.127  22.376  23.482  1.00  0.00    -0.216 N 
ATOM     15  C   UNL A   1      33.166  24.406  22.719  1.00  0.00     0.205 A 
ATOM     16  N   UNL A   1      34.443  23.910  22.712  1.00  0.00    -0.117 NA
ATOM     17  C   UNL A   1      32.320  23.489  23.320  1.00  0.00     0.081 A 
ATOM     18  N   UNL A   1      34.419  22.710  23.277  1.00  0.00    -0.061 NA
ATOM     19  C   UNL A   1      30.944  23.610  23.863  1.00  0.00     0.070 C 
BRANCH  15  20
ATOM     20  S   UNL A   1      32.800  26.019  22.226  1.00  0.00     0.227 S 
ATOM     21  O   UNL A   1      31.458  25.928  21.674  1.00  0.00    -0.217 OA
ATOM     22  O   UNL A   1      33.931  26.474  21.450  1.00  0.00    -0.217 OA
BRANCH  20  23
ATOM     23  C   UNL A   1      32.700  27.025  23.681  1.00  0.00     0.073 A 
ATOM     24  C   UNL A   1      32.377  28.620  25.967  1.00  0.00    -0.048 A 
ATOM     25  C   UNL A   1      31.610  28.858  24.818  1.00  0.00     0.005 A 
ATOM     26  C   UNL A   1      33.329  27.590  25.941  1.00  0.00     0.005 A 
ATOM     27  C   UNL A   1      31.757  28.057  23.684  1.00  0.00     0.021 A 
ATOM     28  C   UNL A   1      33.501  26.800  24.802  1.00  0.00     0.021 A 
BRANCH  24  29
ATOM     29  C   UNL A   1      32.256  29.485  27.198  1.00  0.00     0.032 C 
ATOM     30  C   UNL A   1      31.982  30.956  26.913  1.00  0.00     0.009 C 
ENDBRANCH  24  29
ENDBRANCH  20  23
ENDBRANCH  15  20
ENDBRANCH   9  14
ENDBRANCH   5   8
ENDBRANCH   3   4
ENDBRANCH   2   3
ENDBRANCH   1   2
BRANCH   1  31
ATOM     31  C   UNL A   1      37.150  18.870  24.987  1.00  0.00     0.002 C 
BRANCH  31  32
ATOM     32  C   UNL A   1      37.307  20.397  24.985  1.00  0.00     0.021 C 
BRANCH  32  33
ATOM     33  C   UNL A   1      38.706  20.855  25.362  1.00  0.00     0.116 C 
BRANCH  33  34
ATOM     34  N   UNL A   1      39.611  19.726  25.588  1.00  0.00    -0.352 N 
ATOM     35  C   UNL A   1      40.952  19.769  25.920  1.00  0.00     0.251 C 
ATOM     36  H   UNL A   1      39.216  18.829  25.495  1.00  0.00     0.163 HD
ATOM     37  O   UNL A   1      41.684  18.813  25.694  1.00  0.00    -0.269 OA
BRANCH  35  38
ATOM     38  C   UNL A   1      41.467  20.992  26.558  1.00  0.00     0.039 A 
ATOM     39  C   UNL A   1      42.091  22.007  25.832  1.00  0.00     0.014 A 
ATOM     40  C   UNL A   1      41.253  21.120  27.927  1.00  0.00     0.014 A 
ATOM     41  C   UNL A   1      42.426  23.189  26.494  1.00  0.00     0.010 A 
ATOM     42  C   UNL A   1      41.405  22.339  28.525  1.00  0.00     0.010 A 
ATOM     43  C   UNL A   1      42.059  23.354  27.840  1.00  0.00    -0.014 A 
BRANCH  43  44
ATOM     44  C   UNL A   1      42.249  24.621  28.540  1.00  0.00     0.031 A 
ATOM     45  C   UNL A   1      41.133  25.589  28.362  1.00  0.00     0.074 A 
ATOM     46  C   UNL A   1      43.231  24.816  29.450  1.00  0.00     0.049 A 
ATOM     47  N   UNL A   1      41.158  26.704  27.713  1.00  0.00    -0.248 NA
ATOM     48  C   UNL A   1      39.784  25.201  28.809  1.00  0.00     0.031 C 
ATOM     49  C   UNL A   1      44.223  23.858  29.956  1.00  0.00     0.029 A 
ATOM     50  N   UNL A   1      43.487  25.916  30.206  1.00  0.00    -0.354 N 
ATOM     51  C   UNL A   1      39.900  27.278  27.872  1.00  0.00     0.074 A 
ATOM     52  C   UNL A   1      39.053  26.227  28.369  1.00  0.00     0.031 C 
ATOM     53  C   UNL A   1      44.798  24.339  31.082  1.00  0.00     0.029 A 
ATOM     54  C   UNL A   1      44.358  25.709  31.276  1.00  0.00     0.049 A 
ATOM     55  H   UNL A   1      43.087  26.794  30.012  1.00  0.00     0.167 HD
ATOM     56  C   UNL A   1      39.731  28.628  27.791  1.00  0.00     0.034 A 
ATOM     57  C   UNL A   1      44.692  26.598  32.253  1.00  0.00     0.034 A 
ATOM     58  C   UNL A   1      40.887  29.250  27.180  1.00  0.00     0.049 A 
ATOM     59  C   UNL A   1      44.400  27.944  31.699  1.00  0.00     0.074 A 
ATOM     60  C   UNL A   1      41.507  29.123  25.951  1.00  0.00     0.029 A 
ATOM     61  N   UNL A   1      41.829  29.822  28.007  1.00  0.00    -0.354 N 
ATOM     62  N   UNL A   1      45.032  28.440  30.669  1.00  0.00    -0.248 NA
ATOM     63  C   UNL A   1      43.076  28.502  31.936  1.00  0.00     0.031 C 
ATOM     64  C   UNL A   1      42.903  29.113  26.251  1.00  0.00     0.029 A 
ATOM     65  C   UNL A   1      43.060  29.345  27.620  1.00  0.00     0.049 A 
ATOM     66  H   UNL A   1      41.653  30.455  28.741  1.00  0.00     0.167 HD
ATOM     67  C   UNL A   1      44.047  29.024  29.886  1.00  0.00     0.074 A 
ATOM     68  C   UNL A   1      42.874  29.105  30.759  1.00  0.00     0.031 C 
ATOM     69  C   UNL A   1      44.173  29.120  28.528  1.00  0.00     0.034 A 
BRANCH  56  70
ATOM     70  C   UNL A   1      38.701  29.432  28.557  1.00  0.00     0.023 A 
ATOM     71  C   UNL A   1      38.846  29.501  29.957  1.00  0.00     0.031 A 
ATOM     72  C   UNL A   1      37.464  29.888  28.049  1.00  0.00     0.131 A 
ATOM     73  C   UNL A   1      37.778  29.901  30.779  1.00  0.00     0.055 A 
ATOM     74  C   UNL A   1      36.427  30.346  28.867  1.00  0.00     0.041 A 
ATOM     75  F   UNL A   1      37.148  29.833  26.751  1.00  0.00    -0.206 F 
ATOM     76  C   UNL A   1      36.566  30.324  30.243  1.00  0.00     0.022 A 
BRANCH  73  77
ATOM     77  S   UNL A   1      37.943  29.686  32.571  1.00  0.00     0.124 S 
ATOM     78  O   UNL A   1      39.379  29.862  32.759  1.00  0.00    -0.237 OA
ATOM     79  O   UNL A   1      37.089  30.755  33.080  1.00  0.00    -0.237 OA
ATOM     80  O   UNL A   1      37.447  28.330  32.796  1.00  0.00    -0.744 OA
ENDBRANCH  73  77
ENDBRANCH  56  70
BRANCH  57  81
ATOM     81  C   UNL A   1      44.869  26.317  33.710  1.00  0.00     0.023 A 
ATOM     82  C   UNL A   1      43.854  26.513  34.675  1.00  0.00     0.031 A 
ATOM     83  C   UNL A   1      46.008  25.595  34.137  1.00  0.00     0.131 A 
ATOM     84  C   UNL A   1      44.004  25.999  35.990  1.00  0.00     0.055 A 
ATOM     85  C   UNL A   1      46.147  25.087  35.431  1.00  0.00     0.041 A 
ATOM     86  F   UNL A   1      46.993  25.285  33.279  1.00  0.00    -0.206 F 
ATOM     87  C   UNL A   1      45.141  25.279  36.362  1.00  0.00     0.022 A 
BRANCH  84  88
ATOM     88  S   UNL A   1      42.680  26.194  37.234  1.00  0.00     0.124 S 
ATOM     89  O   UNL A   1      42.046  27.442  36.822  1.00  0.00    -0.237 OA
ATOM     90  O   UNL A   1      41.897  24.977  37.055  1.00  0.00    -0.237 OA
ATOM     91  O   UNL A   1      43.409  26.269  38.501  1.00  0.00    -0.744 OA
ENDBRANCH  84  88
ENDBRANCH  57  81
BRANCH  69  92
ATOM     92  C   UNL A   1      45.518  28.788  27.896  1.00  0.00     0.023 A 
ATOM     93  C   UNL A   1      45.902  27.518  27.401  1.00  0.00     0.031 A 
ATOM     94  C   UNL A   1      46.400  29.860  27.673  1.00  0.00     0.131 A 
ATOM     95  C   UNL A   1      47.130  27.364  26.721  1.00  0.00     0.055 A 
ATOM     96  C   UNL A   1      47.599  29.710  26.977  1.00  0.00     0.041 A 
ATOM     97  F   UNL A   1      46.087  31.097  28.096  1.00  0.00    -0.206 F 
ATOM     98  C   UNL A   1      47.972  28.459  26.503  1.00  0.00     0.022 A 
BRANCH  95  99
ATOM     99  S   UNL A   1      47.676  25.728  26.119  1.00  0.00     0.124 S 
ATOM    100  O   UNL A   1      46.587  25.308  25.243  1.00  0.00    -0.237 OA
ATOM    101  O   UNL A   1      48.942  26.036  25.461  1.00  0.00    -0.237 OA
ATOM    102  O   UNL A   1      47.806  24.940  27.346  1.00  0.00    -0.744 OA
ENDBRANCH  95  99
ENDBRANCH  69  92
ENDBRANCH  43  44
ENDBRANCH  35  38
ENDBRANCH  33  34
ENDBRANCH  32  33
ENDBRANCH  31  32
ENDBRANCH   1  31
TORSDOF 20
ENDMDL
MODEL 2
REMARK VINA RESULT:     -11.9      3.955      9.942
REMARK SMILES CCc1ccc(S(=O)(=O)c2nnn(-c3ccc(C(=O)NCCCCCCNC(=O)c4ccc(-c5c6nc(c(-c7cc(S(=O)(=O)[O-])ccc7F)c7ccc([nH]7)c(-c7cc(S(=O)(=O)[O-])ccc7F)c7nc(c(-c8cc(S(=O)(=O)[O-])ccc8F)c8ccc5[nH]8)C=C7)C=C6)cc4)cc3)c2C)cc1
REMARK SMILES IDX 23 1 22 2 21 3 20 4 18 5 19 6 17 8 14 9 15 10 94 11 16 12
REMARK SMILES IDX 93 13 13 14 10 15 11 16 95 17 12 18 96 19 7 20 8 21 9 22
REMARK SMILES IDX 6 23 3 24 4 25 98 26 5 27 97 28 2 29 1 30 24 31 25 32 26 33
REMARK SMILES IDX 27 34 28 35 29 37 30 38 31 39 92 40 32 41 91 42 33 43 34 44
REMARK SMILES IDX 35 45 85 46 36 47 90 48 84 49 86 50 37 51 89 52 83 53 82 54
REMARK SMILES IDX 38 56 70 57 50 58 69 59 51 60 54 61 68 62 87 63 52 64 53 65
REMARK SMILES IDX 67 67 88 68 55 69 39 70 40 71 48 72 41 73 47 74 49 75 46 76
REMARK SMILES IDX 42 77 43 78 44 79 45 80 71 81 72 82 80 83 73 84 79 85 81 86
REMARK SMILES IDX 78 87 74 88 75 89 76 90 77 91 56 92 57 93 65 94 58 95 64 96
REMARK SMILES IDX 66 97 63 98 59 99 60 100 61 101 62 102
REMARK H PARENT 20 7 27 36 86 55 54 66
REMARK Flexibility Score: inf
ROOT
ATOM      1  C   UNL A   1      37.038  33.982  31.476  1.00  0.00     0.002 C 
ENDROOT
BRANCH   1   2
ATOM      2  C   UNL A   1      35.579  34.407  31.693  1.00  0.00     0.021 C 
BRANCH   2   3
ATOM      3  C   UNL A   1      34.600  33.685  30.764  1.00  0.00     0.116 C 
BRANCH   3   4
ATOM      4  N   UNL A   1      33.892  34.643  29.935  1.00  0.00    -0.352 N 
ATOM      5  C   UNL A   1      33.231  34.540  28.737  1.00  0.00     0.251 C 
ATOM      6  O   UNL A   1      32.699  35.558  28.290  1.00  0.00    -0.269 OA
ATOM      7  H   UNL A   1      33.883  35.554  30.309  1.00  0.00     0.163 HD
BRANCH   5   8
ATOM      8  C   UNL A   1      33.044  33.250  28.015  1.00  0.00     0.039 A 
ATOM      9  C   UNL A   1      32.369  30.757  26.952  1.00  0.00     0.067 A 
ATOM     10  C   UNL A   1      31.500  31.829  26.763  1.00  0.00     0.029 A 
ATOM     11  C   UNL A   1      33.626  30.952  27.532  1.00  0.00     0.029 A 
ATOM     12  C   UNL A   1      31.828  33.064  27.332  1.00  0.00     0.016 A 
ATOM     13  C   UNL A   1      33.980  32.215  28.002  1.00  0.00     0.016 A 
BRANCH   9  14
ATOM     14  N   UNL A   1      31.969  29.454  26.612  1.00  0.00    -0.216 N 
ATOM     15  C   UNL A   1      31.441  27.633  25.558  1.00  0.00     0.205 A 
ATOM     16  N   UNL A   1      31.069  27.504  26.870  1.00  0.00    -0.117 NA
ATOM     17  C   UNL A   1      32.129  28.823  25.390  1.00  0.00     0.081 A 
ATOM     18  N   UNL A   1      31.492  28.579  27.522  1.00  0.00    -0.061 NA
ATOM     19  C   UNL A   1      33.002  29.323  24.299  1.00  0.00     0.070 C 
BRANCH  15  20
ATOM     20  S   UNL A   1      31.227  26.362  24.410  1.00  0.00     0.227 S 
ATOM     21  O   UNL A   1      31.096  27.050  23.136  1.00  0.00    -0.217 OA
ATOM     22  O   UNL A   1      30.194  25.503  24.941  1.00  0.00    -0.217 OA
BRANCH  20  23
ATOM     23  C   UNL A   1      32.731  25.426  24.346  1.00  0.00     0.073 A 
ATOM     24  C   UNL A   1      35.093  23.914  24.408  1.00  0.00    -0.048 A 
ATOM     25  C   UNL A   1      34.790  24.804  25.447  1.00  0.00     0.005 A 
ATOM     26  C   UNL A   1      34.209  23.818  23.323  1.00  0.00     0.005 A 
ATOM     27  C   UNL A   1      33.608  25.546  25.428  1.00  0.00     0.021 A 
ATOM     28  C   UNL A   1      33.037  24.575  23.283  1.00  0.00     0.021 A 
BRANCH  24  29
ATOM     29  C   UNL A   1      36.376  23.117  24.391  1.00  0.00     0.032 C 
ATOM     30  C   UNL A   1      36.827  22.673  23.006  1.00  0.00     0.009 C 
ENDBRANCH  24  29
ENDBRANCH  20  23
ENDBRANCH  15  20
ENDBRANCH   9  14
ENDBRANCH   5   8
ENDBRANCH   3   4
ENDBRANCH   2   3
ENDBRANCH   1   2
BRANCH   1  31
ATOM     31  C   UNL A   1      37.494  33.913  30.008  1.00  0.00     0.002 C 
BRANCH  31  32
ATOM     32  C   UNL A   1      37.974  32.541  29.514  1.00  0.00     0.021 C 
BRANCH  32  33
ATOM     33  C   UNL A   1      37.699  31.419  30.503  1.00  0.00     0.116 C 
BRANCH  33  34
ATOM     34  N   UNL A   1      36.627  30.534  30.044  1.00  0.00    -0.352 N 
ATOM     35  C   UNL A   1      36.688  29.571  29.054  1.00  0.00     0.251 C 
ATOM     36  H   UNL A   1      35.758  30.635  30.497  1.00  0.00     0.163 HD
ATOM     37  O   UNL A   1      35.671  29.186  28.491  1.00  0.00    -0.269 OA
BRANCH  35  38
ATOM     38  C   UNL A   1      38.010  29.022  28.707  1.00  0.00     0.039 A 
ATOM     39  C   UNL A   1      38.721  29.440  27.581  1.00  0.00     0.014 A 
ATOM     40  C   UNL A   1      38.552  28.095  29.592  1.00  0.00     0.014 A 
ATOM     41  C   UNL A   1      40.021  28.967  27.403  1.00  0.00     0.010 A 
ATOM     42  C   UNL A   1      39.882  27.786  29.518  1.00  0.00     0.010 A 
ATOM     43  C   UNL A   1      40.602  28.154  28.390  1.00  0.00    -0.014 A 
BRANCH  43  44
ATOM     44  C   UNL A   1      42.005  27.754  28.330  1.00  0.00     0.031 A 
ATOM     45  C   UNL A   1      42.249  26.497  27.573  1.00  0.00     0.074 A 
ATOM     46  C   UNL A   1      43.015  28.564  28.723  1.00  0.00     0.049 A 
ATOM     47  N   UNL A   1      42.633  25.359  28.045  1.00  0.00    -0.248 NA
ATOM     48  C   UNL A   1      41.864  26.441  26.153  1.00  0.00     0.031 C 
ATOM     49  C   UNL A   1      42.951  29.950  29.209  1.00  0.00     0.029 A 
ATOM     50  N   UNL A   1      44.355  28.343  28.673  1.00  0.00    -0.354 N 
ATOM     51  C   UNL A   1      42.772  24.507  26.953  1.00  0.00     0.074 A 
ATOM     52  C   UNL A   1      42.095  25.159  25.864  1.00  0.00     0.031 C 
ATOM     53  C   UNL A   1      44.183  30.508  29.175  1.00  0.00     0.029 A 
ATOM     54  C   UNL A   1      45.149  29.475  28.847  1.00  0.00     0.049 A 
ATOM     55  H   UNL A   1      44.737  27.447  28.526  1.00  0.00     0.167 HD
ATOM     56  C   UNL A   1      43.628  23.448  26.995  1.00  0.00     0.034 A 
ATOM     57  C   UNL A   1      46.504  29.561  28.728  1.00  0.00     0.034 A 
ATOM     58  C   UNL A   1      44.018  23.163  28.360  1.00  0.00     0.049 A 
ATOM     59  C   UNL A   1      47.019  28.180  28.906  1.00  0.00     0.074 A 
ATOM     60  C   UNL A   1      43.324  22.814  29.503  1.00  0.00     0.029 A 
ATOM     61  N   UNL A   1      45.231  23.646  28.802  1.00  0.00    -0.354 N 
ATOM     62  N   UNL A   1      46.897  27.517  30.025  1.00  0.00    -0.248 NA
ATOM     63  C   UNL A   1      47.177  27.357  27.716  1.00  0.00     0.031 C 
ATOM     64  C   UNL A   1      43.920  23.595  30.539  1.00  0.00     0.029 A 
ATOM     65  C   UNL A   1      45.007  24.287  29.998  1.00  0.00     0.049 A 
ATOM     66  H   UNL A   1      46.098  23.550  28.344  1.00  0.00     0.167 HD
ATOM     67  C   UNL A   1      46.521  26.236  29.648  1.00  0.00     0.074 A 
ATOM     68  C   UNL A   1      46.792  26.175  28.210  1.00  0.00     0.031 C 
ATOM     69  C   UNL A   1      45.756  25.445  30.460  1.00  0.00     0.034 A 
BRANCH  56  70
ATOM     70  C   UNL A   1      44.385  22.884  25.811  1.00  0.00     0.023 A 
ATOM     71  C   UNL A   1      44.197  21.519  25.514  1.00  0.00     0.031 A 
ATOM     72  C   UNL A   1      45.463  23.510  25.146  1.00  0.00     0.131 A 
ATOM     73  C   UNL A   1      45.100  20.824  24.690  1.00  0.00     0.055 A 
ATOM     74  C   UNL A   1      46.320  22.830  24.276  1.00  0.00     0.041 A 
ATOM     75  F   UNL A   1      45.809  24.783  25.364  1.00  0.00    -0.206 F 
ATOM     76  C   UNL A   1      46.163  21.471  24.067  1.00  0.00     0.022 A 
BRANCH  73  77
ATOM     77  S   UNL A   1      44.962  19.020  24.589  1.00  0.00     0.124 S 
ATOM     78  O   UNL A   1      43.962  18.743  25.615  1.00  0.00    -0.237 OA
ATOM     79  O   UNL A   1      44.539  18.830  23.206  1.00  0.00    -0.237 OA
ATOM     80  O   UNL A   1      46.314  18.561  24.897  1.00  0.00    -0.744 OA
ENDBRANCH  73  77
ENDBRANCH  56  70
BRANCH  57  81
ATOM     81  C   UNL A   1      47.289  30.669  28.104  1.00  0.00     0.023 A 
ATOM     82  C   UNL A   1      46.711  31.697  27.324  1.00  0.00     0.031 A 
ATOM     83  C   UNL A   1      48.635  30.861  28.494  1.00  0.00     0.131 A 
ATOM     84  C   UNL A   1      47.469  32.844  26.971  1.00  0.00     0.055 A 
ATOM     85  C   UNL A   1      49.375  31.995  28.148  1.00  0.00     0.041 A 
ATOM     86  F   UNL A   1      49.254  29.985  29.302  1.00  0.00    -0.206 F 
ATOM     87  C   UNL A   1      48.792  32.997  27.392  1.00  0.00     0.022 A 
BRANCH  84  88
ATOM     88  S   UNL A   1      46.723  34.207  26.010  1.00  0.00     0.124 S 
ATOM     89  O   UNL A   1      47.808  34.587  25.112  1.00  0.00    -0.237 OA
ATOM     90  O   UNL A   1      45.567  33.565  25.397  1.00  0.00    -0.237 OA
ATOM     91  O   UNL A   1      46.396  35.206  27.030  1.00  0.00    -0.744 OA
ENDBRANCH  84  88
ENDBRANCH  57  81
BRANCH  69  92
ATOM     92  C   UNL A   1      45.512  25.893  31.893  1.00  0.00     0.023 A 
ATOM     93  C   UNL A   1      46.426  25.748  32.966  1.00  0.00     0.031 A 
ATOM     94  C   UNL A   1      44.337  26.624  32.142  1.00  0.00     0.131 A 
ATOM     95  C   UNL A   1      46.136  26.318  34.226  1.00  0.00     0.055 A 
ATOM     96  C   UNL A   1      44.067  27.209  33.380  1.00  0.00     0.041 A 
ATOM     97  F   UNL A   1      43.438  26.819  31.163  1.00  0.00    -0.206 F 
ATOM     98  C   UNL A   1      44.964  27.054  34.428  1.00  0.00     0.022 A 
BRANCH  95  99
ATOM     99  S   UNL A   1      47.270  26.102  35.641  1.00  0.00     0.124 S 
ATOM    100  O   UNL A   1      48.566  25.880  35.009  1.00  0.00    -0.237 OA
ATOM    101  O   UNL A   1      47.121  27.361  36.365  1.00  0.00    -0.237 OA
ATOM    102  O   UNL A   1      46.726  24.935  36.337  1.00  0.00    -0.744 OA
ENDBRANCH  95  99
ENDBRANCH  69  92
ENDBRANCH  43  44
ENDBRANCH  35  38
ENDBRANCH  33  34
ENDBRANCH  32  33
ENDBRANCH  31  32
ENDBRANCH   1  31
TORSDOF 20
ENDMDL
MODEL 3
REMARK VINA RESULT:     -11.6      3.510      7.518
REMARK SMILES CCc1ccc(S(=O)(=O)c2nnn(-c3ccc(C(=O)NCCCCCCNC(=O)c4ccc(-c5c6nc(c(-c7cc(S(=O)(=O)[O-])ccc7F)c7ccc([nH]7)c(-c7cc(S(=O)(=O)[O-])ccc7F)c7nc(c(-c8cc(S(=O)(=O)[O-])ccc8F)c8ccc5[nH]8)C=C7)C=C6)cc4)cc3)c2C)cc1
REMARK SMILES IDX 23 1 22 2 21 3 20 4 18 5 19 6 17 8 14 9 15 10 94 11 16 12
REMARK SMILES IDX 93 13 13 14 10 15 11 16 95 17 12 18 96 19 7 20 8 21 9 22
REMARK SMILES IDX 6 23 3 24 4 25 98 26 5 27 97 28 2 29 1 30 24 31 25 32 26 33
REMARK SMILES IDX 27 34 28 35 29 37 30 38 31 39 92 40 32 41 91 42 33 43 34 44
REMARK SMILES IDX 35 45 85 46 36 47 90 48 84 49 86 50 37 51 89 52 83 53 82 54
REMARK SMILES IDX 38 56 70 57 50 58 69 59 51 60 54 61 68 62 87 63 52 64 53 65
REMARK SMILES IDX 67 67 88 68 55 69 39 70 40 71 48 72 41 73 47 74 49 75 46 76
REMARK SMILES IDX 42 77 43 78 44 79 45 80 71 81 72 82 80 83 73 84 79 85 81 86
REMARK SMILES IDX 78 87 74 88 75 89 76 90 77 91 56 92 57 93 65 94 58 95 64 96
REMARK SMILES IDX 66 97 63 98 59 99 60 100 61 101 62 102
REMARK H PARENT 20 7 27 36 86 55 54 66
REMARK Flexibility Score: inf
ROOT
ATOM      1  C   UNL A   1      36.356  21.744  24.441  1.00  0.00     0.002 C 
ENDROOT
BRANCH   1   2
ATOM      2  C   UNL A   1      36.029  20.512  25.297  1.00  0.00     0.021 C 
BRANCH   2   3
ATOM      3  C   UNL A   1      36.264  19.191  24.562  1.00  0.00     0.116 C 
BRANCH   3   4
ATOM      4  N   UNL A   1      35.227  18.233  24.900  1.00  0.00    -0.352 N 
ATOM      5  C   UNL A   1      33.864  18.330  25.023  1.00  0.00     0.251 C 
ATOM      6  O   UNL A   1      33.244  17.304  25.307  1.00  0.00    -0.269 OA
ATOM      7  H   UNL A   1      35.572  17.328  25.077  1.00  0.00     0.163 HD
BRANCH   5   8
ATOM      8  C   UNL A   1      33.103  19.577  24.730  1.00  0.00     0.039 A 
ATOM      9  C   UNL A   1      32.027  22.030  23.938  1.00  0.00     0.067 A 
ATOM     10  C   UNL A   1      32.124  21.001  23.003  1.00  0.00     0.029 A 
ATOM     11  C   UNL A   1      32.320  21.798  25.285  1.00  0.00     0.029 A 
ATOM     12  C   UNL A   1      32.700  19.790  23.399  1.00  0.00     0.016 A 
ATOM     13  C   UNL A   1      32.797  20.551  25.683  1.00  0.00     0.016 A 
BRANCH   9  14
ATOM     14  N   UNL A   1      31.683  23.328  23.527  1.00  0.00    -0.216 N 
ATOM     15  C   UNL A   1      31.715  25.409  22.915  1.00  0.00     0.205 A 
ATOM     16  N   UNL A   1      30.419  25.048  23.172  1.00  0.00    -0.117 NA
ATOM     17  C   UNL A   1      32.532  24.295  23.017  1.00  0.00     0.081 A 
ATOM     18  N   UNL A   1      30.403  23.748  23.442  1.00  0.00    -0.061 NA
ATOM     19  C   UNL A   1      33.920  24.033  22.561  1.00  0.00     0.070 C 
BRANCH  15  20
ATOM     20  S   UNL A   1      32.139  26.985  22.353  1.00  0.00     0.227 S 
ATOM     21  O   UNL A   1      30.891  27.533  21.850  1.00  0.00    -0.217 OA
ATOM     22  O   UNL A   1      33.308  26.819  21.520  1.00  0.00    -0.217 OA
BRANCH  20  23
ATOM     23  C   UNL A   1      32.609  27.957  23.758  1.00  0.00     0.073 A 
ATOM     24  C   UNL A   1      33.198  29.479  26.041  1.00  0.00    -0.048 A 
ATOM     25  C   UNL A   1      31.975  29.639  25.374  1.00  0.00     0.005 A 
ATOM     26  C   UNL A   1      34.132  28.567  25.527  1.00  0.00     0.005 A 
ATOM     27  C   UNL A   1      31.672  28.872  24.248  1.00  0.00     0.021 A 
ATOM     28  C   UNL A   1      33.848  27.814  24.386  1.00  0.00     0.021 A 
BRANCH  24  29
ATOM     29  C   UNL A   1      33.561  30.311  27.247  1.00  0.00     0.032 C 
ATOM     30  C   UNL A   1      34.904  29.960  27.876  1.00  0.00     0.009 C 
ENDBRANCH  24  29
ENDBRANCH  20  23
ENDBRANCH  15  20
ENDBRANCH   9  14
ENDBRANCH   5   8
ENDBRANCH   3   4
ENDBRANCH   2   3
ENDBRANCH   1   2
BRANCH   1  31
ATOM     31  C   UNL A   1      36.508  23.064  25.216  1.00  0.00     0.002 C 
BRANCH  31  32
ATOM     32  C   UNL A   1      37.937  23.609  25.348  1.00  0.00     0.021 C 
BRANCH  32  33
ATOM     33  C   UNL A   1      38.605  23.227  26.659  1.00  0.00     0.116 C 
BRANCH  33  34
ATOM     34  N   UNL A   1      39.989  22.791  26.463  1.00  0.00    -0.352 N 
ATOM     35  C   UNL A   1      41.137  23.559  26.535  1.00  0.00     0.251 C 
ATOM     36  H   UNL A   1      40.119  21.837  26.257  1.00  0.00     0.163 HD
ATOM     37  O   UNL A   1      42.167  23.201  25.976  1.00  0.00    -0.269 OA
BRANCH  35  38
ATOM     38  C   UNL A   1      41.083  24.810  27.310  1.00  0.00     0.039 A 
ATOM     39  C   UNL A   1      42.006  25.108  28.313  1.00  0.00     0.014 A 
ATOM     40  C   UNL A   1      40.091  25.720  26.958  1.00  0.00     0.014 A 
ATOM     41  C   UNL A   1      41.964  26.372  28.902  1.00  0.00     0.010 A 
ATOM     42  C   UNL A   1      40.172  27.013  27.396  1.00  0.00     0.010 A 
ATOM     43  C   UNL A   1      41.052  27.327  28.422  1.00  0.00    -0.014 A 
BRANCH  43  44
ATOM     44  C   UNL A   1      41.063  28.708  28.896  1.00  0.00     0.031 A 
ATOM     45  C   UNL A   1      42.159  29.539  28.329  1.00  0.00     0.074 A 
ATOM     46  C   UNL A   1      40.043  29.248  29.603  1.00  0.00     0.049 A 
ATOM     47  N   UNL A   1      43.184  30.016  28.950  1.00  0.00    -0.248 NA
ATOM     48  C   UNL A   1      42.219  29.726  26.870  1.00  0.00     0.031 C 
ATOM     49  C   UNL A   1      38.759  28.641  29.980  1.00  0.00     0.029 A 
ATOM     50  N   UNL A   1      39.900  30.521  30.058  1.00  0.00    -0.354 N 
ATOM     51  C   UNL A   1      43.894  30.766  28.018  1.00  0.00     0.074 A 
ATOM     52  C   UNL A   1      43.374  30.383  26.733  1.00  0.00     0.031 C 
ATOM     53  C   UNL A   1      37.895  29.602  30.381  1.00  0.00     0.029 A 
ATOM     54  C   UNL A   1      38.612  30.861  30.470  1.00  0.00     0.049 A 
ATOM     55  H   UNL A   1      40.652  31.156  30.093  1.00  0.00     0.167 HD
ATOM     56  C   UNL A   1      44.692  31.799  28.411  1.00  0.00     0.034 A 
ATOM     57  C   UNL A   1      38.165  32.090  30.854  1.00  0.00     0.034 A 
ATOM     58  C   UNL A   1      44.953  31.728  29.832  1.00  0.00     0.049 A 
ATOM     59  C   UNL A   1      39.371  32.856  31.259  1.00  0.00     0.074 A 
ATOM     60  C   UNL A   1      45.547  30.787  30.653  1.00  0.00     0.029 A 
ATOM     61  N   UNL A   1      44.198  32.519  30.672  1.00  0.00    -0.354 N 
ATOM     62  N   UNL A   1      40.115  32.519  32.279  1.00  0.00    -0.248 NA
ATOM     63  C   UNL A   1      40.043  33.651  30.241  1.00  0.00     0.031 C 
ATOM     64  C   UNL A   1      44.707  30.732  31.806  1.00  0.00     0.029 A 
ATOM     65  C   UNL A   1      43.720  31.712  31.678  1.00  0.00     0.049 A 
ATOM     66  H   UNL A   1      44.032  33.484  30.569  1.00  0.00     0.167 HD
ATOM     67  C   UNL A   1      41.422  32.665  31.836  1.00  0.00     0.074 A 
ATOM     68  C   UNL A   1      41.314  33.446  30.602  1.00  0.00     0.031 C 
ATOM     69  C   UNL A   1      42.439  31.901  32.339  1.00  0.00     0.034 A 
BRANCH  56  70
ATOM     70  C   UNL A   1      44.957  33.057  27.610  1.00  0.00     0.023 A 
ATOM     71  C   UNL A   1      46.264  33.247  27.119  1.00  0.00     0.031 A 
ATOM     72  C   UNL A   1      44.107  34.183  27.536  1.00  0.00     0.131 A 
ATOM     73  C   UNL A   1      46.701  34.513  26.689  1.00  0.00     0.055 A 
ATOM     74  C   UNL A   1      44.527  35.423  27.047  1.00  0.00     0.041 A 
ATOM     75  F   UNL A   1      42.858  34.182  28.013  1.00  0.00    -0.206 F 
ATOM     76  C   UNL A   1      45.840  35.605  26.650  1.00  0.00     0.022 A 
BRANCH  73  77
ATOM     77  S   UNL A   1      48.466  34.745  26.351  1.00  0.00     0.124 S 
ATOM     78  O   UNL A   1      49.058  33.640  27.095  1.00  0.00    -0.237 OA
ATOM     79  O   UNL A   1      48.507  34.640  24.896  1.00  0.00    -0.237 OA
ATOM     80  O   UNL A   1      48.740  36.076  26.888  1.00  0.00    -0.744 OA
ENDBRANCH  73  77
ENDBRANCH  56  70
BRANCH  57  81
ATOM     81  C   UNL A   1      36.851  32.719  30.522  1.00  0.00     0.023 A 
ATOM     82  C   UNL A   1      35.976  33.263  31.491  1.00  0.00     0.031 A 
ATOM     83  C   UNL A   1      36.552  33.016  29.172  1.00  0.00     0.131 A 
ATOM     84  C   UNL A   1      34.870  34.059  31.093  1.00  0.00     0.055 A 
ATOM     85  C   UNL A   1      35.465  33.805  28.787  1.00  0.00     0.041 A 
ATOM     86  F   UNL A   1      37.363  32.616  28.179  1.00  0.00    -0.206 F 
ATOM     87  C   UNL A   1      34.623  34.338  29.747  1.00  0.00     0.022 A 
BRANCH  84  88
ATOM     88  S   UNL A   1      33.761  34.816  32.332  1.00  0.00     0.124 S 
ATOM     89  O   UNL A   1      34.632  35.794  32.974  1.00  0.00    -0.237 OA
ATOM     90  O   UNL A   1      32.683  35.349  31.507  1.00  0.00    -0.237 OA
ATOM     91  O   UNL A   1      33.377  33.688  33.183  1.00  0.00    -0.744 OA
ENDBRANCH  84  88
ENDBRANCH  57  81
BRANCH  69  92
ATOM     92  C   UNL A   1      42.166  31.042  33.565  1.00  0.00     0.023 A 
ATOM     93  C   UNL A   1      41.972  29.639  33.559  1.00  0.00     0.031 A 
ATOM     94  C   UNL A   1      42.239  31.676  34.818  1.00  0.00     0.131 A 
ATOM     95  C   UNL A   1      41.852  28.934  34.777  1.00  0.00     0.055 A 
ATOM     96  C   UNL A   1      42.148  30.973  36.019  1.00  0.00     0.041 A 
ATOM     97  F   UNL A   1      42.445  33.002  34.897  1.00  0.00    -0.206 F 
ATOM     98  C   UNL A   1      41.949  29.599  36.003  1.00  0.00     0.022 A 
BRANCH  95  99
ATOM     99  S   UNL A   1      41.548  27.133  34.798  1.00  0.00     0.124 S 
ATOM    100  O   UNL A   1      41.256  26.853  36.200  1.00  0.00    -0.237 OA
ATOM    101  O   UNL A   1      40.430  26.987  33.872  1.00  0.00    -0.237 OA
ATOM    102  O   UNL A   1      42.812  26.570  34.317  1.00  0.00    -0.744 OA
ENDBRANCH  95  99
ENDBRANCH  69  92
ENDBRANCH  43  44
ENDBRANCH  35  38
ENDBRANCH  33  34
ENDBRANCH  32  33
ENDBRANCH  31  32
ENDBRANCH   1  31
TORSDOF 20
ENDMDL
