MODEL 1
REMARK VINA RESULT:     -10.4      0.000      0.000
REMARK SMILES CC[N@@H+](CCC(=O)NCCCCCCNC(=O)c1ccc(-c2c3nc(c(-c4cc(S(=O)(=O)[O-])ccc4F)c4ccc([nH]4)c(-c4cc(S(=O)(=O)[O-])ccc4F)c4nc(c(-c5cc(S(=O)(=O)[O-])ccc5F)c5ccc2[nH]5)C=C4)C=C3)cc1)[C@@H]1CS[C@@H](C)C1
REMARK SMILES IDX 11 1 10 2 9 3 8 4 6 5 7 6 5 8 4 9 3 10 2 12 1 13 81 14 82 15
REMARK SMILES IDX 86 16 83 17 84 18 85 19 12 20 13 21 14 22 15 23 16 24 17 26
REMARK SMILES IDX 18 27 19 28 80 29 20 30 79 31 21 32 22 33 23 34 73 35 24 36
REMARK SMILES IDX 78 37 72 38 74 39 25 40 77 41 71 42 70 43 26 45 58 46 38 47
REMARK SMILES IDX 57 48 39 49 42 50 56 51 75 52 40 53 41 54 55 56 76 57 43 58
REMARK SMILES IDX 27 59 28 60 36 61 29 62 35 63 37 64 34 65 30 66 31 67 32 68
REMARK SMILES IDX 33 69 59 70 60 71 68 72 61 73 67 74 69 75 66 76 62 77 63 78
REMARK SMILES IDX 64 79 65 80 44 81 45 82 53 83 46 84 52 85 54 86 51 87 47 88
REMARK SMILES IDX 48 89 49 90 50 91
REMARK H PARENT 8 7 3 11 15 25 74 44 42 55
REMARK Flexibility Score: inf
ROOT
ATOM      1  C   UNL A   1      32.861  27.176  26.034  1.00  0.00     0.002 C 
ENDROOT
BRANCH   1   2
ATOM      2  C   UNL A   1      31.358  26.961  26.218  1.00  0.00     0.021 C 
BRANCH   2   3
ATOM      3  C   UNL A   1      30.728  25.790  25.457  1.00  0.00     0.116 C 
BRANCH   3   4
ATOM      4  N   UNL A   1      30.166  24.757  26.316  1.00  0.00    -0.356 N 
ATOM      5  C   UNL A   1      30.720  23.642  26.877  1.00  0.00     0.225 C 
ATOM      6  O   UNL A   1      30.009  22.946  27.605  1.00  0.00    -0.275 OA
ATOM      7  H   UNL A   1      29.215  24.884  26.531  1.00  0.00     0.163 HD
BRANCH   5   8
ATOM      8  C   UNL A   1      32.153  23.243  26.599  1.00  0.00     0.161 C 
BRANCH   8   9
ATOM      9  C   UNL A   1      32.309  21.845  25.967  1.00  0.00     0.272 C 
BRANCH   9  10
ATOM     10  N   UNL A   1      33.029  21.735  24.668  1.00  0.00    -0.332 N 
ATOM     11  H   UNL A   1      32.839  22.394  23.914  1.00  0.00     0.348 HD
BRANCH  10  12
ATOM     12  C   UNL A   1      32.523  20.567  23.938  1.00  0.00     0.259 C 
ATOM     13  C   UNL A   1      32.539  19.120  24.416  1.00  0.00     0.071 C 
ENDBRANCH  10  12
BRANCH  10  14
ATOM     14  C   UNL A   1      34.417  22.242  24.755  1.00  0.00     0.195 C 
ATOM     15  C   UNL A   1      34.783  22.973  23.424  1.00  0.00     0.134 C 
ATOM     16  C   UNL A   1      35.625  21.331  25.010  1.00  0.00     0.080 C 
ATOM     17  S   UNL A   1      36.583  22.951  23.194  1.00  0.00    -0.152 SA
ATOM     18  C   UNL A   1      36.906  22.176  24.796  1.00  0.00     0.049 C 
ATOM     19  C   UNL A   1      37.201  23.321  25.772  1.00  0.00     0.019 C 
ENDBRANCH  10  14
ENDBRANCH   9  10
ENDBRANCH   8   9
ENDBRANCH   5   8
ENDBRANCH   3   4
ENDBRANCH   2   3
ENDBRANCH   1   2
BRANCH   1  20
ATOM     20  C   UNL A   1      33.283  28.512  25.416  1.00  0.00     0.002 C 
BRANCH  20  21
ATOM     21  C   UNL A   1      32.237  29.636  25.454  1.00  0.00     0.021 C 
BRANCH  21  22
ATOM     22  C   UNL A   1      31.947  30.244  26.827  1.00  0.00     0.116 C 
BRANCH  22  23
ATOM     23  N   UNL A   1      32.029  31.698  26.839  1.00  0.00    -0.352 N 
ATOM     24  C   UNL A   1      32.981  32.521  27.391  1.00  0.00     0.251 C 
ATOM     25  H   UNL A   1      31.291  32.161  26.382  1.00  0.00     0.163 HD
ATOM     26  O   UNL A   1      32.762  33.734  27.468  1.00  0.00    -0.269 OA
BRANCH  24  27
ATOM     27  C   UNL A   1      34.243  31.965  27.923  1.00  0.00     0.039 A 
ATOM     28  C   UNL A   1      35.349  32.806  28.062  1.00  0.00     0.014 A 
ATOM     29  C   UNL A   1      34.344  30.617  28.279  1.00  0.00     0.014 A 
ATOM     30  C   UNL A   1      36.526  32.316  28.634  1.00  0.00     0.010 A 
ATOM     31  C   UNL A   1      35.493  30.151  28.922  1.00  0.00     0.010 A 
ATOM     32  C   UNL A   1      36.596  30.996  29.114  1.00  0.00    -0.014 A 
BRANCH  32  33
ATOM     33  C   UNL A   1      37.804  30.520  29.843  1.00  0.00     0.031 A 
ATOM     34  C   UNL A   1      38.060  30.925  31.269  1.00  0.00     0.074 A 
ATOM     35  C   UNL A   1      38.694  29.737  29.199  1.00  0.00     0.049 A 
ATOM     36  N   UNL A   1      39.040  30.575  32.066  1.00  0.00    -0.248 NA
ATOM     37  C   UNL A   1      37.108  31.868  31.871  1.00  0.00     0.031 C 
ATOM     38  C   UNL A   1      38.588  29.319  27.799  1.00  0.00     0.029 A 
ATOM     39  N   UNL A   1      39.853  29.141  29.633  1.00  0.00    -0.354 N 
ATOM     40  C   UNL A   1      38.824  31.257  33.259  1.00  0.00     0.074 A 
ATOM     41  C   UNL A   1      37.660  32.094  33.053  1.00  0.00     0.031 C 
ATOM     42  C   UNL A   1      39.604  28.491  27.508  1.00  0.00     0.029 A 
ATOM     43  C   UNL A   1      40.463  28.356  28.680  1.00  0.00     0.049 A 
ATOM     44  H   UNL A   1      40.213  29.264  30.542  1.00  0.00     0.167 HD
ATOM     45  C   UNL A   1      39.518  31.177  34.423  1.00  0.00     0.034 A 
ATOM     46  C   UNL A   1      41.582  27.609  28.743  1.00  0.00     0.034 A 
ATOM     47  C   UNL A   1      40.679  30.338  34.610  1.00  0.00     0.049 A 
ATOM     48  C   UNL A   1      42.351  27.558  30.038  1.00  0.00     0.074 A 
ATOM     49  C   UNL A   1      41.414  30.128  35.765  1.00  0.00     0.029 A 
ATOM     50  N   UNL A   1      41.291  29.586  33.614  1.00  0.00    -0.354 N 
ATOM     51  N   UNL A   1      42.087  28.145  31.182  1.00  0.00    -0.248 NA
ATOM     52  C   UNL A   1      43.563  26.730  30.049  1.00  0.00     0.031 C 
ATOM     53  C   UNL A   1      42.516  29.325  35.446  1.00  0.00     0.029 A 
ATOM     54  C   UNL A   1      42.420  28.952  34.115  1.00  0.00     0.049 A 
ATOM     55  H   UNL A   1      40.969  29.513  32.687  1.00  0.00     0.167 HD
ATOM     56  C   UNL A   1      43.089  27.736  32.059  1.00  0.00     0.074 A 
ATOM     57  C   UNL A   1      43.941  26.829  31.315  1.00  0.00     0.031 C 
ATOM     58  C   UNL A   1      43.286  28.077  33.359  1.00  0.00     0.034 A 
BRANCH  45  59
ATOM     59  C   UNL A   1      39.056  32.050  35.571  1.00  0.00     0.023 A 
ATOM     60  C   UNL A   1      39.475  33.386  35.706  1.00  0.00     0.031 A 
ATOM     61  C   UNL A   1      38.208  31.528  36.566  1.00  0.00     0.131 A 
ATOM     62  C   UNL A   1      39.124  34.121  36.849  1.00  0.00     0.055 A 
ATOM     63  C   UNL A   1      37.787  32.296  37.654  1.00  0.00     0.041 A 
ATOM     64  F   UNL A   1      37.788  30.254  36.508  1.00  0.00    -0.206 F 
ATOM     65  C   UNL A   1      38.260  33.594  37.811  1.00  0.00     0.022 A 
BRANCH  62  66
ATOM     66  S   UNL A   1      39.952  35.708  37.144  1.00  0.00     0.124 S 
ATOM     67  O   UNL A   1      39.277  36.172  38.354  1.00  0.00    -0.237 OA
ATOM     68  O   UNL A   1      41.347  35.313  37.300  1.00  0.00    -0.237 OA
ATOM     69  O   UNL A   1      39.652  36.479  35.939  1.00  0.00    -0.744 OA
ENDBRANCH  62  66
ENDBRANCH  45  59
BRANCH  46  70
ATOM     70  C   UNL A   1      42.046  26.839  27.551  1.00  0.00     0.023 A 
ATOM     71  C   UNL A   1      41.835  25.454  27.459  1.00  0.00     0.031 A 
ATOM     72  C   UNL A   1      42.739  27.472  26.503  1.00  0.00     0.131 A 
ATOM     73  C   UNL A   1      42.351  24.739  26.366  1.00  0.00     0.055 A 
ATOM     74  C   UNL A   1      43.200  26.765  25.392  1.00  0.00     0.041 A 
ATOM     75  F   UNL A   1      42.966  28.795  26.539  1.00  0.00    -0.206 F 
ATOM     76  C   UNL A   1      43.017  25.387  25.324  1.00  0.00     0.022 A 
BRANCH  73  77
ATOM     77  S   UNL A   1      42.207  22.931  26.366  1.00  0.00     0.124 S 
ATOM     78  O   UNL A   1      40.798  22.744  26.690  1.00  0.00    -0.237 OA
ATOM     79  O   UNL A   1      42.602  22.596  25.001  1.00  0.00    -0.237 OA
ATOM     80  O   UNL A   1      43.149  22.516  27.404  1.00  0.00    -0.744 OA
ENDBRANCH  73  77
ENDBRANCH  46  70
BRANCH  58  81
ATOM     81  C   UNL A   1      44.466  27.438  34.058  1.00  0.00     0.023 A 
ATOM     82  C   UNL A   1      45.741  28.034  34.047  1.00  0.00     0.031 A 
ATOM     83  C   UNL A   1      44.328  26.196  34.701  1.00  0.00     0.131 A 
ATOM     84  C   UNL A   1      46.839  27.349  34.588  1.00  0.00     0.055 A 
ATOM     85  C   UNL A   1      45.409  25.557  35.311  1.00  0.00     0.041 A 
ATOM     86  F   UNL A   1      43.139  25.574  34.742  1.00  0.00    -0.206 F 
ATOM     87  C   UNL A   1      46.679  26.123  35.239  1.00  0.00     0.022 A 
BRANCH  84  88
ATOM     88  S   UNL A   1      48.503  28.015  34.304  1.00  0.00     0.124 S 
ATOM     89  O   UNL A   1      48.210  29.314  33.706  1.00  0.00    -0.237 OA
ATOM     90  O   UNL A   1      49.061  28.046  35.651  1.00  0.00    -0.237 OA
ATOM     91  O   UNL A   1      49.114  27.040  33.402  1.00  0.00    -0.744 OA
ENDBRANCH  84  88
ENDBRANCH  58  81
ENDBRANCH  32  33
ENDBRANCH  24  27
ENDBRANCH  22  23
ENDBRANCH  21  22
ENDBRANCH  20  21
ENDBRANCH   1  20
TORSDOF 20
ENDMDL
MODEL 2
REMARK VINA RESULT:     -10.0      2.738      3.896
REMARK SMILES CC[N@@H+](CCC(=O)NCCCCCCNC(=O)c1ccc(-c2c3nc(c(-c4cc(S(=O)(=O)[O-])ccc4F)c4ccc([nH]4)c(-c4cc(S(=O)(=O)[O-])ccc4F)c4nc(c(-c5cc(S(=O)(=O)[O-])ccc5F)c5ccc2[nH]5)C=C4)C=C3)cc1)[C@@H]1CS[C@@H](C)C1
REMARK SMILES IDX 11 1 10 2 9 3 8 4 6 5 7 6 5 8 4 9 3 10 2 12 1 13 81 14 82 15
REMARK SMILES IDX 86 16 83 17 84 18 85 19 12 20 13 21 14 22 15 23 16 24 17 26
REMARK SMILES IDX 18 27 19 28 80 29 20 30 79 31 21 32 22 33 23 34 73 35 24 36
REMARK SMILES IDX 78 37 72 38 74 39 25 40 77 41 71 42 70 43 26 45 58 46 38 47
REMARK SMILES IDX 57 48 39 49 42 50 56 51 75 52 40 53 41 54 55 56 76 57 43 58
REMARK SMILES IDX 27 59 28 60 36 61 29 62 35 63 37 64 34 65 30 66 31 67 32 68
REMARK SMILES IDX 33 69 59 70 60 71 68 72 61 73 67 74 69 75 66 76 62 77 63 78
REMARK SMILES IDX 64 79 65 80 44 81 45 82 53 83 46 84 52 85 54 86 51 87 47 88
REMARK SMILES IDX 48 89 49 90 50 91
REMARK H PARENT 8 7 3 11 15 25 74 44 42 55
REMARK Flexibility Score: inf
ROOT
ATOM      1  C   UNL A   1      33.838  29.968  26.847  1.00  0.00     0.002 C 
ENDROOT
BRANCH   1   2
ATOM      2  C   UNL A   1      34.410  28.553  26.745  1.00  0.00     0.021 C 
BRANCH   2   3
ATOM      3  C   UNL A   1      33.750  27.611  25.734  1.00  0.00     0.116 C 
BRANCH   3   4
ATOM      4  N   UNL A   1      33.101  26.454  26.336  1.00  0.00    -0.356 N 
ATOM      5  C   UNL A   1      31.806  26.022  26.305  1.00  0.00     0.225 C 
ATOM      6  O   UNL A   1      31.534  24.968  26.886  1.00  0.00    -0.275 OA
ATOM      7  H   UNL A   1      33.705  25.880  26.859  1.00  0.00     0.163 HD
BRANCH   5   8
ATOM      8  C   UNL A   1      30.722  26.815  25.610  1.00  0.00     0.161 C 
BRANCH   8   9
ATOM      9  C   UNL A   1      30.240  26.199  24.282  1.00  0.00     0.272 C 
BRANCH   9  10
ATOM     10  N   UNL A   1      30.408  26.994  23.033  1.00  0.00    -0.332 N 
ATOM     11  H   UNL A   1      29.828  26.802  22.216  1.00  0.00     0.348 HD
BRANCH  10  12
ATOM     12  C   UNL A   1      31.665  26.604  22.383  1.00  0.00     0.259 C 
ATOM     13  C   UNL A   1      32.201  25.187  22.220  1.00  0.00     0.071 C 
ENDBRANCH  10  12
BRANCH  10  14
ATOM     14  C   UNL A   1      29.800  28.339  23.142  1.00  0.00     0.195 C 
ATOM     15  C   UNL A   1      28.249  28.216  23.011  1.00  0.00     0.134 C 
ATOM     16  C   UNL A   1      30.151  29.493  22.195  1.00  0.00     0.080 C 
ATOM     17  S   UNL A   1      27.562  29.787  22.418  1.00  0.00    -0.152 SA
ATOM     18  C   UNL A   1      29.153  30.647  22.467  1.00  0.00     0.049 C 
ATOM     19  C   UNL A   1      29.209  31.361  23.823  1.00  0.00     0.019 C 
ENDBRANCH  10  14
ENDBRANCH   9  10
ENDBRANCH   8   9
ENDBRANCH   5   8
ENDBRANCH   3   4
ENDBRANCH   2   3
ENDBRANCH   1   2
BRANCH   1  20
ATOM     20  C   UNL A   1      32.468  30.193  26.201  1.00  0.00     0.002 C 
BRANCH  20  21
ATOM     21  C   UNL A   1      31.887  31.610  26.319  1.00  0.00     0.021 C 
BRANCH  21  22
ATOM     22  C   UNL A   1      31.999  32.274  27.693  1.00  0.00     0.116 C 
BRANCH  22  23
ATOM     23  N   UNL A   1      32.444  33.658  27.625  1.00  0.00    -0.352 N 
ATOM     24  C   UNL A   1      33.595  34.236  28.102  1.00  0.00     0.251 C 
ATOM     25  H   UNL A   1      31.826  34.273  27.170  1.00  0.00     0.163 HD
ATOM     26  O   UNL A   1      33.691  35.467  28.123  1.00  0.00    -0.269 OA
BRANCH  24  27
ATOM     27  C   UNL A   1      34.700  33.403  28.622  1.00  0.00     0.039 A 
ATOM     28  C   UNL A   1      35.959  33.497  28.026  1.00  0.00     0.014 A 
ATOM     29  C   UNL A   1      34.499  32.522  29.690  1.00  0.00     0.014 A 
ATOM     30  C   UNL A   1      37.032  32.772  28.552  1.00  0.00     0.010 A 
ATOM     31  C   UNL A   1      35.587  31.862  30.262  1.00  0.00     0.010 A 
ATOM     32  C   UNL A   1      36.869  31.984  29.705  1.00  0.00    -0.014 A 
BRANCH  32  33
ATOM     33  C   UNL A   1      38.043  31.322  30.340  1.00  0.00     0.031 A 
ATOM     34  C   UNL A   1      38.472  31.678  31.738  1.00  0.00     0.074 A 
ATOM     35  C   UNL A   1      38.746  30.412  29.636  1.00  0.00     0.049 A 
ATOM     36  N   UNL A   1      39.445  31.177  32.458  1.00  0.00    -0.248 NA
ATOM     37  C   UNL A   1      37.729  32.756  32.405  1.00  0.00     0.031 C 
ATOM     38  C   UNL A   1      38.465  30.020  28.252  1.00  0.00     0.029 A 
ATOM     39  N   UNL A   1      39.828  29.641  29.982  1.00  0.00    -0.354 N 
ATOM     40  C   UNL A   1      39.434  31.881  33.658  1.00  0.00     0.074 A 
ATOM     41  C   UNL A   1      38.402  32.889  33.538  1.00  0.00     0.031 C 
ATOM     42  C   UNL A   1      39.313  29.045  27.889  1.00  0.00     0.029 A 
ATOM     43  C   UNL A   1      40.230  28.774  28.991  1.00  0.00     0.049 A 
ATOM     44  H   UNL A   1      40.275  29.704  30.858  1.00  0.00     0.167 HD
ATOM     45  C   UNL A   1      40.198  31.690  34.764  1.00  0.00     0.034 A 
ATOM     46  C   UNL A   1      41.221  27.861  28.971  1.00  0.00     0.034 A 
ATOM     47  C   UNL A   1      41.225  30.679  34.866  1.00  0.00     0.049 A 
ATOM     48  C   UNL A   1      42.073  27.686  30.202  1.00  0.00     0.074 A 
ATOM     49  C   UNL A   1      42.009  30.353  35.961  1.00  0.00     0.029 A 
ATOM     50  N   UNL A   1      41.631  29.843  33.832  1.00  0.00    -0.354 N 
ATOM     51  N   UNL A   1      41.996  28.304  31.358  1.00  0.00    -0.248 NA
ATOM     52  C   UNL A   1      43.139  26.680  30.125  1.00  0.00     0.031 C 
ATOM     53  C   UNL A   1      42.943  29.389  35.564  1.00  0.00     0.029 A 
ATOM     54  C   UNL A   1      42.684  29.040  34.248  1.00  0.00     0.049 A 
ATOM     55  H   UNL A   1      41.229  29.825  32.934  1.00  0.00     0.167 HD
ATOM     56  C   UNL A   1      42.989  27.741  32.156  1.00  0.00     0.074 A 
ATOM     57  C   UNL A   1      43.628  26.714  31.355  1.00  0.00     0.031 C 
ATOM     58  C   UNL A   1      43.340  28.042  33.433  1.00  0.00     0.034 A 
BRANCH  45  59
ATOM     59  C   UNL A   1      39.970  32.620  35.937  1.00  0.00     0.023 A 
ATOM     60  C   UNL A   1      39.164  32.255  37.030  1.00  0.00     0.031 A 
ATOM     61  C   UNL A   1      40.539  33.907  35.947  1.00  0.00     0.131 A 
ATOM     62  C   UNL A   1      38.877  33.191  38.036  1.00  0.00     0.055 A 
ATOM     63  C   UNL A   1      40.325  34.801  36.997  1.00  0.00     0.041 A 
ATOM     64  F   UNL A   1      41.302  34.326  34.924  1.00  0.00    -0.206 F 
ATOM     65  C   UNL A   1      39.475  34.453  38.041  1.00  0.00     0.022 A 
BRANCH  62  66
ATOM     66  S   UNL A   1      37.579  32.796  39.240  1.00  0.00     0.124 S 
ATOM     67  O   UNL A   1      37.733  33.881  40.206  1.00  0.00    -0.237 OA
ATOM     68  O   UNL A   1      36.371  32.829  38.424  1.00  0.00    -0.237 OA
ATOM     69  O   UNL A   1      37.963  31.475  39.735  1.00  0.00    -0.744 OA
ENDBRANCH  62  66
ENDBRANCH  45  59
BRANCH  46  70
ATOM     70  C   UNL A   1      41.463  27.033  27.754  1.00  0.00     0.023 A 
ATOM     71  C   UNL A   1      41.127  25.669  27.729  1.00  0.00     0.031 A 
ATOM     72  C   UNL A   1      42.067  27.583  26.609  1.00  0.00     0.131 A 
ATOM     73  C   UNL A   1      41.437  24.892  26.602  1.00  0.00     0.055 A 
ATOM     74  C   UNL A   1      42.320  26.819  25.469  1.00  0.00     0.041 A 
ATOM     75  F   UNL A   1      42.405  28.882  26.576  1.00  0.00    -0.206 F 
ATOM     76  C   UNL A   1      42.017  25.461  25.466  1.00  0.00     0.022 A 
BRANCH  73  77
ATOM     77  S   UNL A   1      41.145  23.103  26.673  1.00  0.00     0.124 S 
ATOM     78  O   UNL A   1      39.751  23.013  26.256  1.00  0.00    -0.237 OA
ATOM     79  O   UNL A   1      42.133  22.597  25.726  1.00  0.00    -0.237 OA
ATOM     80  O   UNL A   1      41.401  22.773  28.074  1.00  0.00    -0.744 OA
ENDBRANCH  73  77
ENDBRANCH  46  70
BRANCH  58  81
ATOM     81  C   UNL A   1      44.458  27.225  34.042  1.00  0.00     0.023 A 
ATOM     82  C   UNL A   1      44.244  25.916  34.512  1.00  0.00     0.031 A 
ATOM     83  C   UNL A   1      45.741  27.777  34.200  1.00  0.00     0.131 A 
ATOM     84  C   UNL A   1      45.267  25.239  35.192  1.00  0.00     0.055 A 
ATOM     85  C   UNL A   1      46.780  27.067  34.806  1.00  0.00     0.041 A 
ATOM     86  F   UNL A   1      46.008  29.023  33.777  1.00  0.00    -0.206 F 
ATOM     87  C   UNL A   1      46.540  25.797  35.324  1.00  0.00     0.022 A 
BRANCH  84  88
ATOM     88  S   UNL A   1      44.868  23.678  36.027  1.00  0.00     0.124 S 
ATOM     89  O   UNL A   1      45.850  22.767  35.447  1.00  0.00    -0.237 OA
ATOM     90  O   UNL A   1      45.066  24.016  37.432  1.00  0.00    -0.237 OA
ATOM     91  O   UNL A   1      43.482  23.426  35.640  1.00  0.00    -0.744 OA
ENDBRANCH  84  88
ENDBRANCH  58  81
ENDBRANCH  32  33
ENDBRANCH  24  27
ENDBRANCH  22  23
ENDBRANCH  21  22
ENDBRANCH  20  21
ENDBRANCH   1  20
TORSDOF 20
ENDMDL
MODEL 3
REMARK VINA RESULT:     -10.0      3.289      4.601
REMARK SMILES CC[N@@H+](CCC(=O)NCCCCCCNC(=O)c1ccc(-c2c3nc(c(-c4cc(S(=O)(=O)[O-])ccc4F)c4ccc([nH]4)c(-c4cc(S(=O)(=O)[O-])ccc4F)c4nc(c(-c5cc(S(=O)(=O)[O-])ccc5F)c5ccc2[nH]5)C=C4)C=C3)cc1)[C@@H]1CS[C@@H](C)C1
REMARK SMILES IDX 11 1 10 2 9 3 8 4 6 5 7 6 5 8 4 9 3 10 2 12 1 13 81 14 82 15
REMARK SMILES IDX 86 16 83 17 84 18 85 19 12 20 13 21 14 22 15 23 16 24 17 26
REMARK SMILES IDX 18 27 19 28 80 29 20 30 79 31 21 32 22 33 23 34 73 35 24 36
REMARK SMILES IDX 78 37 72 38 74 39 25 40 77 41 71 42 70 43 26 45 58 46 38 47
REMARK SMILES IDX 57 48 39 49 42 50 56 51 75 52 40 53 41 54 55 56 76 57 43 58
REMARK SMILES IDX 27 59 28 60 36 61 29 62 35 63 37 64 34 65 30 66 31 67 32 68
REMARK SMILES IDX 33 69 59 70 60 71 68 72 61 73 67 74 69 75 66 76 62 77 63 78
REMARK SMILES IDX 64 79 65 80 44 81 45 82 53 83 46 84 52 85 54 86 51 87 47 88
REMARK SMILES IDX 48 89 49 90 50 91
REMARK H PARENT 8 7 3 11 15 25 74 44 42 55
REMARK Flexibility Score: inf
ROOT
ATOM      1  C   UNL A   1      34.966  31.076  28.478  1.00  0.00     0.002 C 
ENDROOT
BRANCH   1   2
ATOM      2  C   UNL A   1      34.942  29.832  27.589  1.00  0.00     0.021 C 
BRANCH   2   3
ATOM      3  C   UNL A   1      33.795  29.724  26.580  1.00  0.00     0.116 C 
BRANCH   3   4
ATOM      4  N   UNL A   1      32.617  29.035  27.091  1.00  0.00    -0.356 N 
ATOM      5  C   UNL A   1      32.085  27.811  26.802  1.00  0.00     0.225 C 
ATOM      6  O   UNL A   1      31.079  27.457  27.421  1.00  0.00    -0.275 OA
ATOM      7  H   UNL A   1      32.114  29.544  27.766  1.00  0.00     0.163 HD
BRANCH   5   8
ATOM      8  C   UNL A   1      32.681  26.919  25.736  1.00  0.00     0.161 C 
BRANCH   8   9
ATOM      9  C   UNL A   1      32.471  27.428  24.295  1.00  0.00     0.272 C 
BRANCH   9  10
ATOM     10  N   UNL A   1      31.187  27.105  23.613  1.00  0.00    -0.332 N 
ATOM     11  H   UNL A   1      30.453  26.596  24.106  1.00  0.00     0.348 HD
BRANCH  10  12
ATOM     12  C   UNL A   1      31.424  26.047  22.624  1.00  0.00     0.259 C 
ATOM     13  C   UNL A   1      32.527  26.017  21.573  1.00  0.00     0.071 C 
ENDBRANCH  10  12
BRANCH  10  14
ATOM     14  C   UNL A   1      30.297  28.283  23.514  1.00  0.00     0.195 C 
ATOM     15  C   UNL A   1      28.811  27.804  23.466  1.00  0.00     0.134 C 
ATOM     16  C   UNL A   1      30.383  29.301  22.370  1.00  0.00     0.080 C 
ATOM     17  S   UNL A   1      27.793  29.059  22.640  1.00  0.00    -0.152 SA
ATOM     18  C   UNL A   1      29.154  30.239  22.479  1.00  0.00     0.049 C 
ATOM     19  C   UNL A   1      29.051  31.175  23.689  1.00  0.00     0.019 C 
ENDBRANCH  10  14
ENDBRANCH   9  10
ENDBRANCH   8   9
ENDBRANCH   5   8
ENDBRANCH   3   4
ENDBRANCH   2   3
ENDBRANCH   1   2
BRANCH   1  20
ATOM     20  C   UNL A   1      34.744  32.417  27.772  1.00  0.00     0.002 C 
BRANCH  20  21
ATOM     21  C   UNL A   1      33.430  33.144  28.095  1.00  0.00     0.021 C 
BRANCH  21  22
ATOM     22  C   UNL A   1      33.502  34.670  28.168  1.00  0.00     0.116 C 
BRANCH  22  23
ATOM     23  N   UNL A   1      33.007  35.207  29.427  1.00  0.00    -0.352 N 
ATOM     24  C   UNL A   1      33.384  34.916  30.716  1.00  0.00     0.251 C 
ATOM     25  H   UNL A   1      32.294  35.880  29.343  1.00  0.00     0.163 HD
ATOM     26  O   UNL A   1      32.699  35.332  31.656  1.00  0.00    -0.269 OA
BRANCH  24  27
ATOM     27  C   UNL A   1      34.575  34.083  30.985  1.00  0.00     0.039 A 
ATOM     28  C   UNL A   1      35.825  34.525  30.545  1.00  0.00     0.014 A 
ATOM     29  C   UNL A   1      34.466  32.865  31.662  1.00  0.00     0.014 A 
ATOM     30  C   UNL A   1      36.970  33.788  30.856  1.00  0.00     0.010 A 
ATOM     31  C   UNL A   1      35.618  32.173  32.039  1.00  0.00     0.010 A 
ATOM     32  C   UNL A   1      36.885  32.629  31.648  1.00  0.00    -0.014 A 
BRANCH  32  33
ATOM     33  C   UNL A   1      38.120  31.923  32.089  1.00  0.00     0.031 A 
ATOM     34  C   UNL A   1      38.790  32.271  33.391  1.00  0.00     0.074 A 
ATOM     35  C   UNL A   1      38.658  30.978  31.291  1.00  0.00     0.049 A 
ATOM     36  N   UNL A   1      39.849  31.735  33.946  1.00  0.00    -0.248 NA
ATOM     37  C   UNL A   1      38.213  33.386  34.155  1.00  0.00     0.031 C 
ATOM     38  C   UNL A   1      38.135  30.587  29.980  1.00  0.00     0.029 A 
ATOM     39  N   UNL A   1      39.751  30.164  31.465  1.00  0.00    -0.354 N 
ATOM     40  C   UNL A   1      40.067  32.448  35.121  1.00  0.00     0.074 A 
ATOM     41  C   UNL A   1      39.071  33.499  35.158  1.00  0.00     0.031 C 
ATOM     42  C   UNL A   1      38.871  29.573  29.496  1.00  0.00     0.029 A 
ATOM     43  C   UNL A   1      39.947  29.273  30.434  1.00  0.00     0.049 A 
ATOM     44  H   UNL A   1      40.339  30.215  32.253  1.00  0.00     0.167 HD
ATOM     45  C   UNL A   1      40.996  32.233  36.088  1.00  0.00     0.034 A 
ATOM     46  C   UNL A   1      40.882  28.318  30.264  1.00  0.00     0.034 A 
ATOM     47  C   UNL A   1      41.983  31.180  36.033  1.00  0.00     0.049 A 
ATOM     48  C   UNL A   1      41.920  28.117  31.338  1.00  0.00     0.074 A 
ATOM     49  C   UNL A   1      42.924  30.830  36.987  1.00  0.00     0.029 A 
ATOM     50  N   UNL A   1      42.176  30.320  34.958  1.00  0.00    -0.354 N 
ATOM     51  N   UNL A   1      42.062  28.747  32.481  1.00  0.00    -0.248 NA
ATOM     52  C   UNL A   1      42.916  27.065  31.101  1.00  0.00     0.031 C 
ATOM     53  C   UNL A   1      43.739  29.824  36.455  1.00  0.00     0.029 A 
ATOM     54  C   UNL A   1      43.250  29.476  35.206  1.00  0.00     0.049 A 
ATOM     55  H   UNL A   1      41.630  30.311  34.140  1.00  0.00     0.167 HD
ATOM     56  C   UNL A   1      43.150  28.148  33.112  1.00  0.00     0.074 A 
ATOM     57  C   UNL A   1      43.603  27.089  32.232  1.00  0.00     0.031 C 
ATOM     58  C   UNL A   1      43.720  28.444  34.309  1.00  0.00     0.034 A 
BRANCH  45  59
ATOM     59  C   UNL A   1      41.004  33.182  37.268  1.00  0.00     0.023 A 
ATOM     60  C   UNL A   1      40.191  32.973  38.396  1.00  0.00     0.031 A 
ATOM     61  C   UNL A   1      41.813  34.334  37.251  1.00  0.00     0.131 A 
ATOM     62  C   UNL A   1      40.135  33.941  39.411  1.00  0.00     0.055 A 
ATOM     63  C   UNL A   1      41.823  35.245  38.308  1.00  0.00     0.041 A 
ATOM     64  F   UNL A   1      42.598  34.602  36.195  1.00  0.00    -0.206 F 
ATOM     65  C   UNL A   1      40.967  35.062  39.389  1.00  0.00     0.022 A 
BRANCH  62  66
ATOM     66  S   UNL A   1      38.838  33.797  40.672  1.00  0.00     0.124 S 
ATOM     67  O   UNL A   1      37.714  33.297  39.883  1.00  0.00    -0.237 OA
ATOM     68  O   UNL A   1      39.423  32.857  41.621  1.00  0.00    -0.237 OA
ATOM     69  O   UNL A   1      38.685  35.166  41.162  1.00  0.00    -0.744 OA
ENDBRANCH  62  66
ENDBRANCH  45  59
BRANCH  46  70
ATOM     70  C   UNL A   1      40.884  27.470  29.036  1.00  0.00     0.023 A 
ATOM     71  C   UNL A   1      41.802  27.702  27.998  1.00  0.00     0.031 A 
ATOM     72  C   UNL A   1      39.946  26.436  28.866  1.00  0.00     0.131 A 
ATOM     73  C   UNL A   1      41.733  26.943  26.819  1.00  0.00     0.055 A 
ATOM     74  C   UNL A   1      39.919  25.646  27.715  1.00  0.00     0.041 A 
ATOM     75  F   UNL A   1      39.048  26.168  29.827  1.00  0.00    -0.206 F 
ATOM     76  C   UNL A   1      40.808  25.906  26.678  1.00  0.00     0.022 A 
BRANCH  73  77
ATOM     77  S   UNL A   1      42.820  27.385  25.437  1.00  0.00     0.124 S 
ATOM     78  O   UNL A   1      44.072  27.678  26.125  1.00  0.00    -0.237 OA
ATOM     79  O   UNL A   1      42.798  26.167  24.633  1.00  0.00    -0.237 OA
ATOM     80  O   UNL A   1      42.153  28.538  24.835  1.00  0.00    -0.744 OA
ENDBRANCH  73  77
ENDBRANCH  46  70
BRANCH  58  81
ATOM     81  C   UNL A   1      44.890  27.585  34.736  1.00  0.00     0.023 A 
ATOM     82  C   UNL A   1      44.700  26.351  35.385  1.00  0.00     0.031 A 
ATOM     83  C   UNL A   1      46.209  28.026  34.537  1.00  0.00     0.131 A 
ATOM     84  C   UNL A   1      45.805  25.646  35.887  1.00  0.00     0.055 A 
ATOM     85  C   UNL A   1      47.309  27.280  34.967  1.00  0.00     0.041 A 
ATOM     86  F   UNL A   1      46.457  29.197  33.929  1.00  0.00    -0.206 F 
ATOM     87  C   UNL A   1      47.109  26.092  35.664  1.00  0.00     0.022 A 
BRANCH  84  88
ATOM     88  S   UNL A   1      45.505  24.213  36.959  1.00  0.00     0.124 S 
ATOM     89  O   UNL A   1      44.476  23.491  36.217  1.00  0.00    -0.237 OA
ATOM     90  O   UNL A   1      46.817  23.579  37.007  1.00  0.00    -0.237 OA
ATOM     91  O   UNL A   1      45.060  24.812  38.216  1.00  0.00    -0.744 OA
ENDBRANCH  84  88
ENDBRANCH  58  81
ENDBRANCH  32  33
ENDBRANCH  24  27
ENDBRANCH  22  23
ENDBRANCH  21  22
ENDBRANCH  20  21
ENDBRANCH   1  20
TORSDOF 20
ENDMDL
