MODEL 1
REMARK VINA RESULT:     -10.9      0.000      0.000
REMARK SMILES CCC[C@]1(C(=O)NCCCCCCNC(=O)c2ccc(-c3c4nc(c(-c5cc(S(=O)(=O)[O-])ccc5F)c5ccc([nH]5)c(-c5cc(S(=O)(=O)[O-])ccc5F)c5nc(c(-c6cc(S(=O)(=O)[O-])ccc6F)c6ccc3[nH]6)C=C5)C=C4)cc2)CCN(c2cncc(C(=O)OC)n2)C1
REMARK SMILES IDX 10 1 9 2 8 3 7 4 5 5 6 6 4 8 80 9 93 10 81 11 82 12 3 13
REMARK SMILES IDX 2 14 1 15 83 16 84 17 92 18 85 19 87 20 86 21 88 22 89 23
REMARK SMILES IDX 90 24 91 25 11 26 12 27 13 28 14 29 15 30 16 32 17 33 18 34
REMARK SMILES IDX 79 35 19 36 78 37 20 38 21 39 22 40 72 41 23 42 77 43 71 44
REMARK SMILES IDX 73 45 24 46 76 47 70 48 69 49 25 51 57 52 37 53 56 54 38 55
REMARK SMILES IDX 41 56 55 57 74 58 39 59 40 60 54 62 75 63 42 64 26 65 27 66
REMARK SMILES IDX 35 67 28 68 34 69 36 70 33 71 29 72 30 73 31 74 32 75 58 76
REMARK SMILES IDX 59 77 67 78 60 79 66 80 68 81 65 82 61 83 62 84 63 85 64 86
REMARK SMILES IDX 43 87 44 88 52 89 45 90 51 91 53 92 50 93 46 94 47 95 48 96
REMARK SMILES IDX 49 97
REMARK H PARENT 7 7 14 31 73 50 41 61
REMARK Flexibility Score: inf
ROOT
ATOM      1  C   UNL A   1      31.625  27.825  26.358  1.00  0.00     0.002 C 
ENDROOT
BRANCH   1   2
ATOM      2  C   UNL A   1      30.893  27.067  25.240  1.00  0.00     0.021 C 
BRANCH   2   3
ATOM      3  C   UNL A   1      30.492  25.626  25.585  1.00  0.00     0.116 C 
BRANCH   3   4
ATOM      4  N   UNL A   1      31.110  25.187  26.820  1.00  0.00    -0.356 N 
ATOM      5  C   UNL A   1      31.483  23.885  26.950  1.00  0.00     0.228 C 
ATOM      6  O   UNL A   1      30.730  23.138  27.582  1.00  0.00    -0.274 OA
ATOM      7  H   UNL A   1      31.259  25.825  27.555  1.00  0.00     0.163 HD
BRANCH   5   8
ATOM      8  C   UNL A   1      32.755  23.356  26.289  1.00  0.00     0.068 C 
ATOM      9  C   UNL A   1      33.471  22.461  27.337  1.00  0.00     0.040 C 
ATOM     10  C   UNL A   1      32.588  22.434  25.048  1.00  0.00     0.135 C 
ATOM     11  C   UNL A   1      33.781  21.135  26.660  1.00  0.00     0.119 C 
ATOM     12  N   UNL A   1      32.845  21.083  25.556  1.00  0.00    -0.354 N 
BRANCH   8  13
ATOM     13  C   UNL A   1      33.619  24.615  25.959  1.00  0.00     0.018 C 
BRANCH  13  14
ATOM     14  C   UNL A   1      34.350  24.623  24.596  1.00  0.00    -0.002 C 
ATOM     15  C   UNL A   1      33.812  25.627  23.571  1.00  0.00     0.004 C 
ENDBRANCH  13  14
ENDBRANCH   8  13
BRANCH  12  16
ATOM     16  C   UNL A   1      32.986  19.992  24.710  1.00  0.00     0.148 A 
ATOM     17  C   UNL A   1      32.333  20.017  23.469  1.00  0.00     0.157 A 
ATOM     18  N   UNL A   1      33.597  18.855  25.130  1.00  0.00    -0.221 NA
ATOM     19  N   UNL A   1      32.248  18.959  22.625  1.00  0.00    -0.258 NA
ATOM     20  C   UNL A   1      33.511  17.778  24.286  1.00  0.00     0.169 A 
ATOM     21  C   UNL A   1      32.843  17.832  23.071  1.00  0.00     0.147 A 
BRANCH  20  22
ATOM     22  C   UNL A   1      34.129  16.472  24.651  1.00  0.00     0.358 C 
ATOM     23  O   UNL A   1      35.271  16.375  25.073  1.00  0.00    -0.244 OA
BRANCH  22  24
ATOM     24  O   UNL A   1      33.284  15.425  24.452  1.00  0.00    -0.464 OA
ATOM     25  C   UNL A   1      32.552  15.066  25.627  1.00  0.00     0.282 C 
ENDBRANCH  22  24
ENDBRANCH  20  22
ENDBRANCH  12  16
ENDBRANCH   5   8
ENDBRANCH   3   4
ENDBRANCH   2   3
ENDBRANCH   1   2
BRANCH   1  26
ATOM     26  C   UNL A   1      32.749  28.750  25.890  1.00  0.00     0.002 C 
BRANCH  26  27
ATOM     27  C   UNL A   1      32.757  30.123  26.559  1.00  0.00     0.021 C 
BRANCH  27  28
ATOM     28  C   UNL A   1      34.100  30.510  27.163  1.00  0.00     0.116 C 
BRANCH  28  29
ATOM     29  N   UNL A   1      33.999  31.720  27.959  1.00  0.00    -0.352 N 
ATOM     30  C   UNL A   1      34.760  32.077  29.047  1.00  0.00     0.251 C 
ATOM     31  H   UNL A   1      33.303  32.361  27.688  1.00  0.00     0.163 HD
ATOM     32  O   UNL A   1      34.414  32.998  29.777  1.00  0.00    -0.269 OA
BRANCH  30  33
ATOM     33  C   UNL A   1      35.993  31.310  29.325  1.00  0.00     0.039 A 
ATOM     34  C   UNL A   1      37.211  31.747  28.799  1.00  0.00     0.014 A 
ATOM     35  C   UNL A   1      35.939  30.187  30.156  1.00  0.00     0.014 A 
ATOM     36  C   UNL A   1      38.389  31.086  29.156  1.00  0.00     0.010 A 
ATOM     37  C   UNL A   1      37.119  29.583  30.571  1.00  0.00     0.010 A 
ATOM     38  C   UNL A   1      38.356  30.021  30.070  1.00  0.00    -0.014 A 
BRANCH  38  39
ATOM     39  C   UNL A   1      39.586  29.304  30.497  1.00  0.00     0.031 A 
ATOM     40  C   UNL A   1      40.340  29.800  31.701  1.00  0.00     0.074 A 
ATOM     41  C   UNL A   1      40.073  28.285  29.763  1.00  0.00     0.049 A 
ATOM     42  N   UNL A   1      41.522  29.456  32.141  1.00  0.00    -0.248 NA
ATOM     43  C   UNL A   1      39.685  30.853  32.491  1.00  0.00     0.031 C 
ATOM     44  C   UNL A   1      39.435  27.719  28.572  1.00  0.00     0.029 A 
ATOM     45  N   UNL A   1      41.228  27.556  29.898  1.00  0.00    -0.354 N 
ATOM     46  C   UNL A   1      41.763  30.267  33.245  1.00  0.00     0.074 A 
ATOM     47  C   UNL A   1      40.631  31.161  33.363  1.00  0.00     0.031 C 
ATOM     48  C   UNL A   1      40.202  26.724  28.095  1.00  0.00     0.029 A 
ATOM     49  C   UNL A   1      41.413  26.621  28.904  1.00  0.00     0.049 A 
ATOM     50  H   UNL A   1      41.865  27.689  30.636  1.00  0.00     0.167 HD
ATOM     51  C   UNL A   1      42.822  30.253  34.092  1.00  0.00     0.034 A 
ATOM     52  C   UNL A   1      42.452  25.798  28.657  1.00  0.00     0.034 A 
ATOM     53  C   UNL A   1      43.935  29.347  33.960  1.00  0.00     0.049 A 
ATOM     54  C   UNL A   1      43.649  25.839  29.577  1.00  0.00     0.074 A 
ATOM     55  C   UNL A   1      45.044  29.218  34.777  1.00  0.00     0.029 A 
ATOM     56  N   UNL A   1      44.085  28.416  32.939  1.00  0.00    -0.354 N 
ATOM     57  N   UNL A   1      43.859  26.600  30.627  1.00  0.00    -0.248 NA
ATOM     58  C   UNL A   1      44.747  24.908  29.284  1.00  0.00     0.031 C 
ATOM     59  C   UNL A   1      45.899  28.268  34.211  1.00  0.00     0.029 A 
ATOM     60  C   UNL A   1      45.282  27.732  33.092  1.00  0.00     0.049 A 
ATOM     61  H   UNL A   1      43.437  28.264  32.214  1.00  0.00     0.167 HD
ATOM     62  C   UNL A   1      45.090  26.203  31.145  1.00  0.00     0.074 A 
ATOM     63  C   UNL A   1      45.577  25.141  30.291  1.00  0.00     0.031 C 
ATOM     64  C   UNL A   1      45.750  26.666  32.237  1.00  0.00     0.034 A 
BRANCH  51  65
ATOM     65  C   UNL A   1      42.832  31.270  35.209  1.00  0.00     0.023 A 
ATOM     66  C   UNL A   1      43.401  32.545  35.041  1.00  0.00     0.031 A 
ATOM     67  C   UNL A   1      42.300  30.950  36.470  1.00  0.00     0.131 A 
ATOM     68  C   UNL A   1      43.504  33.416  36.136  1.00  0.00     0.055 A 
ATOM     69  C   UNL A   1      42.321  31.858  37.531  1.00  0.00     0.041 A 
ATOM     70  F   UNL A   1      41.765  29.741  36.700  1.00  0.00    -0.206 F 
ATOM     71  C   UNL A   1      42.942  33.093  37.372  1.00  0.00     0.022 A 
BRANCH  68  72
ATOM     72  S   UNL A   1      44.531  34.901  35.962  1.00  0.00     0.124 S 
ATOM     73  O   UNL A   1      43.913  35.554  34.811  1.00  0.00    -0.237 OA
ATOM     74  O   UNL A   1      44.347  35.563  37.248  1.00  0.00    -0.237 OA
ATOM     75  O   UNL A   1      45.870  34.366  35.721  1.00  0.00    -0.744 OA
ENDBRANCH  68  72
ENDBRANCH  51  65
BRANCH  52  76
ATOM     76  C   UNL A   1      42.426  24.877  27.483  1.00  0.00     0.023 A 
ATOM     77  C   UNL A   1      41.641  23.713  27.498  1.00  0.00     0.031 A 
ATOM     78  C   UNL A   1      43.220  25.119  26.349  1.00  0.00     0.131 A 
ATOM     79  C   UNL A   1      41.704  22.811  26.425  1.00  0.00     0.055 A 
ATOM     80  C   UNL A   1      43.233  24.249  25.257  1.00  0.00     0.041 A 
ATOM     81  F   UNL A   1      43.990  26.216  26.279  1.00  0.00    -0.206 F 
ATOM     82  C   UNL A   1      42.483  23.078  25.298  1.00  0.00     0.022 A 
BRANCH  79  83
ATOM     83  S   UNL A   1      40.825  21.231  26.568  1.00  0.00     0.124 S 
ATOM     84  O   UNL A   1      40.796  21.039  28.014  1.00  0.00    -0.237 OA
ATOM     85  O   UNL A   1      39.546  21.537  25.935  1.00  0.00    -0.237 OA
ATOM     86  O   UNL A   1      41.676  20.300  25.831  1.00  0.00    -0.744 OA
ENDBRANCH  79  83
ENDBRANCH  52  76
BRANCH  64  87
ATOM     87  C   UNL A   1      47.033  25.972  32.624  1.00  0.00     0.023 A 
ATOM     88  C   UNL A   1      47.068  24.919  33.553  1.00  0.00     0.031 A 
ATOM     89  C   UNL A   1      48.241  26.360  32.015  1.00  0.00     0.131 A 
ATOM     90  C   UNL A   1      48.293  24.312  33.873  1.00  0.00     0.055 A 
ATOM     91  C   UNL A   1      49.446  25.713  32.292  1.00  0.00     0.041 A 
ATOM     92  F   UNL A   1      48.266  27.363  31.123  1.00  0.00    -0.206 F 
ATOM     93  C   UNL A   1      49.477  24.688  33.233  1.00  0.00     0.022 A 
BRANCH  90  94
ATOM     94  S   UNL A   1      48.334  23.062  35.187  1.00  0.00     0.124 S 
ATOM     95  O   UNL A   1      49.168  22.024  34.592  1.00  0.00    -0.237 OA
ATOM     96  O   UNL A   1      48.926  23.797  36.300  1.00  0.00    -0.237 OA
ATOM     97  O   UNL A   1      46.927  22.703  35.363  1.00  0.00    -0.744 OA
ENDBRANCH  90  94
ENDBRANCH  64  87
ENDBRANCH  38  39
ENDBRANCH  30  33
ENDBRANCH  28  29
ENDBRANCH  27  28
ENDBRANCH  26  27
ENDBRANCH   1  26
TORSDOF 21
ENDMDL
MODEL 2
REMARK VINA RESULT:     -10.7      2.373      7.761
REMARK SMILES CCC[C@]1(C(=O)NCCCCCCNC(=O)c2ccc(-c3c4nc(c(-c5cc(S(=O)(=O)[O-])ccc5F)c5ccc([nH]5)c(-c5cc(S(=O)(=O)[O-])ccc5F)c5nc(c(-c6cc(S(=O)(=O)[O-])ccc6F)c6ccc3[nH]6)C=C5)C=C4)cc2)CCN(c2cncc(C(=O)OC)n2)C1
REMARK SMILES IDX 10 1 9 2 8 3 7 4 5 5 6 6 4 8 80 9 93 10 81 11 82 12 3 13
REMARK SMILES IDX 2 14 1 15 83 16 84 17 92 18 85 19 87 20 86 21 88 22 89 23
REMARK SMILES IDX 90 24 91 25 11 26 12 27 13 28 14 29 15 30 16 32 17 33 18 34
REMARK SMILES IDX 79 35 19 36 78 37 20 38 21 39 22 40 72 41 23 42 77 43 71 44
REMARK SMILES IDX 73 45 24 46 76 47 70 48 69 49 25 51 57 52 37 53 56 54 38 55
REMARK SMILES IDX 41 56 55 57 74 58 39 59 40 60 54 62 75 63 42 64 26 65 27 66
REMARK SMILES IDX 35 67 28 68 34 69 36 70 33 71 29 72 30 73 31 74 32 75 58 76
REMARK SMILES IDX 59 77 67 78 60 79 66 80 68 81 65 82 61 83 62 84 63 85 64 86
REMARK SMILES IDX 43 87 44 88 52 89 45 90 51 91 53 92 50 93 46 94 47 95 48 96
REMARK SMILES IDX 49 97
REMARK H PARENT 7 7 14 31 73 50 41 61
REMARK Flexibility Score: inf
ROOT
ATOM      1  C   UNL A   1      32.306  27.903  26.689  1.00  0.00     0.002 C 
ENDROOT
BRANCH   1   2
ATOM      2  C   UNL A   1      31.431  27.446  25.511  1.00  0.00     0.021 C 
BRANCH   2   3
ATOM      3  C   UNL A   1      30.905  26.008  25.612  1.00  0.00     0.116 C 
BRANCH   3   4
ATOM      4  N   UNL A   1      31.317  25.380  26.851  1.00  0.00    -0.356 N 
ATOM      5  C   UNL A   1      31.492  24.031  26.886  1.00  0.00     0.228 C 
ATOM      6  O   UNL A   1      30.579  23.351  27.363  1.00  0.00    -0.274 OA
ATOM      7  H   UNL A   1      31.468  25.924  27.657  1.00  0.00     0.163 HD
BRANCH   5   8
ATOM      8  C   UNL A   1      32.747  23.382  26.304  1.00  0.00     0.068 C 
ATOM      9  C   UNL A   1      33.311  22.429  27.394  1.00  0.00     0.040 C 
ATOM     10  C   UNL A   1      32.569  22.471  25.055  1.00  0.00     0.135 C 
ATOM     11  C   UNL A   1      33.535  21.075  26.737  1.00  0.00     0.119 C 
ATOM     12  N   UNL A   1      32.667  21.105  25.578  1.00  0.00    -0.354 N 
BRANCH   8  13
ATOM     13  C   UNL A   1      33.744  24.552  26.027  1.00  0.00     0.018 C 
BRANCH  13  14
ATOM     14  C   UNL A   1      34.652  24.415  24.781  1.00  0.00    -0.002 C 
ATOM     15  C   UNL A   1      35.983  23.693  25.018  1.00  0.00     0.004 C 
ENDBRANCH  13  14
ENDBRANCH   8  13
BRANCH  12  16
ATOM     16  C   UNL A   1      32.754  20.001  24.742  1.00  0.00     0.148 A 
ATOM     17  C   UNL A   1      32.395  20.148  23.395  1.00  0.00     0.157 A 
ATOM     18  N   UNL A   1      33.018  18.766  25.242  1.00  0.00    -0.221 NA
ATOM     19  N   UNL A   1      32.274  19.123  22.516  1.00  0.00    -0.258 NA
ATOM     20  C   UNL A   1      32.892  17.722  24.361  1.00  0.00     0.169 A 
ATOM     21  C   UNL A   1      32.519  17.901  23.037  1.00  0.00     0.147 A 
BRANCH  20  22
ATOM     22  C   UNL A   1      33.138  16.320  24.802  1.00  0.00     0.358 C 
ATOM     23  O   UNL A   1      32.352  15.697  25.498  1.00  0.00    -0.244 OA
BRANCH  22  24
ATOM     24  O   UNL A   1      34.326  15.836  24.349  1.00  0.00    -0.464 OA
ATOM     25  C   UNL A   1      35.353  15.855  25.344  1.00  0.00     0.282 C 
ENDBRANCH  22  24
ENDBRANCH  20  22
ENDBRANCH  12  16
ENDBRANCH   5   8
ENDBRANCH   3   4
ENDBRANCH   2   3
ENDBRANCH   1   2
BRANCH   1  26
ATOM     26  C   UNL A   1      33.628  28.565  26.299  1.00  0.00     0.002 C 
BRANCH  26  27
ATOM     27  C   UNL A   1      33.586  30.091  26.268  1.00  0.00     0.021 C 
BRANCH  27  28
ATOM     28  C   UNL A   1      32.867  30.715  27.456  1.00  0.00     0.116 C 
BRANCH  28  29
ATOM     29  N   UNL A   1      32.711  32.150  27.293  1.00  0.00    -0.352 N 
ATOM     30  C   UNL A   1      33.428  33.148  27.908  1.00  0.00     0.251 C 
ATOM     31  H   UNL A   1      32.009  32.442  26.669  1.00  0.00     0.163 HD
ATOM     32  O   UNL A   1      33.036  34.309  27.878  1.00  0.00    -0.269 OA
BRANCH  30  33
ATOM     33  C   UNL A   1      34.669  32.785  28.624  1.00  0.00     0.039 A 
ATOM     34  C   UNL A   1      34.592  32.054  29.812  1.00  0.00     0.014 A 
ATOM     35  C   UNL A   1      35.910  33.126  28.078  1.00  0.00     0.014 A 
ATOM     36  C   UNL A   1      35.769  31.615  30.425  1.00  0.00     0.010 A 
ATOM     37  C   UNL A   1      37.073  32.621  28.647  1.00  0.00     0.010 A 
ATOM     38  C   UNL A   1      37.015  31.866  29.830  1.00  0.00    -0.014 A 
BRANCH  38  39
ATOM     39  C   UNL A   1      38.290  31.398  30.433  1.00  0.00     0.031 A 
ATOM     40  C   UNL A   1      39.064  30.305  29.748  1.00  0.00     0.074 A 
ATOM     41  C   UNL A   1      38.699  31.877  31.624  1.00  0.00     0.049 A 
ATOM     42  N   UNL A   1      40.088  29.616  30.180  1.00  0.00    -0.248 NA
ATOM     43  C   UNL A   1      38.594  29.913  28.411  1.00  0.00     0.031 C 
ATOM     44  C   UNL A   1      38.030  32.932  32.388  1.00  0.00     0.029 A 
ATOM     45  N   UNL A   1      39.765  31.523  32.413  1.00  0.00    -0.354 N 
ATOM     46  C   UNL A   1      40.370  28.693  29.178  1.00  0.00     0.074 A 
ATOM     47  C   UNL A   1      39.367  28.871  28.150  1.00  0.00     0.031 C 
ATOM     48  C   UNL A   1      38.708  33.148  33.527  1.00  0.00     0.029 A 
ATOM     49  C   UNL A   1      39.823  32.207  33.607  1.00  0.00     0.049 A 
ATOM     50  H   UNL A   1      40.428  30.845  32.150  1.00  0.00     0.167 HD
ATOM     51  C   UNL A   1      41.382  27.793  29.115  1.00  0.00     0.034 A 
ATOM     52  C   UNL A   1      40.658  32.070  34.656  1.00  0.00     0.034 A 
ATOM     53  C   UNL A   1      42.376  27.639  30.148  1.00  0.00     0.049 A 
ATOM     54  C   UNL A   1      41.744  31.022  34.592  1.00  0.00     0.074 A 
ATOM     55  C   UNL A   1      43.466  26.787  30.175  1.00  0.00     0.029 A 
ATOM     56  N   UNL A   1      42.398  28.350  31.342  1.00  0.00    -0.354 N 
ATOM     57  N   UNL A   1      42.009  30.165  33.632  1.00  0.00    -0.248 NA
ATOM     58  C   UNL A   1      42.645  30.925  35.748  1.00  0.00     0.031 C 
ATOM     59  C   UNL A   1      44.101  26.926  31.413  1.00  0.00     0.029 A 
ATOM     60  C   UNL A   1      43.466  27.934  32.122  1.00  0.00     0.049 A 
ATOM     61  H   UNL A   1      41.752  29.047  31.596  1.00  0.00     0.167 HD
ATOM     62  C   UNL A   1      43.137  29.463  34.051  1.00  0.00     0.074 A 
ATOM     63  C   UNL A   1      43.498  29.992  35.349  1.00  0.00     0.031 C 
ATOM     64  C   UNL A   1      43.820  28.479  33.412  1.00  0.00     0.034 A 
BRANCH  51  65
ATOM     65  C   UNL A   1      41.437  26.892  27.904  1.00  0.00     0.023 A 
ATOM     66  C   UNL A   1      40.975  25.565  27.949  1.00  0.00     0.031 A 
ATOM     67  C   UNL A   1      41.992  27.352  26.697  1.00  0.00     0.131 A 
ATOM     68  C   UNL A   1      41.156  24.722  26.843  1.00  0.00     0.055 A 
ATOM     69  C   UNL A   1      42.083  26.535  25.569  1.00  0.00     0.041 A 
ATOM     70  F   UNL A   1      42.472  28.602  26.597  1.00  0.00    -0.206 F 
ATOM     71  C   UNL A   1      41.680  25.205  25.644  1.00  0.00     0.022 A 
BRANCH  68  72
ATOM     72  S   UNL A   1      40.853  22.946  27.055  1.00  0.00     0.124 S 
ATOM     73  O   UNL A   1      41.527  22.681  28.324  1.00  0.00    -0.237 OA
ATOM     74  O   UNL A   1      39.397  22.875  27.077  1.00  0.00    -0.237 OA
ATOM     75  O   UNL A   1      41.490  22.348  25.883  1.00  0.00    -0.744 OA
ENDBRANCH  68  72
ENDBRANCH  51  65
BRANCH  52  76
ATOM     76  C   UNL A   1      40.500  32.928  35.867  1.00  0.00     0.023 A 
ATOM     77  C   UNL A   1      39.849  32.444  37.012  1.00  0.00     0.031 A 
ATOM     78  C   UNL A   1      40.955  34.258  35.883  1.00  0.00     0.131 A 
ATOM     79  C   UNL A   1      39.625  33.297  38.105  1.00  0.00     0.055 A 
ATOM     80  C   UNL A   1      40.784  35.085  36.995  1.00  0.00     0.041 A 
ATOM     81  F   UNL A   1      41.586  34.774  34.816  1.00  0.00    -0.206 F 
ATOM     82  C   UNL A   1      40.102  34.609  38.110  1.00  0.00     0.022 A 
BRANCH  79  83
ATOM     83  S   UNL A   1      38.613  32.692  39.484  1.00  0.00     0.124 S 
ATOM     84  O   UNL A   1      37.861  33.889  39.845  1.00  0.00    -0.237 OA
ATOM     85  O   UNL A   1      37.850  31.620  38.852  1.00  0.00    -0.237 OA
ATOM     86  O   UNL A   1      39.603  32.256  40.466  1.00  0.00    -0.744 OA
ENDBRANCH  79  83
ENDBRANCH  52  76
BRANCH  64  87
ATOM     87  C   UNL A   1      45.080  27.965  34.066  1.00  0.00     0.023 A 
ATOM     88  C   UNL A   1      45.099  26.803  34.854  1.00  0.00     0.031 A 
ATOM     89  C   UNL A   1      46.295  28.646  33.859  1.00  0.00     0.131 A 
ATOM     90  C   UNL A   1      46.302  26.375  35.436  1.00  0.00     0.055 A 
ATOM     91  C   UNL A   1      47.498  28.183  34.391  1.00  0.00     0.041 A 
ATOM     92  F   UNL A   1      46.334  29.765  33.118  1.00  0.00    -0.206 F 
ATOM     93  C   UNL A   1      47.504  27.045  35.192  1.00  0.00     0.022 A 
BRANCH  90  94
ATOM     94  S   UNL A   1      46.271  24.962  36.573  1.00  0.00     0.124 S 
ATOM     95  O   UNL A   1      45.944  23.858  35.677  1.00  0.00    -0.237 OA
ATOM     96  O   UNL A   1      47.626  24.965  37.114  1.00  0.00    -0.237 OA
ATOM     97  O   UNL A   1      45.223  25.315  37.530  1.00  0.00    -0.744 OA
ENDBRANCH  90  94
ENDBRANCH  64  87
ENDBRANCH  38  39
ENDBRANCH  30  33
ENDBRANCH  28  29
ENDBRANCH  27  28
ENDBRANCH  26  27
ENDBRANCH   1  26
TORSDOF 21
ENDMDL
MODEL 3
REMARK VINA RESULT:     -10.6      3.540      8.375
REMARK SMILES CCC[C@]1(C(=O)NCCCCCCNC(=O)c2ccc(-c3c4nc(c(-c5cc(S(=O)(=O)[O-])ccc5F)c5ccc([nH]5)c(-c5cc(S(=O)(=O)[O-])ccc5F)c5nc(c(-c6cc(S(=O)(=O)[O-])ccc6F)c6ccc3[nH]6)C=C5)C=C4)cc2)CCN(c2cncc(C(=O)OC)n2)C1
REMARK SMILES IDX 10 1 9 2 8 3 7 4 5 5 6 6 4 8 80 9 93 10 81 11 82 12 3 13
REMARK SMILES IDX 2 14 1 15 83 16 84 17 92 18 85 19 87 20 86 21 88 22 89 23
REMARK SMILES IDX 90 24 91 25 11 26 12 27 13 28 14 29 15 30 16 32 17 33 18 34
REMARK SMILES IDX 79 35 19 36 78 37 20 38 21 39 22 40 72 41 23 42 77 43 71 44
REMARK SMILES IDX 73 45 24 46 76 47 70 48 69 49 25 51 57 52 37 53 56 54 38 55
REMARK SMILES IDX 41 56 55 57 74 58 39 59 40 60 54 62 75 63 42 64 26 65 27 66
REMARK SMILES IDX 35 67 28 68 34 69 36 70 33 71 29 72 30 73 31 74 32 75 58 76
REMARK SMILES IDX 59 77 67 78 60 79 66 80 68 81 65 82 61 83 62 84 63 85 64 86
REMARK SMILES IDX 43 87 44 88 52 89 45 90 51 91 53 92 50 93 46 94 47 95 48 96
REMARK SMILES IDX 49 97
REMARK H PARENT 7 7 14 31 73 50 41 61
REMARK Flexibility Score: inf
ROOT
ATOM      1  C   UNL A   1      33.185  29.184  26.165  1.00  0.00     0.002 C 
ENDROOT
BRANCH   1   2
ATOM      2  C   UNL A   1      33.378  29.672  24.720  1.00  0.00     0.021 C 
BRANCH   2   3
ATOM      3  C   UNL A   1      34.014  28.650  23.768  1.00  0.00     0.116 C 
BRANCH   3   4
ATOM      4  N   UNL A   1      33.054  28.159  22.802  1.00  0.00    -0.356 N 
ATOM      5  C   UNL A   1      33.068  26.841  22.461  1.00  0.00     0.228 C 
ATOM      6  O   UNL A   1      33.623  26.533  21.403  1.00  0.00    -0.274 OA
ATOM      7  H   UNL A   1      32.398  28.772  22.397  1.00  0.00     0.163 HD
BRANCH   5   8
ATOM      8  C   UNL A   1      32.471  25.780  23.385  1.00  0.00     0.068 C 
ATOM      9  C   UNL A   1      31.845  24.688  22.474  1.00  0.00     0.040 C 
ATOM     10  C   UNL A   1      33.452  24.995  24.302  1.00  0.00     0.135 C 
ATOM     11  C   UNL A   1      32.381  23.345  22.947  1.00  0.00     0.119 C 
ATOM     12  N   UNL A   1      33.596  23.688  23.656  1.00  0.00    -0.354 N 
BRANCH   8  13
ATOM     13  C   UNL A   1      31.364  26.507  24.212  1.00  0.00     0.018 C 
BRANCH  13  14
ATOM     14  C   UNL A   1      30.050  26.851  23.470  1.00  0.00    -0.002 C 
ATOM     15  C   UNL A   1      28.772  26.309  24.118  1.00  0.00     0.004 C 
ENDBRANCH  13  14
ENDBRANCH   8  13
BRANCH  12  16
ATOM     16  C   UNL A   1      34.240  22.626  24.276  1.00  0.00     0.148 A 
ATOM     17  C   UNL A   1      35.514  22.840  24.820  1.00  0.00     0.157 A 
ATOM     18  N   UNL A   1      33.733  21.368  24.214  1.00  0.00    -0.221 NA
ATOM     19  N   UNL A   1      36.319  21.860  25.300  1.00  0.00    -0.258 NA
ATOM     20  C   UNL A   1      34.542  20.369  24.691  1.00  0.00     0.169 A 
ATOM     21  C   UNL A   1      35.806  20.614  25.210  1.00  0.00     0.147 A 
BRANCH  20  22
ATOM     22  C   UNL A   1      34.098  18.947  24.658  1.00  0.00     0.358 C 
ATOM     23  O   UNL A   1      34.872  18.016  24.501  1.00  0.00    -0.244 OA
BRANCH  22  24
ATOM     24  O   UNL A   1      32.753  18.821  24.809  1.00  0.00    -0.464 OA
ATOM     25  C   UNL A   1      32.328  17.459  24.921  1.00  0.00     0.282 C 
ENDBRANCH  22  24
ENDBRANCH  20  22
ENDBRANCH  12  16
ENDBRANCH   5   8
ENDBRANCH   3   4
ENDBRANCH   2   3
ENDBRANCH   1   2
BRANCH   1  26
ATOM     26  C   UNL A   1      32.009  29.813  26.913  1.00  0.00     0.002 C 
BRANCH  26  27
ATOM     27  C   UNL A   1      31.877  31.323  26.728  1.00  0.00     0.021 C 
BRANCH  27  28
ATOM     28  C   UNL A   1      33.041  32.122  27.298  1.00  0.00     0.116 C 
BRANCH  28  29
ATOM     29  N   UNL A   1      32.684  33.514  27.506  1.00  0.00    -0.352 N 
ATOM     30  C   UNL A   1      33.133  34.358  28.493  1.00  0.00     0.251 C 
ATOM     31  H   UNL A   1      32.043  33.898  26.865  1.00  0.00     0.163 HD
ATOM     32  O   UNL A   1      32.568  35.425  28.707  1.00  0.00    -0.269 OA
BRANCH  30  33
ATOM     33  C   UNL A   1      34.297  33.939  29.302  1.00  0.00     0.039 A 
ATOM     34  C   UNL A   1      34.108  33.094  30.397  1.00  0.00     0.014 A 
ATOM     35  C   UNL A   1      35.582  34.346  28.931  1.00  0.00     0.014 A 
ATOM     36  C   UNL A   1      35.220  32.609  31.090  1.00  0.00     0.010 A 
ATOM     37  C   UNL A   1      36.687  33.799  29.571  1.00  0.00     0.010 A 
ATOM     38  C   UNL A   1      36.518  32.931  30.662  1.00  0.00    -0.014 A 
BRANCH  38  39
ATOM     39  C   UNL A   1      37.731  32.419  31.353  1.00  0.00     0.031 A 
ATOM     40  C   UNL A   1      38.495  31.278  30.738  1.00  0.00     0.074 A 
ATOM     41  C   UNL A   1      38.086  32.904  32.558  1.00  0.00     0.049 A 
ATOM     42  N   UNL A   1      39.457  30.553  31.246  1.00  0.00    -0.248 NA
ATOM     43  C   UNL A   1      38.091  30.880  29.381  1.00  0.00     0.031 C 
ATOM     44  C   UNL A   1      37.420  34.004  33.259  1.00  0.00     0.029 A 
ATOM     45  N   UNL A   1      39.084  32.520  33.419  1.00  0.00    -0.354 N 
ATOM     46  C   UNL A   1      39.758  29.598  30.280  1.00  0.00     0.074 A 
ATOM     47  C   UNL A   1      38.830  29.799  29.188  1.00  0.00     0.031 C 
ATOM     48  C   UNL A   1      38.036  34.213  34.434  1.00  0.00     0.029 A 
ATOM     49  C   UNL A   1      39.099  33.225  34.601  1.00  0.00     0.049 A 
ATOM     50  H   UNL A   1      39.730  31.807  33.210  1.00  0.00     0.167 HD
ATOM     51  C   UNL A   1      40.730  28.653  30.297  1.00  0.00     0.034 A 
ATOM     52  C   UNL A   1      39.860  33.073  35.704  1.00  0.00     0.034 A 
ATOM     53  C   UNL A   1      41.650  28.476  31.393  1.00  0.00     0.049 A 
ATOM     54  C   UNL A   1      40.898  31.976  35.727  1.00  0.00     0.074 A 
ATOM     55  C   UNL A   1      42.695  27.577  31.505  1.00  0.00     0.029 A 
ATOM     56  N   UNL A   1      41.630  29.210  32.573  1.00  0.00    -0.354 N 
ATOM     57  N   UNL A   1      41.183  31.088  34.802  1.00  0.00    -0.248 NA
ATOM     58  C   UNL A   1      41.721  31.863  36.939  1.00  0.00     0.031 C 
ATOM     59  C   UNL A   1      43.258  27.714  32.777  1.00  0.00     0.029 A 
ATOM     60  C   UNL A   1      42.627  28.763  33.427  1.00  0.00     0.049 A 
ATOM     61  H   UNL A   1      41.002  29.941  32.774  1.00  0.00     0.167 HD
ATOM     62  C   UNL A   1      42.250  30.346  35.303  1.00  0.00     0.074 A 
ATOM     63  C   UNL A   1      42.553  30.885  36.611  1.00  0.00     0.031 C 
ATOM     64  C   UNL A   1      42.925  29.319  34.726  1.00  0.00     0.034 A 
BRANCH  51  65
ATOM     65  C   UNL A   1      40.818  27.725  29.109  1.00  0.00     0.023 A 
ATOM     66  C   UNL A   1      41.766  27.919  28.089  1.00  0.00     0.031 A 
ATOM     67  C   UNL A   1      39.918  26.653  28.972  1.00  0.00     0.131 A 
ATOM     68  C   UNL A   1      41.737  27.113  26.942  1.00  0.00     0.055 A 
ATOM     69  C   UNL A   1      39.955  25.796  27.871  1.00  0.00     0.041 A 
ATOM     70  F   UNL A   1      38.975  26.430  29.900  1.00  0.00    -0.206 F 
ATOM     71  C   UNL A   1      40.857  26.035  26.838  1.00  0.00     0.022 A 
BRANCH  68  72
ATOM     72  S   UNL A   1      42.749  27.602  25.518  1.00  0.00     0.124 S 
ATOM     73  O   UNL A   1      42.011  28.758  25.015  1.00  0.00    -0.237 OA
ATOM     74  O   UNL A   1      44.040  27.886  26.133  1.00  0.00    -0.237 OA
ATOM     75  O   UNL A   1      42.714  26.425  24.652  1.00  0.00    -0.744 OA
ENDBRANCH  68  72
ENDBRANCH  51  65
BRANCH  52  76
ATOM     76  C   UNL A   1      39.667  33.963  36.886  1.00  0.00     0.023 A 
ATOM     77  C   UNL A   1      39.117  33.466  38.078  1.00  0.00     0.031 A 
ATOM     78  C   UNL A   1      39.984  35.331  36.829  1.00  0.00     0.131 A 
ATOM     79  C   UNL A   1      38.854  34.339  39.146  1.00  0.00     0.055 A 
ATOM     80  C   UNL A   1      39.777  36.183  37.915  1.00  0.00     0.041 A 
ATOM     81  F   UNL A   1      40.514  35.860  35.715  1.00  0.00    -0.206 F 
ATOM     82  C   UNL A   1      39.194  35.691  39.078  1.00  0.00     0.022 A 
BRANCH  79  83
ATOM     83  S   UNL A   1      37.967  33.696  40.592  1.00  0.00     0.124 S 
ATOM     84  O   UNL A   1      37.237  34.877  41.039  1.00  0.00    -0.237 OA
ATOM     85  O   UNL A   1      37.164  32.628  40.006  1.00  0.00    -0.237 OA
ATOM     86  O   UNL A   1      39.041  33.252  41.479  1.00  0.00    -0.744 OA
ENDBRANCH  79  83
ENDBRANCH  52  76
BRANCH  64  87
ATOM     87  C   UNL A   1      44.117  28.764  35.467  1.00  0.00     0.023 A 
ATOM     88  C   UNL A   1      44.006  27.710  36.390  1.00  0.00     0.031 A 
ATOM     89  C   UNL A   1      45.398  29.287  35.210  1.00  0.00     0.131 A 
ATOM     90  C   UNL A   1      45.151  27.236  37.048  1.00  0.00     0.055 A 
ATOM     91  C   UNL A   1      46.541  28.771  35.822  1.00  0.00     0.041 A 
ATOM     92  F   UNL A   1      45.562  30.296  34.340  1.00  0.00    -0.206 F 
ATOM     93  C   UNL A   1      46.419  27.745  36.754  1.00  0.00     0.022 A 
BRANCH  90  94
ATOM     94  S   UNL A   1      44.960  25.983  38.346  1.00  0.00     0.124 S 
ATOM     95  O   UNL A   1      44.051  26.646  39.275  1.00  0.00    -0.237 OA
ATOM     96  O   UNL A   1      44.406  24.852  37.610  1.00  0.00    -0.237 OA
ATOM     97  O   UNL A   1      46.322  25.791  38.842  1.00  0.00    -0.744 OA
ENDBRANCH  90  94
ENDBRANCH  64  87
ENDBRANCH  38  39
ENDBRANCH  30  33
ENDBRANCH  28  29
ENDBRANCH  27  28
ENDBRANCH  26  27
ENDBRANCH   1  26
TORSDOF 21
ENDMDL
