MODEL 1
REMARK VINA RESULT:     -11.4      0.000      0.000
REMARK SMILES Cc1nsc(NC(=O)[C@@H]2C=C[C@@H]([NH3+])C2)c1C(=O)NCCCCCCNC(=O)c1ccc(-c2c3nc(c(-c4cc(S(=O)(=O)[O-])ccc4F)c4ccc([nH]4)c(-c4cc(S(=O)(=O)[O-])ccc4F)c4nc(c(-c5cc(S(=O)(=O)[O-])ccc5F)c5ccc2[nH]5)C=C4)C=C3)cc1
REMARK SMILES IDX 21 1 20 2 19 3 18 4 16 5 17 6 15 8 1 9 2 10 3 11 4 12 5 13
REMARK SMILES IDX 6 14 7 15 8 17 9 18 10 19 14 20 11 21 12 22 13 23 22 27
REMARK SMILES IDX 23 28 24 29 25 30 26 31 27 33 28 34 29 35 90 36 30 37 89 38
REMARK SMILES IDX 31 39 32 40 33 41 83 42 34 43 88 44 82 45 84 46 35 47 87 48
REMARK SMILES IDX 81 49 80 50 36 52 68 53 48 54 67 55 49 56 52 57 66 58 85 59
REMARK SMILES IDX 50 60 51 61 65 63 86 64 53 65 37 66 38 67 46 68 39 69 45 70
REMARK SMILES IDX 47 71 44 72 40 73 41 74 42 75 43 76 69 77 70 78 78 79 71 80
REMARK SMILES IDX 77 81 79 82 76 83 72 84 73 85 74 86 75 87 54 88 55 89 63 90
REMARK SMILES IDX 56 91 62 92 64 93 61 94 57 95 58 96 59 97 60 98
REMARK H PARENT 18 7 6 16 13 24 13 25 13 26 25 32 84 51 52 62
REMARK Flexibility Score: inf
ROOT
ATOM      1  C   UNL A   1      36.133  20.836  25.015  1.00  0.00     0.002 C 
ENDROOT
BRANCH   1   2
ATOM      2  C   UNL A   1      36.546  22.190  25.586  1.00  0.00     0.021 C 
BRANCH   2   3
ATOM      3  C   UNL A   1      35.470  23.251  25.754  1.00  0.00     0.116 C 
BRANCH   3   4
ATOM      4  N   UNL A   1      34.541  23.070  26.843  1.00  0.00    -0.352 N 
ATOM      5  C   UNL A   1      33.185  22.838  26.810  1.00  0.00     0.256 C 
ATOM      6  O   UNL A   1      32.619  22.676  27.895  1.00  0.00    -0.269 OA
ATOM      7  H   UNL A   1      34.935  23.122  27.743  1.00  0.00     0.163 HD
BRANCH   5   8
ATOM      8  C   UNL A   1      32.411  22.899  25.565  1.00  0.00     0.097 A 
ATOM      9  C   UNL A   1      32.426  20.442  24.533  1.00  0.00     0.069 C 
ATOM     10  C   UNL A   1      32.156  21.908  24.528  1.00  0.00     0.066 A 
ATOM     11  N   UNL A   1      31.564  22.363  23.421  1.00  0.00    -0.195 NA
ATOM     12  S   UNL A   1      31.186  23.945  23.635  1.00  0.00    -0.017 S 
ATOM     13  C   UNL A   1      31.602  24.003  25.279  1.00  0.00     0.129 A 
BRANCH  13  14
ATOM     14  N   UNL A   1      31.261  25.052  26.114  1.00  0.00    -0.315 N 
ATOM     15  C   UNL A   1      31.891  26.233  26.405  1.00  0.00     0.232 C 
ATOM     16  H   UNL A   1      30.406  24.926  26.586  1.00  0.00     0.170 HD
ATOM     17  O   UNL A   1      31.344  26.966  27.240  1.00  0.00    -0.274 OA
BRANCH  15  18
ATOM     18  C   UNL A   1      33.197  26.665  25.716  1.00  0.00     0.107 C 
ATOM     19  C   UNL A   1      33.921  27.764  26.452  1.00  0.00    -0.012 C 
ATOM     20  C   UNL A   1      32.986  27.316  24.335  1.00  0.00     0.087 C 
ATOM     21  C   UNL A   1      33.896  28.930  25.795  1.00  0.00     0.033 C 
ATOM     22  C   UNL A   1      33.116  28.830  24.533  1.00  0.00     0.205 C 
BRANCH  22  23
ATOM     23  N   UNL A   1      33.783  29.450  23.403  1.00  0.00    -0.352 N 
ATOM     24  H   UNL A   1      34.113  30.378  23.671  1.00  0.00     0.345 HD
ATOM     25  H   UNL A   1      33.126  29.534  22.626  1.00  0.00     0.345 HD
ATOM     26  H   UNL A   1      34.575  28.876  23.119  1.00  0.00     0.345 HD
ENDBRANCH  22  23
ENDBRANCH  15  18
ENDBRANCH  13  14
ENDBRANCH   5   8
ENDBRANCH   3   4
ENDBRANCH   2   3
ENDBRANCH   1   2
BRANCH   1  27
ATOM     27  C   UNL A   1      37.159  19.693  25.010  1.00  0.00     0.002 C 
BRANCH  27  28
ATOM     28  C   UNL A   1      38.655  20.031  24.934  1.00  0.00     0.021 C 
BRANCH  28  29
ATOM     29  C   UNL A   1      39.466  19.736  26.184  1.00  0.00     0.116 C 
BRANCH  29  30
ATOM     30  N   UNL A   1      40.756  19.092  25.922  1.00  0.00    -0.352 N 
ATOM     31  C   UNL A   1      41.999  19.686  25.759  1.00  0.00     0.251 C 
ATOM     32  H   UNL A   1      40.738  18.109  25.852  1.00  0.00     0.163 HD
ATOM     33  O   UNL A   1      42.893  19.093  25.151  1.00  0.00    -0.269 OA
BRANCH  31  34
ATOM     34  C   UNL A   1      42.235  21.030  26.322  1.00  0.00     0.039 A 
ATOM     35  C   UNL A   1      42.471  22.167  25.543  1.00  0.00     0.014 A 
ATOM     36  C   UNL A   1      42.198  21.135  27.705  1.00  0.00     0.014 A 
ATOM     37  C   UNL A   1      42.619  23.397  26.189  1.00  0.00     0.010 A 
ATOM     38  C   UNL A   1      42.039  22.350  28.297  1.00  0.00     0.010 A 
ATOM     39  C   UNL A   1      42.395  23.470  27.574  1.00  0.00    -0.014 A 
BRANCH  39  40
ATOM     40  C   UNL A   1      42.457  24.703  28.335  1.00  0.00     0.031 A 
ATOM     41  C   UNL A   1      41.283  25.576  28.147  1.00  0.00     0.074 A 
ATOM     42  C   UNL A   1      43.358  24.921  29.319  1.00  0.00     0.049 A 
ATOM     43  N   UNL A   1      41.216  26.604  27.376  1.00  0.00    -0.248 NA
ATOM     44  C   UNL A   1      39.986  25.156  28.697  1.00  0.00     0.031 C 
ATOM     45  C   UNL A   1      44.386  24.018  29.854  1.00  0.00     0.029 A 
ATOM     46  N   UNL A   1      43.470  26.003  30.131  1.00  0.00    -0.354 N 
ATOM     47  C   UNL A   1      39.948  27.133  27.565  1.00  0.00     0.074 A 
ATOM     48  C   UNL A   1      39.177  26.072  28.158  1.00  0.00     0.031 C 
ATOM     49  C   UNL A   1      44.857  24.508  31.025  1.00  0.00     0.029 A 
ATOM     50  C   UNL A   1      44.285  25.825  31.246  1.00  0.00     0.049 A 
ATOM     51  H   UNL A   1      43.009  26.853  29.946  1.00  0.00     0.167 HD
ATOM     52  C   UNL A   1      39.737  28.473  27.463  1.00  0.00     0.034 A 
ATOM     53  C   UNL A   1      44.452  26.697  32.280  1.00  0.00     0.034 A 
ATOM     54  C   UNL A   1      40.919  29.134  26.938  1.00  0.00     0.049 A 
ATOM     55  C   UNL A   1      44.102  28.041  31.743  1.00  0.00     0.074 A 
ATOM     56  C   UNL A   1      41.665  29.002  25.781  1.00  0.00     0.029 A 
ATOM     57  N   UNL A   1      41.746  29.778  27.836  1.00  0.00    -0.354 N 
ATOM     58  N   UNL A   1      44.788  28.623  30.793  1.00  0.00    -0.248 NA
ATOM     59  C   UNL A   1      42.721  28.491  31.862  1.00  0.00     0.031 C 
ATOM     60  C   UNL A   1      43.023  29.085  26.213  1.00  0.00     0.029 A 
ATOM     61  C   UNL A   1      43.035  29.374  27.579  1.00  0.00     0.049 A 
ATOM     62  H   UNL A   1      41.464  30.412  28.535  1.00  0.00     0.167 HD
ATOM     63  C   UNL A   1      43.837  29.147  29.929  1.00  0.00     0.074 A 
ATOM     64  C   UNL A   1      42.585  29.122  30.690  1.00  0.00     0.031 C 
ATOM     65  C   UNL A   1      44.078  29.268  28.588  1.00  0.00     0.034 A 
BRANCH  52  66
ATOM     66  C   UNL A   1      38.653  29.258  28.163  1.00  0.00     0.023 A 
ATOM     67  C   UNL A   1      38.743  29.336  29.565  1.00  0.00     0.031 A 
ATOM     68  C   UNL A   1      37.430  29.686  27.603  1.00  0.00     0.131 A 
ATOM     69  C   UNL A   1      37.632  29.688  30.345  1.00  0.00     0.055 A 
ATOM     70  C   UNL A   1      36.346  30.107  28.381  1.00  0.00     0.041 A 
ATOM     71  F   UNL A   1      37.171  29.639  26.292  1.00  0.00    -0.206 F 
ATOM     72  C   UNL A   1      36.429  30.074  29.762  1.00  0.00     0.022 A 
BRANCH  69  73
ATOM     73  S   UNL A   1      37.739  29.444  32.134  1.00  0.00     0.124 S 
ATOM     74  O   UNL A   1      37.752  27.989  32.229  1.00  0.00    -0.237 OA
ATOM     75  O   UNL A   1      38.991  30.122  32.454  1.00  0.00    -0.237 OA
ATOM     76  O   UNL A   1      36.531  30.093  32.636  1.00  0.00    -0.744 OA
ENDBRANCH  69  73
ENDBRANCH  52  66
BRANCH  53  77
ATOM     77  C   UNL A   1      44.558  26.375  33.737  1.00  0.00     0.023 A 
ATOM     78  C   UNL A   1      43.480  26.513  34.642  1.00  0.00     0.031 A 
ATOM     79  C   UNL A   1      45.690  25.677  34.218  1.00  0.00     0.131 A 
ATOM     80  C   UNL A   1      43.561  25.963  35.948  1.00  0.00     0.055 A 
ATOM     81  C   UNL A   1      45.763  25.135  35.505  1.00  0.00     0.041 A 
ATOM     82  F   UNL A   1      46.739  25.416  33.422  1.00  0.00    -0.206 F 
ATOM     83  C   UNL A   1      44.694  25.265  36.373  1.00  0.00     0.022 A 
BRANCH  80  84
ATOM     84  S   UNL A   1      42.147  26.055  37.099  1.00  0.00     0.124 S 
ATOM     85  O   UNL A   1      42.802  26.328  38.373  1.00  0.00    -0.237 OA
ATOM     86  O   UNL A   1      41.347  27.136  36.534  1.00  0.00    -0.237 OA
ATOM     87  O   UNL A   1      41.535  24.729  36.996  1.00  0.00    -0.744 OA
ENDBRANCH  80  84
ENDBRANCH  53  77
BRANCH  65  88
ATOM     88  C   UNL A   1      45.498  29.079  28.080  1.00  0.00     0.023 A 
ATOM     89  C   UNL A   1      46.069  27.842  27.696  1.00  0.00     0.031 A 
ATOM     90  C   UNL A   1      46.256  30.240  27.847  1.00  0.00     0.131 A 
ATOM     91  C   UNL A   1      47.354  27.806  27.112  1.00  0.00     0.055 A 
ATOM     92  C   UNL A   1      47.513  30.203  27.246  1.00  0.00     0.041 A 
ATOM     93  F   UNL A   1      45.763  31.449  28.165  1.00  0.00    -0.206 F 
ATOM     94  C   UNL A   1      48.069  28.984  26.881  1.00  0.00     0.022 A 
BRANCH  91  95
ATOM     95  S   UNL A   1      48.130  26.220  26.659  1.00  0.00     0.124 S 
ATOM     96  O   UNL A   1      49.536  26.563  26.487  1.00  0.00    -0.237 OA
ATOM     97  O   UNL A   1      47.815  25.372  27.805  1.00  0.00    -0.237 OA
ATOM     98  O   UNL A   1      47.440  25.846  25.421  1.00  0.00    -0.744 OA
ENDBRANCH  91  95
ENDBRANCH  65  88
ENDBRANCH  39  40
ENDBRANCH  31  34
ENDBRANCH  29  30
ENDBRANCH  28  29
ENDBRANCH  27  28
ENDBRANCH   1  27
TORSDOF 19
ENDMDL
MODEL 2
REMARK VINA RESULT:     -11.3      3.211      8.329
REMARK SMILES Cc1nsc(NC(=O)[C@@H]2C=C[C@@H]([NH3+])C2)c1C(=O)NCCCCCCNC(=O)c1ccc(-c2c3nc(c(-c4cc(S(=O)(=O)[O-])ccc4F)c4ccc([nH]4)c(-c4cc(S(=O)(=O)[O-])ccc4F)c4nc(c(-c5cc(S(=O)(=O)[O-])ccc5F)c5ccc2[nH]5)C=C4)C=C3)cc1
REMARK SMILES IDX 21 1 20 2 19 3 18 4 16 5 17 6 15 8 1 9 2 10 3 11 4 12 5 13
REMARK SMILES IDX 6 14 7 15 8 17 9 18 10 19 14 20 11 21 12 22 13 23 22 27
REMARK SMILES IDX 23 28 24 29 25 30 26 31 27 33 28 34 29 35 90 36 30 37 89 38
REMARK SMILES IDX 31 39 32 40 33 41 83 42 34 43 88 44 82 45 84 46 35 47 87 48
REMARK SMILES IDX 81 49 80 50 36 52 68 53 48 54 67 55 49 56 52 57 66 58 85 59
REMARK SMILES IDX 50 60 51 61 65 63 86 64 53 65 37 66 38 67 46 68 39 69 45 70
REMARK SMILES IDX 47 71 44 72 40 73 41 74 42 75 43 76 69 77 70 78 78 79 71 80
REMARK SMILES IDX 77 81 79 82 76 83 72 84 73 85 74 86 75 87 54 88 55 89 63 90
REMARK SMILES IDX 56 91 62 92 64 93 61 94 57 95 58 96 59 97 60 98
REMARK H PARENT 18 7 6 16 13 24 13 25 13 26 25 32 84 51 52 62
REMARK Flexibility Score: inf
ROOT
ATOM      1  C   UNL A   1      33.656  27.067  26.087  1.00  0.00     0.002 C 
ENDROOT
BRANCH   1   2
ATOM      2  C   UNL A   1      34.044  27.343  24.636  1.00  0.00     0.021 C 
BRANCH   2   3
ATOM      3  C   UNL A   1      32.961  27.233  23.575  1.00  0.00     0.116 C 
BRANCH   3   4
ATOM      4  N   UNL A   1      32.903  25.999  22.828  1.00  0.00    -0.352 N 
ATOM      5  C   UNL A   1      32.197  24.847  23.091  1.00  0.00     0.256 C 
ATOM      6  O   UNL A   1      32.288  23.936  22.263  1.00  0.00    -0.269 OA
ATOM      7  H   UNL A   1      33.451  25.977  22.011  1.00  0.00     0.163 HD
BRANCH   5   8
ATOM      8  C   UNL A   1      31.467  24.647  24.348  1.00  0.00     0.097 A 
ATOM      9  C   UNL A   1      29.518  26.463  24.398  1.00  0.00     0.069 C 
ATOM     10  C   UNL A   1      30.378  25.389  24.970  1.00  0.00     0.066 A 
ATOM     11  N   UNL A   1      30.079  25.040  26.224  1.00  0.00    -0.195 NA
ATOM     12  S   UNL A   1      30.995  23.747  26.647  1.00  0.00    -0.017 S 
ATOM     13  C   UNL A   1      31.652  23.485  25.104  1.00  0.00     0.129 A 
BRANCH  13  14
ATOM     14  N   UNL A   1      32.339  22.337  24.754  1.00  0.00    -0.315 N 
ATOM     15  C   UNL A   1      33.636  21.947  24.961  1.00  0.00     0.232 C 
ATOM     16  H   UNL A   1      31.795  21.677  24.266  1.00  0.00     0.170 HD
ATOM     17  O   UNL A   1      33.974  20.855  24.484  1.00  0.00    -0.274 OA
BRANCH  15  18
ATOM     18  C   UNL A   1      34.634  22.792  25.773  1.00  0.00     0.107 C 
ATOM     19  C   UNL A   1      35.329  23.845  24.948  1.00  0.00    -0.012 C 
ATOM     20  C   UNL A   1      35.834  21.990  26.311  1.00  0.00     0.087 C 
ATOM     21  C   UNL A   1      36.628  23.583  24.763  1.00  0.00     0.033 C 
ATOM     22  C   UNL A   1      37.019  22.292  25.388  1.00  0.00     0.205 C 
BRANCH  22  23
ATOM     23  N   UNL A   1      38.259  22.377  26.139  1.00  0.00    -0.352 N 
ATOM     24  H   UNL A   1      38.273  23.246  26.673  1.00  0.00     0.345 HD
ATOM     25  H   UNL A   1      39.048  22.361  25.493  1.00  0.00     0.345 HD
ATOM     26  H   UNL A   1      38.325  21.584  26.777  1.00  0.00     0.345 HD
ENDBRANCH  22  23
ENDBRANCH  15  18
ENDBRANCH  13  14
ENDBRANCH   5   8
ENDBRANCH   3   4
ENDBRANCH   2   3
ENDBRANCH   1   2
BRANCH   1  27
ATOM     27  C   UNL A   1      33.214  28.244  26.969  1.00  0.00     0.002 C 
BRANCH  27  28
ATOM     28  C   UNL A   1      34.075  29.514  27.009  1.00  0.00     0.021 C 
BRANCH  28  29
ATOM     29  C   UNL A   1      35.475  29.350  27.576  1.00  0.00     0.116 C 
BRANCH  29  30
ATOM     30  N   UNL A   1      35.593  29.713  28.991  1.00  0.00    -0.352 N 
ATOM     31  C   UNL A   1      36.587  29.359  29.891  1.00  0.00     0.251 C 
ATOM     32  H   UNL A   1      34.873  30.282  29.349  1.00  0.00     0.163 HD
ATOM     33  O   UNL A   1      36.359  29.379  31.103  1.00  0.00    -0.269 OA
BRANCH  31  34
ATOM     34  C   UNL A   1      37.914  28.963  29.381  1.00  0.00     0.039 A 
ATOM     35  C   UNL A   1      38.512  29.531  28.251  1.00  0.00     0.014 A 
ATOM     36  C   UNL A   1      38.583  27.980  30.097  1.00  0.00     0.014 A 
ATOM     37  C   UNL A   1      39.800  29.117  27.901  1.00  0.00     0.010 A 
ATOM     38  C   UNL A   1      39.923  27.808  29.938  1.00  0.00     0.010 A 
ATOM     39  C   UNL A   1      40.495  28.253  28.763  1.00  0.00    -0.014 A 
BRANCH  39  40
ATOM     40  C   UNL A   1      41.857  27.811  28.534  1.00  0.00     0.031 A 
ATOM     41  C   UNL A   1      41.957  26.609  27.686  1.00  0.00     0.074 A 
ATOM     42  C   UNL A   1      42.940  28.562  28.836  1.00  0.00     0.049 A 
ATOM     43  N   UNL A   1      42.131  25.401  28.096  1.00  0.00    -0.248 NA
ATOM     44  C   UNL A   1      41.619  26.711  26.259  1.00  0.00     0.031 C 
ATOM     45  C   UNL A   1      43.001  29.924  29.382  1.00  0.00     0.029 A 
ATOM     46  N   UNL A   1      44.248  28.279  28.613  1.00  0.00    -0.354 N 
ATOM     47  C   UNL A   1      42.213  24.623  26.951  1.00  0.00     0.074 A 
ATOM     48  C   UNL A   1      41.633  25.423  25.905  1.00  0.00     0.031 C 
ATOM     49  C   UNL A   1      44.256  30.415  29.241  1.00  0.00     0.029 A 
ATOM     50  C   UNL A   1      45.119  29.358  28.743  1.00  0.00     0.049 A 
ATOM     51  H   UNL A   1      44.561  27.375  28.376  1.00  0.00     0.167 HD
ATOM     52  C   UNL A   1      42.995  23.510  26.928  1.00  0.00     0.034 A 
ATOM     53  C   UNL A   1      46.447  29.374  28.440  1.00  0.00     0.034 A 
ATOM     54  C   UNL A   1      43.477  23.201  28.262  1.00  0.00     0.049 A 
ATOM     55  C   UNL A   1      46.901  27.957  28.515  1.00  0.00     0.074 A 
ATOM     56  C   UNL A   1      42.863  22.939  29.474  1.00  0.00     0.029 A 
ATOM     57  N   UNL A   1      44.771  23.565  28.577  1.00  0.00    -0.354 N 
ATOM     58  N   UNL A   1      46.893  27.270  29.628  1.00  0.00    -0.248 NA
ATOM     59  C   UNL A   1      46.848  27.153  27.301  1.00  0.00     0.031 C 
ATOM     60  C   UNL A   1      43.636  23.657  30.435  1.00  0.00     0.029 A 
ATOM     61  C   UNL A   1      44.736  24.222  29.784  1.00  0.00     0.049 A 
ATOM     62  H   UNL A   1      45.573  23.388  28.035  1.00  0.00     0.167 HD
ATOM     63  C   UNL A   1      46.380  26.028  29.282  1.00  0.00     0.074 A 
ATOM     64  C   UNL A   1      46.466  25.981  27.820  1.00  0.00     0.031 C 
ATOM     65  C   UNL A   1      45.658  25.280  30.171  1.00  0.00     0.034 A 
BRANCH  52  66
ATOM     66  C   UNL A   1      43.646  22.907  25.705  1.00  0.00     0.023 A 
ATOM     67  C   UNL A   1      43.657  21.502  25.631  1.00  0.00     0.031 A 
ATOM     68  C   UNL A   1      44.472  23.576  24.776  1.00  0.00     0.131 A 
ATOM     69  C   UNL A   1      44.540  20.828  24.774  1.00  0.00     0.055 A 
ATOM     70  C   UNL A   1      45.298  22.901  23.872  1.00  0.00     0.041 A 
ATOM     71  F   UNL A   1      44.603  24.907  24.742  1.00  0.00    -0.206 F 
ATOM     72  C   UNL A   1      45.365  21.519  23.893  1.00  0.00     0.022 A 
BRANCH  69  73
ATOM     73  S   UNL A   1      44.720  19.039  24.979  1.00  0.00     0.124 S 
ATOM     74  O   UNL A   1      43.560  18.722  25.804  1.00  0.00    -0.237 OA
ATOM     75  O   UNL A   1      44.675  18.574  23.597  1.00  0.00    -0.237 OA
ATOM     76  O   UNL A   1      46.014  18.905  25.641  1.00  0.00    -0.744 OA
ENDBRANCH  69  73
ENDBRANCH  52  66
BRANCH  53  77
ATOM     77  C   UNL A   1      47.219  30.470  27.777  1.00  0.00     0.023 A 
ATOM     78  C   UNL A   1      46.606  31.579  27.147  1.00  0.00     0.031 A 
ATOM     79  C   UNL A   1      48.617  30.560  27.975  1.00  0.00     0.131 A 
ATOM     80  C   UNL A   1      47.379  32.704  26.758  1.00  0.00     0.055 A 
ATOM     81  C   UNL A   1      49.373  31.671  27.590  1.00  0.00     0.041 A 
ATOM     82  F   UNL A   1      49.291  29.603  28.632  1.00  0.00    -0.206 F 
ATOM     83  C   UNL A   1      48.756  32.754  26.990  1.00  0.00     0.022 A 
BRANCH  80  84
ATOM     84  S   UNL A   1      46.593  34.179  26.025  1.00  0.00     0.124 S 
ATOM     85  O   UNL A   1      46.352  35.015  27.196  1.00  0.00    -0.237 OA
ATOM     86  O   UNL A   1      47.608  34.649  25.089  1.00  0.00    -0.237 OA
ATOM     87  O   UNL A   1      45.385  33.646  25.394  1.00  0.00    -0.744 OA
ENDBRANCH  80  84
ENDBRANCH  53  77
BRANCH  65  88
ATOM     88  C   UNL A   1      45.646  25.690  31.634  1.00  0.00     0.023 A 
ATOM     89  C   UNL A   1      46.678  25.423  32.565  1.00  0.00     0.031 A 
ATOM     90  C   UNL A   1      44.590  26.515  32.060  1.00  0.00     0.131 A 
ATOM     91  C   UNL A   1      46.618  25.970  33.865  1.00  0.00     0.055 A 
ATOM     92  C   UNL A   1      44.547  27.074  33.336  1.00  0.00     0.041 A 
ATOM     93  F   UNL A   1      43.589  26.828  31.219  1.00  0.00    -0.206 F 
ATOM     94  C   UNL A   1      45.559  26.799  34.246  1.00  0.00     0.022 A 
BRANCH  91  95
ATOM     95  S   UNL A   1      47.910  25.596  35.097  1.00  0.00     0.124 S 
ATOM     96  O   UNL A   1      48.052  24.147  35.015  1.00  0.00    -0.237 OA
ATOM     97  O   UNL A   1      49.045  26.377  34.614  1.00  0.00    -0.237 OA
ATOM     98  O   UNL A   1      47.330  26.080  36.353  1.00  0.00    -0.744 OA
ENDBRANCH  91  95
ENDBRANCH  65  88
ENDBRANCH  39  40
ENDBRANCH  31  34
ENDBRANCH  29  30
ENDBRANCH  28  29
ENDBRANCH  27  28
ENDBRANCH   1  27
TORSDOF 19
ENDMDL
MODEL 3
REMARK VINA RESULT:     -11.2      3.233      8.344
REMARK SMILES Cc1nsc(NC(=O)[C@@H]2C=C[C@@H]([NH3+])C2)c1C(=O)NCCCCCCNC(=O)c1ccc(-c2c3nc(c(-c4cc(S(=O)(=O)[O-])ccc4F)c4ccc([nH]4)c(-c4cc(S(=O)(=O)[O-])ccc4F)c4nc(c(-c5cc(S(=O)(=O)[O-])ccc5F)c5ccc2[nH]5)C=C4)C=C3)cc1
REMARK SMILES IDX 21 1 20 2 19 3 18 4 16 5 17 6 15 8 1 9 2 10 3 11 4 12 5 13
REMARK SMILES IDX 6 14 7 15 8 17 9 18 10 19 14 20 11 21 12 22 13 23 22 27
REMARK SMILES IDX 23 28 24 29 25 30 26 31 27 33 28 34 29 35 90 36 30 37 89 38
REMARK SMILES IDX 31 39 32 40 33 41 83 42 34 43 88 44 82 45 84 46 35 47 87 48
REMARK SMILES IDX 81 49 80 50 36 52 68 53 48 54 67 55 49 56 52 57 66 58 85 59
REMARK SMILES IDX 50 60 51 61 65 63 86 64 53 65 37 66 38 67 46 68 39 69 45 70
REMARK SMILES IDX 47 71 44 72 40 73 41 74 42 75 43 76 69 77 70 78 78 79 71 80
REMARK SMILES IDX 77 81 79 82 76 83 72 84 73 85 74 86 75 87 54 88 55 89 63 90
REMARK SMILES IDX 56 91 62 92 64 93 61 94 57 95 58 96 59 97 60 98
REMARK H PARENT 18 7 6 16 13 24 13 25 13 26 25 32 84 51 52 62
REMARK Flexibility Score: inf
ROOT
ATOM      1  C   UNL A   1      32.141  28.597  27.212  1.00  0.00     0.002 C 
ENDROOT
BRANCH   1   2
ATOM      2  C   UNL A   1      31.497  27.316  26.687  1.00  0.00     0.021 C 
BRANCH   2   3
ATOM      3  C   UNL A   1      32.386  26.099  26.492  1.00  0.00     0.116 C 
BRANCH   3   4
ATOM      4  N   UNL A   1      31.736  24.876  26.086  1.00  0.00    -0.352 N 
ATOM      5  C   UNL A   1      31.726  24.253  24.859  1.00  0.00     0.256 C 
ATOM      6  O   UNL A   1      31.121  23.180  24.782  1.00  0.00    -0.269 OA
ATOM      7  H   UNL A   1      31.222  24.420  26.791  1.00  0.00     0.163 HD
BRANCH   5   8
ATOM      8  C   UNL A   1      32.297  24.878  23.661  1.00  0.00     0.097 A 
ATOM      9  C   UNL A   1      34.375  23.377  22.931  1.00  0.00     0.069 C 
ATOM     10  C   UNL A   1      33.487  24.573  22.876  1.00  0.00     0.066 A 
ATOM     11  N   UNL A   1      33.820  25.476  21.951  1.00  0.00    -0.195 NA
ATOM     12  S   UNL A   1      32.664  26.638  21.905  1.00  0.00    -0.017 S 
ATOM     13  C   UNL A   1      31.588  25.857  22.958  1.00  0.00     0.129 A 
BRANCH  13  14
ATOM     14  N   UNL A   1      30.271  26.245  23.128  1.00  0.00    -0.315 N 
ATOM     15  C   UNL A   1      29.682  27.481  23.196  1.00  0.00     0.232 C 
ATOM     16  H   UNL A   1      29.639  25.495  23.215  1.00  0.00     0.170 HD
ATOM     17  O   UNL A   1      28.460  27.507  23.397  1.00  0.00    -0.274 OA
BRANCH  15  18
ATOM     18  C   UNL A   1      30.474  28.786  23.001  1.00  0.00     0.107 C 
ATOM     19  C   UNL A   1      30.369  29.725  24.176  1.00  0.00    -0.012 C 
ATOM     20  C   UNL A   1      29.942  29.672  21.858  1.00  0.00     0.087 C 
ATOM     21  C   UNL A   1      29.657  30.824  23.897  1.00  0.00     0.033 C 
ATOM     22  C   UNL A   1      29.124  30.792  22.509  1.00  0.00     0.205 C 
BRANCH  22  23
ATOM     23  N   UNL A   1      29.303  32.049  21.803  1.00  0.00    -0.352 N 
ATOM     24  H   UNL A   1      28.981  32.817  22.392  1.00  0.00     0.345 HD
ATOM     25  H   UNL A   1      28.760  32.032  20.940  1.00  0.00     0.345 HD
ATOM     26  H   UNL A   1      30.290  32.177  21.584  1.00  0.00     0.345 HD
ENDBRANCH  22  23
ENDBRANCH  15  18
ENDBRANCH  13  14
ENDBRANCH   5   8
ENDBRANCH   3   4
ENDBRANCH   2   3
ENDBRANCH   1   2
BRANCH   1  27
ATOM     27  C   UNL A   1      33.224  29.280  26.365  1.00  0.00     0.002 C 
BRANCH  27  28
ATOM     28  C   UNL A   1      34.287  30.140  27.062  1.00  0.00     0.021 C 
BRANCH  28  29
ATOM     29  C   UNL A   1      35.404  29.380  27.758  1.00  0.00     0.116 C 
BRANCH  29  30
ATOM     30  N   UNL A   1      35.549  29.701  29.180  1.00  0.00    -0.352 N 
ATOM     31  C   UNL A   1      36.572  29.340  30.044  1.00  0.00     0.251 C 
ATOM     32  H   UNL A   1      34.827  30.244  29.573  1.00  0.00     0.163 HD
ATOM     33  O   UNL A   1      36.373  29.317  31.261  1.00  0.00    -0.269 OA
BRANCH  31  34
ATOM     34  C   UNL A   1      37.893  28.986  29.491  1.00  0.00     0.039 A 
ATOM     35  C   UNL A   1      38.434  29.570  28.341  1.00  0.00     0.014 A 
ATOM     36  C   UNL A   1      38.618  28.028  30.186  1.00  0.00     0.014 A 
ATOM     37  C   UNL A   1      39.722  29.198  27.949  1.00  0.00     0.010 A 
ATOM     38  C   UNL A   1      39.957  27.900  29.982  1.00  0.00     0.010 A 
ATOM     39  C   UNL A   1      40.474  28.359  28.788  1.00  0.00    -0.014 A 
BRANCH  39  40
ATOM     40  C   UNL A   1      41.842  27.962  28.514  1.00  0.00     0.031 A 
ATOM     41  C   UNL A   1      41.953  26.748  27.686  1.00  0.00     0.074 A 
ATOM     42  C   UNL A   1      42.907  28.758  28.760  1.00  0.00     0.049 A 
ATOM     43  N   UNL A   1      42.187  25.555  28.111  1.00  0.00    -0.248 NA
ATOM     44  C   UNL A   1      41.557  26.809  26.272  1.00  0.00     0.031 C 
ATOM     45  C   UNL A   1      42.939  30.132  29.278  1.00  0.00     0.029 A 
ATOM     46  N   UNL A   1      44.215  28.518  28.492  1.00  0.00    -0.354 N 
ATOM     47  C   UNL A   1      42.253  24.759  26.979  1.00  0.00     0.074 A 
ATOM     48  C   UNL A   1      41.605  25.516  25.941  1.00  0.00     0.031 C 
ATOM     49  C   UNL A   1      44.169  30.664  29.079  1.00  0.00     0.029 A 
ATOM     50  C   UNL A   1      45.050  29.629  28.568  1.00  0.00     0.049 A 
ATOM     51  H   UNL A   1      44.551  27.621  28.260  1.00  0.00     0.167 HD
ATOM     52  C   UNL A   1      43.074  23.673  26.945  1.00  0.00     0.034 A 
ATOM     53  C   UNL A   1      46.365  29.687  28.213  1.00  0.00     0.034 A 
ATOM     54  C   UNL A   1      43.617  23.409  28.266  1.00  0.00     0.049 A 
ATOM     55  C   UNL A   1      46.873  28.289  28.296  1.00  0.00     0.074 A 
ATOM     56  C   UNL A   1      43.061  23.149  29.505  1.00  0.00     0.029 A 
ATOM     57  N   UNL A   1      44.908  23.826  28.523  1.00  0.00    -0.354 N 
ATOM     58  N   UNL A   1      46.932  27.625  29.421  1.00  0.00    -0.248 NA
ATOM     59  C   UNL A   1      46.802  27.459  27.100  1.00  0.00     0.031 C 
ATOM     60  C   UNL A   1      43.843  23.914  30.422  1.00  0.00     0.029 A 
ATOM     61  C   UNL A   1      44.895  24.505  29.718  1.00  0.00     0.049 A 
ATOM     62  H   UNL A   1      45.696  23.667  27.954  1.00  0.00     0.167 HD
ATOM     63  C   UNL A   1      46.452  26.358  29.118  1.00  0.00     0.074 A 
ATOM     64  C   UNL A   1      46.483  26.285  27.656  1.00  0.00     0.031 C 
ATOM     65  C   UNL A   1      45.793  25.602  30.048  1.00  0.00     0.034 A 
BRANCH  52  66
ATOM     66  C   UNL A   1      43.699  23.070  25.710  1.00  0.00     0.023 A 
ATOM     67  C   UNL A   1      43.565  21.678  25.557  1.00  0.00     0.031 A 
ATOM     68  C   UNL A   1      44.622  23.696  24.843  1.00  0.00     0.131 A 
ATOM     69  C   UNL A   1      44.401  20.960  24.689  1.00  0.00     0.055 A 
ATOM     70  C   UNL A   1      45.403  22.985  23.926  1.00  0.00     0.041 A 
ATOM     71  F   UNL A   1      44.892  25.005  24.887  1.00  0.00    -0.206 F 
ATOM     72  C   UNL A   1      45.323  21.605  23.872  1.00  0.00     0.022 A 
BRANCH  69  73
ATOM     73  S   UNL A   1      44.386  19.154  24.798  1.00  0.00     0.124 S 
ATOM     74  O   UNL A   1      45.468  18.911  25.747  1.00  0.00    -0.237 OA
ATOM     75  O   UNL A   1      43.035  18.895  25.282  1.00  0.00    -0.237 OA
ATOM     76  O   UNL A   1      44.651  18.731  23.426  1.00  0.00    -0.744 OA
ENDBRANCH  69  73
ENDBRANCH  52  66
BRANCH  53  77
ATOM     77  C   UNL A   1      47.070  30.796  27.500  1.00  0.00     0.023 A 
ATOM     78  C   UNL A   1      46.402  31.926  26.970  1.00  0.00     0.031 A 
ATOM     79  C   UNL A   1      48.481  30.872  27.547  1.00  0.00     0.131 A 
ATOM     80  C   UNL A   1      47.139  33.056  26.530  1.00  0.00     0.055 A 
ATOM     81  C   UNL A   1      49.201  31.989  27.114  1.00  0.00     0.041 A 
ATOM     82  F   UNL A   1      49.214  29.894  28.102  1.00  0.00    -0.206 F 
ATOM     83  C   UNL A   1      48.533  33.092  26.613  1.00  0.00     0.022 A 
BRANCH  80  84
ATOM     84  S   UNL A   1      46.291  34.557  25.927  1.00  0.00     0.124 S 
ATOM     85  O   UNL A   1      45.420  34.022  24.886  1.00  0.00    -0.237 OA
ATOM     86  O   UNL A   1      45.635  35.056  27.130  1.00  0.00    -0.237 OA
ATOM     87  O   UNL A   1      47.386  35.396  25.439  1.00  0.00    -0.744 OA
ENDBRANCH  80  84
ENDBRANCH  53  77
BRANCH  65  88
ATOM     88  C   UNL A   1      45.822  26.041  31.503  1.00  0.00     0.023 A 
ATOM     89  C   UNL A   1      44.730  26.603  32.208  1.00  0.00     0.031 A 
ATOM     90  C   UNL A   1      46.982  25.743  32.240  1.00  0.00     0.131 A 
ATOM     91  C   UNL A   1      44.834  26.849  33.594  1.00  0.00     0.055 A 
ATOM     92  C   UNL A   1      47.071  25.964  33.614  1.00  0.00     0.041 A 
ATOM     93  F   UNL A   1      48.046  25.187  31.638  1.00  0.00    -0.206 F 
ATOM     94  C   UNL A   1      45.998  26.523  34.295  1.00  0.00     0.022 A 
BRANCH  91  95
ATOM     95  S   UNL A   1      43.459  27.619  34.511  1.00  0.00     0.124 S 
ATOM     96  O   UNL A   1      42.430  26.587  34.517  1.00  0.00    -0.237 OA
ATOM     97  O   UNL A   1      44.069  27.921  35.803  1.00  0.00    -0.237 OA
ATOM     98  O   UNL A   1      43.132  28.799  33.705  1.00  0.00    -0.744 OA
ENDBRANCH  91  95
ENDBRANCH  65  88
ENDBRANCH  39  40
ENDBRANCH  31  34
ENDBRANCH  29  30
ENDBRANCH  28  29
ENDBRANCH  27  28
ENDBRANCH   1  27
TORSDOF 19
ENDMDL
