MODEL 1
REMARK VINA RESULT:     -11.8      0.000      0.000
REMARK SMILES Cc1ccc(Cl)cc1NC(=O)N[C@@](C)(C(=O)NCCCCCCNC(=O)c1ccc(-c2c3nc(c(-c4cc(S(=O)(=O)[O-])ccc4F)c4ccc([nH]4)c(-c4cc(S(=O)(=O)[O-])ccc4F)c4nc(c(-c5cc(S(=O)(=O)[O-])ccc5F)c5ccc2[nH]5)C=C4)C=C3)cc1)C(F)(F)F
REMARK SMILES IDX 21 1 20 2 19 3 18 4 17 5 15 6 16 7 13 9 14 10 12 11 9 12
REMARK SMILES IDX 10 13 11 15 8 17 1 18 2 19 3 20 4 21 7 22 5 23 6 24 90 25
REMARK SMILES IDX 91 26 92 27 93 28 22 29 23 30 24 31 25 32 26 34 27 35 28 36
REMARK SMILES IDX 89 37 29 38 88 39 30 40 31 41 32 42 82 43 33 44 87 45 81 46
REMARK SMILES IDX 83 47 34 48 86 49 80 50 79 51 35 53 67 54 47 55 66 56 48 57
REMARK SMILES IDX 51 58 65 59 84 60 49 61 50 62 64 64 85 65 52 66 36 67 37 68
REMARK SMILES IDX 45 69 38 70 44 71 46 72 43 73 39 74 40 75 41 76 42 77 68 78
REMARK SMILES IDX 69 79 77 80 70 81 76 82 78 83 75 84 71 85 72 86 73 87 74 88
REMARK SMILES IDX 53 89 54 90 62 91 55 92 61 93 63 94 60 95 56 96 57 97 58 98
REMARK SMILES IDX 59 99
REMARK H PARENT 17 8 9 14 12 16 24 33 83 52 51 63
REMARK Flexibility Score: inf
ROOT
ATOM      1  C   UNL A   1      31.588  30.511  26.384  1.00  0.00     0.002 C 
ENDROOT
BRANCH   1   2
ATOM      2  C   UNL A   1      31.098  30.237  24.957  1.00  0.00     0.002 C 
BRANCH   2   3
ATOM      3  C   UNL A   1      31.642  28.954  24.304  1.00  0.00     0.021 C 
BRANCH   3   4
ATOM      4  C   UNL A   1      31.309  27.666  25.060  1.00  0.00     0.116 C 
BRANCH   4   5
ATOM      5  N   UNL A   1      30.746  26.685  24.158  1.00  0.00    -0.354 N 
ATOM      6  C   UNL A   1      31.559  25.774  23.537  1.00  0.00     0.255 C 
ATOM      7  O   UNL A   1      32.002  26.082  22.432  1.00  0.00    -0.272 OA
ATOM      8  H   UNL A   1      29.775  26.670  23.991  1.00  0.00     0.163 HD
BRANCH   6   9
ATOM      9  C   UNL A   1      31.941  24.479  24.312  1.00  0.00     0.213 C 
ATOM     10  C   UNL A   1      31.787  23.276  23.361  1.00  0.00     0.056 C 
BRANCH   9  11
ATOM     11  N   UNL A   1      31.020  24.300  25.480  1.00  0.00    -0.316 N 
ATOM     12  N   UNL A   1      31.486  22.301  26.753  1.00  0.00    -0.308 N 
ATOM     13  C   UNL A   1      30.790  23.412  26.454  1.00  0.00     0.320 C 
ATOM     14  H   UNL A   1      31.235  21.943  27.635  1.00  0.00     0.171 HD
ATOM     15  O   UNL A   1      29.886  23.717  27.244  1.00  0.00    -0.248 OA
ATOM     16  H   UNL A   1      30.401  25.061  25.552  1.00  0.00     0.166 HD
BRANCH  12  17
ATOM     17  C   UNL A   1      32.474  21.518  26.141  1.00  0.00     0.047 A 
ATOM     18  C   UNL A   1      34.289  22.545  27.642  1.00  0.00     0.046 C 
ATOM     19  C   UNL A   1      33.829  21.711  26.478  1.00  0.00    -0.027 A 
ATOM     20  C   UNL A   1      34.823  21.097  25.689  1.00  0.00     0.007 A 
ATOM     21  C   UNL A   1      34.480  20.265  24.625  1.00  0.00     0.021 A 
ATOM     22  C   UNL A   1      32.154  20.526  25.217  1.00  0.00     0.047 A 
ATOM     23  C   UNL A   1      33.145  19.943  24.426  1.00  0.00     0.043 A 
ATOM     24  Cl  UNL A   1      32.707  18.871  23.153  1.00  0.00    -0.084 Cl
ENDBRANCH  12  17
ENDBRANCH   9  11
BRANCH   9  25
ATOM     25  C   UNL A   1      33.408  24.857  24.648  1.00  0.00     0.420 C 
ATOM     26  F   UNL A   1      34.297  23.908  24.269  1.00  0.00    -0.168 F 
ATOM     27  F   UNL A   1      33.826  25.994  24.076  1.00  0.00    -0.168 F 
ATOM     28  F   UNL A   1      33.567  25.063  25.984  1.00  0.00    -0.168 F 
ENDBRANCH   9  25
ENDBRANCH   6   9
ENDBRANCH   4   5
ENDBRANCH   3   4
ENDBRANCH   2   3
ENDBRANCH   1   2
BRANCH   1  29
ATOM     29  C   UNL A   1      31.430  31.956  26.847  1.00  0.00     0.021 C 
BRANCH  29  30
ATOM     30  C   UNL A   1      32.741  32.716  26.969  1.00  0.00     0.116 C 
BRANCH  30  31
ATOM     31  N   UNL A   1      32.546  34.054  27.496  1.00  0.00    -0.352 N 
ATOM     32  C   UNL A   1      33.155  34.633  28.582  1.00  0.00     0.251 C 
ATOM     33  H   UNL A   1      31.896  34.617  27.015  1.00  0.00     0.163 HD
ATOM     34  O   UNL A   1      32.742  35.693  29.031  1.00  0.00    -0.269 OA
BRANCH  32  35
ATOM     35  C   UNL A   1      34.294  33.933  29.211  1.00  0.00     0.039 A 
ATOM     36  C   UNL A   1      35.592  34.349  28.911  1.00  0.00     0.014 A 
ATOM     37  C   UNL A   1      34.075  32.898  30.127  1.00  0.00     0.014 A 
ATOM     38  C   UNL A   1      36.671  33.756  29.569  1.00  0.00     0.010 A 
ATOM     39  C   UNL A   1      35.144  32.370  30.841  1.00  0.00     0.010 A 
ATOM     40  C   UNL A   1      36.455  32.784  30.560  1.00  0.00    -0.014 A 
BRANCH  40  41
ATOM     41  C   UNL A   1      37.593  32.178  31.299  1.00  0.00     0.031 A 
ATOM     42  C   UNL A   1      38.414  31.096  30.648  1.00  0.00     0.074 A 
ATOM     43  C   UNL A   1      37.849  32.564  32.565  1.00  0.00     0.049 A 
ATOM     44  N   UNL A   1      39.408  30.405  31.141  1.00  0.00    -0.248 NA
ATOM     45  C   UNL A   1      38.051  30.723  29.270  1.00  0.00     0.031 C 
ATOM     46  C   UNL A   1      37.088  33.569  33.313  1.00  0.00     0.029 A 
ATOM     47  N   UNL A   1      38.812  32.153  33.453  1.00  0.00    -0.354 N 
ATOM     48  C   UNL A   1      39.775  29.504  30.148  1.00  0.00     0.074 A 
ATOM     49  C   UNL A   1      38.864  29.702  29.042  1.00  0.00     0.031 C 
ATOM     50  C   UNL A   1      37.625  33.709  34.536  1.00  0.00     0.029 A 
ATOM     51  C   UNL A   1      38.736  32.773  34.681  1.00  0.00     0.049 A 
ATOM     52  H   UNL A   1      39.493  31.478  33.234  1.00  0.00     0.167 HD
ATOM     53  C   UNL A   1      40.789  28.606  30.154  1.00  0.00     0.034 A 
ATOM     54  C   UNL A   1      39.466  32.594  35.801  1.00  0.00     0.034 A 
ATOM     55  C   UNL A   1      41.706  28.445  31.255  1.00  0.00     0.049 A 
ATOM     56  C   UNL A   1      40.591  31.587  35.777  1.00  0.00     0.074 A 
ATOM     57  C   UNL A   1      42.820  27.628  31.331  1.00  0.00     0.029 A 
ATOM     58  N   UNL A   1      41.610  29.102  32.475  1.00  0.00    -0.354 N 
ATOM     59  N   UNL A   1      40.973  30.799  34.797  1.00  0.00    -0.248 NA
ATOM     60  C   UNL A   1      41.393  31.456  37.000  1.00  0.00     0.031 C 
ATOM     61  C   UNL A   1      43.347  27.727  32.622  1.00  0.00     0.029 A 
ATOM     62  C   UNL A   1      42.620  28.677  33.323  1.00  0.00     0.049 A 
ATOM     63  H   UNL A   1      40.925  29.771  32.703  1.00  0.00     0.167 HD
ATOM     64  C   UNL A   1      42.082  30.106  35.278  1.00  0.00     0.074 A 
ATOM     65  C   UNL A   1      42.316  30.585  36.624  1.00  0.00     0.031 C 
ATOM     66  C   UNL A   1      42.839  29.163  34.665  1.00  0.00     0.034 A 
BRANCH  53  67
ATOM     67  C   UNL A   1      40.949  27.708  28.951  1.00  0.00     0.023 A 
ATOM     68  C   UNL A   1      41.952  27.918  27.989  1.00  0.00     0.031 A 
ATOM     69  C   UNL A   1      40.090  26.608  28.777  1.00  0.00     0.131 A 
ATOM     70  C   UNL A   1      42.040  27.071  26.873  1.00  0.00     0.055 A 
ATOM     71  C   UNL A   1      40.230  25.726  27.705  1.00  0.00     0.041 A 
ATOM     72  F   UNL A   1      39.098  26.372  29.650  1.00  0.00    -0.206 F 
ATOM     73  C   UNL A   1      41.204  25.959  26.739  1.00  0.00     0.022 A 
BRANCH  70  74
ATOM     74  S   UNL A   1      43.194  27.503  25.542  1.00  0.00     0.124 S 
ATOM     75  O   UNL A   1      43.928  26.251  25.371  1.00  0.00    -0.237 OA
ATOM     76  O   UNL A   1      42.297  27.872  24.454  1.00  0.00    -0.237 OA
ATOM     77  O   UNL A   1      43.974  28.602  26.109  1.00  0.00    -0.744 OA
ENDBRANCH  70  74
ENDBRANCH  53  67
BRANCH  54  78
ATOM     78  C   UNL A   1      39.150  33.352  37.049  1.00  0.00     0.023 A 
ATOM     79  C   UNL A   1      39.706  34.617  37.293  1.00  0.00     0.031 A 
ATOM     80  C   UNL A   1      38.341  32.786  38.052  1.00  0.00     0.131 A 
ATOM     81  C   UNL A   1      39.508  35.243  38.534  1.00  0.00     0.055 A 
ATOM     82  C   UNL A   1      38.091  33.443  39.258  1.00  0.00     0.041 A 
ATOM     83  F   UNL A   1      37.780  31.579  37.873  1.00  0.00    -0.206 F 
ATOM     84  C   UNL A   1      38.691  34.671  39.513  1.00  0.00     0.022 A 
BRANCH  81  85
ATOM     85  S   UNL A   1      40.438  36.757  38.902  1.00  0.00     0.124 S 
ATOM     86  O   UNL A   1      39.384  37.764  38.878  1.00  0.00    -0.237 OA
ATOM     87  O   UNL A   1      41.004  36.452  40.211  1.00  0.00    -0.237 OA
ATOM     88  O   UNL A   1      41.404  36.836  37.809  1.00  0.00    -0.744 OA
ENDBRANCH  81  85
ENDBRANCH  54  78
BRANCH  66  89
ATOM     89  C   UNL A   1      44.028  28.630  35.427  1.00  0.00     0.023 A 
ATOM     90  C   UNL A   1      43.910  27.566  36.339  1.00  0.00     0.031 A 
ATOM     91  C   UNL A   1      45.300  29.199  35.237  1.00  0.00     0.131 A 
ATOM     92  C   UNL A   1      45.030  27.146  37.071  1.00  0.00     0.055 A 
ATOM     93  C   UNL A   1      46.424  28.732  35.917  1.00  0.00     0.041 A 
ATOM     94  F   UNL A   1      45.472  30.219  34.381  1.00  0.00    -0.206 F 
ATOM     95  C   UNL A   1      46.291  27.708  36.851  1.00  0.00     0.022 A 
BRANCH  92  96
ATOM     96  S   UNL A   1      44.801  25.921  38.387  1.00  0.00     0.124 S 
ATOM     97  O   UNL A   1      46.177  25.628  38.773  1.00  0.00    -0.237 OA
ATOM     98  O   UNL A   1      44.008  26.658  39.366  1.00  0.00    -0.237 OA
ATOM     99  O   UNL A   1      44.098  24.827  37.720  1.00  0.00    -0.744 OA
ENDBRANCH  92  96
ENDBRANCH  66  89
ENDBRANCH  40  41
ENDBRANCH  32  35
ENDBRANCH  30  31
ENDBRANCH  29  30
ENDBRANCH   1  29
TORSDOF 19
ENDMDL
MODEL 2
REMARK VINA RESULT:     -11.8      1.788      2.363
REMARK SMILES Cc1ccc(Cl)cc1NC(=O)N[C@@](C)(C(=O)NCCCCCCNC(=O)c1ccc(-c2c3nc(c(-c4cc(S(=O)(=O)[O-])ccc4F)c4ccc([nH]4)c(-c4cc(S(=O)(=O)[O-])ccc4F)c4nc(c(-c5cc(S(=O)(=O)[O-])ccc5F)c5ccc2[nH]5)C=C4)C=C3)cc1)C(F)(F)F
REMARK SMILES IDX 21 1 20 2 19 3 18 4 17 5 15 6 16 7 13 9 14 10 12 11 9 12
REMARK SMILES IDX 10 13 11 15 8 17 1 18 2 19 3 20 4 21 7 22 5 23 6 24 90 25
REMARK SMILES IDX 91 26 92 27 93 28 22 29 23 30 24 31 25 32 26 34 27 35 28 36
REMARK SMILES IDX 89 37 29 38 88 39 30 40 31 41 32 42 82 43 33 44 87 45 81 46
REMARK SMILES IDX 83 47 34 48 86 49 80 50 79 51 35 53 67 54 47 55 66 56 48 57
REMARK SMILES IDX 51 58 65 59 84 60 49 61 50 62 64 64 85 65 52 66 36 67 37 68
REMARK SMILES IDX 45 69 38 70 44 71 46 72 43 73 39 74 40 75 41 76 42 77 68 78
REMARK SMILES IDX 69 79 77 80 70 81 76 82 78 83 75 84 71 85 72 86 73 87 74 88
REMARK SMILES IDX 53 89 54 90 62 91 55 92 61 93 63 94 60 95 56 96 57 97 58 98
REMARK SMILES IDX 59 99
REMARK H PARENT 17 8 9 14 12 16 24 33 83 52 51 63
REMARK Flexibility Score: inf
ROOT
ATOM      1  C   UNL A   1      31.413  31.017  25.959  1.00  0.00     0.002 C 
ENDROOT
BRANCH   1   2
ATOM      2  C   UNL A   1      32.469  30.083  26.563  1.00  0.00     0.002 C 
BRANCH   2   3
ATOM      3  C   UNL A   1      31.920  28.832  27.272  1.00  0.00     0.021 C 
BRANCH   3   4
ATOM      4  C   UNL A   1      31.531  27.689  26.332  1.00  0.00     0.116 C 
BRANCH   4   5
ATOM      5  N   UNL A   1      31.328  26.468  27.081  1.00  0.00    -0.354 N 
ATOM      6  C   UNL A   1      30.849  25.348  26.455  1.00  0.00     0.255 C 
ATOM      7  O   UNL A   1      29.630  25.185  26.454  1.00  0.00    -0.272 OA
ATOM      8  H   UNL A   1      31.536  26.442  28.043  1.00  0.00     0.163 HD
BRANCH   6   9
ATOM      9  C   UNL A   1      31.863  24.430  25.711  1.00  0.00     0.213 C 
ATOM     10  C   UNL A   1      33.289  24.822  26.144  1.00  0.00     0.056 C 
BRANCH   9  11
ATOM     11  N   UNL A   1      31.731  24.626  24.232  1.00  0.00    -0.316 N 
ATOM     12  N   UNL A   1      33.252  23.253  22.955  1.00  0.00    -0.308 N 
ATOM     13  C   UNL A   1      32.305  24.195  23.103  1.00  0.00     0.320 C 
ATOM     14  H   UNL A   1      33.348  22.980  22.014  1.00  0.00     0.171 HD
ATOM     15  O   UNL A   1      31.818  24.647  22.057  1.00  0.00    -0.248 OA
ATOM     16  H   UNL A   1      31.006  25.261  24.031  1.00  0.00     0.166 HD
BRANCH  12  17
ATOM     17  C   UNL A   1      34.140  22.557  23.787  1.00  0.00     0.047 A 
ATOM     18  C   UNL A   1      32.657  20.461  23.701  1.00  0.00     0.046 C 
ATOM     19  C   UNL A   1      33.808  21.265  24.241  1.00  0.00    -0.027 A 
ATOM     20  C   UNL A   1      34.585  20.679  25.261  1.00  0.00     0.007 A 
ATOM     21  C   UNL A   1      35.700  21.335  25.778  1.00  0.00     0.021 A 
ATOM     22  C   UNL A   1      35.368  23.098  24.162  1.00  0.00     0.047 A 
ATOM     23  C   UNL A   1      36.115  22.521  25.190  1.00  0.00     0.043 A 
ATOM     24  Cl  UNL A   1      37.524  23.317  25.777  1.00  0.00    -0.084 Cl
ENDBRANCH  12  17
ENDBRANCH   9  11
BRANCH   9  25
ATOM     25  C   UNL A   1      31.366  23.070  26.268  1.00  0.00     0.420 C 
ATOM     26  F   UNL A   1      30.485  23.207  27.288  1.00  0.00    -0.168 F 
ATOM     27  F   UNL A   1      30.751  22.298  25.361  1.00  0.00    -0.168 F 
ATOM     28  F   UNL A   1      32.405  22.314  26.717  1.00  0.00    -0.168 F 
ENDBRANCH   9  25
ENDBRANCH   6   9
ENDBRANCH   4   5
ENDBRANCH   3   4
ENDBRANCH   2   3
ENDBRANCH   1   2
BRANCH   1  29
ATOM     29  C   UNL A   1      31.333  32.395  26.607  1.00  0.00     0.021 C 
BRANCH  29  30
ATOM     30  C   UNL A   1      32.617  32.835  27.291  1.00  0.00     0.116 C 
BRANCH  30  31
ATOM     31  N   UNL A   1      32.553  34.217  27.729  1.00  0.00    -0.352 N 
ATOM     32  C   UNL A   1      33.282  34.826  28.721  1.00  0.00     0.251 C 
ATOM     33  H   UNL A   1      31.906  34.790  27.256  1.00  0.00     0.163 HD
ATOM     34  O   UNL A   1      32.976  35.942  29.118  1.00  0.00    -0.269 OA
BRANCH  32  35
ATOM     35  C   UNL A   1      34.418  34.092  29.316  1.00  0.00     0.039 A 
ATOM     36  C   UNL A   1      35.716  34.439  28.942  1.00  0.00     0.014 A 
ATOM     37  C   UNL A   1      34.198  33.094  30.272  1.00  0.00     0.014 A 
ATOM     38  C   UNL A   1      36.799  33.816  29.565  1.00  0.00     0.010 A 
ATOM     39  C   UNL A   1      35.276  32.538  30.950  1.00  0.00     0.010 A 
ATOM     40  C   UNL A   1      36.589  32.883  30.595  1.00  0.00    -0.014 A 
BRANCH  40  41
ATOM     41  C   UNL A   1      37.733  32.246  31.296  1.00  0.00     0.031 A 
ATOM     42  C   UNL A   1      38.484  31.122  30.631  1.00  0.00     0.074 A 
ATOM     43  C   UNL A   1      38.058  32.643  32.543  1.00  0.00     0.049 A 
ATOM     44  N   UNL A   1      39.471  30.401  31.096  1.00  0.00    -0.248 NA
ATOM     45  C   UNL A   1      38.048  30.739  29.278  1.00  0.00     0.031 C 
ATOM     46  C   UNL A   1      37.369  33.690  33.303  1.00  0.00     0.029 A 
ATOM     47  N   UNL A   1      39.041  32.210  33.397  1.00  0.00    -0.354 N 
ATOM     48  C   UNL A   1      39.760  29.468  30.105  1.00  0.00     0.074 A 
ATOM     49  C   UNL A   1      38.811  29.683  29.036  1.00  0.00     0.031 C 
ATOM     50  C   UNL A   1      37.963  33.830  34.499  1.00  0.00     0.029 A 
ATOM     51  C   UNL A   1      39.042  32.854  34.615  1.00  0.00     0.049 A 
ATOM     52  H   UNL A   1      39.687  31.505  33.162  1.00  0.00     0.167 HD
ATOM     53  C   UNL A   1      40.739  28.533  30.086  1.00  0.00     0.034 A 
ATOM     54  C   UNL A   1      39.812  32.667  35.706  1.00  0.00     0.034 A 
ATOM     55  C   UNL A   1      41.694  28.354  31.150  1.00  0.00     0.049 A 
ATOM     56  C   UNL A   1      40.895  31.616  35.654  1.00  0.00     0.074 A 
ATOM     57  C   UNL A   1      42.779  27.496  31.195  1.00  0.00     0.029 A 
ATOM     58  N   UNL A   1      41.676  29.036  32.361  1.00  0.00    -0.354 N 
ATOM     59  N   UNL A   1      41.205  30.797  34.675  1.00  0.00    -0.248 NA
ATOM     60  C   UNL A   1      41.743  31.475  36.845  1.00  0.00     0.031 C 
ATOM     61  C   UNL A   1      43.364  27.597  32.460  1.00  0.00     0.029 A 
ATOM     62  C   UNL A   1      42.705  28.587  33.174  1.00  0.00     0.049 A 
ATOM     63  H   UNL A   1      41.028  29.736  32.604  1.00  0.00     0.167 HD
ATOM     64  C   UNL A   1      42.306  30.070  35.121  1.00  0.00     0.074 A 
ATOM     65  C   UNL A   1      42.616  30.563  36.447  1.00  0.00     0.031 C 
ATOM     66  C   UNL A   1      43.000  29.087  34.495  1.00  0.00     0.034 A 
BRANCH  53  67
ATOM     67  C   UNL A   1      40.812  27.608  28.895  1.00  0.00     0.023 A 
ATOM     68  C   UNL A   1      41.781  27.762  27.887  1.00  0.00     0.031 A 
ATOM     69  C   UNL A   1      39.905  26.539  28.778  1.00  0.00     0.131 A 
ATOM     70  C   UNL A   1      41.788  26.892  26.785  1.00  0.00     0.055 A 
ATOM     71  C   UNL A   1      39.966  25.633  27.719  1.00  0.00     0.041 A 
ATOM     72  F   UNL A   1      38.943  26.357  29.697  1.00  0.00    -0.206 F 
ATOM     73  C   UNL A   1      40.906  25.812  26.708  1.00  0.00     0.022 A 
BRANCH  70  74
ATOM     74  S   UNL A   1      42.900  27.256  25.398  1.00  0.00     0.124 S 
ATOM     75  O   UNL A   1      42.981  25.955  24.739  1.00  0.00    -0.237 OA
ATOM     76  O   UNL A   1      42.175  28.295  24.677  1.00  0.00    -0.237 OA
ATOM     77  O   UNL A   1      44.131  27.692  26.053  1.00  0.00    -0.744 OA
ENDBRANCH  70  74
ENDBRANCH  53  67
BRANCH  54  78
ATOM     78  C   UNL A   1      39.579  33.458  36.952  1.00  0.00     0.023 A 
ATOM     79  C   UNL A   1      38.947  32.890  38.069  1.00  0.00     0.031 A 
ATOM     80  C   UNL A   1      39.922  34.822  37.015  1.00  0.00     0.131 A 
ATOM     81  C   UNL A   1      38.613  33.695  39.170  1.00  0.00     0.055 A 
ATOM     82  C   UNL A   1      39.648  35.601  38.140  1.00  0.00     0.041 A 
ATOM     83  F   UNL A   1      40.531  35.419  35.978  1.00  0.00    -0.206 F 
ATOM     84  C   UNL A   1      38.972  35.043  39.219  1.00  0.00     0.022 A 
BRANCH  81  85
ATOM     85  S   UNL A   1      37.584  32.983  40.485  1.00  0.00     0.124 S 
ATOM     86  O   UNL A   1      38.177  31.659  40.640  1.00  0.00    -0.237 OA
ATOM     87  O   UNL A   1      37.806  33.918  41.581  1.00  0.00    -0.237 OA
ATOM     88  O   UNL A   1      36.240  33.003  39.912  1.00  0.00    -0.744 OA
ENDBRANCH  81  85
ENDBRANCH  54  78
BRANCH  66  89
ATOM     89  C   UNL A   1      44.199  28.521  35.216  1.00  0.00     0.023 A 
ATOM     90  C   UNL A   1      44.073  27.522  36.197  1.00  0.00     0.031 A 
ATOM     91  C   UNL A   1      45.490  28.994  34.917  1.00  0.00     0.131 A 
ATOM     92  C   UNL A   1      45.209  27.071  36.885  1.00  0.00     0.055 A 
ATOM     93  C   UNL A   1      46.623  28.493  35.557  1.00  0.00     0.041 A 
ATOM     94  F   UNL A   1      45.670  29.950  33.992  1.00  0.00    -0.206 F 
ATOM     95  C   UNL A   1      46.485  27.536  36.557  1.00  0.00     0.022 A 
BRANCH  92  96
ATOM     96  S   UNL A   1      44.987  25.942  38.286  1.00  0.00     0.124 S 
ATOM     97  O   UNL A   1      46.247  26.099  39.005  1.00  0.00    -0.237 OA
ATOM     98  O   UNL A   1      43.805  26.488  38.945  1.00  0.00    -0.237 OA
ATOM     99  O   UNL A   1      44.795  24.640  37.650  1.00  0.00    -0.744 OA
ENDBRANCH  92  96
ENDBRANCH  66  89
ENDBRANCH  40  41
ENDBRANCH  32  35
ENDBRANCH  30  31
ENDBRANCH  29  30
ENDBRANCH   1  29
TORSDOF 19
ENDMDL
MODEL 3
REMARK VINA RESULT:     -11.7      3.296      8.512
REMARK SMILES Cc1ccc(Cl)cc1NC(=O)N[C@@](C)(C(=O)NCCCCCCNC(=O)c1ccc(-c2c3nc(c(-c4cc(S(=O)(=O)[O-])ccc4F)c4ccc([nH]4)c(-c4cc(S(=O)(=O)[O-])ccc4F)c4nc(c(-c5cc(S(=O)(=O)[O-])ccc5F)c5ccc2[nH]5)C=C4)C=C3)cc1)C(F)(F)F
REMARK SMILES IDX 21 1 20 2 19 3 18 4 17 5 15 6 16 7 13 9 14 10 12 11 9 12
REMARK SMILES IDX 10 13 11 15 8 17 1 18 2 19 3 20 4 21 7 22 5 23 6 24 90 25
REMARK SMILES IDX 91 26 92 27 93 28 22 29 23 30 24 31 25 32 26 34 27 35 28 36
REMARK SMILES IDX 89 37 29 38 88 39 30 40 31 41 32 42 82 43 33 44 87 45 81 46
REMARK SMILES IDX 83 47 34 48 86 49 80 50 79 51 35 53 67 54 47 55 66 56 48 57
REMARK SMILES IDX 51 58 65 59 84 60 49 61 50 62 64 64 85 65 52 66 36 67 37 68
REMARK SMILES IDX 45 69 38 70 44 71 46 72 43 73 39 74 40 75 41 76 42 77 68 78
REMARK SMILES IDX 69 79 77 80 70 81 76 82 78 83 75 84 71 85 72 86 73 87 74 88
REMARK SMILES IDX 53 89 54 90 62 91 55 92 61 93 63 94 60 95 56 96 57 97 58 98
REMARK SMILES IDX 59 99
REMARK H PARENT 17 8 9 14 12 16 24 33 83 52 51 63
REMARK Flexibility Score: inf
ROOT
ATOM      1  C   UNL A   1      31.669  28.143  26.428  1.00  0.00     0.002 C 
ENDROOT
BRANCH   1   2
ATOM      2  C   UNL A   1      31.047  26.744  26.508  1.00  0.00     0.002 C 
BRANCH   2   3
ATOM      3  C   UNL A   1      30.186  26.330  25.302  1.00  0.00     0.021 C 
BRANCH   3   4
ATOM      4  C   UNL A   1      30.816  26.630  23.940  1.00  0.00     0.116 C 
BRANCH   4   5
ATOM      5  N   UNL A   1      30.833  25.438  23.120  1.00  0.00    -0.354 N 
ATOM      6  C   UNL A   1      32.019  24.947  22.644  1.00  0.00     0.255 C 
ATOM      7  O   UNL A   1      32.384  25.340  21.537  1.00  0.00    -0.272 OA
ATOM      8  H   UNL A   1      29.989  24.979  22.904  1.00  0.00     0.163 HD
BRANCH   6   9
ATOM      9  C   UNL A   1      32.858  24.019  23.572  1.00  0.00     0.213 C 
ATOM     10  C   UNL A   1      33.353  22.817  22.745  1.00  0.00     0.056 C 
BRANCH   9  11
ATOM     11  N   UNL A   1      32.000  23.520  24.694  1.00  0.00    -0.316 N 
ATOM     12  N   UNL A   1      33.192  22.090  26.231  1.00  0.00    -0.308 N 
ATOM     13  C   UNL A   1      32.099  22.710  25.755  1.00  0.00     0.320 C 
ATOM     14  H   UNL A   1      33.038  21.727  27.134  1.00  0.00     0.171 HD
ATOM     15  O   UNL A   1      31.074  22.614  26.443  1.00  0.00    -0.248 OA
ATOM     16  H   UNL A   1      31.095  23.900  24.633  1.00  0.00     0.166 HD
BRANCH  12  17
ATOM     17  C   UNL A   1      34.493  21.822  25.783  1.00  0.00     0.047 A 
ATOM     18  C   UNL A   1      33.705  19.667  24.626  1.00  0.00     0.046 C 
ATOM     19  C   UNL A   1      34.769  20.611  25.115  1.00  0.00    -0.027 A 
ATOM     20  C   UNL A   1      36.112  20.248  24.888  1.00  0.00     0.007 A 
ATOM     21  C   UNL A   1      37.155  21.092  25.263  1.00  0.00     0.021 A 
ATOM     22  C   UNL A   1      35.529  22.737  25.956  1.00  0.00     0.047 A 
ATOM     23  C   UNL A   1      36.856  22.356  25.750  1.00  0.00     0.043 A 
ATOM     24  Cl  UNL A   1      38.132  23.435  26.164  1.00  0.00    -0.084 Cl
ENDBRANCH  12  17
ENDBRANCH   9  11
BRANCH   9  25
ATOM     25  C   UNL A   1      33.959  25.042  23.956  1.00  0.00     0.420 C 
ATOM     26  F   UNL A   1      33.873  26.198  23.255  1.00  0.00    -0.168 F 
ATOM     27  F   UNL A   1      33.948  25.401  25.247  1.00  0.00    -0.168 F 
ATOM     28  F   UNL A   1      35.202  24.526  23.751  1.00  0.00    -0.168 F 
ENDBRANCH   9  25
ENDBRANCH   6   9
ENDBRANCH   4   5
ENDBRANCH   3   4
ENDBRANCH   2   3
ENDBRANCH   1   2
BRANCH   1  29
ATOM     29  C   UNL A   1      33.146  28.208  26.804  1.00  0.00     0.021 C 
BRANCH  29  30
ATOM     30  C   UNL A   1      33.924  29.295  26.080  1.00  0.00     0.116 C 
BRANCH  30  31
ATOM     31  N   UNL A   1      33.744  30.594  26.698  1.00  0.00    -0.352 N 
ATOM     32  C   UNL A   1      34.467  31.152  27.725  1.00  0.00     0.251 C 
ATOM     33  H   UNL A   1      33.013  31.147  26.337  1.00  0.00     0.163 HD
ATOM     34  O   UNL A   1      34.072  32.168  28.280  1.00  0.00    -0.269 OA
BRANCH  32  35
ATOM     35  C   UNL A   1      35.709  30.480  28.162  1.00  0.00     0.039 A 
ATOM     36  C   UNL A   1      36.909  30.800  27.526  1.00  0.00     0.014 A 
ATOM     37  C   UNL A   1      35.689  29.570  29.225  1.00  0.00     0.014 A 
ATOM     38  C   UNL A   1      38.100  30.241  27.990  1.00  0.00     0.010 A 
ATOM     39  C   UNL A   1      36.885  29.083  29.739  1.00  0.00     0.010 A 
ATOM     40  C   UNL A   1      38.102  29.402  29.118  1.00  0.00    -0.014 A 
BRANCH  40  41
ATOM     41  C   UNL A   1      39.370  28.837  29.649  1.00  0.00     0.031 A 
ATOM     42  C   UNL A   1      40.048  29.495  30.822  1.00  0.00     0.074 A 
ATOM     43  C   UNL A   1      39.932  27.772  29.043  1.00  0.00     0.049 A 
ATOM     44  N   UNL A   1      41.182  29.191  31.397  1.00  0.00    -0.248 NA
ATOM     45  C   UNL A   1      39.375  30.666  31.409  1.00  0.00     0.031 C 
ATOM     46  C   UNL A   1      39.389  27.083  27.868  1.00  0.00     0.029 A 
ATOM     47  N   UNL A   1      41.088  27.085  29.321  1.00  0.00    -0.354 N 
ATOM     48  C   UNL A   1      41.370  30.142  32.394  1.00  0.00     0.074 A 
ATOM     49  C   UNL A   1      40.257  31.062  32.314  1.00  0.00     0.031 C 
ATOM     50  C   UNL A   1      40.198  26.064  27.541  1.00  0.00     0.029 A 
ATOM     51  C   UNL A   1      41.343  26.052  28.447  1.00  0.00     0.049 A 
ATOM     52  H   UNL A   1      41.679  27.309  30.074  1.00  0.00     0.167 HD
ATOM     53  C   UNL A   1      42.371  30.226  33.303  1.00  0.00     0.034 A 
ATOM     54  C   UNL A   1      42.389  25.203  28.373  1.00  0.00     0.034 A 
ATOM     55  C   UNL A   1      43.456  29.281  33.385  1.00  0.00     0.049 A 
ATOM     56  C   UNL A   1      43.489  25.321  29.400  1.00  0.00     0.074 A 
ATOM     57  C   UNL A   1      44.475  29.223  34.320  1.00  0.00     0.029 A 
ATOM     58  N   UNL A   1      43.674  28.237  32.495  1.00  0.00    -0.354 N 
ATOM     59  N   UNL A   1      43.608  26.179  30.388  1.00  0.00    -0.248 NA
ATOM     60  C   UNL A   1      44.586  24.349  29.315  1.00  0.00     0.031 C 
ATOM     61  C   UNL A   1      45.351  28.200  33.949  1.00  0.00     0.029 A 
ATOM     62  C   UNL A   1      44.832  27.556  32.836  1.00  0.00     0.049 A 
ATOM     63  H   UNL A   1      43.090  28.013  31.735  1.00  0.00     0.167 HD
ATOM     64  C   UNL A   1      44.775  25.825  31.060  1.00  0.00     0.074 A 
ATOM     65  C   UNL A   1      45.309  24.665  30.378  1.00  0.00     0.031 C 
ATOM     66  C   UNL A   1      45.353  26.402  32.144  1.00  0.00     0.034 A 
BRANCH  53  67
ATOM     67  C   UNL A   1      42.362  31.392  34.262  1.00  0.00     0.023 A 
ATOM     68  C   UNL A   1      41.502  31.438  35.374  1.00  0.00     0.031 A 
ATOM     69  C   UNL A   1      43.246  32.468  34.069  1.00  0.00     0.131 A 
ATOM     70  C   UNL A   1      41.512  32.558  36.220  1.00  0.00     0.055 A 
ATOM     71  C   UNL A   1      43.303  33.544  34.956  1.00  0.00     0.041 A 
ATOM     72  F   UNL A   1      44.073  32.491  33.011  1.00  0.00    -0.206 F 
ATOM     73  C   UNL A   1      42.426  33.598  36.035  1.00  0.00     0.022 A 
BRANCH  70  74
ATOM     74  S   UNL A   1      40.239  32.688  37.506  1.00  0.00     0.124 S 
ATOM     75  O   UNL A   1      40.995  32.330  38.704  1.00  0.00    -0.237 OA
ATOM     76  O   UNL A   1      39.827  34.082  37.403  1.00  0.00    -0.237 OA
ATOM     77  O   UNL A   1      39.237  31.707  37.094  1.00  0.00    -0.744 OA
ENDBRANCH  70  74
ENDBRANCH  53  67
BRANCH  54  78
ATOM     78  C   UNL A   1      42.474  24.188  27.280  1.00  0.00     0.023 A 
ATOM     79  C   UNL A   1      41.828  22.947  27.386  1.00  0.00     0.031 A 
ATOM     80  C   UNL A   1      43.268  24.418  26.141  1.00  0.00     0.131 A 
ATOM     81  C   UNL A   1      42.042  21.959  26.412  1.00  0.00     0.055 A 
ATOM     82  C   UNL A   1      43.423  23.457  25.141  1.00  0.00     0.041 A 
ATOM     83  F   UNL A   1      43.909  25.588  25.983  1.00  0.00    -0.206 F 
ATOM     84  C   UNL A   1      42.823  22.211  25.282  1.00  0.00     0.022 A 
BRANCH  81  85
ATOM     85  S   UNL A   1      41.388  20.292  26.708  1.00  0.00     0.124 S 
ATOM     86  O   UNL A   1      40.029  20.581  27.151  1.00  0.00    -0.237 OA
ATOM     87  O   UNL A   1      41.517  19.680  25.390  1.00  0.00    -0.237 OA
ATOM     88  O   UNL A   1      42.279  19.755  27.733  1.00  0.00    -0.744 OA
ENDBRANCH  81  85
ENDBRANCH  54  78
BRANCH  66  89
ATOM     89  C   UNL A   1      46.599  25.749  32.690  1.00  0.00     0.023 A 
ATOM     90  C   UNL A   1      46.545  24.779  33.706  1.00  0.00     0.031 A 
ATOM     91  C   UNL A   1      47.863  26.108  32.186  1.00  0.00     0.131 A 
ATOM     92  C   UNL A   1      47.734  24.245  34.227  1.00  0.00     0.055 A 
ATOM     93  C   UNL A   1      49.037  25.524  32.660  1.00  0.00     0.041 A 
ATOM     94  F   UNL A   1      47.975  27.031  31.218  1.00  0.00    -0.206 F 
ATOM     95  C   UNL A   1      48.978  24.597  33.697  1.00  0.00     0.022 A 
BRANCH  92  96
ATOM     96  S   UNL A   1      47.639  23.160  35.675  1.00  0.00     0.124 S 
ATOM     97  O   UNL A   1      46.271  22.659  35.591  1.00  0.00    -0.237 OA
ATOM     98  O   UNL A   1      48.692  22.186  35.406  1.00  0.00    -0.237 OA
ATOM     99  O   UNL A   1      47.901  24.060  36.797  1.00  0.00    -0.744 OA
ENDBRANCH  92  96
ENDBRANCH  66  89
ENDBRANCH  40  41
ENDBRANCH  32  35
ENDBRANCH  30  31
ENDBRANCH  29  30
ENDBRANCH   1  29
TORSDOF 19
ENDMDL
