MODEL 1
REMARK VINA RESULT:     -10.5      0.000      0.000
REMARK SMILES COc1ccc([C@@H]2[C@@H](C(=O)c3cccc4c3CCCC4)[C@H](C(=O)NCCCCCCNC(=O)c3ccc(-c4c5nc(c(-c6cc(S(=O)(=O)[O-])ccc6F)c6ccc([nH]6)c(-c6cc(S(=O)(=O)[O-])ccc6F)c6nc(c(-c7cc(S(=O)(=O)[O-])ccc7F)c7ccc4[nH]7)C=C6)C=C5)cc3)SC3=NC(=O)S[C@H]32)cc1
REMARK SMILES IDX 28 1 27 2 26 3 25 4 24 5 22 6 23 7 21 9 7 10 8 11 103 12
REMARK SMILES IDX 98 13 102 14 97 15 99 16 100 17 101 18 6 19 3 20 4 21 105 22
REMARK SMILES IDX 5 23 104 24 2 25 1 26 9 27 10 28 11 29 12 30 16 31 13 32
REMARK SMILES IDX 15 33 17 34 14 35 20 36 18 37 19 38 29 39 30 40 31 41 32 42
REMARK SMILES IDX 33 44 34 45 35 46 96 47 36 48 95 49 37 50 38 51 39 52 89 53
REMARK SMILES IDX 40 54 94 55 88 56 90 57 41 58 93 59 87 60 86 61 42 63 74 64
REMARK SMILES IDX 54 65 73 66 55 67 58 68 72 69 91 70 56 71 57 72 71 74 92 75
REMARK SMILES IDX 59 76 43 77 44 78 52 79 45 80 51 81 53 82 50 83 46 84 47 85
REMARK SMILES IDX 48 86 49 87 75 88 76 89 84 90 77 91 83 92 85 93 82 94 78 95
REMARK SMILES IDX 79 96 80 97 81 98 60 99 61 100 69 101 62 102 68 103 70 104
REMARK SMILES IDX 67 105 63 106 64 107 65 108 66 109
REMARK H PARENT 24 8 31 43 90 62 58 73
REMARK Flexibility Score: inf
ROOT
ATOM      1  C   UNL A   1      43.767  33.234  26.085  1.00  0.00     0.002 C 
ENDROOT
BRANCH   1   2
ATOM      2  C   UNL A   1      44.684  32.478  27.053  1.00  0.00     0.002 C 
BRANCH   2   3
ATOM      3  C   UNL A   1      43.997  31.376  27.869  1.00  0.00     0.021 C 
BRANCH   3   4
ATOM      4  C   UNL A   1      43.300  30.316  27.017  1.00  0.00     0.116 C 
BRANCH   4   5
ATOM      5  N   UNL A   1      44.268  29.493  26.308  1.00  0.00    -0.355 N 
ATOM      6  C   UNL A   1      44.674  28.204  26.492  1.00  0.00     0.234 C 
ATOM      7  O   UNL A   1      45.518  27.747  25.716  1.00  0.00    -0.274 OA
ATOM      8  H   UNL A   1      44.712  29.951  25.558  1.00  0.00     0.163 HD
BRANCH   6   9
ATOM      9  C   UNL A   1      44.068  27.311  27.586  1.00  0.00     0.153 C 
ATOM     10  C   UNL A   1      43.280  24.896  28.169  1.00  0.00     0.052 C 
ATOM     11  C   UNL A   1      43.536  25.960  27.048  1.00  0.00     0.093 C 
ATOM     12  C   UNL A   1      44.524  24.684  29.071  1.00  0.00     0.121 C 
ATOM     13  C   UNL A   1      44.875  25.919  29.843  1.00  0.00     0.093 C 
ATOM     14  S   UNL A   1      44.289  23.467  30.426  1.00  0.00    -0.052 SA
ATOM     15  S   UNL A   1      45.273  27.351  28.974  1.00  0.00    -0.095 SA
ATOM     16  N   UNL A   1      44.973  25.907  31.127  1.00  0.00    -0.200 NA
ATOM     17  C   UNL A   1      44.714  24.664  31.643  1.00  0.00     0.306 C 
ATOM     18  O   UNL A   1      44.748  24.377  32.821  1.00  0.00    -0.259 OA
BRANCH  10  19
ATOM     19  C   UNL A   1      42.873  23.530  27.610  1.00  0.00    -0.042 A 
ATOM     20  C   UNL A   1      42.142  20.948  26.731  1.00  0.00     0.118 A 
ATOM     21  C   UNL A   1      41.401  21.592  27.716  1.00  0.00     0.047 A 
ATOM     22  C   UNL A   1      43.258  21.584  26.191  1.00  0.00     0.047 A 
ATOM     23  C   UNL A   1      41.791  22.846  28.183  1.00  0.00     0.008 A 
ATOM     24  C   UNL A   1      43.612  22.873  26.615  1.00  0.00     0.008 A 
BRANCH  20  25
ATOM     25  O   UNL A   1      41.657  19.727  26.352  1.00  0.00    -0.497 OA
ATOM     26  C   UNL A   1      42.626  18.789  25.898  1.00  0.00     0.278 C 
ENDBRANCH  20  25
ENDBRANCH  10  19
BRANCH  11  27
ATOM     27  C   UNL A   1      42.356  26.256  26.056  1.00  0.00     0.168 C 
ATOM     28  O   UNL A   1      42.574  26.428  24.857  1.00  0.00    -0.294 OA
BRANCH  27  29
ATOM     29  C   UNL A   1      40.957  26.456  26.537  1.00  0.00     0.021 A 
ATOM     30  C   UNL A   1      40.045  25.436  26.349  1.00  0.00     0.012 A 
ATOM     31  C   UNL A   1      40.698  27.374  27.554  1.00  0.00    -0.034 A 
ATOM     32  C   UNL A   1      39.198  25.096  27.405  1.00  0.00     0.001 A 
ATOM     33  C   UNL A   1      40.112  26.895  28.731  1.00  0.00    -0.044 A 
ATOM     34  C   UNL A   1      39.979  28.685  27.135  1.00  0.00     0.036 C 
ATOM     35  C   UNL A   1      39.330  25.744  28.640  1.00  0.00     0.004 A 
ATOM     36  C   UNL A   1      40.154  27.777  29.950  1.00  0.00     0.036 C 
ATOM     37  C   UNL A   1      39.766  29.670  28.296  1.00  0.00     0.005 C 
ATOM     38  C   UNL A   1      40.469  29.236  29.582  1.00  0.00     0.005 C 
ENDBRANCH  27  29
ENDBRANCH  11  27
ENDBRANCH   6   9
ENDBRANCH   4   5
ENDBRANCH   3   4
ENDBRANCH   2   3
ENDBRANCH   1   2
BRANCH   1  39
ATOM     39  C   UNL A   1      44.463  34.298  25.232  1.00  0.00     0.021 C 
BRANCH  39  40
ATOM     40  C   UNL A   1      45.948  34.480  25.529  1.00  0.00     0.116 C 
BRANCH  40  41
ATOM     41  N   UNL A   1      46.346  35.878  25.499  1.00  0.00    -0.352 N 
ATOM     42  C   UNL A   1      46.017  36.897  26.360  1.00  0.00     0.251 C 
ATOM     43  H   UNL A   1      46.936  36.132  24.753  1.00  0.00     0.163 HD
ATOM     44  O   UNL A   1      46.278  38.057  26.058  1.00  0.00    -0.269 OA
BRANCH  42  45
ATOM     45  C   UNL A   1      45.326  36.591  27.632  1.00  0.00     0.039 A 
ATOM     46  C   UNL A   1      45.919  35.697  28.526  1.00  0.00     0.014 A 
ATOM     47  C   UNL A   1      44.097  37.181  27.943  1.00  0.00     0.014 A 
ATOM     48  C   UNL A   1      45.311  35.445  29.758  1.00  0.00     0.010 A 
ATOM     49  C   UNL A   1      43.534  36.990  29.203  1.00  0.00     0.010 A 
ATOM     50  C   UNL A   1      44.134  36.118  30.124  1.00  0.00    -0.014 A 
BRANCH  50  51
ATOM     51  C   UNL A   1      43.518  35.921  31.464  1.00  0.00     0.031 A 
ATOM     52  C   UNL A   1      42.310  35.038  31.619  1.00  0.00     0.074 A 
ATOM     53  C   UNL A   1      44.017  36.577  32.531  1.00  0.00     0.049 A 
ATOM     54  N   UNL A   1      41.589  34.799  32.685  1.00  0.00    -0.248 NA
ATOM     55  C   UNL A   1      41.830  34.358  30.406  1.00  0.00     0.031 C 
ATOM     56  C   UNL A   1      45.164  37.488  32.500  1.00  0.00     0.029 A 
ATOM     57  N   UNL A   1      43.623  36.588  33.846  1.00  0.00    -0.354 N 
ATOM     58  C   UNL A   1      40.571  33.946  32.273  1.00  0.00     0.074 A 
ATOM     59  C   UNL A   1      40.728  33.769  30.845  1.00  0.00     0.031 C 
ATOM     60  C   UNL A   1      45.393  37.948  33.740  1.00  0.00     0.029 A 
ATOM     61  C   UNL A   1      44.382  37.412  34.646  1.00  0.00     0.049 A 
ATOM     62  H   UNL A   1      42.867  36.057  34.185  1.00  0.00     0.167 HD
ATOM     63  C   UNL A   1      39.612  33.344  33.021  1.00  0.00     0.034 A 
ATOM     64  C   UNL A   1      44.268  37.715  35.955  1.00  0.00     0.034 A 
ATOM     65  C   UNL A   1      39.472  33.531  34.445  1.00  0.00     0.049 A 
ATOM     66  C   UNL A   1      43.165  37.071  36.756  1.00  0.00     0.074 A 
ATOM     67  C   UNL A   1      38.564  32.940  35.306  1.00  0.00     0.029 A 
ATOM     68  N   UNL A   1      40.255  34.379  35.219  1.00  0.00    -0.354 N 
ATOM     69  N   UNL A   1      42.238  36.228  36.359  1.00  0.00    -0.248 NA
ATOM     70  C   UNL A   1      43.099  37.408  38.184  1.00  0.00     0.031 C 
ATOM     71  C   UNL A   1      38.744  33.488  36.580  1.00  0.00     0.029 A 
ATOM     72  C   UNL A   1      39.825  34.353  36.538  1.00  0.00     0.049 A 
ATOM     73  H   UNL A   1      41.005  34.920  34.881  1.00  0.00     0.167 HD
ATOM     74  C   UNL A   1      41.500  35.913  37.498  1.00  0.00     0.074 A 
ATOM     75  C   UNL A   1      42.102  36.639  38.596  1.00  0.00     0.031 C 
ATOM     76  C   UNL A   1      40.426  35.093  37.624  1.00  0.00     0.034 A 
BRANCH  63  77
ATOM     77  C   UNL A   1      38.627  32.452  32.302  1.00  0.00     0.023 A 
ATOM     78  C   UNL A   1      37.506  32.976  31.633  1.00  0.00     0.031 A 
ATOM     79  C   UNL A   1      38.796  31.056  32.301  1.00  0.00     0.131 A 
ATOM     80  C   UNL A   1      36.560  32.111  31.064  1.00  0.00     0.055 A 
ATOM     81  C   UNL A   1      37.896  30.204  31.655  1.00  0.00     0.041 A 
ATOM     82  F   UNL A   1      39.832  30.491  32.941  1.00  0.00    -0.206 F 
ATOM     83  C   UNL A   1      36.762  30.731  31.045  1.00  0.00     0.022 A 
BRANCH  80  84
ATOM     84  S   UNL A   1      34.988  32.809  30.489  1.00  0.00     0.124 S 
ATOM     85  O   UNL A   1      34.146  32.653  31.673  1.00  0.00    -0.237 OA
ATOM     86  O   UNL A   1      35.357  34.176  30.144  1.00  0.00    -0.237 OA
ATOM     87  O   UNL A   1      34.627  31.954  29.360  1.00  0.00    -0.744 OA
ENDBRANCH  80  84
ENDBRANCH  63  77
BRANCH  64  88
ATOM     88  C   UNL A   1      45.202  38.692  36.588  1.00  0.00     0.023 A 
ATOM     89  C   UNL A   1      44.904  40.063  36.625  1.00  0.00     0.031 A 
ATOM     90  C   UNL A   1      46.432  38.272  37.125  1.00  0.00     0.131 A 
ATOM     91  C   UNL A   1      45.845  40.971  37.136  1.00  0.00     0.055 A 
ATOM     92  C   UNL A   1      47.338  39.171  37.690  1.00  0.00     0.041 A 
ATOM     93  F   UNL A   1      46.769  36.973  37.118  1.00  0.00    -0.206 F 
ATOM     94  C   UNL A   1      47.053  40.532  37.683  1.00  0.00     0.022 A 
BRANCH  91  95
ATOM     95  S   UNL A   1      45.511  42.747  36.982  1.00  0.00     0.124 S 
ATOM     96  O   UNL A   1      44.880  43.043  38.264  1.00  0.00    -0.237 OA
ATOM     97  O   UNL A   1      46.850  43.291  36.784  1.00  0.00    -0.237 OA
ATOM     98  O   UNL A   1      44.630  42.827  35.819  1.00  0.00    -0.744 OA
ENDBRANCH  91  95
ENDBRANCH  64  88
BRANCH  76  99
ATOM     99  C   UNL A   1      39.862  34.905  39.013  1.00  0.00     0.023 A 
ATOM    100  C   UNL A   1      40.095  33.735  39.758  1.00  0.00     0.031 A 
ATOM    101  C   UNL A   1      39.071  35.911  39.597  1.00  0.00     0.131 A 
ATOM    102  C   UNL A   1      39.494  33.574  41.015  1.00  0.00     0.055 A 
ATOM    103  C   UNL A   1      38.533  35.775  40.878  1.00  0.00     0.041 A 
ATOM    104  F   UNL A   1      38.810  37.048  38.932  1.00  0.00    -0.206 F 
ATOM    105  C   UNL A   1      38.731  34.595  41.588  1.00  0.00     0.022 A 
BRANCH 102 106
ATOM    106  S   UNL A   1      39.637  31.971  41.851  1.00  0.00     0.124 S 
ATOM    107  O   UNL A   1      38.506  31.238  41.292  1.00  0.00    -0.237 OA
ATOM    108  O   UNL A   1      40.960  31.518  41.434  1.00  0.00    -0.237 OA
ATOM    109  O   UNL A   1      39.517  32.310  43.267  1.00  0.00    -0.744 OA
ENDBRANCH 102 106
ENDBRANCH  76  99
ENDBRANCH  50  51
ENDBRANCH  42  45
ENDBRANCH  40  41
ENDBRANCH  39  40
ENDBRANCH   1  39
TORSDOF 20
ENDMDL
MODEL 2
REMARK VINA RESULT:     -10.4      5.689     10.745
REMARK SMILES COc1ccc([C@@H]2[C@@H](C(=O)c3cccc4c3CCCC4)[C@H](C(=O)NCCCCCCNC(=O)c3ccc(-c4c5nc(c(-c6cc(S(=O)(=O)[O-])ccc6F)c6ccc([nH]6)c(-c6cc(S(=O)(=O)[O-])ccc6F)c6nc(c(-c7cc(S(=O)(=O)[O-])ccc7F)c7ccc4[nH]7)C=C6)C=C5)cc3)SC3=NC(=O)S[C@H]32)cc1
REMARK SMILES IDX 28 1 27 2 26 3 25 4 24 5 22 6 23 7 21 9 7 10 8 11 103 12
REMARK SMILES IDX 98 13 102 14 97 15 99 16 100 17 101 18 6 19 3 20 4 21 105 22
REMARK SMILES IDX 5 23 104 24 2 25 1 26 9 27 10 28 11 29 12 30 16 31 13 32
REMARK SMILES IDX 15 33 17 34 14 35 20 36 18 37 19 38 29 39 30 40 31 41 32 42
REMARK SMILES IDX 33 44 34 45 35 46 96 47 36 48 95 49 37 50 38 51 39 52 89 53
REMARK SMILES IDX 40 54 94 55 88 56 90 57 41 58 93 59 87 60 86 61 42 63 74 64
REMARK SMILES IDX 54 65 73 66 55 67 58 68 72 69 91 70 56 71 57 72 71 74 92 75
REMARK SMILES IDX 59 76 43 77 44 78 52 79 45 80 51 81 53 82 50 83 46 84 47 85
REMARK SMILES IDX 48 86 49 87 75 88 76 89 84 90 77 91 83 92 85 93 82 94 78 95
REMARK SMILES IDX 79 96 80 97 81 98 60 99 61 100 69 101 62 102 68 103 70 104
REMARK SMILES IDX 67 105 63 106 64 107 65 108 66 109
REMARK H PARENT 24 8 31 43 90 62 58 73
REMARK Flexibility Score: inf
ROOT
ATOM      1  C   UNL A   1      37.281  29.471  30.668  1.00  0.00     0.002 C 
ENDROOT
BRANCH   1   2
ATOM      2  C   UNL A   1      37.592  29.698  29.185  1.00  0.00     0.002 C 
BRANCH   2   3
ATOM      3  C   UNL A   1      38.333  28.547  28.495  1.00  0.00     0.021 C 
BRANCH   3   4
ATOM      4  C   UNL A   1      39.735  28.913  28.009  1.00  0.00     0.116 C 
BRANCH   4   5
ATOM      5  N   UNL A   1      40.755  28.256  28.812  1.00  0.00    -0.355 N 
ATOM      6  C   UNL A   1      41.370  27.046  28.687  1.00  0.00     0.234 C 
ATOM      7  O   UNL A   1      42.229  26.744  29.521  1.00  0.00    -0.274 OA
ATOM      8  H   UNL A   1      41.058  28.783  29.587  1.00  0.00     0.163 HD
BRANCH   6   9
ATOM      9  C   UNL A   1      41.063  26.096  27.519  1.00  0.00     0.153 C 
ATOM     10  C   UNL A   1      41.948  24.077  26.128  1.00  0.00     0.052 C 
ATOM     11  C   UNL A   1      42.303  25.307  27.030  1.00  0.00     0.093 C 
ATOM     12  C   UNL A   1      40.919  23.133  26.803  1.00  0.00     0.121 C 
ATOM     13  C   UNL A   1      39.595  23.801  27.011  1.00  0.00     0.093 C 
ATOM     14  S   UNL A   1      40.435  21.679  25.792  1.00  0.00    -0.052 SA
ATOM     15  S   UNL A   1      39.526  25.209  27.998  1.00  0.00    -0.095 SA
ATOM     16  N   UNL A   1      38.505  23.297  26.546  1.00  0.00    -0.200 NA
ATOM     17  C   UNL A   1      38.737  22.129  25.868  1.00  0.00     0.306 C 
ATOM     18  O   UNL A   1      37.882  21.447  25.341  1.00  0.00    -0.259 OA
BRANCH  10  19
ATOM     19  C   UNL A   1      43.174  23.239  25.755  1.00  0.00    -0.042 A 
ATOM     20  C   UNL A   1      45.519  21.771  25.186  1.00  0.00     0.118 A 
ATOM     21  C   UNL A   1      44.925  21.691  26.442  1.00  0.00     0.047 A 
ATOM     22  C   UNL A   1      44.952  22.593  24.215  1.00  0.00     0.047 A 
ATOM     23  C   UNL A   1      43.796  22.454  26.737  1.00  0.00     0.008 A 
ATOM     24  C   UNL A   1      43.779  23.310  24.491  1.00  0.00     0.008 A 
BRANCH  20  25
ATOM     25  O   UNL A   1      46.615  20.973  25.017  1.00  0.00    -0.497 OA
ATOM     26  C   UNL A   1      46.373  19.572  25.053  1.00  0.00     0.278 C 
ENDBRANCH  20  25
ENDBRANCH  10  19
BRANCH  11  27
ATOM     27  C   UNL A   1      43.348  26.334  26.465  1.00  0.00     0.168 C 
ATOM     28  O   UNL A   1      43.043  27.097  25.549  1.00  0.00    -0.294 OA
BRANCH  27  29
ATOM     29  C   UNL A   1      44.768  26.344  26.925  1.00  0.00     0.021 A 
ATOM     30  C   UNL A   1      45.091  25.654  28.077  1.00  0.00     0.012 A 
ATOM     31  C   UNL A   1      45.792  26.585  26.009  1.00  0.00    -0.034 A 
ATOM     32  C   UNL A   1      46.239  24.861  28.080  1.00  0.00     0.001 A 
ATOM     33  C   UNL A   1      46.762  25.591  25.839  1.00  0.00    -0.044 A 
ATOM     34  C   UNL A   1      46.501  27.963  26.113  1.00  0.00     0.036 C 
ATOM     35  C   UNL A   1      46.998  24.730  26.910  1.00  0.00     0.004 A 
ATOM     36  C   UNL A   1      47.651  25.673  24.626  1.00  0.00     0.036 C 
ATOM     37  C   UNL A   1      47.587  28.181  25.047  1.00  0.00     0.005 C 
ATOM     38  C   UNL A   1      47.617  27.073  23.994  1.00  0.00     0.005 C 
ENDBRANCH  27  29
ENDBRANCH  11  27
ENDBRANCH   6   9
ENDBRANCH   4   5
ENDBRANCH   3   4
ENDBRANCH   2   3
ENDBRANCH   1   2
BRANCH   1  39
ATOM     39  C   UNL A   1      36.274  30.452  31.276  1.00  0.00     0.021 C 
BRANCH  39  40
ATOM     40  C   UNL A   1      36.657  30.984  32.653  1.00  0.00     0.116 C 
BRANCH  40  41
ATOM     41  N   UNL A   1      36.817  32.429  32.658  1.00  0.00    -0.352 N 
ATOM     42  C   UNL A   1      37.960  33.180  32.526  1.00  0.00     0.251 C 
ATOM     43  H   UNL A   1      35.986  32.945  32.773  1.00  0.00     0.163 HD
ATOM     44  O   UNL A   1      37.928  34.383  32.763  1.00  0.00    -0.269 OA
BRANCH  42  45
ATOM     45  C   UNL A   1      39.227  32.529  32.125  1.00  0.00     0.039 A 
ATOM     46  C   UNL A   1      39.424  32.203  30.781  1.00  0.00     0.014 A 
ATOM     47  C   UNL A   1      40.216  32.237  33.070  1.00  0.00     0.014 A 
ATOM     48  C   UNL A   1      40.639  31.645  30.377  1.00  0.00     0.010 A 
ATOM     49  C   UNL A   1      41.454  31.754  32.652  1.00  0.00     0.010 A 
ATOM     50  C   UNL A   1      41.678  31.451  31.300  1.00  0.00    -0.014 A 
BRANCH  50  51
ATOM     51  C   UNL A   1      43.005  30.932  30.870  1.00  0.00     0.031 A 
ATOM     52  C   UNL A   1      43.486  29.592  31.356  1.00  0.00     0.074 A 
ATOM     53  C   UNL A   1      43.795  31.690  30.085  1.00  0.00     0.049 A 
ATOM     54  N   UNL A   1      44.637  29.002  31.153  1.00  0.00    -0.248 NA
ATOM     55  C   UNL A   1      42.563  28.828  32.208  1.00  0.00     0.031 C 
ATOM     56  C   UNL A   1      43.453  33.022  29.578  1.00  0.00     0.029 A 
ATOM     57  N   UNL A   1      45.050  31.458  29.579  1.00  0.00    -0.354 N 
ATOM     58  C   UNL A   1      44.577  27.801  31.853  1.00  0.00     0.074 A 
ATOM     59  C   UNL A   1      43.305  27.784  32.543  1.00  0.00     0.031 C 
ATOM     60  C   UNL A   1      44.461  33.475  28.817  1.00  0.00     0.029 A 
ATOM     61  C   UNL A   1      45.544  32.497  28.822  1.00  0.00     0.049 A 
ATOM     62  H   UNL A   1      45.551  30.627  29.743  1.00  0.00     0.167 HD
ATOM     63  C   UNL A   1      45.488  26.796  31.894  1.00  0.00     0.034 A 
ATOM     64  C   UNL A   1      46.738  32.652  28.214  1.00  0.00     0.034 A 
ATOM     65  C   UNL A   1      46.751  26.830  31.197  1.00  0.00     0.049 A 
ATOM     66  C   UNL A   1      47.753  31.540  28.313  1.00  0.00     0.074 A 
ATOM     67  C   UNL A   1      47.727  25.851  31.136  1.00  0.00     0.029 A 
ATOM     68  N   UNL A   1      47.220  27.901  30.446  1.00  0.00    -0.354 N 
ATOM     69  N   UNL A   1      47.661  30.390  28.941  1.00  0.00    -0.248 NA
ATOM     70  C   UNL A   1      49.026  31.741  27.610  1.00  0.00     0.031 C 
ATOM     71  C   UNL A   1      48.816  26.359  30.419  1.00  0.00     0.029 A 
ATOM     72  C   UNL A   1      48.485  27.620  29.952  1.00  0.00     0.049 A 
ATOM     73  H   UNL A   1      46.726  28.738  30.289  1.00  0.00     0.167 HD
ATOM     74  C   UNL A   1      48.855  29.720  28.681  1.00  0.00     0.074 A 
ATOM     75  C   UNL A   1      49.638  30.586  27.825  1.00  0.00     0.031 C 
ATOM     76  C   UNL A   1      49.263  28.498  29.108  1.00  0.00     0.034 A 
BRANCH  63  77
ATOM     77  C   UNL A   1      45.155  25.590  32.742  1.00  0.00     0.023 A 
ATOM     78  C   UNL A   1      45.521  25.517  34.098  1.00  0.00     0.031 A 
ATOM     79  C   UNL A   1      44.482  24.488  32.185  1.00  0.00     0.131 A 
ATOM     80  C   UNL A   1      45.285  24.342  34.827  1.00  0.00     0.055 A 
ATOM     81  C   UNL A   1      44.170  23.356  32.942  1.00  0.00     0.041 A 
ATOM     82  F   UNL A   1      44.126  24.486  30.891  1.00  0.00    -0.206 F 
ATOM     83  C   UNL A   1      44.587  23.272  34.266  1.00  0.00     0.022 A 
BRANCH  80  84
ATOM     84  S   UNL A   1      46.044  24.175  36.466  1.00  0.00     0.124 S 
ATOM     85  O   UNL A   1      45.055  24.835  37.316  1.00  0.00    -0.237 OA
ATOM     86  O   UNL A   1      46.153  22.729  36.617  1.00  0.00    -0.237 OA
ATOM     87  O   UNL A   1      47.313  24.888  36.330  1.00  0.00    -0.744 OA
ENDBRANCH  80  84
ENDBRANCH  63  77
BRANCH  64  88
ATOM     88  C   UNL A   1      47.056  33.913  27.483  1.00  0.00     0.023 A 
ATOM     89  C   UNL A   1      47.890  34.891  28.048  1.00  0.00     0.031 A 
ATOM     90  C   UNL A   1      46.489  34.181  26.224  1.00  0.00     0.131 A 
ATOM     91  C   UNL A   1      48.091  36.110  27.382  1.00  0.00     0.055 A 
ATOM     92  C   UNL A   1      46.742  35.369  25.537  1.00  0.00     0.041 A 
ATOM     93  F   UNL A   1      45.684  33.282  25.635  1.00  0.00    -0.206 F 
ATOM     94  C   UNL A   1      47.535  36.350  26.123  1.00  0.00     0.022 A 
BRANCH  91  95
ATOM     95  S   UNL A   1      49.007  37.424  28.234  1.00  0.00     0.124 S 
ATOM     96  O   UNL A   1      49.818  37.970  27.150  1.00  0.00    -0.237 OA
ATOM     97  O   UNL A   1      47.930  38.277  28.722  1.00  0.00    -0.237 OA
ATOM     98  O   UNL A   1      49.749  36.705  29.268  1.00  0.00    -0.744 OA
ENDBRANCH  91  95
ENDBRANCH  64  88
BRANCH  76  99
ATOM     99  C   UNL A   1      50.604  28.008  28.614  1.00  0.00     0.023 A 
ATOM    100  C   UNL A   1      50.745  27.341  27.385  1.00  0.00     0.031 A 
ATOM    101  C   UNL A   1      51.759  28.206  29.392  1.00  0.00     0.131 A 
ATOM    102  C   UNL A   1      51.997  26.842  26.997  1.00  0.00     0.055 A 
ATOM    103  C   UNL A   1      53.016  27.770  28.969  1.00  0.00     0.041 A 
ATOM    104  F   UNL A   1      51.686  28.832  30.578  1.00  0.00    -0.206 F 
ATOM    105  C   UNL A   1      53.138  27.070  27.773  1.00  0.00     0.022 A 
BRANCH 102 106
ATOM    106  S   UNL A   1      52.102  25.801  25.516  1.00  0.00     0.124 S 
ATOM    107  O   UNL A   1      53.355  26.252  24.918  1.00  0.00    -0.237 OA
ATOM    108  O   UNL A   1      52.112  24.455  26.080  1.00  0.00    -0.237 OA
ATOM    109  O   UNL A   1      50.897  26.149  24.766  1.00  0.00    -0.744 OA
ENDBRANCH 102 106
ENDBRANCH  76  99
ENDBRANCH  50  51
ENDBRANCH  42  45
ENDBRANCH  40  41
ENDBRANCH  39  40
ENDBRANCH   1  39
TORSDOF 20
ENDMDL
MODEL 3
REMARK VINA RESULT:     -10.2      5.373     10.434
REMARK SMILES COc1ccc([C@@H]2[C@@H](C(=O)c3cccc4c3CCCC4)[C@H](C(=O)NCCCCCCNC(=O)c3ccc(-c4c5nc(c(-c6cc(S(=O)(=O)[O-])ccc6F)c6ccc([nH]6)c(-c6cc(S(=O)(=O)[O-])ccc6F)c6nc(c(-c7cc(S(=O)(=O)[O-])ccc7F)c7ccc4[nH]7)C=C6)C=C5)cc3)SC3=NC(=O)S[C@H]32)cc1
REMARK SMILES IDX 28 1 27 2 26 3 25 4 24 5 22 6 23 7 21 9 7 10 8 11 103 12
REMARK SMILES IDX 98 13 102 14 97 15 99 16 100 17 101 18 6 19 3 20 4 21 105 22
REMARK SMILES IDX 5 23 104 24 2 25 1 26 9 27 10 28 11 29 12 30 16 31 13 32
REMARK SMILES IDX 15 33 17 34 14 35 20 36 18 37 19 38 29 39 30 40 31 41 32 42
REMARK SMILES IDX 33 44 34 45 35 46 96 47 36 48 95 49 37 50 38 51 39 52 89 53
REMARK SMILES IDX 40 54 94 55 88 56 90 57 41 58 93 59 87 60 86 61 42 63 74 64
REMARK SMILES IDX 54 65 73 66 55 67 58 68 72 69 91 70 56 71 57 72 71 74 92 75
REMARK SMILES IDX 59 76 43 77 44 78 52 79 45 80 51 81 53 82 50 83 46 84 47 85
REMARK SMILES IDX 48 86 49 87 75 88 76 89 84 90 77 91 83 92 85 93 82 94 78 95
REMARK SMILES IDX 79 96 80 97 81 98 60 99 61 100 69 101 62 102 68 103 70 104
REMARK SMILES IDX 67 105 63 106 64 107 65 108 66 109
REMARK H PARENT 24 8 31 43 90 62 58 73
REMARK Flexibility Score: inf
ROOT
ATOM      1  C   UNL A   1      39.051  26.990  29.491  1.00  0.00     0.002 C 
ENDROOT
BRANCH   1   2
ATOM      2  C   UNL A   1      39.719  25.845  28.722  1.00  0.00     0.002 C 
BRANCH   2   3
ATOM      3  C   UNL A   1      39.231  25.661  27.281  1.00  0.00     0.021 C 
BRANCH   3   4
ATOM      4  C   UNL A   1      39.477  24.262  26.716  1.00  0.00     0.116 C 
BRANCH   4   5
ATOM      5  N   UNL A   1      39.976  23.362  27.744  1.00  0.00    -0.355 N 
ATOM      6  C   UNL A   1      41.032  22.499  27.763  1.00  0.00     0.234 C 
ATOM      7  O   UNL A   1      41.235  21.857  28.797  1.00  0.00    -0.274 OA
ATOM      8  H   UNL A   1      39.455  23.378  28.579  1.00  0.00     0.163 HD
BRANCH   6   9
ATOM      9  C   UNL A   1      41.988  22.360  26.568  1.00  0.00     0.153 C 
ATOM     10  C   UNL A   1      44.391  22.864  25.694  1.00  0.00     0.052 C 
ATOM     11  C   UNL A   1      43.239  23.265  26.678  1.00  0.00     0.093 C 
ATOM     12  C   UNL A   1      44.775  21.367  25.822  1.00  0.00     0.121 C 
ATOM     13  C   UNL A   1      43.650  20.462  25.421  1.00  0.00     0.093 C 
ATOM     14  S   UNL A   1      46.104  20.817  24.680  1.00  0.00    -0.052 SA
ATOM     15  S   UNL A   1      42.169  20.552  26.292  1.00  0.00    -0.095 SA
ATOM     16  N   UNL A   1      43.798  19.566  24.509  1.00  0.00    -0.200 NA
ATOM     17  C   UNL A   1      45.067  19.576  23.990  1.00  0.00     0.306 C 
ATOM     18  O   UNL A   1      45.472  18.827  23.126  1.00  0.00    -0.259 OA
BRANCH  10  19
ATOM     19  C   UNL A   1      45.664  23.690  25.901  1.00  0.00    -0.042 A 
ATOM     20  C   UNL A   1      47.930  25.301  26.395  1.00  0.00     0.118 A 
ATOM     21  C   UNL A   1      47.375  24.534  27.415  1.00  0.00     0.047 A 
ATOM     22  C   UNL A   1      47.349  25.276  25.130  1.00  0.00     0.047 A 
ATOM     23  C   UNL A   1      46.228  23.778  27.182  1.00  0.00     0.008 A 
ATOM     24  C   UNL A   1      46.234  24.464  24.879  1.00  0.00     0.008 A 
BRANCH  20  25
ATOM     25  O   UNL A   1      49.055  25.994  26.745  1.00  0.00    -0.497 OA
ATOM     26  C   UNL A   1      50.169  25.205  27.146  1.00  0.00     0.278 C 
ENDBRANCH  20  25
ENDBRANCH  10  19
BRANCH  11  27
ATOM     27  C   UNL A   1      42.767  24.763  26.657  1.00  0.00     0.168 C 
ATOM     28  O   UNL A   1      42.273  25.249  25.641  1.00  0.00    -0.294 OA
BRANCH  27  29
ATOM     29  C   UNL A   1      43.005  25.677  27.813  1.00  0.00     0.021 A 
ATOM     30  C   UNL A   1      43.327  25.122  29.036  1.00  0.00     0.012 A 
ATOM     31  C   UNL A   1      43.387  26.999  27.584  1.00  0.00    -0.034 A 
ATOM     32  C   UNL A   1      44.363  25.693  29.775  1.00  0.00     0.001 A 
ATOM     33  C   UNL A   1      44.611  27.425  28.111  1.00  0.00    -0.044 A 
ATOM     34  C   UNL A   1      42.315  28.086  27.868  1.00  0.00     0.036 C 
ATOM     35  C   UNL A   1      45.091  26.766  29.243  1.00  0.00     0.004 A 
ATOM     36  C   UNL A   1      45.199  28.707  27.585  1.00  0.00     0.036 C 
ATOM     37  C   UNL A   1      42.787  29.515  27.552  1.00  0.00     0.005 C 
ATOM     38  C   UNL A   1      44.145  29.553  26.851  1.00  0.00     0.005 C 
ENDBRANCH  27  29
ENDBRANCH  11  27
ENDBRANCH   6   9
ENDBRANCH   4   5
ENDBRANCH   3   4
ENDBRANCH   2   3
ENDBRANCH   1   2
BRANCH   1  39
ATOM     39  C   UNL A   1      38.382  26.583  30.807  1.00  0.00     0.021 C 
BRANCH  39  40
ATOM     40  C   UNL A   1      38.772  27.437  32.009  1.00  0.00     0.116 C 
BRANCH  40  41
ATOM     41  N   UNL A   1      37.747  28.412  32.346  1.00  0.00    -0.352 N 
ATOM     42  C   UNL A   1      37.835  29.781  32.414  1.00  0.00     0.251 C 
ATOM     43  H   UNL A   1      36.862  28.036  32.557  1.00  0.00     0.163 HD
ATOM     44  O   UNL A   1      36.920  30.425  32.917  1.00  0.00    -0.269 OA
BRANCH  42  45
ATOM     45  C   UNL A   1      39.042  30.468  31.904  1.00  0.00     0.039 A 
ATOM     46  C   UNL A   1      39.927  31.047  32.816  1.00  0.00     0.014 A 
ATOM     47  C   UNL A   1      39.301  30.543  30.532  1.00  0.00     0.014 A 
ATOM     48  C   UNL A   1      41.102  31.645  32.355  1.00  0.00     0.010 A 
ATOM     49  C   UNL A   1      40.510  31.069  30.081  1.00  0.00     0.010 A 
ATOM     50  C   UNL A   1      41.424  31.627  30.988  1.00  0.00    -0.014 A 
BRANCH  50  51
ATOM     51  C   UNL A   1      42.709  32.189  30.491  1.00  0.00     0.031 A 
ATOM     52  C   UNL A   1      43.972  31.375  30.573  1.00  0.00     0.074 A 
ATOM     53  C   UNL A   1      42.746  33.449  30.015  1.00  0.00     0.049 A 
ATOM     54  N   UNL A   1      45.197  31.714  30.261  1.00  0.00    -0.248 NA
ATOM     55  C   UNL A   1      43.844  30.010  31.105  1.00  0.00     0.031 C 
ATOM     56  C   UNL A   1      41.594  34.349  29.918  1.00  0.00     0.029 A 
ATOM     57  N   UNL A   1      43.790  34.197  29.529  1.00  0.00    -0.354 N 
ATOM     58  C   UNL A   1      45.985  30.608  30.561  1.00  0.00     0.074 A 
ATOM     59  C   UNL A   1      45.108  29.617  31.146  1.00  0.00     0.031 C 
ATOM     60  C   UNL A   1      41.990  35.514  29.383  1.00  0.00     0.029 A 
ATOM     61  C   UNL A   1      43.430  35.470  29.148  1.00  0.00     0.049 A 
ATOM     62  H   UNL A   1      44.710  33.855  29.459  1.00  0.00     0.167 HD
ATOM     63  C   UNL A   1      47.313  30.427  30.344  1.00  0.00     0.034 A 
ATOM     64  C   UNL A   1      44.175  36.492  28.680  1.00  0.00     0.034 A 
ATOM     65  C   UNL A   1      48.172  31.427  29.756  1.00  0.00     0.049 A 
ATOM     66  C   UNL A   1      45.657  36.282  28.490  1.00  0.00     0.074 A 
ATOM     67  C   UNL A   1      49.519  31.333  29.453  1.00  0.00     0.029 A 
ATOM     68  N   UNL A   1      47.774  32.706  29.391  1.00  0.00    -0.354 N 
ATOM     69  N   UNL A   1      46.379  35.212  28.735  1.00  0.00    -0.248 NA
ATOM     70  C   UNL A   1      46.422  37.413  27.949  1.00  0.00     0.031 C 
ATOM     71  C   UNL A   1      49.952  32.577  28.982  1.00  0.00     0.029 A 
ATOM     72  C   UNL A   1      48.857  33.422  28.902  1.00  0.00     0.049 A 
ATOM     73  H   UNL A   1      46.856  33.055  29.469  1.00  0.00     0.167 HD
ATOM     74  C   UNL A   1      47.677  35.535  28.348  1.00  0.00     0.074 A 
ATOM     75  C   UNL A   1      47.633  36.888  27.836  1.00  0.00     0.031 C 
ATOM     76  C   UNL A   1      48.803  34.778  28.405  1.00  0.00     0.034 A 
BRANCH  63  77
ATOM     77  C   UNL A   1      47.914  29.107  30.769  1.00  0.00     0.023 A 
ATOM     78  C   UNL A   1      48.177  28.816  32.119  1.00  0.00     0.031 A 
ATOM     79  C   UNL A   1      48.248  28.133  29.811  1.00  0.00     0.131 A 
ATOM     80  C   UNL A   1      48.828  27.623  32.466  1.00  0.00     0.055 A 
ATOM     81  C   UNL A   1      48.815  26.908  30.173  1.00  0.00     0.041 A 
ATOM     82  F   UNL A   1      48.044  28.359  28.504  1.00  0.00    -0.206 F 
ATOM     83  C   UNL A   1      49.123  26.655  31.506  1.00  0.00     0.022 A 
BRANCH  80  84
ATOM     84  S   UNL A   1      49.423  27.427  34.168  1.00  0.00     0.124 S 
ATOM     85  O   UNL A   1      50.838  27.764  34.026  1.00  0.00    -0.237 OA
ATOM     86  O   UNL A   1      48.608  28.390  34.900  1.00  0.00    -0.237 OA
ATOM     87  O   UNL A   1      49.151  26.022  34.467  1.00  0.00    -0.744 OA
ENDBRANCH  80  84
ENDBRANCH  63  77
BRANCH  64  88
ATOM     88  C   UNL A   1      43.547  37.812  28.382  1.00  0.00     0.023 A 
ATOM     89  C   UNL A   1      43.523  38.838  29.340  1.00  0.00     0.031 A 
ATOM     90  C   UNL A   1      42.915  38.050  27.148  1.00  0.00     0.131 A 
ATOM     91  C   UNL A   1      42.837  40.033  29.069  1.00  0.00     0.055 A 
ATOM     92  C   UNL A   1      42.288  39.263  26.860  1.00  0.00     0.041 A 
ATOM     93  F   UNL A   1      42.906  37.104  26.195  1.00  0.00    -0.206 F 
ATOM     94  C   UNL A   1      42.233  40.258  27.830  1.00  0.00     0.022 A 
BRANCH  91  95
ATOM     95  S   UNL A   1      42.656  41.251  30.401  1.00  0.00     0.124 S 
ATOM     96  O   UNL A   1      43.074  40.480  31.567  1.00  0.00    -0.237 OA
ATOM     97  O   UNL A   1      43.565  42.308  29.970  1.00  0.00    -0.237 OA
ATOM     98  O   UNL A   1      41.237  41.596  30.356  1.00  0.00    -0.744 OA
ENDBRANCH  91  95
ENDBRANCH  64  88
BRANCH  76  99
ATOM     99  C   UNL A   1      50.072  35.388  27.857  1.00  0.00     0.023 A 
ATOM    100  C   UNL A   1      50.486  35.174  26.531  1.00  0.00     0.031 A 
ATOM    101  C   UNL A   1      50.884  36.189  28.679  1.00  0.00     0.131 A 
ATOM    102  C   UNL A   1      51.707  35.702  26.084  1.00  0.00     0.055 A 
ATOM    103  C   UNL A   1      52.063  36.771  28.209  1.00  0.00     0.041 A 
ATOM    104  F   UNL A   1      50.542  36.425  29.957  1.00  0.00    -0.206 F 
ATOM    105  C   UNL A   1      52.488  36.516  26.909  1.00  0.00     0.022 A 
BRANCH 102 106
ATOM    106  S   UNL A   1      52.314  35.227  24.442  1.00  0.00     0.124 S 
ATOM    107  O   UNL A   1      52.143  36.466  23.688  1.00  0.00    -0.237 OA
ATOM    108  O   UNL A   1      53.692  34.835  24.720  1.00  0.00    -0.237 OA
ATOM    109  O   UNL A   1      51.426  34.135  24.050  1.00  0.00    -0.744 OA
ENDBRANCH 102 106
ENDBRANCH  76  99
ENDBRANCH  50  51
ENDBRANCH  42  45
ENDBRANCH  40  41
ENDBRANCH  39  40
ENDBRANCH   1  39
TORSDOF 20
ENDMDL
