MODEL 1
REMARK VINA RESULT:     -10.5      0.000      0.000
REMARK SMILES CC1(C)CN(C(=O)NC[C@H]2CC[C@@H](C(=O)NCCCCCCNC(=O)c3ccc(-c4c5nc(c(-c6cc(S(=O)(=O)[O-])ccc6F)c6ccc([nH]6)c(-c6cc(S(=O)(=O)[O-])ccc6F)c6nc(c(-c7cc(S(=O)(=O)[O-])ccc7F)c7ccc4[nH]7)C=C6)C=C5)cc3)CC2)CCO1
REMARK SMILES IDX 19 1 18 2 17 3 16 4 14 5 15 6 13 8 10 9 11 10 90 11 12 12
REMARK SMILES IDX 89 13 9 14 8 15 6 16 7 17 5 19 1 20 2 21 3 22 4 23 93 24
REMARK SMILES IDX 92 25 91 26 20 27 21 28 22 29 23 30 24 31 25 33 26 34 27 35
REMARK SMILES IDX 88 36 28 37 87 38 29 39 30 40 31 41 81 42 32 43 86 44 80 45
REMARK SMILES IDX 82 46 33 47 85 48 79 49 78 50 34 52 66 53 46 54 65 55 47 56
REMARK SMILES IDX 50 57 64 58 83 59 48 60 49 61 63 63 84 64 51 65 35 66 36 67
REMARK SMILES IDX 44 68 37 69 43 70 45 71 42 72 38 73 39 74 40 75 41 76 67 77
REMARK SMILES IDX 68 78 76 79 69 80 75 81 77 82 74 83 70 84 71 85 72 86 73 87
REMARK SMILES IDX 52 88 53 89 61 90 54 91 60 92 62 93 59 94 55 95 56 96 57 97
REMARK SMILES IDX 58 98
REMARK H PARENT 16 7 8 18 23 32 82 51 50 62
REMARK Flexibility Score: inf
ROOT
ATOM      1  C   UNL A   1      36.488  20.549  25.057  1.00  0.00     0.002 C 
ENDROOT
BRANCH   1   2
ATOM      2  C   UNL A   1      36.181  22.047  25.250  1.00  0.00     0.021 C 
BRANCH   2   3
ATOM      3  C   UNL A   1      36.623  23.061  24.180  1.00  0.00     0.116 C 
BRANCH   3   4
ATOM      4  N   UNL A   1      35.622  23.184  23.120  1.00  0.00    -0.356 N 
ATOM      5  C   UNL A   1      34.296  23.424  23.019  1.00  0.00     0.223 C 
ATOM      6  O   UNL A   1      33.868  23.483  21.855  1.00  0.00    -0.275 OA
ATOM      7  H   UNL A   1      36.028  23.058  22.232  1.00  0.00     0.163 HD
BRANCH   5   8
ATOM      8  C   UNL A   1      33.284  23.559  24.161  1.00  0.00     0.078 C 
ATOM      9  C   UNL A   1      31.285  24.526  26.185  1.00  0.00     0.008 C 
ATOM     10  C   UNL A   1      30.935  23.510  25.076  1.00  0.00     0.006 C 
ATOM     11  C   UNL A   1      32.804  24.590  26.428  1.00  0.00     0.006 C 
ATOM     12  C   UNL A   1      31.802  23.626  23.810  1.00  0.00     0.014 C 
ATOM     13  C   UNL A   1      33.680  24.631  25.174  1.00  0.00     0.014 C 
BRANCH   9  14
ATOM     14  C   UNL A   1      30.526  25.864  26.006  1.00  0.00     0.121 C 
BRANCH  14  15
ATOM     15  N   UNL A   1      31.028  26.994  26.777  1.00  0.00    -0.338 N 
ATOM     16  C   UNL A   1      31.718  28.133  26.573  1.00  0.00     0.317 C 
ATOM     17  O   UNL A   1      32.071  28.724  27.599  1.00  0.00    -0.249 OA
ATOM     18  H   UNL A   1      30.793  26.896  27.729  1.00  0.00     0.165 HD
BRANCH  16  19
ATOM     19  N   UNL A   1      32.031  28.608  25.340  1.00  0.00    -0.320 N 
ATOM     20  C   UNL A   1      30.406  27.214  22.828  1.00  0.00     0.044 C 
ATOM     21  C   UNL A   1      31.068  28.586  22.985  1.00  0.00     0.080 C 
ATOM     22  C   UNL A   1      30.396  29.583  22.028  1.00  0.00     0.044 C 
ATOM     23  C   UNL A   1      30.967  29.117  24.452  1.00  0.00     0.156 C 
ATOM     24  O   UNL A   1      32.431  28.490  22.516  1.00  0.00    -0.372 OA
ATOM     25  C   UNL A   1      33.305  27.848  23.438  1.00  0.00     0.182 C 
ATOM     26  C   UNL A   1      33.327  28.661  24.710  1.00  0.00     0.150 C 
ENDBRANCH  16  19
ENDBRANCH  14  15
ENDBRANCH   9  14
ENDBRANCH   5   8
ENDBRANCH   3   4
ENDBRANCH   2   3
ENDBRANCH   1   2
BRANCH   1  27
ATOM     27  C   UNL A   1      37.926  20.024  24.997  1.00  0.00     0.002 C 
BRANCH  27  28
ATOM     28  C   UNL A   1      39.050  20.833  25.652  1.00  0.00     0.021 C 
BRANCH  28  29
ATOM     29  C   UNL A   1      40.071  20.088  26.516  1.00  0.00     0.116 C 
BRANCH  29  30
ATOM     30  N   UNL A   1      41.266  19.678  25.805  1.00  0.00    -0.352 N 
ATOM     31  C   UNL A   1      42.497  20.272  25.697  1.00  0.00     0.251 C 
ATOM     32  H   UNL A   1      41.178  18.828  25.316  1.00  0.00     0.163 HD
ATOM     33  O   UNL A   1      43.366  19.689  25.039  1.00  0.00    -0.269 OA
BRANCH  31  34
ATOM     34  C   UNL A   1      42.808  21.602  26.284  1.00  0.00     0.039 A 
ATOM     35  C   UNL A   1      42.924  22.679  25.396  1.00  0.00     0.014 A 
ATOM     36  C   UNL A   1      43.047  21.817  27.646  1.00  0.00     0.014 A 
ATOM     37  C   UNL A   1      43.220  23.961  25.868  1.00  0.00     0.010 A 
ATOM     38  C   UNL A   1      43.295  23.116  28.126  1.00  0.00     0.010 A 
ATOM     39  C   UNL A   1      43.378  24.205  27.242  1.00  0.00    -0.014 A 
BRANCH  39  40
ATOM     40  C   UNL A   1      43.581  25.608  27.714  1.00  0.00     0.031 A 
ATOM     41  C   UNL A   1      44.925  26.284  27.629  1.00  0.00     0.074 A 
ATOM     42  C   UNL A   1      42.524  26.295  28.196  1.00  0.00     0.049 A 
ATOM     43  N   UNL A   1      45.241  27.529  27.885  1.00  0.00    -0.248 NA
ATOM     44  C   UNL A   1      46.062  25.450  27.218  1.00  0.00     0.031 C 
ATOM     45  C   UNL A   1      41.178  25.746  28.373  1.00  0.00     0.029 A 
ATOM     46  N   UNL A   1      42.402  27.602  28.604  1.00  0.00    -0.354 N 
ATOM     47  C   UNL A   1      46.610  27.634  27.661  1.00  0.00     0.074 A 
ATOM     48  C   UNL A   1      47.070  26.308  27.303  1.00  0.00     0.031 C 
ATOM     49  C   UNL A   1      40.360  26.716  28.812  1.00  0.00     0.029 A 
ATOM     50  C   UNL A   1      41.124  27.947  28.984  1.00  0.00     0.049 A 
ATOM     51  H   UNL A   1      43.158  28.232  28.625  1.00  0.00     0.167 HD
ATOM     52  C   UNL A   1      47.404  28.735  27.729  1.00  0.00     0.034 A 
ATOM     53  C   UNL A   1      40.618  29.120  29.417  1.00  0.00     0.034 A 
ATOM     54  C   UNL A   1      46.933  30.053  28.092  1.00  0.00     0.049 A 
ATOM     55  C   UNL A   1      41.523  30.323  29.498  1.00  0.00     0.074 A 
ATOM     56  C   UNL A   1      47.643  31.242  28.127  1.00  0.00     0.029 A 
ATOM     57  N   UNL A   1      45.640  30.358  28.501  1.00  0.00    -0.354 N 
ATOM     58  N   UNL A   1      42.798  30.420  29.199  1.00  0.00    -0.248 NA
ATOM     59  C   UNL A   1      40.914  31.579  29.955  1.00  0.00     0.031 C 
ATOM     60  C   UNL A   1      46.806  32.244  28.635  1.00  0.00     0.029 A 
ATOM     61  C   UNL A   1      45.546  31.703  28.833  1.00  0.00     0.049 A 
ATOM     62  H   UNL A   1      44.898  29.713  28.550  1.00  0.00     0.167 HD
ATOM     63  C   UNL A   1      43.137  31.753  29.415  1.00  0.00     0.074 A 
ATOM     64  C   UNL A   1      41.925  32.426  29.834  1.00  0.00     0.031 C 
ATOM     65  C   UNL A   1      44.343  32.365  29.283  1.00  0.00     0.034 A 
BRANCH  52  66
ATOM     66  C   UNL A   1      48.877  28.556  27.433  1.00  0.00     0.023 A 
ATOM     67  C   UNL A   1      49.387  28.639  26.125  1.00  0.00     0.031 A 
ATOM     68  C   UNL A   1      49.787  28.303  28.475  1.00  0.00     0.131 A 
ATOM     69  C   UNL A   1      50.751  28.406  25.886  1.00  0.00     0.055 A 
ATOM     70  C   UNL A   1      51.156  28.149  28.241  1.00  0.00     0.041 A 
ATOM     71  F   UNL A   1      49.360  28.195  29.743  1.00  0.00    -0.206 F 
ATOM     72  C   UNL A   1      51.643  28.187  26.938  1.00  0.00     0.022 A 
BRANCH  69  73
ATOM     73  S   UNL A   1      51.320  28.260  24.170  1.00  0.00     0.124 S 
ATOM     74  O   UNL A   1      51.862  29.595  23.924  1.00  0.00    -0.237 OA
ATOM     75  O   UNL A   1      52.297  27.179  24.252  1.00  0.00    -0.237 OA
ATOM     76  O   UNL A   1      50.102  27.946  23.429  1.00  0.00    -0.744 OA
ENDBRANCH  69  73
ENDBRANCH  52  66
BRANCH  53  77
ATOM     77  C   UNL A   1      39.183  29.220  29.824  1.00  0.00     0.023 A 
ATOM     78  C   UNL A   1      38.211  29.746  28.958  1.00  0.00     0.031 A 
ATOM     79  C   UNL A   1      38.776  28.836  31.114  1.00  0.00     0.131 A 
ATOM     80  C   UNL A   1      36.892  29.919  29.408  1.00  0.00     0.055 A 
ATOM     81  C   UNL A   1      37.451  28.954  31.537  1.00  0.00     0.041 A 
ATOM     82  F   UNL A   1      39.663  28.327  31.984  1.00  0.00    -0.206 F 
ATOM     83  C   UNL A   1      36.503  29.513  30.687  1.00  0.00     0.022 A 
BRANCH  80  84
ATOM     84  S   UNL A   1      35.707  30.771  28.331  1.00  0.00     0.124 S 
ATOM     85  O   UNL A   1      34.780  31.343  29.302  1.00  0.00    -0.237 OA
ATOM     86  O   UNL A   1      36.564  31.719  27.628  1.00  0.00    -0.237 OA
ATOM     87  O   UNL A   1      35.163  29.695  27.506  1.00  0.00    -0.744 OA
ENDBRANCH  80  84
ENDBRANCH  53  77
BRANCH  65  88
ATOM     88  C   UNL A   1      44.392  33.847  29.580  1.00  0.00     0.023 A 
ATOM     89  C   UNL A   1      44.144  34.808  28.581  1.00  0.00     0.031 A 
ATOM     90  C   UNL A   1      44.736  34.309  30.863  1.00  0.00     0.131 A 
ATOM     91  C   UNL A   1      44.320  36.172  28.860  1.00  0.00     0.055 A 
ATOM     92  C   UNL A   1      44.836  35.671  31.155  1.00  0.00     0.041 A 
ATOM     93  F   UNL A   1      44.988  33.442  31.856  1.00  0.00    -0.206 F 
ATOM     94  C   UNL A   1      44.647  36.610  30.146  1.00  0.00     0.022 A 
BRANCH  91  95
ATOM     95  S   UNL A   1      44.243  37.357  27.489  1.00  0.00     0.124 S 
ATOM     96  O   UNL A   1      45.215  36.801  26.553  1.00  0.00    -0.237 OA
ATOM     97  O   UNL A   1      42.844  37.271  27.081  1.00  0.00    -0.237 OA
ATOM     98  O   UNL A   1      44.631  38.624  28.107  1.00  0.00    -0.744 OA
ENDBRANCH  91  95
ENDBRANCH  65  88
ENDBRANCH  39  40
ENDBRANCH  31  34
ENDBRANCH  29  30
ENDBRANCH  28  29
ENDBRANCH  27  28
ENDBRANCH   1  27
TORSDOF 19
ENDMDL
MODEL 2
REMARK VINA RESULT:     -10.0      5.201     10.824
REMARK SMILES CC1(C)CN(C(=O)NC[C@H]2CC[C@@H](C(=O)NCCCCCCNC(=O)c3ccc(-c4c5nc(c(-c6cc(S(=O)(=O)[O-])ccc6F)c6ccc([nH]6)c(-c6cc(S(=O)(=O)[O-])ccc6F)c6nc(c(-c7cc(S(=O)(=O)[O-])ccc7F)c7ccc4[nH]7)C=C6)C=C5)cc3)CC2)CCO1
REMARK SMILES IDX 19 1 18 2 17 3 16 4 14 5 15 6 13 8 10 9 11 10 90 11 12 12
REMARK SMILES IDX 89 13 9 14 8 15 6 16 7 17 5 19 1 20 2 21 3 22 4 23 93 24
REMARK SMILES IDX 92 25 91 26 20 27 21 28 22 29 23 30 24 31 25 33 26 34 27 35
REMARK SMILES IDX 88 36 28 37 87 38 29 39 30 40 31 41 81 42 32 43 86 44 80 45
REMARK SMILES IDX 82 46 33 47 85 48 79 49 78 50 34 52 66 53 46 54 65 55 47 56
REMARK SMILES IDX 50 57 64 58 83 59 48 60 49 61 63 63 84 64 51 65 35 66 36 67
REMARK SMILES IDX 44 68 37 69 43 70 45 71 42 72 38 73 39 74 40 75 41 76 67 77
REMARK SMILES IDX 68 78 76 79 69 80 75 81 77 82 74 83 70 84 71 85 72 86 73 87
REMARK SMILES IDX 52 88 53 89 61 90 54 91 60 92 62 93 59 94 55 95 56 96 57 97
REMARK SMILES IDX 58 98
REMARK H PARENT 16 7 8 18 23 32 82 51 50 62
REMARK Flexibility Score: inf
ROOT
ATOM      1  C   UNL A   1      37.745  32.243  30.506  1.00  0.00     0.002 C 
ENDROOT
BRANCH   1   2
ATOM      2  C   UNL A   1      38.589  31.621  29.377  1.00  0.00     0.021 C 
BRANCH   2   3
ATOM      3  C   UNL A   1      38.248  30.214  28.854  1.00  0.00     0.116 C 
BRANCH   3   4
ATOM      4  N   UNL A   1      39.050  29.190  29.524  1.00  0.00    -0.356 N 
ATOM      5  C   UNL A   1      40.045  28.332  29.208  1.00  0.00     0.223 C 
ATOM      6  O   UNL A   1      40.462  27.651  30.158  1.00  0.00    -0.275 OA
ATOM      7  H   UNL A   1      38.793  29.101  30.471  1.00  0.00     0.163 HD
BRANCH   5   8
ATOM      8  C   UNL A   1      40.646  28.073  27.823  1.00  0.00     0.078 C 
ATOM      9  C   UNL A   1      42.419  27.376  25.499  1.00  0.00     0.008 C 
ATOM     10  C   UNL A   1      41.140  26.583  25.850  1.00  0.00     0.006 C 
ATOM     11  C   UNL A   1      42.399  28.779  26.132  1.00  0.00     0.006 C 
ATOM     12  C   UNL A   1      40.751  26.632  27.338  1.00  0.00     0.014 C 
ATOM     13  C   UNL A   1      41.941  28.849  27.590  1.00  0.00     0.014 C 
BRANCH   9  14
ATOM     14  C   UNL A   1      43.698  26.522  25.678  1.00  0.00     0.121 C 
BRANCH  14  15
ATOM     15  N   UNL A   1      43.979  26.065  27.032  1.00  0.00    -0.338 N 
ATOM     16  C   UNL A   1      43.996  24.910  27.728  1.00  0.00     0.317 C 
ATOM     17  O   UNL A   1      44.138  25.035  28.948  1.00  0.00    -0.249 OA
ATOM     18  H   UNL A   1      44.231  26.821  27.610  1.00  0.00     0.165 HD
BRANCH  16  19
ATOM     19  N   UNL A   1      43.850  23.688  27.155  1.00  0.00    -0.320 N 
ATOM     20  C   UNL A   1      45.340  23.304  24.235  1.00  0.00     0.044 C 
ATOM     21  C   UNL A   1      44.933  22.301  25.317  1.00  0.00     0.080 C 
ATOM     22  C   UNL A   1      45.833  21.058  25.218  1.00  0.00     0.044 C 
ATOM     23  C   UNL A   1      45.042  22.914  26.751  1.00  0.00     0.156 C 
ATOM     24  O   UNL A   1      43.607  21.816  25.013  1.00  0.00    -0.372 OA
ATOM     25  C   UNL A   1      42.576  22.742  25.338  1.00  0.00     0.182 C 
ATOM     26  C   UNL A   1      42.626  23.001  26.825  1.00  0.00     0.150 C 
ENDBRANCH  16  19
ENDBRANCH  14  15
ENDBRANCH   9  14
ENDBRANCH   5   8
ENDBRANCH   3   4
ENDBRANCH   2   3
ENDBRANCH   1   2
BRANCH   1  27
ATOM     27  C   UNL A   1      36.428  31.610  30.967  1.00  0.00     0.002 C 
BRANCH  27  28
ATOM     28  C   UNL A   1      35.563  32.340  31.998  1.00  0.00     0.021 C 
BRANCH  28  29
ATOM     29  C   UNL A   1      36.233  33.376  32.905  1.00  0.00     0.116 C 
BRANCH  29  30
ATOM     30  N   UNL A   1      36.414  32.940  34.275  1.00  0.00    -0.352 N 
ATOM     31  C   UNL A   1      37.425  32.225  34.866  1.00  0.00     0.251 C 
ATOM     32  H   UNL A   1      35.688  33.201  34.887  1.00  0.00     0.163 HD
ATOM     33  O   UNL A   1      37.348  32.005  36.079  1.00  0.00    -0.269 OA
BRANCH  31  34
ATOM     34  C   UNL A   1      38.569  31.660  34.101  1.00  0.00     0.039 A 
ATOM     35  C   UNL A   1      39.689  32.482  33.931  1.00  0.00     0.014 A 
ATOM     36  C   UNL A   1      38.558  30.395  33.502  1.00  0.00     0.014 A 
ATOM     37  C   UNL A   1      40.803  32.027  33.220  1.00  0.00     0.010 A 
ATOM     38  C   UNL A   1      39.698  29.919  32.830  1.00  0.00     0.010 A 
ATOM     39  C   UNL A   1      40.838  30.728  32.686  1.00  0.00    -0.014 A 
BRANCH  39  40
ATOM     40  C   UNL A   1      42.090  30.242  32.032  1.00  0.00     0.031 A 
ATOM     41  C   UNL A   1      42.757  28.960  32.459  1.00  0.00     0.074 A 
ATOM     42  C   UNL A   1      42.614  30.952  31.012  1.00  0.00     0.049 A 
ATOM     43  N   UNL A   1      43.778  28.341  31.920  1.00  0.00    -0.248 NA
ATOM     44  C   UNL A   1      42.219  28.298  33.654  1.00  0.00     0.031 C 
ATOM     45  C   UNL A   1      42.093  32.233  30.527  1.00  0.00     0.029 A 
ATOM     46  N   UNL A   1      43.681  30.699  30.184  1.00  0.00    -0.354 N 
ATOM     47  C   UNL A   1      44.003  27.213  32.701  1.00  0.00     0.074 A 
ATOM     48  C   UNL A   1      43.044  27.267  33.787  1.00  0.00     0.031 C 
ATOM     49  C   UNL A   1      42.812  32.629  29.465  1.00  0.00     0.029 A 
ATOM     50  C   UNL A   1      43.868  31.655  29.210  1.00  0.00     0.049 A 
ATOM     51  H   UNL A   1      44.259  29.907  30.278  1.00  0.00     0.167 HD
ATOM     52  C   UNL A   1      44.909  26.216  32.522  1.00  0.00     0.034 A 
ATOM     53  C   UNL A   1      44.780  31.742  28.221  1.00  0.00     0.034 A 
ATOM     54  C   UNL A   1      45.864  26.175  31.437  1.00  0.00     0.049 A 
ATOM     55  C   UNL A   1      45.785  30.630  28.051  1.00  0.00     0.074 A 
ATOM     56  C   UNL A   1      46.778  25.180  31.131  1.00  0.00     0.029 A 
ATOM     57  N   UNL A   1      46.045  27.176  30.490  1.00  0.00    -0.354 N 
ATOM     58  N   UNL A   1      45.925  29.529  28.752  1.00  0.00    -0.248 NA
ATOM     59  C   UNL A   1      46.741  30.765  26.944  1.00  0.00     0.031 C 
ATOM     60  C   UNL A   1      47.564  25.614  30.057  1.00  0.00     0.029 A 
ATOM     61  C   UNL A   1      47.085  26.842  29.631  1.00  0.00     0.049 A 
ATOM     62  H   UNL A   1      45.514  28.004  30.437  1.00  0.00     0.167 HD
ATOM     63  C   UNL A   1      46.974  28.832  28.157  1.00  0.00     0.074 A 
ATOM     64  C   UNL A   1      47.403  29.621  27.021  1.00  0.00     0.031 C 
ATOM     65  C   UNL A   1      47.533  27.648  28.519  1.00  0.00     0.034 A 
BRANCH  52  66
ATOM     66  C   UNL A   1      44.933  25.098  33.541  1.00  0.00     0.023 A 
ATOM     67  C   UNL A   1      45.512  25.264  34.812  1.00  0.00     0.031 A 
ATOM     68  C   UNL A   1      44.365  23.847  33.239  1.00  0.00     0.131 A 
ATOM     69  C   UNL A   1      45.567  24.182  35.705  1.00  0.00     0.055 A 
ATOM     70  C   UNL A   1      44.354  22.797  34.161  1.00  0.00     0.041 A 
ATOM     71  F   UNL A   1      43.812  23.620  32.037  1.00  0.00    -0.206 F 
ATOM     72  C   UNL A   1      44.970  22.958  35.399  1.00  0.00     0.022 A 
BRANCH  69  73
ATOM     73  S   UNL A   1      46.549  24.356  37.221  1.00  0.00     0.124 S 
ATOM     74  O   UNL A   1      47.154  23.031  37.336  1.00  0.00    -0.237 OA
ATOM     75  O   UNL A   1      47.458  25.447  36.885  1.00  0.00    -0.237 OA
ATOM     76  O   UNL A   1      45.552  24.667  38.243  1.00  0.00    -0.744 OA
ENDBRANCH  69  73
ENDBRANCH  52  66
BRANCH  53  77
ATOM     77  C   UNL A   1      44.803  32.930  27.315  1.00  0.00     0.023 A 
ATOM     78  C   UNL A   1      45.492  34.103  27.662  1.00  0.00     0.031 A 
ATOM     79  C   UNL A   1      44.085  32.922  26.105  1.00  0.00     0.131 A 
ATOM     80  C   UNL A   1      45.408  35.235  26.834  1.00  0.00     0.055 A 
ATOM     81  C   UNL A   1      44.053  34.030  25.257  1.00  0.00     0.041 A 
ATOM     82  F   UNL A   1      43.408  31.828  25.723  1.00  0.00    -0.206 F 
ATOM     83  C   UNL A   1      44.706  35.201  25.627  1.00  0.00     0.022 A 
BRANCH  80  84
ATOM     84  S   UNL A   1      46.154  36.788  27.403  1.00  0.00     0.124 S 
ATOM     85  O   UNL A   1      46.743  37.303  26.172  1.00  0.00    -0.237 OA
ATOM     86  O   UNL A   1      44.994  37.512  27.912  1.00  0.00    -0.237 OA
ATOM     87  O   UNL A   1      47.110  36.354  28.419  1.00  0.00    -0.744 OA
ENDBRANCH  80  84
ENDBRANCH  53  77
BRANCH  65  88
ATOM     88  C   UNL A   1      48.662  27.134  27.654  1.00  0.00     0.023 A 
ATOM     89  C   UNL A   1      50.009  27.397  27.967  1.00  0.00     0.031 A 
ATOM     90  C   UNL A   1      48.391  26.412  26.477  1.00  0.00     0.131 A 
ATOM     91  C   UNL A   1      51.024  27.013  27.077  1.00  0.00     0.055 A 
ATOM     92  C   UNL A   1      49.410  25.967  25.634  1.00  0.00     0.041 A 
ATOM     93  F   UNL A   1      47.126  26.134  26.123  1.00  0.00    -0.206 F 
ATOM     94  C   UNL A   1      50.735  26.283  25.921  1.00  0.00     0.022 A 
BRANCH  91  95
ATOM     95  S   UNL A   1      52.716  27.592  27.385  1.00  0.00     0.124 S 
ATOM     96  O   UNL A   1      53.063  28.207  26.107  1.00  0.00    -0.237 OA
ATOM     97  O   UNL A   1      52.532  28.510  28.505  1.00  0.00    -0.237 OA
ATOM     98  O   UNL A   1      53.446  26.366  27.702  1.00  0.00    -0.744 OA
ENDBRANCH  91  95
ENDBRANCH  65  88
ENDBRANCH  39  40
ENDBRANCH  31  34
ENDBRANCH  29  30
ENDBRANCH  28  29
ENDBRANCH  27  28
ENDBRANCH   1  27
TORSDOF 19
ENDMDL
MODEL 3
REMARK VINA RESULT:      -9.9      4.765      7.614
REMARK SMILES CC1(C)CN(C(=O)NC[C@H]2CC[C@@H](C(=O)NCCCCCCNC(=O)c3ccc(-c4c5nc(c(-c6cc(S(=O)(=O)[O-])ccc6F)c6ccc([nH]6)c(-c6cc(S(=O)(=O)[O-])ccc6F)c6nc(c(-c7cc(S(=O)(=O)[O-])ccc7F)c7ccc4[nH]7)C=C6)C=C5)cc3)CC2)CCO1
REMARK SMILES IDX 19 1 18 2 17 3 16 4 14 5 15 6 13 8 10 9 11 10 90 11 12 12
REMARK SMILES IDX 89 13 9 14 8 15 6 16 7 17 5 19 1 20 2 21 3 22 4 23 93 24
REMARK SMILES IDX 92 25 91 26 20 27 21 28 22 29 23 30 24 31 25 33 26 34 27 35
REMARK SMILES IDX 88 36 28 37 87 38 29 39 30 40 31 41 81 42 32 43 86 44 80 45
REMARK SMILES IDX 82 46 33 47 85 48 79 49 78 50 34 52 66 53 46 54 65 55 47 56
REMARK SMILES IDX 50 57 64 58 83 59 48 60 49 61 63 63 84 64 51 65 35 66 36 67
REMARK SMILES IDX 44 68 37 69 43 70 45 71 42 72 38 73 39 74 40 75 41 76 67 77
REMARK SMILES IDX 68 78 76 79 69 80 75 81 77 82 74 83 70 84 71 85 72 86 73 87
REMARK SMILES IDX 52 88 53 89 61 90 54 91 60 92 62 93 59 94 55 95 56 96 57 97
REMARK SMILES IDX 58 98
REMARK H PARENT 16 7 8 18 23 32 82 51 50 62
REMARK Flexibility Score: inf
ROOT
ATOM      1  C   UNL A   1      42.726  19.201  25.576  1.00  0.00     0.002 C 
ENDROOT
BRANCH   1   2
ATOM      2  C   UNL A   1      42.045  19.074  26.953  1.00  0.00     0.021 C 
BRANCH   2   3
ATOM      3  C   UNL A   1      41.485  20.329  27.647  1.00  0.00     0.116 C 
BRANCH   3   4
ATOM      4  N   UNL A   1      40.466  20.981  26.822  1.00  0.00    -0.356 N 
ATOM      5  C   UNL A   1      39.911  22.207  26.701  1.00  0.00     0.223 C 
ATOM      6  O   UNL A   1      39.074  22.308  25.790  1.00  0.00    -0.275 OA
ATOM      7  H   UNL A   1      40.077  20.349  26.175  1.00  0.00     0.163 HD
BRANCH   5   8
ATOM      8  C   UNL A   1      40.152  23.431  27.590  1.00  0.00     0.078 C 
ATOM      9  C   UNL A   1      40.843  26.135  28.702  1.00  0.00     0.008 C 
ATOM     10  C   UNL A   1      39.402  25.578  28.678  1.00  0.00     0.006 C 
ATOM     11  C   UNL A   1      41.882  25.008  28.565  1.00  0.00     0.006 C 
ATOM     12  C   UNL A   1      39.132  24.563  27.554  1.00  0.00     0.014 C 
ATOM     13  C   UNL A   1      41.585  23.950  27.499  1.00  0.00     0.014 C 
BRANCH   9  14
ATOM     14  C   UNL A   1      41.000  27.375  27.788  1.00  0.00     0.121 C 
BRANCH  14  15
ATOM     15  N   UNL A   1      41.545  28.571  28.417  1.00  0.00    -0.338 N 
ATOM     16  C   UNL A   1      41.100  29.681  29.039  1.00  0.00     0.317 C 
ATOM     17  O   UNL A   1      41.962  30.536  29.267  1.00  0.00    -0.249 OA
ATOM     18  H   UNL A   1      42.529  28.567  28.376  1.00  0.00     0.165 HD
BRANCH  16  19
ATOM     19  N   UNL A   1      39.802  29.877  29.383  1.00  0.00    -0.320 N 
ATOM     20  C   UNL A   1      38.583  27.751  31.594  1.00  0.00     0.044 C 
ATOM     21  C   UNL A   1      38.190  29.184  31.226  1.00  0.00     0.080 C 
ATOM     22  C   UNL A   1      37.496  29.842  32.430  1.00  0.00     0.044 C 
ATOM     23  C   UNL A   1      39.430  30.038  30.803  1.00  0.00     0.156 C 
ATOM     24  O   UNL A   1      37.171  29.128  30.203  1.00  0.00    -0.372 OA
ATOM     25  C   UNL A   1      37.682  28.827  28.909  1.00  0.00     0.182 C 
ATOM     26  C   UNL A   1      38.649  29.919  28.518  1.00  0.00     0.150 C 
ENDBRANCH  16  19
ENDBRANCH  14  15
ENDBRANCH   9  14
ENDBRANCH   5   8
ENDBRANCH   3   4
ENDBRANCH   2   3
ENDBRANCH   1   2
BRANCH   1  27
ATOM     27  C   UNL A   1      43.961  20.084  25.368  1.00  0.00     0.002 C 
BRANCH  27  28
ATOM     28  C   UNL A   1      43.858  21.592  25.617  1.00  0.00     0.021 C 
BRANCH  28  29
ATOM     29  C   UNL A   1      43.884  22.530  24.407  1.00  0.00     0.116 C 
BRANCH  29  30
ATOM     30  N   UNL A   1      45.215  22.885  23.958  1.00  0.00    -0.352 N 
ATOM     31  C   UNL A   1      46.086  23.850  24.396  1.00  0.00     0.251 C 
ATOM     32  H   UNL A   1      45.552  22.341  23.210  1.00  0.00     0.163 HD
ATOM     33  O   UNL A   1      47.190  23.927  23.848  1.00  0.00    -0.269 OA
BRANCH  31  34
ATOM     34  C   UNL A   1      45.736  24.834  25.454  1.00  0.00     0.039 A 
ATOM     35  C   UNL A   1      46.630  24.965  26.524  1.00  0.00     0.014 A 
ATOM     36  C   UNL A   1      44.550  25.578  25.467  1.00  0.00     0.014 A 
ATOM     37  C   UNL A   1      46.370  25.865  27.562  1.00  0.00     0.010 A 
ATOM     38  C   UNL A   1      44.314  26.519  26.485  1.00  0.00     0.010 A 
ATOM     39  C   UNL A   1      45.225  26.678  27.543  1.00  0.00    -0.014 A 
BRANCH  39  40
ATOM     40  C   UNL A   1      45.043  27.706  28.612  1.00  0.00     0.031 A 
ATOM     41  C   UNL A   1      45.223  29.175  28.333  1.00  0.00     0.074 A 
ATOM     42  C   UNL A   1      44.675  27.306  29.847  1.00  0.00     0.049 A 
ATOM     43  N   UNL A   1      44.989  30.199  29.116  1.00  0.00    -0.248 NA
ATOM     44  C   UNL A   1      45.747  29.541  27.011  1.00  0.00     0.031 C 
ATOM     45  C   UNL A   1      44.510  25.912  30.263  1.00  0.00     0.029 A 
ATOM     46  N   UNL A   1      44.353  28.025  30.973  1.00  0.00    -0.354 N 
ATOM     47  C   UNL A   1      45.329  31.332  28.384  1.00  0.00     0.074 A 
ATOM     48  C   UNL A   1      45.839  30.860  27.112  1.00  0.00     0.031 C 
ATOM     49  C   UNL A   1      44.078  25.878  31.533  1.00  0.00     0.029 A 
ATOM     50  C   UNL A   1      43.968  27.242  32.039  1.00  0.00     0.049 A 
ATOM     51  H   UNL A   1      44.394  29.007  31.015  1.00  0.00     0.167 HD
ATOM     52  C   UNL A   1      45.209  32.640  28.730  1.00  0.00     0.034 A 
ATOM     53  C   UNL A   1      43.568  27.578  33.283  1.00  0.00     0.034 A 
ATOM     54  C   UNL A   1      44.702  33.098  30.005  1.00  0.00     0.049 A 
ATOM     55  C   UNL A   1      43.458  29.037  33.648  1.00  0.00     0.074 A 
ATOM     56  C   UNL A   1      44.481  34.398  30.427  1.00  0.00     0.029 A 
ATOM     57  N   UNL A   1      44.353  32.277  31.070  1.00  0.00    -0.354 N 
ATOM     58  N   UNL A   1      43.704  30.094  32.910  1.00  0.00    -0.248 NA
ATOM     59  C   UNL A   1      42.996  29.345  35.008  1.00  0.00     0.031 C 
ATOM     60  C   UNL A   1      44.082  34.368  31.768  1.00  0.00     0.029 A 
ATOM     61  C   UNL A   1      43.965  33.045  32.161  1.00  0.00     0.049 A 
ATOM     62  H   UNL A   1      44.379  31.293  31.055  1.00  0.00     0.167 HD
ATOM     63  C   UNL A   1      43.408  31.193  33.712  1.00  0.00     0.074 A 
ATOM     64  C   UNL A   1      42.932  30.667  34.975  1.00  0.00     0.031 C 
ATOM     65  C   UNL A   1      43.522  32.517  33.431  1.00  0.00     0.034 A 
BRANCH  52  66
ATOM     66  C   UNL A   1      45.664  33.676  27.725  1.00  0.00     0.023 A 
ATOM     67  C   UNL A   1      46.973  34.190  27.729  1.00  0.00     0.031 A 
ATOM     68  C   UNL A   1      44.776  34.155  26.745  1.00  0.00     0.131 A 
ATOM     69  C   UNL A   1      47.336  35.195  26.818  1.00  0.00     0.055 A 
ATOM     70  C   UNL A   1      45.166  35.099  25.791  1.00  0.00     0.041 A 
ATOM     71  F   UNL A   1      43.508  33.717  26.699  1.00  0.00    -0.206 F 
ATOM     72  C   UNL A   1      46.450  35.634  25.833  1.00  0.00     0.022 A 
BRANCH  69  73
ATOM     73  S   UNL A   1      48.941  36.016  27.024  1.00  0.00     0.124 S 
ATOM     74  O   UNL A   1      49.761  35.315  26.038  1.00  0.00    -0.237 OA
ATOM     75  O   UNL A   1      48.625  37.407  26.719  1.00  0.00    -0.237 OA
ATOM     76  O   UNL A   1      49.289  35.745  28.416  1.00  0.00    -0.744 OA
ENDBRANCH  69  73
ENDBRANCH  52  66
BRANCH  53  77
ATOM     77  C   UNL A   1      43.252  26.517  34.288  1.00  0.00     0.023 A 
ATOM     78  C   UNL A   1      44.264  25.747  34.882  1.00  0.00     0.031 A 
ATOM     79  C   UNL A   1      41.918  26.227  34.627  1.00  0.00     0.131 A 
ATOM     80  C   UNL A   1      43.925  24.692  35.746  1.00  0.00     0.055 A 
ATOM     81  C   UNL A   1      41.589  25.216  35.532  1.00  0.00     0.041 A 
ATOM     82  F   UNL A   1      40.911  26.932  34.090  1.00  0.00    -0.206 F 
ATOM     83  C   UNL A   1      42.595  24.432  36.086  1.00  0.00     0.022 A 
BRANCH  80  84
ATOM     84  S   UNL A   1      45.243  23.600  36.348  1.00  0.00     0.124 S 
ATOM     85  O   UNL A   1      44.809  22.303  35.841  1.00  0.00    -0.237 OA
ATOM     86  O   UNL A   1      46.425  24.174  35.714  1.00  0.00    -0.237 OA
ATOM     87  O   UNL A   1      45.178  23.758  37.799  1.00  0.00    -0.744 OA
ENDBRANCH  80  84
ENDBRANCH  53  77
BRANCH  65  88
ATOM     88  C   UNL A   1      43.102  33.484  34.517  1.00  0.00     0.023 A 
ATOM     89  C   UNL A   1      41.754  33.843  34.702  1.00  0.00     0.031 A 
ATOM     90  C   UNL A   1      44.064  34.089  35.346  1.00  0.00     0.131 A 
ATOM     91  C   UNL A   1      41.415  34.835  35.635  1.00  0.00     0.055 A 
ATOM     92  C   UNL A   1      43.711  35.021  36.324  1.00  0.00     0.041 A 
ATOM     93  F   UNL A   1      45.366  33.791  35.214  1.00  0.00    -0.206 F 
ATOM     94  C   UNL A   1      42.383  35.413  36.460  1.00  0.00     0.022 A 
BRANCH  91  95
ATOM     95  S   UNL A   1      39.710  35.453  35.666  1.00  0.00     0.124 S 
ATOM     96  O   UNL A   1      39.128  34.683  36.761  1.00  0.00    -0.237 OA
ATOM     97  O   UNL A   1      39.898  36.878  35.918  1.00  0.00    -0.237 OA
ATOM     98  O   UNL A   1      39.200  35.122  34.336  1.00  0.00    -0.744 OA
ENDBRANCH  91  95
ENDBRANCH  65  88
ENDBRANCH  39  40
ENDBRANCH  31  34
ENDBRANCH  29  30
ENDBRANCH  28  29
ENDBRANCH  27  28
ENDBRANCH   1  27
TORSDOF 19
ENDMDL
