MODEL 1
REMARK VINA RESULT:     -12.0      0.000      0.000
REMARK SMILES NS(=O)(=O)c1ccc(N2N=C(C(=O)NCCCCCCNC(=O)c3ccc(-c4c5nc(c(-c6cc(S(=O)(=O)[O-])ccc6F)c6ccc([nH]6)c(-c6cc(S(=O)(=O)[O-])ccc6F)c6nc(c(-c7cc(S(=O)(=O)[O-])ccc7F)c7ccc4[nH]7)C=C6)C=C5)cc3)C[C@H]2c2cccs2)cc1
REMARK SMILES IDX 17 1 16 2 15 3 14 4 12 5 13 6 11 8 9 9 10 10 88 11 87 12
REMARK SMILES IDX 8 13 5 14 6 15 95 16 7 17 94 18 2 19 3 20 4 21 1 22 89 25
REMARK SMILES IDX 90 26 93 27 91 28 92 29 18 30 19 31 20 32 21 33 22 34 23 36
REMARK SMILES IDX 24 37 25 38 86 39 26 40 85 41 27 42 28 43 29 44 79 45 30 46
REMARK SMILES IDX 84 47 78 48 80 49 31 50 83 51 77 52 76 53 32 55 64 56 44 57
REMARK SMILES IDX 63 58 45 59 48 60 62 61 81 62 46 63 47 64 61 66 82 67 49 68
REMARK SMILES IDX 33 69 34 70 42 71 35 72 41 73 43 74 40 75 36 76 37 77 38 78
REMARK SMILES IDX 39 79 65 80 66 81 74 82 67 83 73 84 75 85 72 86 68 87 69 88
REMARK SMILES IDX 70 89 71 90 50 91 51 92 59 93 52 94 58 95 60 96 57 97 53 98
REMARK SMILES IDX 54 99 55 100 56 101
REMARK H PARENT 14 7 1 23 1 24 21 35 80 54 48 65
REMARK Flexibility Score: inf
ROOT
ATOM      1  C   UNL A   1      31.096  28.367  24.383  1.00  0.00     0.002 C 
ENDROOT
BRANCH   1   2
ATOM      2  C   UNL A   1      29.861  27.486  24.182  1.00  0.00     0.021 C 
BRANCH   2   3
ATOM      3  C   UNL A   1      30.128  25.985  24.132  1.00  0.00     0.116 C 
BRANCH   3   4
ATOM      4  N   UNL A   1      30.006  25.374  25.441  1.00  0.00    -0.351 N 
ATOM      5  C   UNL A   1      30.632  24.326  26.066  1.00  0.00     0.267 C 
ATOM      6  O   UNL A   1      30.246  24.031  27.196  1.00  0.00    -0.268 OA
ATOM      7  H   UNL A   1      29.325  25.808  26.004  1.00  0.00     0.163 HD
BRANCH   5   8
ATOM      8  C   UNL A   1      31.787  23.533  25.467  1.00  0.00     0.128 C 
ATOM      9  N   UNL A   1      33.116  21.882  25.187  1.00  0.00    -0.256 N 
ATOM     10  N   UNL A   1      31.925  22.266  25.725  1.00  0.00    -0.171 NA
ATOM     11  C   UNL A   1      33.801  22.949  24.452  1.00  0.00     0.154 C 
ATOM     12  C   UNL A   1      32.805  24.108  24.540  1.00  0.00     0.097 C 
BRANCH   9  13
ATOM     13  C   UNL A   1      33.380  20.540  24.918  1.00  0.00     0.060 A 
ATOM     14  C   UNL A   1      33.880  17.807  24.480  1.00  0.00     0.082 A 
ATOM     15  C   UNL A   1      34.948  18.682  24.689  1.00  0.00     0.024 A 
ATOM     16  C   UNL A   1      32.571  18.286  24.453  1.00  0.00     0.024 A 
ATOM     17  C   UNL A   1      34.691  20.044  24.891  1.00  0.00     0.029 A 
ATOM     18  C   UNL A   1      32.330  19.641  24.678  1.00  0.00     0.029 A 
BRANCH  14  19
ATOM     19  S   UNL A   1      34.144  16.084  24.207  1.00  0.00     0.238 S 
ATOM     20  O   UNL A   1      35.105  15.600  25.176  1.00  0.00    -0.207 OA
ATOM     21  O   UNL A   1      34.289  15.860  22.791  1.00  0.00    -0.207 OA
BRANCH  19  22
ATOM     22  N   UNL A   1      32.692  15.358  24.642  1.00  0.00    -0.225 NA
ATOM     23  H   UNL A   1      31.916  15.879  24.232  1.00  0.00     0.137 HD
ATOM     24  H   UNL A   1      32.601  15.359  25.658  1.00  0.00     0.137 HD
ENDBRANCH  19  22
ENDBRANCH  14  19
ENDBRANCH   9  13
BRANCH  11  25
ATOM     25  C   UNL A   1      35.195  23.316  24.911  1.00  0.00     0.030 A 
ATOM     26  C   UNL A   1      35.562  23.787  26.161  1.00  0.00     0.017 A 
ATOM     27  S   UNL A   1      36.559  23.224  23.869  1.00  0.00    -0.147 S 
ATOM     28  C   UNL A   1      36.962  24.022  26.271  1.00  0.00     0.012 A 
ATOM     29  C   UNL A   1      37.627  23.712  25.108  1.00  0.00     0.065 A 
ENDBRANCH  11  25
ENDBRANCH   5   8
ENDBRANCH   3   4
ENDBRANCH   2   3
ENDBRANCH   1   2
BRANCH   1  30
ATOM     30  C   UNL A   1      31.577  28.519  25.829  1.00  0.00     0.002 C 
BRANCH  30  31
ATOM     31  C   UNL A   1      32.910  27.846  26.167  1.00  0.00     0.021 C 
BRANCH  31  32
ATOM     32  C   UNL A   1      34.131  28.760  26.157  1.00  0.00     0.116 C 
BRANCH  32  33
ATOM     33  N   UNL A   1      33.829  30.099  26.629  1.00  0.00    -0.352 N 
ATOM     34  C   UNL A   1      34.479  30.858  27.572  1.00  0.00     0.251 C 
ATOM     35  H   UNL A   1      33.044  30.524  26.214  1.00  0.00     0.163 HD
ATOM     36  O   UNL A   1      33.974  31.908  27.957  1.00  0.00    -0.269 OA
BRANCH  34  37
ATOM     37  C   UNL A   1      35.765  30.395  28.143  1.00  0.00     0.039 A 
ATOM     38  C   UNL A   1      35.753  29.721  29.366  1.00  0.00     0.014 A 
ATOM     39  C   UNL A   1      36.977  30.634  27.487  1.00  0.00     0.014 A 
ATOM     40  C   UNL A   1      36.948  29.235  29.904  1.00  0.00     0.010 A 
ATOM     41  C   UNL A   1      38.158  30.091  27.990  1.00  0.00     0.010 A 
ATOM     42  C   UNL A   1      38.156  29.390  29.206  1.00  0.00    -0.014 A 
BRANCH  42  43
ATOM     43  C   UNL A   1      39.427  28.828  29.734  1.00  0.00     0.031 A 
ATOM     44  C   UNL A   1      40.125  29.491  30.891  1.00  0.00     0.074 A 
ATOM     45  C   UNL A   1      39.988  27.764  29.128  1.00  0.00     0.049 A 
ATOM     46  N   UNL A   1      41.274  29.198  31.445  1.00  0.00    -0.248 NA
ATOM     47  C   UNL A   1      39.456  30.662  31.473  1.00  0.00     0.031 C 
ATOM     48  C   UNL A   1      39.435  27.067  27.965  1.00  0.00     0.029 A 
ATOM     49  N   UNL A   1      41.155  27.093  29.393  1.00  0.00    -0.354 N 
ATOM     50  C   UNL A   1      41.474  30.158  32.432  1.00  0.00     0.074 A 
ATOM     51  C   UNL A   1      40.357  31.078  32.349  1.00  0.00     0.031 C 
ATOM     52  C   UNL A   1      40.256  26.061  27.625  1.00  0.00     0.029 A 
ATOM     53  C   UNL A   1      41.411  26.064  28.518  1.00  0.00     0.049 A 
ATOM     54  H   UNL A   1      41.754  27.326  30.139  1.00  0.00     0.167 HD
ATOM     55  C   UNL A   1      42.482  30.251  33.336  1.00  0.00     0.034 A 
ATOM     56  C   UNL A   1      42.462  25.225  28.433  1.00  0.00     0.034 A 
ATOM     57  C   UNL A   1      43.583  29.319  33.407  1.00  0.00     0.049 A 
ATOM     58  C   UNL A   1      43.574  25.344  29.440  1.00  0.00     0.074 A 
ATOM     59  C   UNL A   1      44.617  29.272  34.324  1.00  0.00     0.029 A 
ATOM     60  N   UNL A   1      43.802  28.277  32.512  1.00  0.00    -0.354 N 
ATOM     61  N   UNL A   1      43.718  26.215  30.412  1.00  0.00    -0.248 NA
ATOM     62  C   UNL A   1      44.657  24.358  29.348  1.00  0.00     0.031 C 
ATOM     63  C   UNL A   1      45.495  28.248  33.946  1.00  0.00     0.029 A 
ATOM     64  C   UNL A   1      44.971  27.605  32.836  1.00  0.00     0.049 A 
ATOM     65  H   UNL A   1      43.211  28.048  31.759  1.00  0.00     0.167 HD
ATOM     66  C   UNL A   1      44.899  25.868  31.061  1.00  0.00     0.074 A 
ATOM     67  C   UNL A   1      45.419  24.700  30.377  1.00  0.00     0.031 C 
ATOM     68  C   UNL A   1      45.496  26.458  32.129  1.00  0.00     0.034 A 
BRANCH  55  69
ATOM     69  C   UNL A   1      42.445  31.423  34.292  1.00  0.00     0.023 A 
ATOM     70  C   UNL A   1      41.613  31.425  35.427  1.00  0.00     0.031 A 
ATOM     71  C   UNL A   1      43.202  32.579  34.034  1.00  0.00     0.131 A 
ATOM     72  C   UNL A   1      41.478  32.591  36.196  1.00  0.00     0.055 A 
ATOM     73  C   UNL A   1      43.134  33.704  34.861  1.00  0.00     0.041 A 
ATOM     74  F   UNL A   1      44.002  32.649  32.958  1.00  0.00    -0.206 F 
ATOM     75  C   UNL A   1      42.251  33.723  35.935  1.00  0.00     0.022 A 
BRANCH  72  76
ATOM     76  S   UNL A   1      40.138  32.666  37.418  1.00  0.00     0.124 S 
ATOM     77  O   UNL A   1      40.852  32.363  38.657  1.00  0.00    -0.237 OA
ATOM     78  O   UNL A   1      39.657  34.035  37.274  1.00  0.00    -0.237 OA
ATOM     79  O   UNL A   1      39.212  31.627  36.973  1.00  0.00    -0.744 OA
ENDBRANCH  72  76
ENDBRANCH  55  69
BRANCH  56  80
ATOM     80  C   UNL A   1      42.513  24.210  27.346  1.00  0.00     0.023 A 
ATOM     81  C   UNL A   1      41.727  23.049  27.398  1.00  0.00     0.031 A 
ATOM     82  C   UNL A   1      43.349  24.396  26.229  1.00  0.00     0.131 A 
ATOM     83  C   UNL A   1      41.812  22.102  26.365  1.00  0.00     0.055 A 
ATOM     84  C   UNL A   1      43.400  23.471  25.185  1.00  0.00     0.041 A 
ATOM     85  F   UNL A   1      44.109  25.497  26.128  1.00  0.00    -0.206 F 
ATOM     86  C   UNL A   1      42.633  22.312  25.253  1.00  0.00     0.022 A 
BRANCH  83  87
ATOM     87  S   UNL A   1      40.858  20.566  26.509  1.00  0.00     0.124 S 
ATOM     88  O   UNL A   1      41.634  19.656  25.674  1.00  0.00    -0.237 OA
ATOM     89  O   UNL A   1      40.903  20.316  27.946  1.00  0.00    -0.237 OA
ATOM     90  O   UNL A   1      39.545  20.931  25.984  1.00  0.00    -0.744 OA
ENDBRANCH  83  87
ENDBRANCH  56  80
BRANCH  68  91
ATOM     91  C   UNL A   1      46.768  25.824  32.637  1.00  0.00     0.023 A 
ATOM     92  C   UNL A   1      46.751  24.814  33.616  1.00  0.00     0.031 A 
ATOM     93  C   UNL A   1      48.016  26.244  32.142  1.00  0.00     0.131 A 
ATOM     94  C   UNL A   1      47.959  24.297  34.106  1.00  0.00     0.055 A 
ATOM     95  C   UNL A   1      49.211  25.685  32.592  1.00  0.00     0.041 A 
ATOM     96  F   UNL A   1      48.090  27.208  31.209  1.00  0.00    -0.206 F 
ATOM     97  C   UNL A   1      49.189  24.714  33.589  1.00  0.00     0.022 A 
BRANCH  94  98
ATOM     98  S   UNL A   1      47.909  23.132  35.497  1.00  0.00     0.124 S 
ATOM     99  O   UNL A   1      46.667  23.511  36.164  1.00  0.00    -0.237 OA
ATOM    100  O   UNL A   1      47.901  21.839  34.820  1.00  0.00    -0.237 OA
ATOM    101  O   UNL A   1      49.130  23.433  36.241  1.00  0.00    -0.744 OA
ENDBRANCH  94  98
ENDBRANCH  68  91
ENDBRANCH  42  43
ENDBRANCH  34  37
ENDBRANCH  32  33
ENDBRANCH  31  32
ENDBRANCH  30  31
ENDBRANCH   1  30
TORSDOF 20
ENDMDL
MODEL 2
REMARK VINA RESULT:     -11.6      3.309      8.386
REMARK SMILES NS(=O)(=O)c1ccc(N2N=C(C(=O)NCCCCCCNC(=O)c3ccc(-c4c5nc(c(-c6cc(S(=O)(=O)[O-])ccc6F)c6ccc([nH]6)c(-c6cc(S(=O)(=O)[O-])ccc6F)c6nc(c(-c7cc(S(=O)(=O)[O-])ccc7F)c7ccc4[nH]7)C=C6)C=C5)cc3)C[C@H]2c2cccs2)cc1
REMARK SMILES IDX 17 1 16 2 15 3 14 4 12 5 13 6 11 8 9 9 10 10 88 11 87 12
REMARK SMILES IDX 8 13 5 14 6 15 95 16 7 17 94 18 2 19 3 20 4 21 1 22 89 25
REMARK SMILES IDX 90 26 93 27 91 28 92 29 18 30 19 31 20 32 21 33 22 34 23 36
REMARK SMILES IDX 24 37 25 38 86 39 26 40 85 41 27 42 28 43 29 44 79 45 30 46
REMARK SMILES IDX 84 47 78 48 80 49 31 50 83 51 77 52 76 53 32 55 64 56 44 57
REMARK SMILES IDX 63 58 45 59 48 60 62 61 81 62 46 63 47 64 61 66 82 67 49 68
REMARK SMILES IDX 33 69 34 70 42 71 35 72 41 73 43 74 40 75 36 76 37 77 38 78
REMARK SMILES IDX 39 79 65 80 66 81 74 82 67 83 73 84 75 85 72 86 68 87 69 88
REMARK SMILES IDX 70 89 71 90 50 91 51 92 59 93 52 94 58 95 60 96 57 97 53 98
REMARK SMILES IDX 54 99 55 100 56 101
REMARK H PARENT 14 7 1 23 1 24 21 35 80 54 48 65
REMARK Flexibility Score: inf
ROOT
ATOM      1  C   UNL A   1      30.747  30.201  24.617  1.00  0.00     0.002 C 
ENDROOT
BRANCH   1   2
ATOM      2  C   UNL A   1      31.146  28.896  23.923  1.00  0.00     0.021 C 
BRANCH   2   3
ATOM      3  C   UNL A   1      32.623  28.525  24.026  1.00  0.00     0.116 C 
BRANCH   3   4
ATOM      4  N   UNL A   1      33.091  27.850  22.832  1.00  0.00    -0.351 N 
ATOM      5  C   UNL A   1      33.379  26.544  22.525  1.00  0.00     0.267 C 
ATOM      6  O   UNL A   1      33.813  26.311  21.399  1.00  0.00    -0.268 OA
ATOM      7  H   UNL A   1      33.233  28.463  22.075  1.00  0.00     0.163 HD
BRANCH   5   8
ATOM      8  C   UNL A   1      33.164  25.371  23.474  1.00  0.00     0.128 C 
ATOM      9  N   UNL A   1      32.776  23.354  24.067  1.00  0.00    -0.256 N 
ATOM     10  N   UNL A   1      33.139  24.151  23.024  1.00  0.00    -0.171 NA
ATOM     11  C   UNL A   1      32.612  24.077  25.330  1.00  0.00     0.154 C 
ATOM     12  C   UNL A   1      33.004  25.507  24.951  1.00  0.00     0.097 C 
BRANCH   9  13
ATOM     13  C   UNL A   1      33.048  21.987  24.051  1.00  0.00     0.060 A 
ATOM     14  C   UNL A   1      33.516  19.214  24.096  1.00  0.00     0.082 A 
ATOM     15  C   UNL A   1      34.403  20.077  24.743  1.00  0.00     0.024 A 
ATOM     16  C   UNL A   1      32.420  19.721  23.399  1.00  0.00     0.024 A 
ATOM     17  C   UNL A   1      34.171  21.457  24.703  1.00  0.00     0.029 A 
ATOM     18  C   UNL A   1      32.191  21.097  23.387  1.00  0.00     0.029 A 
BRANCH  14  19
ATOM     19  S   UNL A   1      33.766  17.467  24.102  1.00  0.00     0.238 S 
ATOM     20  O   UNL A   1      33.983  17.023  22.741  1.00  0.00    -0.207 OA
ATOM     21  O   UNL A   1      32.783  16.866  24.967  1.00  0.00    -0.207 OA
BRANCH  19  22
ATOM     22  N   UNL A   1      35.247  17.252  24.866  1.00  0.00    -0.225 NA
ATOM     23  H   UNL A   1      35.771  16.517  24.391  1.00  0.00     0.137 HD
ATOM     24  H   UNL A   1      35.093  16.986  25.838  1.00  0.00     0.137 HD
ENDBRANCH  19  22
ENDBRANCH  14  19
ENDBRANCH   9  13
BRANCH  11  25
ATOM     25  C   UNL A   1      31.262  23.982  26.009  1.00  0.00     0.030 A 
ATOM     26  C   UNL A   1      30.752  22.891  26.694  1.00  0.00     0.017 A 
ATOM     27  S   UNL A   1      30.125  25.269  25.976  1.00  0.00    -0.147 S 
ATOM     28  C   UNL A   1      29.455  23.135  27.228  1.00  0.00     0.012 A 
ATOM     29  C   UNL A   1      29.016  24.408  26.948  1.00  0.00     0.065 A 
ENDBRANCH  11  25
ENDBRANCH   5   8
ENDBRANCH   3   4
ENDBRANCH   2   3
ENDBRANCH   1   2
BRANCH   1  30
ATOM     30  C   UNL A   1      31.471  30.504  25.932  1.00  0.00     0.002 C 
BRANCH  30  31
ATOM     31  C   UNL A   1      31.396  31.953  26.420  1.00  0.00     0.021 C 
BRANCH  31  32
ATOM     32  C   UNL A   1      32.673  32.503  27.049  1.00  0.00     0.116 C 
BRANCH  32  33
ATOM     33  N   UNL A   1      32.506  33.851  27.560  1.00  0.00    -0.352 N 
ATOM     34  C   UNL A   1      33.170  34.484  28.583  1.00  0.00     0.251 C 
ATOM     35  H   UNL A   1      31.818  34.391  27.107  1.00  0.00     0.163 HD
ATOM     36  O   UNL A   1      32.773  35.576  28.978  1.00  0.00    -0.269 OA
BRANCH  34  37
ATOM     37  C   UNL A   1      34.337  33.837  29.226  1.00  0.00     0.039 A 
ATOM     38  C   UNL A   1      35.618  34.296  28.910  1.00  0.00     0.014 A 
ATOM     39  C   UNL A   1      34.175  32.778  30.124  1.00  0.00     0.014 A 
ATOM     40  C   UNL A   1      36.733  33.733  29.537  1.00  0.00     0.010 A 
ATOM     41  C   UNL A   1      35.281  32.264  30.798  1.00  0.00     0.010 A 
ATOM     42  C   UNL A   1      36.572  32.733  30.508  1.00  0.00    -0.014 A 
BRANCH  42  43
ATOM     43  C   UNL A   1      37.742  32.165  31.228  1.00  0.00     0.031 A 
ATOM     44  C   UNL A   1      38.523  31.029  30.625  1.00  0.00     0.074 A 
ATOM     45  C   UNL A   1      38.057  32.623  32.455  1.00  0.00     0.049 A 
ATOM     46  N   UNL A   1      39.524  30.351  31.126  1.00  0.00    -0.248 NA
ATOM     47  C   UNL A   1      38.093  30.574  29.295  1.00  0.00     0.031 C 
ATOM     48  C   UNL A   1      37.342  33.683  33.168  1.00  0.00     0.029 A 
ATOM     49  N   UNL A   1      39.047  32.245  33.327  1.00  0.00    -0.354 N 
ATOM     50  C   UNL A   1      39.834  29.378  30.181  1.00  0.00     0.074 A 
ATOM     51  C   UNL A   1      38.868  29.517  29.110  1.00  0.00     0.031 C 
ATOM     52  C   UNL A   1      37.924  33.878  34.362  1.00  0.00     0.029 A 
ATOM     53  C   UNL A   1      39.026  32.933  34.516  1.00  0.00     0.049 A 
ATOM     54  H   UNL A   1      39.709  31.547  33.120  1.00  0.00     0.167 HD
ATOM     55  C   UNL A   1      40.843  28.470  30.196  1.00  0.00     0.034 A 
ATOM     56  C   UNL A   1      39.796  32.810  35.615  1.00  0.00     0.034 A 
ATOM     57  C   UNL A   1      41.800  28.353  31.271  1.00  0.00     0.049 A 
ATOM     58  C   UNL A   1      40.908  31.796  35.617  1.00  0.00     0.074 A 
ATOM     59  C   UNL A   1      42.904  27.524  31.358  1.00  0.00     0.029 A 
ATOM     60  N   UNL A   1      41.758  29.079  32.456  1.00  0.00    -0.354 N 
ATOM     61  N   UNL A   1      41.234  30.927  34.688  1.00  0.00    -0.248 NA
ATOM     62  C   UNL A   1      41.764  31.755  36.808  1.00  0.00     0.031 C 
ATOM     63  C   UNL A   1      43.486  27.697  32.620  1.00  0.00     0.029 A 
ATOM     64  C   UNL A   1      42.794  28.691  33.293  1.00  0.00     0.049 A 
ATOM     65  H   UNL A   1      41.091  29.771  32.669  1.00  0.00     0.167 HD
ATOM     66  C   UNL A   1      42.347  30.249  35.176  1.00  0.00     0.074 A 
ATOM     67  C   UNL A   1      42.644  30.821  36.474  1.00  0.00     0.031 C 
ATOM     68  C   UNL A   1      43.063  29.249  34.599  1.00  0.00     0.034 A 
BRANCH  55  69
ATOM     69  C   UNL A   1      40.929  27.517  29.024  1.00  0.00     0.023 A 
ATOM     70  C   UNL A   1      41.894  27.674  28.012  1.00  0.00     0.031 A 
ATOM     71  C   UNL A   1      39.996  26.475  28.881  1.00  0.00     0.131 A 
ATOM     72  C   UNL A   1      41.838  26.877  26.859  1.00  0.00     0.055 A 
ATOM     73  C   UNL A   1      40.007  25.623  27.773  1.00  0.00     0.041 A 
ATOM     74  F   UNL A   1      39.038  26.282  29.801  1.00  0.00    -0.206 F 
ATOM     75  C   UNL A   1      40.917  25.836  26.743  1.00  0.00     0.022 A 
BRANCH  72  76
ATOM     76  S   UNL A   1      42.862  27.348  25.436  1.00  0.00     0.124 S 
ATOM     77  O   UNL A   1      42.880  26.108  24.662  1.00  0.00    -0.237 OA
ATOM     78  O   UNL A   1      42.107  28.453  24.857  1.00  0.00    -0.237 OA
ATOM     79  O   UNL A   1      44.141  27.713  26.041  1.00  0.00    -0.744 OA
ENDBRANCH  72  76
ENDBRANCH  55  69
BRANCH  56  80
ATOM     80  C   UNL A   1      39.532  33.664  36.804  1.00  0.00     0.023 A 
ATOM     81  C   UNL A   1      38.875  33.154  37.934  1.00  0.00     0.031 A 
ATOM     82  C   UNL A   1      39.943  35.010  36.828  1.00  0.00     0.131 A 
ATOM     83  C   UNL A   1      38.624  33.992  39.033  1.00  0.00     0.055 A 
ATOM     84  C   UNL A   1      39.728  35.828  37.938  1.00  0.00     0.041 A 
ATOM     85  F   UNL A   1      40.587  35.539  35.776  1.00  0.00    -0.206 F 
ATOM     86  C   UNL A   1      39.058  35.321  39.047  1.00  0.00     0.022 A 
BRANCH  83  87
ATOM     87  S   UNL A   1      37.687  33.330  40.438  1.00  0.00     0.124 S 
ATOM     88  O   UNL A   1      38.605  32.322  40.957  1.00  0.00    -0.237 OA
ATOM     89  O   UNL A   1      37.502  34.517  41.265  1.00  0.00    -0.237 OA
ATOM     90  O   UNL A   1      36.470  32.809  39.820  1.00  0.00    -0.744 OA
ENDBRANCH  83  87
ENDBRANCH  56  80
BRANCH  68  91
ATOM     91  C   UNL A   1      44.257  28.734  35.366  1.00  0.00     0.023 A 
ATOM     92  C   UNL A   1      44.141  27.687  36.298  1.00  0.00     0.031 A 
ATOM     93  C   UNL A   1      45.527  29.306  35.168  1.00  0.00     0.131 A 
ATOM     94  C   UNL A   1      45.264  27.282  37.036  1.00  0.00     0.055 A 
ATOM     95  C   UNL A   1      46.650  28.859  35.862  1.00  0.00     0.041 A 
ATOM     96  F   UNL A   1      45.693  30.310  34.292  1.00  0.00    -0.206 F 
ATOM     97  C   UNL A   1      46.521  27.849  36.812  1.00  0.00     0.022 A 
BRANCH  94  98
ATOM     98  S   UNL A   1      45.043  26.060  38.359  1.00  0.00     0.124 S 
ATOM     99  O   UNL A   1      44.384  26.851  39.394  1.00  0.00    -0.237 OA
ATOM    100  O   UNL A   1      44.221  25.044  37.712  1.00  0.00    -0.237 OA
ATOM    101  O   UNL A   1      46.409  25.644  38.673  1.00  0.00    -0.744 OA
ENDBRANCH  94  98
ENDBRANCH  68  91
ENDBRANCH  42  43
ENDBRANCH  34  37
ENDBRANCH  32  33
ENDBRANCH  31  32
ENDBRANCH  30  31
ENDBRANCH   1  30
TORSDOF 20
ENDMDL
MODEL 3
REMARK VINA RESULT:     -11.5      1.571      2.269
REMARK SMILES NS(=O)(=O)c1ccc(N2N=C(C(=O)NCCCCCCNC(=O)c3ccc(-c4c5nc(c(-c6cc(S(=O)(=O)[O-])ccc6F)c6ccc([nH]6)c(-c6cc(S(=O)(=O)[O-])ccc6F)c6nc(c(-c7cc(S(=O)(=O)[O-])ccc7F)c7ccc4[nH]7)C=C6)C=C5)cc3)C[C@H]2c2cccs2)cc1
REMARK SMILES IDX 17 1 16 2 15 3 14 4 12 5 13 6 11 8 9 9 10 10 88 11 87 12
REMARK SMILES IDX 8 13 5 14 6 15 95 16 7 17 94 18 2 19 3 20 4 21 1 22 89 25
REMARK SMILES IDX 90 26 93 27 91 28 92 29 18 30 19 31 20 32 21 33 22 34 23 36
REMARK SMILES IDX 24 37 25 38 86 39 26 40 85 41 27 42 28 43 29 44 79 45 30 46
REMARK SMILES IDX 84 47 78 48 80 49 31 50 83 51 77 52 76 53 32 55 64 56 44 57
REMARK SMILES IDX 63 58 45 59 48 60 62 61 81 62 46 63 47 64 61 66 82 67 49 68
REMARK SMILES IDX 33 69 34 70 42 71 35 72 41 73 43 74 40 75 36 76 37 77 38 78
REMARK SMILES IDX 39 79 65 80 66 81 74 82 67 83 73 84 75 85 72 86 68 87 69 88
REMARK SMILES IDX 70 89 71 90 50 91 51 92 59 93 52 94 58 95 60 96 57 97 53 98
REMARK SMILES IDX 54 99 55 100 56 101
REMARK H PARENT 14 7 1 23 1 24 21 35 80 54 48 65
REMARK Flexibility Score: inf
ROOT
ATOM      1  C   UNL A   1      30.962  28.993  24.407  1.00  0.00     0.002 C 
ENDROOT
BRANCH   1   2
ATOM      2  C   UNL A   1      31.259  28.512  22.985  1.00  0.00     0.021 C 
BRANCH   2   3
ATOM      3  C   UNL A   1      32.717  28.162  22.703  1.00  0.00     0.116 C 
BRANCH   3   4
ATOM      4  N   UNL A   1      32.845  27.268  21.569  1.00  0.00    -0.351 N 
ATOM      5  C   UNL A   1      32.980  25.909  21.436  1.00  0.00     0.267 C 
ATOM      6  O   UNL A   1      33.114  25.464  20.298  1.00  0.00    -0.268 OA
ATOM      7  H   UNL A   1      32.831  27.739  20.705  1.00  0.00     0.163 HD
BRANCH   5   8
ATOM      8  C   UNL A   1      32.940  24.924  22.598  1.00  0.00     0.128 C 
ATOM      9  N   UNL A   1      32.712  23.042  23.587  1.00  0.00    -0.256 N 
ATOM     10  N   UNL A   1      32.901  23.643  22.379  1.00  0.00    -0.171 NA
ATOM     11  C   UNL A   1      32.693  23.979  24.713  1.00  0.00     0.154 C 
ATOM     12  C   UNL A   1      32.975  25.323  24.035  1.00  0.00     0.097 C 
BRANCH   9  13
ATOM     13  C   UNL A   1      33.032  21.699  23.776  1.00  0.00     0.060 A 
ATOM     14  C   UNL A   1      33.591  18.979  24.228  1.00  0.00     0.082 A 
ATOM     15  C   UNL A   1      34.389  19.959  24.821  1.00  0.00     0.024 A 
ATOM     16  C   UNL A   1      32.541  19.341  23.385  1.00  0.00     0.024 A 
ATOM     17  C   UNL A   1      34.114  21.310  24.579  1.00  0.00     0.029 A 
ATOM     18  C   UNL A   1      32.266  20.691  23.171  1.00  0.00     0.029 A 
BRANCH  14  19
ATOM     19  S   UNL A   1      33.899  17.261  24.487  1.00  0.00     0.238 S 
ATOM     20  O   UNL A   1      32.849  16.721  25.325  1.00  0.00    -0.207 OA
ATOM     21  O   UNL A   1      35.298  17.085  24.784  1.00  0.00    -0.207 OA
BRANCH  19  22
ATOM     22  N   UNL A   1      33.655  16.555  22.981  1.00  0.00    -0.225 NA
ATOM     23  H   UNL A   1      33.445  15.563  23.101  1.00  0.00     0.137 HD
ATOM     24  H   UNL A   1      34.497  16.658  22.416  1.00  0.00     0.137 HD
ENDBRANCH  19  22
ENDBRANCH  14  19
ENDBRANCH   9  13
BRANCH  11  25
ATOM     25  C   UNL A   1      31.452  23.990  25.579  1.00  0.00     0.030 A 
ATOM     26  C   UNL A   1      30.578  25.048  25.767  1.00  0.00     0.017 A 
ATOM     27  S   UNL A   1      30.973  22.630  26.515  1.00  0.00    -0.147 S 
ATOM     28  C   UNL A   1      29.498  24.722  26.635  1.00  0.00     0.012 A 
ATOM     29  C   UNL A   1      29.568  23.422  27.076  1.00  0.00     0.065 A 
ENDBRANCH  11  25
ENDBRANCH   5   8
ENDBRANCH   3   4
ENDBRANCH   2   3
ENDBRANCH   1   2
BRANCH   1  30
ATOM     30  C   UNL A   1      31.794  28.342  25.517  1.00  0.00     0.002 C 
BRANCH  30  31
ATOM     31  C   UNL A   1      32.027  29.194  26.768  1.00  0.00     0.021 C 
BRANCH  31  32
ATOM     32  C   UNL A   1      33.447  29.721  26.951  1.00  0.00     0.116 C 
BRANCH  32  33
ATOM     33  N   UNL A   1      33.476  31.112  27.361  1.00  0.00    -0.352 N 
ATOM     34  C   UNL A   1      34.377  31.765  28.167  1.00  0.00     0.251 C 
ATOM     35  H   UNL A   1      32.744  31.670  27.010  1.00  0.00     0.163 HD
ATOM     36  O   UNL A   1      34.141  32.913  28.533  1.00  0.00    -0.269 OA
BRANCH  34  37
ATOM     37  C   UNL A   1      35.609  31.077  28.616  1.00  0.00     0.039 A 
ATOM     38  C   UNL A   1      36.843  31.532  28.144  1.00  0.00     0.014 A 
ATOM     39  C   UNL A   1      35.553  29.984  29.486  1.00  0.00     0.014 A 
ATOM     40  C   UNL A   1      38.023  30.929  28.589  1.00  0.00     0.010 A 
ATOM     41  C   UNL A   1      36.731  29.427  29.980  1.00  0.00     0.010 A 
ATOM     42  C   UNL A   1      37.978  29.891  29.533  1.00  0.00    -0.014 A 
BRANCH  42  43
ATOM     43  C   UNL A   1      39.225  29.278  30.061  1.00  0.00     0.031 A 
ATOM     44  C   UNL A   1      39.905  29.864  31.268  1.00  0.00     0.074 A 
ATOM     45  C   UNL A   1      39.783  28.237  29.411  1.00  0.00     0.049 A 
ATOM     46  N   UNL A   1      41.035  29.521  31.833  1.00  0.00    -0.248 NA
ATOM     47  C   UNL A   1      39.242  31.015  31.897  1.00  0.00     0.031 C 
ATOM     48  C   UNL A   1      39.247  27.615  28.199  1.00  0.00     0.029 A 
ATOM     49  N   UNL A   1      40.931  27.531  29.668  1.00  0.00    -0.354 N 
ATOM     50  C   UNL A   1      41.226  30.422  32.875  1.00  0.00     0.074 A 
ATOM     51  C   UNL A   1      40.128  31.365  32.815  1.00  0.00     0.031 C 
ATOM     52  C   UNL A   1      40.059  26.613  27.825  1.00  0.00     0.029 A 
ATOM     53  C   UNL A   1      41.190  26.546  28.745  1.00  0.00     0.049 A 
ATOM     54  H   UNL A   1      41.514  27.713  30.440  1.00  0.00     0.167 HD
ATOM     55  C   UNL A   1      42.213  30.447  33.808  1.00  0.00     0.034 A 
ATOM     56  C   UNL A   1      42.228  25.693  28.640  1.00  0.00     0.034 A 
ATOM     57  C   UNL A   1      43.295  29.491  33.854  1.00  0.00     0.049 A 
ATOM     58  C   UNL A   1      43.316  25.736  29.679  1.00  0.00     0.074 A 
ATOM     59  C   UNL A   1      44.304  29.375  34.793  1.00  0.00     0.029 A 
ATOM     60  N   UNL A   1      43.517  28.495  32.910  1.00  0.00    -0.354 N 
ATOM     61  N   UNL A   1      43.451  26.551  30.700  1.00  0.00    -0.248 NA
ATOM     62  C   UNL A   1      44.384  24.736  29.560  1.00  0.00     0.031 C 
ATOM     63  C   UNL A   1      45.173  28.357  34.381  1.00  0.00     0.029 A 
ATOM     64  C   UNL A   1      44.667  27.785  33.225  1.00  0.00     0.049 A 
ATOM     65  H   UNL A   1      42.942  28.318  32.132  1.00  0.00     0.167 HD
ATOM     66  C   UNL A   1      44.609  26.148  31.358  1.00  0.00     0.074 A 
ATOM     67  C   UNL A   1      45.126  25.008  30.625  1.00  0.00     0.031 C 
ATOM     68  C   UNL A   1      45.188  26.668  32.470  1.00  0.00     0.034 A 
BRANCH  55  69
ATOM     69  C   UNL A   1      42.172  31.566  34.824  1.00  0.00     0.023 A 
ATOM     70  C   UNL A   1      41.262  31.557  35.898  1.00  0.00     0.031 A 
ATOM     71  C   UNL A   1      43.008  32.688  34.686  1.00  0.00     0.131 A 
ATOM     72  C   UNL A   1      41.136  32.686  36.721  1.00  0.00     0.055 A 
ATOM     73  C   UNL A   1      42.944  33.769  35.569  1.00  0.00     0.041 A 
ATOM     74  F   UNL A   1      43.885  32.767  33.673  1.00  0.00    -0.206 F 
ATOM     75  C   UNL A   1      41.988  33.783  36.580  1.00  0.00     0.022 A 
BRANCH  72  76
ATOM     76  S   UNL A   1      39.719  32.775  37.851  1.00  0.00     0.124 S 
ATOM     77  O   UNL A   1      38.892  31.668  37.373  1.00  0.00    -0.237 OA
ATOM     78  O   UNL A   1      40.344  32.590  39.155  1.00  0.00    -0.237 OA
ATOM     79  O   UNL A   1      39.167  34.105  37.603  1.00  0.00    -0.744 OA
ENDBRANCH  72  76
ENDBRANCH  55  69
BRANCH  56  80
ATOM     80  C   UNL A   1      42.289  24.737  27.501  1.00  0.00     0.023 A 
ATOM     81  C   UNL A   1      41.570  23.533  27.524  1.00  0.00     0.031 A 
ATOM     82  C   UNL A   1      43.066  25.024  26.364  1.00  0.00     0.131 A 
ATOM     83  C   UNL A   1      41.663  22.643  26.441  1.00  0.00     0.055 A 
ATOM     84  C   UNL A   1      43.124  24.156  25.272  1.00  0.00     0.041 A 
ATOM     85  F   UNL A   1      43.760  26.170  26.290  1.00  0.00    -0.206 F 
ATOM     86  C   UNL A   1      42.425  22.954  25.310  1.00  0.00     0.022 A 
BRANCH  83  87
ATOM     87  S   UNL A   1      40.801  21.052  26.543  1.00  0.00     0.124 S 
ATOM     88  O   UNL A   1      41.668  20.193  25.745  1.00  0.00    -0.237 OA
ATOM     89  O   UNL A   1      40.796  20.801  27.981  1.00  0.00    -0.237 OA
ATOM     90  O   UNL A   1      39.492  21.336  25.959  1.00  0.00    -0.744 OA
ENDBRANCH  83  87
ENDBRANCH  56  80
BRANCH  68  91
ATOM     91  C   UNL A   1      46.436  25.983  32.974  1.00  0.00     0.023 A 
ATOM     92  C   UNL A   1      46.373  24.842  33.793  1.00  0.00     0.031 A 
ATOM     93  C   UNL A   1      47.706  26.488  32.639  1.00  0.00     0.131 A 
ATOM     94  C   UNL A   1      47.556  24.274  34.292  1.00  0.00     0.055 A 
ATOM     95  C   UNL A   1      48.879  25.884  33.091  1.00  0.00     0.041 A 
ATOM     96  F   UNL A   1      47.823  27.577  31.862  1.00  0.00    -0.206 F 
ATOM     97  C   UNL A   1      48.808  24.778  33.932  1.00  0.00     0.022 A 
BRANCH  94  98
ATOM     98  S   UNL A   1      47.434  22.919  35.492  1.00  0.00     0.124 S 
ATOM     99  O   UNL A   1      48.110  23.484  36.656  1.00  0.00    -0.237 OA
ATOM    100  O   UNL A   1      45.992  22.740  35.616  1.00  0.00    -0.237 OA
ATOM    101  O   UNL A   1      48.141  21.818  34.839  1.00  0.00    -0.744 OA
ENDBRANCH  94  98
ENDBRANCH  68  91
ENDBRANCH  42  43
ENDBRANCH  34  37
ENDBRANCH  32  33
ENDBRANCH  31  32
ENDBRANCH  30  31
ENDBRANCH   1  30
TORSDOF 20
ENDMDL
