MODEL 1
REMARK VINA RESULT:     -11.4      0.000      0.000
REMARK SMILES Cc1ccc(C)c([C@@H](O)[C@@H](C)[C@@H](C)C(=O)NCCCCCCNC(=O)c2ccc(-c3c4nc(c(-c5cc(S(=O)(=O)[O-])ccc5F)c5ccc([nH]5)c(-c5cc(S(=O)(=O)[O-])ccc5F)c5nc(c(-c6cc(S(=O)(=O)[O-])ccc6F)c6ccc3[nH]6)C=C5)C=C4)cc2)c1
REMARK SMILES IDX 19 1 18 2 17 3 16 4 14 5 15 6 12 8 13 9 10 10 11 11 8 12
REMARK SMILES IDX 7 13 1 14 2 15 3 16 89 17 4 18 5 19 6 20 9 21 20 23 21 24
REMARK SMILES IDX 22 25 23 26 24 27 25 29 26 30 27 31 88 32 28 33 87 34 29 35
REMARK SMILES IDX 30 36 31 37 81 38 32 39 86 40 80 41 82 42 33 43 85 44 79 45
REMARK SMILES IDX 78 46 34 48 66 49 46 50 65 51 47 52 50 53 64 54 83 55 48 56
REMARK SMILES IDX 49 57 63 59 84 60 51 61 35 62 36 63 44 64 37 65 43 66 45 67
REMARK SMILES IDX 42 68 38 69 39 70 40 71 41 72 67 73 68 74 76 75 69 76 75 77
REMARK SMILES IDX 77 78 74 79 70 80 71 81 72 82 73 83 52 84 53 85 61 86 54 87
REMARK SMILES IDX 60 88 62 89 59 90 55 91 56 92 57 93 58 94
REMARK H PARENT 16 7 9 22 23 28 82 47 50 58
REMARK Flexibility Score: inf
ROOT
ATOM      1  C   UNL A   1      32.190  29.316  24.970  1.00  0.00     0.002 C 
ENDROOT
BRANCH   1   2
ATOM      2  C   UNL A   1      31.007  28.973  24.062  1.00  0.00     0.021 C 
BRANCH   2   3
ATOM      3  C   UNL A   1      30.812  27.474  23.837  1.00  0.00     0.116 C 
BRANCH   3   4
ATOM      4  N   UNL A   1      30.170  26.835  24.971  1.00  0.00    -0.356 N 
ATOM      5  C   UNL A   1      30.405  25.646  25.589  1.00  0.00     0.223 C 
ATOM      6  O   UNL A   1      29.728  25.380  26.587  1.00  0.00    -0.275 OA
ATOM      7  H   UNL A   1      29.431  27.355  25.363  1.00  0.00     0.163 HD
BRANCH   5   8
ATOM      8  C   UNL A   1      31.499  24.683  25.122  1.00  0.00     0.081 C 
ATOM      9  C   UNL A   1      30.834  23.352  24.758  1.00  0.00     0.018 C 
BRANCH   8  10
ATOM     10  C   UNL A   1      32.727  24.660  26.084  1.00  0.00     0.031 C 
ATOM     11  C   UNL A   1      33.685  25.810  25.707  1.00  0.00     0.011 C 
BRANCH  10  12
ATOM     12  C   UNL A   1      33.506  23.315  26.137  1.00  0.00     0.148 C 
BRANCH  12  13
ATOM     13  C   UNL A   1      34.859  23.326  25.428  1.00  0.00    -0.016 A 
ATOM     14  C   UNL A   1      38.494  23.953  26.479  1.00  0.00     0.044 C 
ATOM     15  C   UNL A   1      37.289  23.620  25.648  1.00  0.00    -0.051 A 
ATOM     16  C   UNL A   1      37.440  23.341  24.292  1.00  0.00     0.004 A 
ATOM     17  C   UNL A   1      36.003  23.610  26.206  1.00  0.00     0.010 A 
ATOM     18  C   UNL A   1      36.323  23.081  23.502  1.00  0.00     0.004 A 
ATOM     19  C   UNL A   1      35.026  23.104  24.042  1.00  0.00    -0.045 A 
ATOM     20  C   UNL A   1      33.899  22.847  23.079  1.00  0.00     0.045 C 
ENDBRANCH  12  13
BRANCH  12  21
ATOM     21  O   UNL A   1      33.742  22.874  27.475  1.00  0.00    -0.388 OA
ATOM     22  H   UNL A   1      33.667  23.627  28.081  1.00  0.00     0.211 HD
ENDBRANCH  12  21
ENDBRANCH  10  12
ENDBRANCH   8  10
ENDBRANCH   5   8
ENDBRANCH   3   4
ENDBRANCH   2   3
ENDBRANCH   1   2
BRANCH   1  23
ATOM     23  C   UNL A   1      31.973  30.445  25.989  1.00  0.00     0.002 C 
BRANCH  23  24
ATOM     24  C   UNL A   1      32.787  30.462  27.295  1.00  0.00     0.021 C 
BRANCH  24  25
ATOM     25  C   UNL A   1      34.307  30.630  27.225  1.00  0.00     0.116 C 
BRANCH  25  26
ATOM     26  N   UNL A   1      34.796  31.845  27.883  1.00  0.00    -0.352 N 
ATOM     27  C   UNL A   1      35.785  32.092  28.825  1.00  0.00     0.251 C 
ATOM     28  H   UNL A   1      34.322  32.659  27.597  1.00  0.00     0.163 HD
ATOM     29  O   UNL A   1      35.743  33.141  29.452  1.00  0.00    -0.269 OA
BRANCH  27  30
ATOM     30  C   UNL A   1      36.883  31.124  29.076  1.00  0.00     0.039 A 
ATOM     31  C   UNL A   1      36.696  29.735  29.042  1.00  0.00     0.014 A 
ATOM     32  C   UNL A   1      38.135  31.611  29.403  1.00  0.00     0.014 A 
ATOM     33  C   UNL A   1      37.774  28.893  29.352  1.00  0.00     0.010 A 
ATOM     34  C   UNL A   1      39.234  30.812  29.458  1.00  0.00     0.010 A 
ATOM     35  C   UNL A   1      39.038  29.454  29.575  1.00  0.00    -0.014 A 
BRANCH  35  36
ATOM     36  C   UNL A   1      40.249  28.698  29.836  1.00  0.00     0.031 A 
ATOM     37  C   UNL A   1      40.512  28.504  31.268  1.00  0.00     0.074 A 
ATOM     38  C   UNL A   1      40.863  27.927  28.911  1.00  0.00     0.049 A 
ATOM     39  N   UNL A   1      41.335  29.176  31.997  1.00  0.00    -0.248 NA
ATOM     40  C   UNL A   1      39.607  27.628  32.030  1.00  0.00     0.031 C 
ATOM     41  C   UNL A   1      40.484  27.722  27.511  1.00  0.00     0.029 A 
ATOM     42  N   UNL A   1      41.903  27.061  29.075  1.00  0.00    -0.354 N 
ATOM     43  C   UNL A   1      41.265  28.582  33.244  1.00  0.00     0.074 A 
ATOM     44  C   UNL A   1      39.995  27.910  33.276  1.00  0.00     0.031 C 
ATOM     45  C   UNL A   1      41.172  26.673  27.008  1.00  0.00     0.029 A 
ATOM     46  C   UNL A   1      42.114  26.192  28.005  1.00  0.00     0.049 A 
ATOM     47  H   UNL A   1      42.462  27.051  29.885  1.00  0.00     0.167 HD
ATOM     48  C   UNL A   1      42.388  28.407  33.995  1.00  0.00     0.034 A 
ATOM     49  C   UNL A   1      42.986  25.145  27.955  1.00  0.00     0.034 A 
ATOM     50  C   UNL A   1      43.511  29.125  33.408  1.00  0.00     0.049 A 
ATOM     51  C   UNL A   1      44.032  25.432  28.976  1.00  0.00     0.074 A 
ATOM     52  C   UNL A   1      43.717  30.432  33.000  1.00  0.00     0.029 A 
ATOM     53  N   UNL A   1      44.491  28.386  32.773  1.00  0.00    -0.354 N 
ATOM     54  N   UNL A   1      44.874  26.424  28.880  1.00  0.00    -0.248 NA
ATOM     55  C   UNL A   1      43.857  24.912  30.327  1.00  0.00     0.031 C 
ATOM     56  C   UNL A   1      44.463  30.331  31.788  1.00  0.00     0.029 A 
ATOM     57  C   UNL A   1      44.762  28.987  31.566  1.00  0.00     0.049 A 
ATOM     58  H   UNL A   1      44.920  27.572  33.124  1.00  0.00     0.167 HD
ATOM     59  C   UNL A   1      44.969  26.942  30.162  1.00  0.00     0.074 A 
ATOM     60  C   UNL A   1      44.431  25.894  31.028  1.00  0.00     0.031 C 
ATOM     61  C   UNL A   1      45.187  28.275  30.371  1.00  0.00     0.034 A 
BRANCH  48  62
ATOM     62  C   UNL A   1      42.596  27.304  35.014  1.00  0.00     0.023 A 
ATOM     63  C   UNL A   1      43.419  26.238  34.610  1.00  0.00     0.031 A 
ATOM     64  C   UNL A   1      41.876  27.094  36.212  1.00  0.00     0.131 A 
ATOM     65  C   UNL A   1      43.398  25.009  35.286  1.00  0.00     0.055 A 
ATOM     66  C   UNL A   1      41.920  25.894  36.929  1.00  0.00     0.041 A 
ATOM     67  F   UNL A   1      41.028  27.986  36.730  1.00  0.00    -0.206 F 
ATOM     68  C   UNL A   1      42.653  24.827  36.445  1.00  0.00     0.022 A 
BRANCH  65  69
ATOM     69  S   UNL A   1      44.216  23.603  34.501  1.00  0.00     0.124 S 
ATOM     70  O   UNL A   1      45.349  24.257  33.854  1.00  0.00    -0.237 OA
ATOM     71  O   UNL A   1      44.527  22.759  35.650  1.00  0.00    -0.237 OA
ATOM     72  O   UNL A   1      43.193  23.079  33.599  1.00  0.00    -0.744 OA
ENDBRANCH  65  69
ENDBRANCH  48  62
BRANCH  49  73
ATOM     73  C   UNL A   1      42.938  23.884  27.158  1.00  0.00     0.023 A 
ATOM     74  C   UNL A   1      43.870  23.608  26.130  1.00  0.00     0.031 A 
ATOM     75  C   UNL A   1      42.103  22.808  27.538  1.00  0.00     0.131 A 
ATOM     76  C   UNL A   1      43.938  22.324  25.538  1.00  0.00     0.055 A 
ATOM     77  C   UNL A   1      42.149  21.553  26.924  1.00  0.00     0.041 A 
ATOM     78  F   UNL A   1      41.271  22.900  28.585  1.00  0.00    -0.206 F 
ATOM     79  C   UNL A   1      43.075  21.300  25.929  1.00  0.00     0.022 A 
BRANCH  76  80
ATOM     80  S   UNL A   1      45.266  21.881  24.370  1.00  0.00     0.124 S 
ATOM     81  O   UNL A   1      44.656  20.799  23.606  1.00  0.00    -0.237 OA
ATOM     82  O   UNL A   1      45.507  23.128  23.653  1.00  0.00    -0.237 OA
ATOM     83  O   UNL A   1      46.356  21.473  25.259  1.00  0.00    -0.744 OA
ENDBRANCH  76  80
ENDBRANCH  49  73
BRANCH  61  84
ATOM     84  C   UNL A   1      45.688  29.119  29.212  1.00  0.00     0.023 A 
ATOM     85  C   UNL A   1      44.888  29.991  28.440  1.00  0.00     0.031 A 
ATOM     86  C   UNL A   1      47.073  29.120  28.963  1.00  0.00     0.131 A 
ATOM     87  C   UNL A   1      45.479  30.807  27.454  1.00  0.00     0.055 A 
ATOM     88  C   UNL A   1      47.658  29.947  28.005  1.00  0.00     0.041 A 
ATOM     89  F   UNL A   1      47.895  28.333  29.679  1.00  0.00    -0.206 F 
ATOM     90  C   UNL A   1      46.861  30.791  27.241  1.00  0.00     0.022 A 
BRANCH  87  91
ATOM     91  S   UNL A   1      44.453  31.900  26.420  1.00  0.00     0.124 S 
ATOM     92  O   UNL A   1      45.361  32.315  25.357  1.00  0.00    -0.237 OA
ATOM     93  O   UNL A   1      43.357  31.021  26.020  1.00  0.00    -0.237 OA
ATOM     94  O   UNL A   1      44.064  32.973  27.339  1.00  0.00    -0.744 OA
ENDBRANCH  87  91
ENDBRANCH  61  84
ENDBRANCH  35  36
ENDBRANCH  27  30
ENDBRANCH  25  26
ENDBRANCH  24  25
ENDBRANCH  23  24
ENDBRANCH   1  23
TORSDOF 20
ENDMDL
MODEL 2
REMARK VINA RESULT:     -11.2      2.523      7.343
REMARK SMILES Cc1ccc(C)c([C@@H](O)[C@@H](C)[C@@H](C)C(=O)NCCCCCCNC(=O)c2ccc(-c3c4nc(c(-c5cc(S(=O)(=O)[O-])ccc5F)c5ccc([nH]5)c(-c5cc(S(=O)(=O)[O-])ccc5F)c5nc(c(-c6cc(S(=O)(=O)[O-])ccc6F)c6ccc3[nH]6)C=C5)C=C4)cc2)c1
REMARK SMILES IDX 19 1 18 2 17 3 16 4 14 5 15 6 12 8 13 9 10 10 11 11 8 12
REMARK SMILES IDX 7 13 1 14 2 15 3 16 89 17 4 18 5 19 6 20 9 21 20 23 21 24
REMARK SMILES IDX 22 25 23 26 24 27 25 29 26 30 27 31 88 32 28 33 87 34 29 35
REMARK SMILES IDX 30 36 31 37 81 38 32 39 86 40 80 41 82 42 33 43 85 44 79 45
REMARK SMILES IDX 78 46 34 48 66 49 46 50 65 51 47 52 50 53 64 54 83 55 48 56
REMARK SMILES IDX 49 57 63 59 84 60 51 61 35 62 36 63 44 64 37 65 43 66 45 67
REMARK SMILES IDX 42 68 38 69 39 70 40 71 41 72 67 73 68 74 76 75 69 76 75 77
REMARK SMILES IDX 77 78 74 79 70 80 71 81 72 82 73 83 52 84 53 85 61 86 54 87
REMARK SMILES IDX 60 88 62 89 59 90 55 91 56 92 57 93 58 94
REMARK H PARENT 16 7 9 22 23 28 82 47 50 58
REMARK Flexibility Score: inf
ROOT
ATOM      1  C   UNL A   1      31.894  28.638  26.327  1.00  0.00     0.002 C 
ENDROOT
BRANCH   1   2
ATOM      2  C   UNL A   1      31.150  28.606  24.990  1.00  0.00     0.021 C 
BRANCH   2   3
ATOM      3  C   UNL A   1      30.926  27.199  24.439  1.00  0.00     0.116 C 
BRANCH   3   4
ATOM      4  N   UNL A   1      30.625  26.246  25.491  1.00  0.00    -0.356 N 
ATOM      5  C   UNL A   1      31.232  25.085  25.857  1.00  0.00     0.223 C 
ATOM      6  O   UNL A   1      30.785  24.497  26.847  1.00  0.00    -0.275 OA
ATOM      7  H   UNL A   1      29.840  26.481  26.036  1.00  0.00     0.163 HD
BRANCH   5   8
ATOM      8  C   UNL A   1      32.459  24.536  25.125  1.00  0.00     0.081 C 
ATOM      9  C   UNL A   1      33.673  25.367  25.548  1.00  0.00     0.018 C 
BRANCH   8  10
ATOM     10  C   UNL A   1      32.201  24.321  23.601  1.00  0.00     0.031 C 
ATOM     11  C   UNL A   1      30.829  23.638  23.414  1.00  0.00     0.011 C 
BRANCH  10  12
ATOM     12  C   UNL A   1      33.300  23.520  22.846  1.00  0.00     0.148 C 
BRANCH  12  13
ATOM     13  C   UNL A   1      33.891  22.347  23.624  1.00  0.00    -0.016 A 
ATOM     14  C   UNL A   1      32.577  18.989  24.930  1.00  0.00     0.044 C 
ATOM     15  C   UNL A   1      33.499  20.127  24.602  1.00  0.00    -0.051 A 
ATOM     16  C   UNL A   1      34.830  20.077  25.010  1.00  0.00     0.004 A 
ATOM     17  C   UNL A   1      33.040  21.258  23.914  1.00  0.00     0.010 A 
ATOM     18  C   UNL A   1      35.681  21.150  24.756  1.00  0.00     0.004 A 
ATOM     19  C   UNL A   1      35.223  22.305  24.098  1.00  0.00    -0.045 A 
ATOM     20  C   UNL A   1      36.226  23.411  23.918  1.00  0.00     0.045 C 
ENDBRANCH  12  13
BRANCH  12  21
ATOM     21  O   UNL A   1      32.836  23.001  21.600  1.00  0.00    -0.388 OA
ATOM     22  H   UNL A   1      32.689  22.046  21.682  1.00  0.00     0.211 HD
ENDBRANCH  12  21
ENDBRANCH  10  12
ENDBRANCH   8  10
ENDBRANCH   5   8
ENDBRANCH   3   4
ENDBRANCH   2   3
ENDBRANCH   1   2
BRANCH   1  23
ATOM     23  C   UNL A   1      33.418  28.812  26.264  1.00  0.00     0.002 C 
BRANCH  23  24
ATOM     24  C   UNL A   1      34.098  29.909  27.103  1.00  0.00     0.021 C 
BRANCH  24  25
ATOM     25  C   UNL A   1      35.514  29.673  27.635  1.00  0.00     0.116 C 
BRANCH  25  26
ATOM     26  N   UNL A   1      35.625  29.799  29.091  1.00  0.00    -0.352 N 
ATOM     27  C   UNL A   1      36.575  29.392  30.018  1.00  0.00     0.251 C 
ATOM     28  H   UNL A   1      34.864  30.272  29.498  1.00  0.00     0.163 HD
ATOM     29  O   UNL A   1      36.247  29.320  31.193  1.00  0.00    -0.269 OA
BRANCH  27  30
ATOM     30  C   UNL A   1      37.964  29.056  29.615  1.00  0.00     0.039 A 
ATOM     31  C   UNL A   1      38.614  29.670  28.535  1.00  0.00     0.014 A 
ATOM     32  C   UNL A   1      38.632  28.062  30.305  1.00  0.00     0.014 A 
ATOM     33  C   UNL A   1      39.905  29.248  28.185  1.00  0.00     0.010 A 
ATOM     34  C   UNL A   1      39.960  27.825  30.133  1.00  0.00     0.010 A 
ATOM     35  C   UNL A   1      40.559  28.308  28.991  1.00  0.00    -0.014 A 
BRANCH  35  36
ATOM     36  C   UNL A   1      41.916  27.836  28.786  1.00  0.00     0.031 A 
ATOM     37  C   UNL A   1      41.988  26.629  27.951  1.00  0.00     0.074 A 
ATOM     38  C   UNL A   1      43.012  28.600  28.990  1.00  0.00     0.049 A 
ATOM     39  N   UNL A   1      42.130  25.417  28.364  1.00  0.00    -0.248 NA
ATOM     40  C   UNL A   1      41.640  26.745  26.526  1.00  0.00     0.031 C 
ATOM     41  C   UNL A   1      43.071  29.984  29.470  1.00  0.00     0.029 A 
ATOM     42  N   UNL A   1      44.313  28.326  28.690  1.00  0.00    -0.354 N 
ATOM     43  C   UNL A   1      42.201  24.659  27.209  1.00  0.00     0.074 A 
ATOM     44  C   UNL A   1      41.570  25.454  26.192  1.00  0.00     0.031 C 
ATOM     45  C   UNL A   1      44.313  30.476  29.267  1.00  0.00     0.029 A 
ATOM     46  C   UNL A   1      45.169  29.425  28.742  1.00  0.00     0.049 A 
ATOM     47  H   UNL A   1      44.624  27.422  28.456  1.00  0.00     0.167 HD
ATOM     48  C   UNL A   1      43.067  23.611  27.116  1.00  0.00     0.034 A 
ATOM     49  C   UNL A   1      46.478  29.467  28.362  1.00  0.00     0.034 A 
ATOM     50  C   UNL A   1      43.650  23.316  28.417  1.00  0.00     0.049 A 
ATOM     51  C   UNL A   1      46.969  28.063  28.422  1.00  0.00     0.074 A 
ATOM     52  C   UNL A   1      43.131  23.064  29.675  1.00  0.00     0.029 A 
ATOM     53  N   UNL A   1      44.970  23.668  28.631  1.00  0.00    -0.354 N 
ATOM     54  N   UNL A   1      47.085  27.391  29.535  1.00  0.00    -0.248 NA
ATOM     55  C   UNL A   1      46.894  27.241  27.220  1.00  0.00     0.031 C 
ATOM     56  C   UNL A   1      43.995  23.750  30.580  1.00  0.00     0.029 A 
ATOM     57  C   UNL A   1      45.049  24.300  29.849  1.00  0.00     0.049 A 
ATOM     58  H   UNL A   1      45.720  23.497  28.018  1.00  0.00     0.167 HD
ATOM     59  C   UNL A   1      46.638  26.114  29.233  1.00  0.00     0.074 A 
ATOM     60  C   UNL A   1      46.664  26.046  27.774  1.00  0.00     0.031 C 
ATOM     61  C   UNL A   1      46.006  25.347  30.171  1.00  0.00     0.034 A 
BRANCH  48  62
ATOM     62  C   UNL A   1      43.692  23.106  25.831  1.00  0.00     0.023 A 
ATOM     63  C   UNL A   1      43.552  21.730  25.576  1.00  0.00     0.031 A 
ATOM     64  C   UNL A   1      44.599  23.789  24.989  1.00  0.00     0.131 A 
ATOM     65  C   UNL A   1      44.374  21.078  24.645  1.00  0.00     0.055 A 
ATOM     66  C   UNL A   1      45.358  23.148  24.006  1.00  0.00     0.041 A 
ATOM     67  F   UNL A   1      44.877  25.090  25.104  1.00  0.00    -0.206 F 
ATOM     68  C   UNL A   1      45.279  21.777  23.855  1.00  0.00     0.022 A 
BRANCH  65  69
ATOM     69  S   UNL A   1      44.363  19.271  24.633  1.00  0.00     0.124 S 
ATOM     70  O   UNL A   1      45.444  18.974  25.567  1.00  0.00    -0.237 OA
ATOM     71  O   UNL A   1      43.011  18.979  25.097  1.00  0.00    -0.237 OA
ATOM     72  O   UNL A   1      44.630  18.942  23.236  1.00  0.00    -0.744 OA
ENDBRANCH  65  69
ENDBRANCH  48  62
BRANCH  49  73
ATOM     73  C   UNL A   1      47.306  30.609  27.873  1.00  0.00     0.023 A 
ATOM     74  C   UNL A   1      46.765  31.637  27.064  1.00  0.00     0.031 A 
ATOM     75  C   UNL A   1      48.606  30.840  28.375  1.00  0.00     0.131 A 
ATOM     76  C   UNL A   1      47.507  32.812  26.793  1.00  0.00     0.055 A 
ATOM     77  C   UNL A   1      49.349  31.985  28.073  1.00  0.00     0.041 A 
ATOM     78  F   UNL A   1      49.178  30.007  29.256  1.00  0.00    -0.206 F 
ATOM     79  C   UNL A   1      48.799  32.983  27.290  1.00  0.00     0.022 A 
BRANCH  76  80
ATOM     80  S   UNL A   1      46.757  34.237  25.939  1.00  0.00     0.124 S 
ATOM     81  O   UNL A   1      45.514  33.671  25.428  1.00  0.00    -0.237 OA
ATOM     82  O   UNL A   1      46.631  35.231  26.998  1.00  0.00    -0.237 OA
ATOM     83  O   UNL A   1      47.753  34.563  24.916  1.00  0.00    -0.744 OA
ENDBRANCH  76  80
ENDBRANCH  49  73
BRANCH  61  84
ATOM     84  C   UNL A   1      46.120  25.745  31.632  1.00  0.00     0.023 A 
ATOM     85  C   UNL A   1      47.228  25.465  32.465  1.00  0.00     0.031 A 
ATOM     86  C   UNL A   1      45.098  26.552  32.164  1.00  0.00     0.131 A 
ATOM     87  C   UNL A   1      47.272  25.976  33.777  1.00  0.00     0.055 A 
ATOM     88  C   UNL A   1      45.157  27.077  33.455  1.00  0.00     0.041 A 
ATOM     89  F   UNL A   1      44.028  26.878  31.418  1.00  0.00    -0.206 F 
ATOM     90  C   UNL A   1      46.244  26.784  34.270  1.00  0.00     0.022 A 
BRANCH  87  91
ATOM     91  S   UNL A   1      48.671  25.583  34.876  1.00  0.00     0.124 S 
ATOM     92  O   UNL A   1      48.516  24.156  35.131  1.00  0.00    -0.237 OA
ATOM     93  O   UNL A   1      49.826  25.968  34.068  1.00  0.00    -0.237 OA
ATOM     94  O   UNL A   1      48.437  26.437  36.043  1.00  0.00    -0.744 OA
ENDBRANCH  87  91
ENDBRANCH  61  84
ENDBRANCH  35  36
ENDBRANCH  27  30
ENDBRANCH  25  26
ENDBRANCH  24  25
ENDBRANCH  23  24
ENDBRANCH   1  23
TORSDOF 20
ENDMDL
MODEL 3
REMARK VINA RESULT:     -11.1      3.640      7.578
REMARK SMILES Cc1ccc(C)c([C@@H](O)[C@@H](C)[C@@H](C)C(=O)NCCCCCCNC(=O)c2ccc(-c3c4nc(c(-c5cc(S(=O)(=O)[O-])ccc5F)c5ccc([nH]5)c(-c5cc(S(=O)(=O)[O-])ccc5F)c5nc(c(-c6cc(S(=O)(=O)[O-])ccc6F)c6ccc3[nH]6)C=C5)C=C4)cc2)c1
REMARK SMILES IDX 19 1 18 2 17 3 16 4 14 5 15 6 12 8 13 9 10 10 11 11 8 12
REMARK SMILES IDX 7 13 1 14 2 15 3 16 89 17 4 18 5 19 6 20 9 21 20 23 21 24
REMARK SMILES IDX 22 25 23 26 24 27 25 29 26 30 27 31 88 32 28 33 87 34 29 35
REMARK SMILES IDX 30 36 31 37 81 38 32 39 86 40 80 41 82 42 33 43 85 44 79 45
REMARK SMILES IDX 78 46 34 48 66 49 46 50 65 51 47 52 50 53 64 54 83 55 48 56
REMARK SMILES IDX 49 57 63 59 84 60 51 61 35 62 36 63 44 64 37 65 43 66 45 67
REMARK SMILES IDX 42 68 38 69 39 70 40 71 41 72 67 73 68 74 76 75 69 76 75 77
REMARK SMILES IDX 77 78 74 79 70 80 71 81 72 82 73 83 52 84 53 85 61 86 54 87
REMARK SMILES IDX 60 88 62 89 59 90 55 91 56 92 57 93 58 94
REMARK H PARENT 16 7 9 22 23 28 82 47 50 58
REMARK Flexibility Score: inf
ROOT
ATOM      1  C   UNL A   1      34.159  29.478  27.176  1.00  0.00     0.002 C 
ENDROOT
BRANCH   1   2
ATOM      2  C   UNL A   1      32.981  28.776  26.496  1.00  0.00     0.021 C 
BRANCH   2   3
ATOM      3  C   UNL A   1      32.743  29.220  25.053  1.00  0.00     0.116 C 
BRANCH   3   4
ATOM      4  N   UNL A   1      31.731  28.413  24.397  1.00  0.00    -0.356 N 
ATOM      5  C   UNL A   1      31.822  27.263  23.676  1.00  0.00     0.223 C 
ATOM      6  O   UNL A   1      30.768  26.756  23.279  1.00  0.00    -0.275 OA
ATOM      7  H   UNL A   1      30.815  28.761  24.489  1.00  0.00     0.163 HD
BRANCH   5   8
ATOM      8  C   UNL A   1      33.159  26.570  23.405  1.00  0.00     0.081 C 
ATOM      9  C   UNL A   1      33.564  26.873  21.960  1.00  0.00     0.018 C 
BRANCH   8  10
ATOM     10  C   UNL A   1      33.172  25.084  23.883  1.00  0.00     0.031 C 
ATOM     11  C   UNL A   1      33.565  25.038  25.374  1.00  0.00     0.011 C 
BRANCH  10  12
ATOM     12  C   UNL A   1      34.084  24.129  23.062  1.00  0.00     0.148 C 
BRANCH  12  13
ATOM     13  C   UNL A   1      34.398  22.798  23.741  1.00  0.00    -0.016 A 
ATOM     14  C   UNL A   1      32.428  19.610  24.558  1.00  0.00     0.044 C 
ATOM     15  C   UNL A   1      33.554  20.595  24.429  1.00  0.00    -0.051 A 
ATOM     16  C   UNL A   1      34.815  20.270  24.921  1.00  0.00     0.004 A 
ATOM     17  C   UNL A   1      33.354  21.852  23.843  1.00  0.00     0.010 A 
ATOM     18  C   UNL A   1      35.853  21.197  24.852  1.00  0.00     0.004 A 
ATOM     19  C   UNL A   1      35.656  22.474  24.300  1.00  0.00    -0.045 A 
ATOM     20  C   UNL A   1      36.843  23.398  24.320  1.00  0.00     0.045 C 
ENDBRANCH  12  13
BRANCH  12  21
ATOM     21  O   UNL A   1      33.537  23.822  21.779  1.00  0.00    -0.388 OA
ATOM     22  H   UNL A   1      33.628  24.592  21.197  1.00  0.00     0.211 HD
ENDBRANCH  12  21
ENDBRANCH  10  12
ENDBRANCH   8  10
ENDBRANCH   5   8
ENDBRANCH   3   4
ENDBRANCH   2   3
ENDBRANCH   1   2
BRANCH   1  23
ATOM     23  C   UNL A   1      34.092  31.009  27.264  1.00  0.00     0.002 C 
BRANCH  23  24
ATOM     24  C   UNL A   1      32.768  31.696  27.644  1.00  0.00     0.021 C 
BRANCH  24  25
ATOM     25  C   UNL A   1      32.319  32.936  26.868  1.00  0.00     0.116 C 
BRANCH  25  26
ATOM     26  N   UNL A   1      32.375  34.174  27.651  1.00  0.00    -0.352 N 
ATOM     27  C   UNL A   1      33.113  34.575  28.756  1.00  0.00     0.251 C 
ATOM     28  H   UNL A   1      31.758  34.867  27.325  1.00  0.00     0.163 HD
ATOM     29  O   UNL A   1      32.710  35.525  29.411  1.00  0.00    -0.269 OA
BRANCH  27  30
ATOM     30  C   UNL A   1      34.371  33.888  29.146  1.00  0.00     0.039 A 
ATOM     31  C   UNL A   1      34.478  33.088  30.292  1.00  0.00     0.014 A 
ATOM     32  C   UNL A   1      35.499  34.081  28.370  1.00  0.00     0.014 A 
ATOM     33  C   UNL A   1      35.721  32.526  30.619  1.00  0.00     0.010 A 
ATOM     34  C   UNL A   1      36.630  33.345  28.539  1.00  0.00     0.010 A 
ATOM     35  C   UNL A   1      36.795  32.680  29.734  1.00  0.00    -0.014 A 
BRANCH  35  36
ATOM     36  C   UNL A   1      38.112  32.096  29.913  1.00  0.00     0.031 A 
ATOM     37  C   UNL A   1      38.208  30.722  29.402  1.00  0.00     0.074 A 
ATOM     38  C   UNL A   1      39.225  32.822  30.154  1.00  0.00     0.049 A 
ATOM     39  N   UNL A   1      38.148  29.637  30.095  1.00  0.00    -0.248 NA
ATOM     40  C   UNL A   1      38.135  30.513  27.947  1.00  0.00     0.031 C 
ATOM     41  C   UNL A   1      39.339  34.274  30.314  1.00  0.00     0.029 A 
ATOM     42  N   UNL A   1      40.524  32.409  30.188  1.00  0.00    -0.354 N 
ATOM     43  C   UNL A   1      38.347  28.622  29.177  1.00  0.00     0.074 A 
ATOM     44  C   UNL A   1      37.994  29.186  27.903  1.00  0.00     0.031 C 
ATOM     45  C   UNL A   1      40.641  34.631  30.257  1.00  0.00     0.029 A 
ATOM     46  C   UNL A   1      41.465  33.437  30.161  1.00  0.00     0.049 A 
ATOM     47  H   UNL A   1      40.777  31.459  30.229  1.00  0.00     0.167 HD
ATOM     48  C   UNL A   1      39.104  27.535  29.495  1.00  0.00     0.034 A 
ATOM     49  C   UNL A   1      42.818  33.312  30.049  1.00  0.00     0.034 A 
ATOM     50  C   UNL A   1      39.410  27.526  30.918  1.00  0.00     0.049 A 
ATOM     51  C   UNL A   1      43.144  31.936  30.518  1.00  0.00     0.074 A 
ATOM     52  C   UNL A   1      38.651  27.614  32.072  1.00  0.00     0.029 A 
ATOM     53  N   UNL A   1      40.699  27.843  31.305  1.00  0.00    -0.354 N 
ATOM     54  N   UNL A   1      42.988  31.546  31.754  1.00  0.00    -0.248 NA
ATOM     55  C   UNL A   1      43.202  30.856  29.541  1.00  0.00     0.031 C 
ATOM     56  C   UNL A   1      39.404  28.446  32.953  1.00  0.00     0.029 A 
ATOM     57  C   UNL A   1      40.623  28.743  32.342  1.00  0.00     0.049 A 
ATOM     58  H   UNL A   1      41.526  27.487  30.908  1.00  0.00     0.167 HD
ATOM     59  C   UNL A   1      42.475  30.262  31.663  1.00  0.00     0.074 A 
ATOM     60  C   UNL A   1      42.754  29.844  30.291  1.00  0.00     0.031 C 
ATOM     61  C   UNL A   1      41.609  29.779  32.605  1.00  0.00     0.034 A 
BRANCH  48  62
ATOM     62  C   UNL A   1      39.894  26.701  28.507  1.00  0.00     0.023 A 
ATOM     63  C   UNL A   1      41.019  27.322  27.937  1.00  0.00     0.031 A 
ATOM     64  C   UNL A   1      39.505  25.481  27.906  1.00  0.00     0.131 A 
ATOM     65  C   UNL A   1      41.609  26.821  26.766  1.00  0.00     0.055 A 
ATOM     66  C   UNL A   1      40.147  24.944  26.786  1.00  0.00     0.041 A 
ATOM     67  F   UNL A   1      38.446  24.769  28.299  1.00  0.00    -0.206 F 
ATOM     68  C   UNL A   1      41.180  25.635  26.183  1.00  0.00     0.022 A 
BRANCH  65  69
ATOM     69  S   UNL A   1      42.817  27.865  25.920  1.00  0.00     0.124 S 
ATOM     70  O   UNL A   1      42.345  27.787  24.541  1.00  0.00    -0.237 OA
ATOM     71  O   UNL A   1      42.630  29.145  26.595  1.00  0.00    -0.237 OA
ATOM     72  O   UNL A   1      44.087  27.195  26.189  1.00  0.00    -0.744 OA
ENDBRANCH  65  69
ENDBRANCH  48  62
BRANCH  49  73
ATOM     73  C   UNL A   1      43.833  34.254  29.490  1.00  0.00     0.023 A 
ATOM     74  C   UNL A   1      44.445  34.039  28.233  1.00  0.00     0.031 A 
ATOM     75  C   UNL A   1      44.066  35.516  30.081  1.00  0.00     0.131 A 
ATOM     76  C   UNL A   1      45.237  35.046  27.631  1.00  0.00     0.055 A 
ATOM     77  C   UNL A   1      44.879  36.493  29.499  1.00  0.00     0.041 A 
ATOM     78  F   UNL A   1      43.439  35.892  31.206  1.00  0.00    -0.206 F 
ATOM     79  C   UNL A   1      45.459  36.268  28.265  1.00  0.00     0.022 A 
BRANCH  76  80
ATOM     80  S   UNL A   1      45.856  34.879  25.924  1.00  0.00     0.124 S 
ATOM     81  O   UNL A   1      46.779  33.756  26.040  1.00  0.00    -0.237 OA
ATOM     82  O   UNL A   1      44.642  34.645  25.151  1.00  0.00    -0.237 OA
ATOM     83  O   UNL A   1      46.489  36.177  25.680  1.00  0.00    -0.744 OA
ENDBRANCH  76  80
ENDBRANCH  49  73
BRANCH  61  84
ATOM     84  C   UNL A   1      41.499  30.509  33.932  1.00  0.00     0.023 A 
ATOM     85  C   UNL A   1      40.585  31.550  34.211  1.00  0.00     0.031 A 
ATOM     86  C   UNL A   1      42.288  30.037  34.998  1.00  0.00     0.131 A 
ATOM     87  C   UNL A   1      40.498  32.086  35.511  1.00  0.00     0.055 A 
ATOM     88  C   UNL A   1      42.181  30.551  36.289  1.00  0.00     0.041 A 
ATOM     89  F   UNL A   1      43.160  29.032  34.807  1.00  0.00    -0.206 F 
ATOM     90  C   UNL A   1      41.288  31.584  36.550  1.00  0.00     0.022 A 
BRANCH  87  91
ATOM     91  S   UNL A   1      39.358  33.459  35.873  1.00  0.00     0.124 S 
ATOM     92  O   UNL A   1      39.712  33.849  37.232  1.00  0.00    -0.237 OA
ATOM     93  O   UNL A   1      39.682  34.424  34.825  1.00  0.00    -0.237 OA
ATOM     94  O   UNL A   1      38.034  32.846  35.742  1.00  0.00    -0.744 OA
ENDBRANCH  87  91
ENDBRANCH  61  84
ENDBRANCH  35  36
ENDBRANCH  27  30
ENDBRANCH  25  26
ENDBRANCH  24  25
ENDBRANCH  23  24
ENDBRANCH   1  23
TORSDOF 20
ENDMDL
