MODEL 1
REMARK VINA RESULT:     -10.4      0.000      0.000
REMARK SMILES CC[C@@H](Nc1ccn(C)n1)C(=O)NCCCCCCNC(=O)c1ccc(-c2c3nc(c(-c4cc(S(=O)(=O)[O-])ccc4F)c4ccc([nH]4)c(-c4cc(S(=O)(=O)[O-])ccc4F)c4nc(c(-c5cc(S(=O)(=O)[O-])ccc5F)c5ccc2[nH]5)C=C4)C=C3)cc1
REMARK SMILES IDX 17 1 16 2 15 3 14 4 13 5 11 6 12 7 3 9 2 10 1 11 4 12 5 14
REMARK SMILES IDX 6 15 10 16 7 17 8 18 9 19 18 20 19 21 20 22 21 23 22 25
REMARK SMILES IDX 23 26 24 27 85 28 25 29 84 30 26 31 27 32 28 33 78 34 29 35
REMARK SMILES IDX 83 36 77 37 79 38 30 39 82 40 76 41 75 42 31 44 63 45 43 46
REMARK SMILES IDX 62 47 44 48 47 49 61 50 80 51 45 52 46 53 60 55 81 56 48 57
REMARK SMILES IDX 32 58 33 59 41 60 34 61 40 62 42 63 39 64 35 65 36 66 37 67
REMARK SMILES IDX 38 68 64 69 65 70 73 71 66 72 72 73 74 74 71 75 67 76 68 77
REMARK SMILES IDX 69 78 70 79 49 80 50 81 58 82 51 83 57 84 59 85 56 86 52 87
REMARK SMILES IDX 53 88 54 89 55 90
REMARK H PARENT 13 8 4 13 20 24 79 43 47 54
REMARK Flexibility Score: inf
ROOT
ATOM      1  C   UNL A   1      31.815  29.536  27.208  1.00  0.00     0.002 C 
ENDROOT
BRANCH   1   2
ATOM      2  C   UNL A   1      31.805  28.450  26.125  1.00  0.00     0.002 C 
BRANCH   2   3
ATOM      3  C   UNL A   1      32.447  27.118  26.528  1.00  0.00     0.021 C 
BRANCH   3   4
ATOM      4  C   UNL A   1      31.989  25.931  25.689  1.00  0.00     0.116 C 
BRANCH   4   5
ATOM      5  N   UNL A   1      30.962  25.162  26.372  1.00  0.00    -0.354 N 
ATOM      6  C   UNL A   1      30.969  23.845  26.737  1.00  0.00     0.242 C 
ATOM      7  O   UNL A   1      30.013  23.432  27.404  1.00  0.00    -0.273 OA
ATOM      8  H   UNL A   1      30.146  25.661  26.605  1.00  0.00     0.163 HD
BRANCH   6   9
ATOM      9  C   UNL A   1      32.099  22.882  26.296  1.00  0.00     0.169 C 
BRANCH   9  10
ATOM     10  C   UNL A   1      33.181  22.880  27.395  1.00  0.00     0.031 C 
ATOM     11  C   UNL A   1      34.417  22.059  27.061  1.00  0.00     0.006 C 
ENDBRANCH   9  10
BRANCH   9  12
ATOM     12  N   UNL A   1      31.641  21.523  25.990  1.00  0.00    -0.357 N 
ATOM     13  H   UNL A   1      30.960  21.134  26.585  1.00  0.00     0.162 HD
BRANCH  12  14
ATOM     14  C   UNL A   1      32.068  20.762  24.967  1.00  0.00     0.148 A 
ATOM     15  C   UNL A   1      32.181  21.122  23.606  1.00  0.00     0.068 A 
ATOM     16  N   UNL A   1      32.356  19.477  25.156  1.00  0.00    -0.156 NA
ATOM     17  C   UNL A   1      32.460  19.945  22.948  1.00  0.00     0.110 A 
ATOM     18  N   UNL A   1      32.524  18.990  23.918  1.00  0.00    -0.274 N 
ATOM     19  C   UNL A   1      32.645  17.564  23.736  1.00  0.00     0.173 C 
ENDBRANCH  12  14
ENDBRANCH   9  12
ENDBRANCH   6   9
ENDBRANCH   4   5
ENDBRANCH   3   4
ENDBRANCH   2   3
ENDBRANCH   1   2
BRANCH   1  20
ATOM     20  C   UNL A   1      31.484  30.949  26.722  1.00  0.00     0.021 C 
BRANCH  20  21
ATOM     21  C   UNL A   1      32.688  31.874  26.582  1.00  0.00     0.116 C 
BRANCH  21  22
ATOM     22  N   UNL A   1      32.422  33.206  27.101  1.00  0.00    -0.352 N 
ATOM     23  C   UNL A   1      33.080  33.879  28.103  1.00  0.00     0.251 C 
ATOM     24  H   UNL A   1      31.674  33.689  26.681  1.00  0.00     0.163 HD
ATOM     25  O   UNL A   1      32.627  34.930  28.544  1.00  0.00    -0.269 OA
BRANCH  23  26
ATOM     26  C   UNL A   1      34.322  33.303  28.657  1.00  0.00     0.039 A 
ATOM     27  C   UNL A   1      35.547  33.907  28.362  1.00  0.00     0.014 A 
ATOM     28  C   UNL A   1      34.265  32.185  29.495  1.00  0.00     0.014 A 
ATOM     29  C   UNL A   1      36.715  33.426  28.959  1.00  0.00     0.010 A 
ATOM     30  C   UNL A   1      35.419  31.749  30.135  1.00  0.00     0.010 A 
ATOM     31  C   UNL A   1      36.655  32.363  29.872  1.00  0.00    -0.014 A 
BRANCH  31  32
ATOM     32  C   UNL A   1      37.865  31.840  30.556  1.00  0.00     0.031 A 
ATOM     33  C   UNL A   1      38.701  30.795  29.872  1.00  0.00     0.074 A 
ATOM     34  C   UNL A   1      38.140  32.210  31.820  1.00  0.00     0.049 A 
ATOM     35  N   UNL A   1      39.667  30.057  30.352  1.00  0.00    -0.248 NA
ATOM     36  C   UNL A   1      38.364  30.516  28.469  1.00  0.00     0.031 C 
ATOM     37  C   UNL A   1      37.381  33.189  32.599  1.00  0.00     0.029 A 
ATOM     38  N   UNL A   1      39.112  31.776  32.687  1.00  0.00    -0.354 N 
ATOM     39  C   UNL A   1      40.032  29.199  29.320  1.00  0.00     0.074 A 
ATOM     40  C   UNL A   1      39.141  29.476  28.212  1.00  0.00     0.031 C 
ATOM     41  C   UNL A   1      37.908  33.274  33.831  1.00  0.00     0.029 A 
ATOM     42  C   UNL A   1      39.009  32.322  33.945  1.00  0.00     0.049 A 
ATOM     43  H   UNL A   1      39.815  31.136  32.433  1.00  0.00     0.167 HD
ATOM     44  C   UNL A   1      41.028  28.277  29.295  1.00  0.00     0.034 A 
ATOM     45  C   UNL A   1      39.700  32.061  35.072  1.00  0.00     0.034 A 
ATOM     46  C   UNL A   1      41.912  28.032  30.408  1.00  0.00     0.049 A 
ATOM     47  C   UNL A   1      40.799  31.031  35.035  1.00  0.00     0.074 A 
ATOM     48  C   UNL A   1      42.997  27.176  30.478  1.00  0.00     0.029 A 
ATOM     49  N   UNL A   1      41.807  28.639  31.654  1.00  0.00    -0.354 N 
ATOM     50  N   UNL A   1      41.167  30.255  34.041  1.00  0.00    -0.248 NA
ATOM     51  C   UNL A   1      41.582  30.849  36.264  1.00  0.00     0.031 C 
ATOM     52  C   UNL A   1      43.506  27.218  31.781  1.00  0.00     0.029 A 
ATOM     53  C   UNL A   1      42.787  28.156  32.506  1.00  0.00     0.049 A 
ATOM     54  H   UNL A   1      41.133  29.315  31.897  1.00  0.00     0.167 HD
ATOM     55  C   UNL A   1      42.244  29.514  34.516  1.00  0.00     0.074 A 
ATOM     56  C   UNL A   1      42.464  29.932  35.886  1.00  0.00     0.031 C 
ATOM     57  C   UNL A   1      42.991  28.582  33.872  1.00  0.00     0.034 A 
BRANCH  44  58
ATOM     58  C   UNL A   1      41.170  27.450  28.038  1.00  0.00     0.023 A 
ATOM     59  C   UNL A   1      40.780  26.101  27.994  1.00  0.00     0.031 A 
ATOM     60  C   UNL A   1      41.773  27.996  26.890  1.00  0.00     0.131 A 
ATOM     61  C   UNL A   1      41.099  25.315  26.876  1.00  0.00     0.055 A 
ATOM     62  C   UNL A   1      41.997  27.232  25.742  1.00  0.00     0.041 A 
ATOM     63  F   UNL A   1      42.183  29.274  26.873  1.00  0.00    -0.206 F 
ATOM     64  C   UNL A   1      41.682  25.876  25.739  1.00  0.00     0.022 A 
BRANCH  61  65
ATOM     65  S   UNL A   1      40.925  23.513  27.014  1.00  0.00     0.124 S 
ATOM     66  O   UNL A   1      41.770  23.051  25.914  1.00  0.00    -0.237 OA
ATOM     67  O   UNL A   1      41.425  23.251  28.359  1.00  0.00    -0.237 OA
ATOM     68  O   UNL A   1      39.493  23.293  26.824  1.00  0.00    -0.744 OA
ENDBRANCH  61  65
ENDBRANCH  44  58
BRANCH  45  69
ATOM     69  C   UNL A   1      39.348  32.768  36.334  1.00  0.00     0.023 A 
ATOM     70  C   UNL A   1      39.850  34.049  36.613  1.00  0.00     0.031 A 
ATOM     71  C   UNL A   1      38.486  32.174  37.274  1.00  0.00     0.131 A 
ATOM     72  C   UNL A   1      39.502  34.686  37.816  1.00  0.00     0.055 A 
ATOM     73  C   UNL A   1      38.113  32.828  38.449  1.00  0.00     0.041 A 
ATOM     74  F   UNL A   1      37.969  30.957  37.044  1.00  0.00    -0.206 F 
ATOM     75  C   UNL A   1      38.629  34.090  38.728  1.00  0.00     0.022 A 
BRANCH  72  76
ATOM     76  S   UNL A   1      40.238  36.302  38.187  1.00  0.00     0.124 S 
ATOM     77  O   UNL A   1      40.325  36.901  36.860  1.00  0.00    -0.237 OA
ATOM     78  O   UNL A   1      39.252  36.884  39.091  1.00  0.00    -0.237 OA
ATOM     79  O   UNL A   1      41.518  35.959  38.803  1.00  0.00    -0.744 OA
ENDBRANCH  72  76
ENDBRANCH  45  69
BRANCH  57  80
ATOM     80  C   UNL A   1      44.160  27.993  34.620  1.00  0.00     0.023 A 
ATOM     81  C   UNL A   1      44.055  26.792  35.339  1.00  0.00     0.031 A 
ATOM     82  C   UNL A   1      45.410  28.637  34.575  1.00  0.00     0.131 A 
ATOM     83  C   UNL A   1      45.179  26.282  36.009  1.00  0.00     0.055 A 
ATOM     84  C   UNL A   1      46.534  28.101  35.204  1.00  0.00     0.041 A 
ATOM     85  F   UNL A   1      45.561  29.788  33.900  1.00  0.00    -0.206 F 
ATOM     86  C   UNL A   1      46.420  26.920  35.931  1.00  0.00     0.022 A 
BRANCH  83  87
ATOM     87  S   UNL A   1      44.993  24.788  37.021  1.00  0.00     0.124 S 
ATOM     88  O   UNL A   1      46.382  24.443  37.309  1.00  0.00    -0.237 OA
ATOM     89  O   UNL A   1      44.207  25.270  38.151  1.00  0.00    -0.237 OA
ATOM     90  O   UNL A   1      44.295  23.857  36.135  1.00  0.00    -0.744 OA
ENDBRANCH  83  87
ENDBRANCH  57  80
ENDBRANCH  31  32
ENDBRANCH  23  26
ENDBRANCH  21  22
ENDBRANCH  20  21
ENDBRANCH   1  20
TORSDOF 19
ENDMDL
MODEL 2
REMARK VINA RESULT:     -10.4      2.062      3.167
REMARK SMILES CC[C@@H](Nc1ccn(C)n1)C(=O)NCCCCCCNC(=O)c1ccc(-c2c3nc(c(-c4cc(S(=O)(=O)[O-])ccc4F)c4ccc([nH]4)c(-c4cc(S(=O)(=O)[O-])ccc4F)c4nc(c(-c5cc(S(=O)(=O)[O-])ccc5F)c5ccc2[nH]5)C=C4)C=C3)cc1
REMARK SMILES IDX 17 1 16 2 15 3 14 4 13 5 11 6 12 7 3 9 2 10 1 11 4 12 5 14
REMARK SMILES IDX 6 15 10 16 7 17 8 18 9 19 18 20 19 21 20 22 21 23 22 25
REMARK SMILES IDX 23 26 24 27 85 28 25 29 84 30 26 31 27 32 28 33 78 34 29 35
REMARK SMILES IDX 83 36 77 37 79 38 30 39 82 40 76 41 75 42 31 44 63 45 43 46
REMARK SMILES IDX 62 47 44 48 47 49 61 50 80 51 45 52 46 53 60 55 81 56 48 57
REMARK SMILES IDX 32 58 33 59 41 60 34 61 40 62 42 63 39 64 35 65 36 66 37 67
REMARK SMILES IDX 38 68 64 69 65 70 73 71 66 72 72 73 74 74 71 75 67 76 68 77
REMARK SMILES IDX 69 78 70 79 49 80 50 81 58 82 51 83 57 84 59 85 56 86 52 87
REMARK SMILES IDX 53 88 54 89 55 90
REMARK H PARENT 13 8 4 13 20 24 79 43 47 54
REMARK Flexibility Score: inf
ROOT
ATOM      1  C   UNL A   1      31.773  29.769  27.186  1.00  0.00     0.002 C 
ENDROOT
BRANCH   1   2
ATOM      2  C   UNL A   1      32.002  28.640  26.172  1.00  0.00     0.002 C 
BRANCH   2   3
ATOM      3  C   UNL A   1      33.235  27.769  26.431  1.00  0.00     0.021 C 
BRANCH   3   4
ATOM      4  C   UNL A   1      33.035  26.297  26.091  1.00  0.00     0.116 C 
BRANCH   4   5
ATOM      5  N   UNL A   1      31.786  25.790  26.636  1.00  0.00    -0.354 N 
ATOM      6  C   UNL A   1      30.790  25.094  26.009  1.00  0.00     0.242 C 
ATOM      7  O   UNL A   1      29.858  24.677  26.708  1.00  0.00    -0.273 OA
ATOM      8  H   UNL A   1      31.637  25.974  27.591  1.00  0.00     0.163 HD
BRANCH   6   9
ATOM      9  C   UNL A   1      30.789  24.872  24.476  1.00  0.00     0.169 C 
BRANCH   9  10
ATOM     10  C   UNL A   1      31.008  23.368  24.212  1.00  0.00     0.031 C 
ATOM     11  C   UNL A   1      32.347  23.029  23.576  1.00  0.00     0.006 C 
ENDBRANCH   9  10
BRANCH   9  12
ATOM     12  N   UNL A   1      29.586  25.367  23.802  1.00  0.00    -0.357 N 
ATOM     13  H   UNL A   1      28.937  24.695  23.489  1.00  0.00     0.162 HD
BRANCH  12  14
ATOM     14  C   UNL A   1      29.289  26.658  23.573  1.00  0.00     0.148 A 
ATOM     15  C   UNL A   1      28.028  27.288  23.668  1.00  0.00     0.068 A 
ATOM     16  N   UNL A   1      30.217  27.494  23.115  1.00  0.00    -0.156 NA
ATOM     17  C   UNL A   1      28.217  28.546  23.139  1.00  0.00     0.110 A 
ATOM     18  N   UNL A   1      29.534  28.604  22.797  1.00  0.00    -0.274 N 
ATOM     19  C   UNL A   1      30.205  29.654  22.069  1.00  0.00     0.173 C 
ENDBRANCH  12  14
ENDBRANCH   9  12
ENDBRANCH   6   9
ENDBRANCH   4   5
ENDBRANCH   3   4
ENDBRANCH   2   3
ENDBRANCH   1   2
BRANCH   1  20
ATOM     20  C   UNL A   1      31.744  31.182  26.596  1.00  0.00     0.021 C 
BRANCH  20  21
ATOM     21  C   UNL A   1      32.964  32.036  26.924  1.00  0.00     0.116 C 
BRANCH  21  22
ATOM     22  N   UNL A   1      32.600  33.392  27.304  1.00  0.00    -0.352 N 
ATOM     23  C   UNL A   1      33.119  34.163  28.316  1.00  0.00     0.251 C 
ATOM     24  H   UNL A   1      31.891  33.812  26.765  1.00  0.00     0.163 HD
ATOM     25  O   UNL A   1      32.586  35.226  28.619  1.00  0.00    -0.269 OA
BRANCH  23  26
ATOM     26  C   UNL A   1      34.306  33.679  29.049  1.00  0.00     0.039 A 
ATOM     27  C   UNL A   1      34.154  32.682  30.016  1.00  0.00     0.014 A 
ATOM     28  C   UNL A   1      35.572  34.192  28.752  1.00  0.00     0.014 A 
ATOM     29  C   UNL A   1      35.283  32.153  30.645  1.00  0.00     0.010 A 
ATOM     30  C   UNL A   1      36.697  33.620  29.333  1.00  0.00     0.010 A 
ATOM     31  C   UNL A   1      36.565  32.597  30.287  1.00  0.00    -0.014 A 
BRANCH  31  32
ATOM     32  C   UNL A   1      37.795  32.040  30.904  1.00  0.00     0.031 A 
ATOM     33  C   UNL A   1      38.588  31.006  30.156  1.00  0.00     0.074 A 
ATOM     34  C   UNL A   1      38.127  32.370  32.166  1.00  0.00     0.049 A 
ATOM     35  N   UNL A   1      39.564  30.243  30.575  1.00  0.00    -0.248 NA
ATOM     36  C   UNL A   1      38.189  30.770  28.762  1.00  0.00     0.031 C 
ATOM     37  C   UNL A   1      37.414  33.337  33.002  1.00  0.00     0.029 A 
ATOM     38  N   UNL A   1      39.129  31.901  32.978  1.00  0.00    -0.354 N 
ATOM     39  C   UNL A   1      39.874  29.410  29.505  1.00  0.00     0.074 A 
ATOM     40  C   UNL A   1      38.941  29.729  28.443  1.00  0.00     0.031 C 
ATOM     41  C   UNL A   1      37.993  33.380  34.213  1.00  0.00     0.029 A 
ATOM     42  C   UNL A   1      39.085  32.412  34.254  1.00  0.00     0.049 A 
ATOM     43  H   UNL A   1      39.812  31.260  32.677  1.00  0.00     0.167 HD
ATOM     44  C   UNL A   1      40.855  28.477  29.412  1.00  0.00     0.034 A 
ATOM     45  C   UNL A   1      39.820  32.111  35.344  1.00  0.00     0.034 A 
ATOM     46  C   UNL A   1      41.782  28.191  30.480  1.00  0.00     0.049 A 
ATOM     47  C   UNL A   1      40.902  31.070  35.231  1.00  0.00     0.074 A 
ATOM     48  C   UNL A   1      42.858  27.320  30.481  1.00  0.00     0.029 A 
ATOM     49  N   UNL A   1      41.737  28.763  31.746  1.00  0.00    -0.354 N 
ATOM     50  N   UNL A   1      41.218  30.318  34.202  1.00  0.00    -0.248 NA
ATOM     51  C   UNL A   1      41.733  30.843  36.421  1.00  0.00     0.031 C 
ATOM     52  C   UNL A   1      43.422  27.319  31.762  1.00  0.00     0.029 A 
ATOM     53  C   UNL A   1      42.745  28.245  32.542  1.00  0.00     0.049 A 
ATOM     54  H   UNL A   1      41.082  29.439  32.035  1.00  0.00     0.167 HD
ATOM     55  C   UNL A   1      42.304  29.550  34.610  1.00  0.00     0.074 A 
ATOM     56  C   UNL A   1      42.587  29.927  35.981  1.00  0.00     0.031 C 
ATOM     57  C   UNL A   1      43.012  28.629  33.909  1.00  0.00     0.034 A 
BRANCH  44  58
ATOM     58  C   UNL A   1      40.935  27.685  28.127  1.00  0.00     0.023 A 
ATOM     59  C   UNL A   1      40.513  26.346  28.059  1.00  0.00     0.031 A 
ATOM     60  C   UNL A   1      41.508  28.251  26.974  1.00  0.00     0.131 A 
ATOM     61  C   UNL A   1      40.775  25.586  26.909  1.00  0.00     0.055 A 
ATOM     62  C   UNL A   1      41.674  27.517  25.798  1.00  0.00     0.041 A 
ATOM     63  F   UNL A   1      41.946  29.520  26.980  1.00  0.00    -0.206 F 
ATOM     64  C   UNL A   1      41.329  26.169  25.768  1.00  0.00     0.022 A 
BRANCH  61  65
ATOM     65  S   UNL A   1      40.565  23.786  27.002  1.00  0.00     0.124 S 
ATOM     66  O   UNL A   1      40.988  23.511  28.374  1.00  0.00    -0.237 OA
ATOM     67  O   UNL A   1      39.143  23.620  26.725  1.00  0.00    -0.237 OA
ATOM     68  O   UNL A   1      41.467  23.283  25.969  1.00  0.00    -0.744 OA
ENDBRANCH  61  65
ENDBRANCH  44  58
BRANCH  45  69
ATOM     69  C   UNL A   1      39.530  32.786  36.639  1.00  0.00     0.023 A 
ATOM     70  C   UNL A   1      38.580  32.267  37.532  1.00  0.00     0.031 A 
ATOM     71  C   UNL A   1      40.217  33.957  37.007  1.00  0.00     0.131 A 
ATOM     72  C   UNL A   1      38.327  32.932  38.743  1.00  0.00     0.055 A 
ATOM     73  C   UNL A   1      39.989  34.592  38.229  1.00  0.00     0.041 A 
ATOM     74  F   UNL A   1      41.145  34.483  36.193  1.00  0.00    -0.206 F 
ATOM     75  C   UNL A   1      39.033  34.082  39.102  1.00  0.00     0.022 A 
BRANCH  72  76
ATOM     76  S   UNL A   1      37.031  32.284  39.835  1.00  0.00     0.124 S 
ATOM     77  O   UNL A   1      37.234  33.079  41.041  1.00  0.00    -0.237 OA
ATOM     78  O   UNL A   1      35.820  32.570  39.073  1.00  0.00    -0.237 OA
ATOM     79  O   UNL A   1      37.367  30.867  39.957  1.00  0.00    -0.744 OA
ENDBRANCH  72  76
ENDBRANCH  45  69
BRANCH  57  80
ATOM     80  C   UNL A   1      44.203  28.005  34.591  1.00  0.00     0.023 A 
ATOM     81  C   UNL A   1      44.115  26.780  35.271  1.00  0.00     0.031 A 
ATOM     82  C   UNL A   1      45.456  28.640  34.520  1.00  0.00     0.131 A 
ATOM     83  C   UNL A   1      45.259  26.238  35.879  1.00  0.00     0.055 A 
ATOM     84  C   UNL A   1      46.598  28.074  35.087  1.00  0.00     0.041 A 
ATOM     85  F   UNL A   1      45.591  29.813  33.881  1.00  0.00    -0.206 F 
ATOM     86  C   UNL A   1      46.502  26.869  35.776  1.00  0.00     0.022 A 
BRANCH  83  87
ATOM     87  S   UNL A   1      45.098  24.711  36.845  1.00  0.00     0.124 S 
ATOM     88  O   UNL A   1      44.740  25.223  38.164  1.00  0.00    -0.237 OA
ATOM     89  O   UNL A   1      44.046  23.996  36.130  1.00  0.00    -0.237 OA
ATOM     90  O   UNL A   1      46.427  24.107  36.755  1.00  0.00    -0.744 OA
ENDBRANCH  83  87
ENDBRANCH  57  80
ENDBRANCH  31  32
ENDBRANCH  23  26
ENDBRANCH  21  22
ENDBRANCH  20  21
ENDBRANCH   1  20
TORSDOF 19
ENDMDL
MODEL 3
REMARK VINA RESULT:     -10.3      5.186      9.712
REMARK SMILES CC[C@@H](Nc1ccn(C)n1)C(=O)NCCCCCCNC(=O)c1ccc(-c2c3nc(c(-c4cc(S(=O)(=O)[O-])ccc4F)c4ccc([nH]4)c(-c4cc(S(=O)(=O)[O-])ccc4F)c4nc(c(-c5cc(S(=O)(=O)[O-])ccc5F)c5ccc2[nH]5)C=C4)C=C3)cc1
REMARK SMILES IDX 17 1 16 2 15 3 14 4 13 5 11 6 12 7 3 9 2 10 1 11 4 12 5 14
REMARK SMILES IDX 6 15 10 16 7 17 8 18 9 19 18 20 19 21 20 22 21 23 22 25
REMARK SMILES IDX 23 26 24 27 85 28 25 29 84 30 26 31 27 32 28 33 78 34 29 35
REMARK SMILES IDX 83 36 77 37 79 38 30 39 82 40 76 41 75 42 31 44 63 45 43 46
REMARK SMILES IDX 62 47 44 48 47 49 61 50 80 51 45 52 46 53 60 55 81 56 48 57
REMARK SMILES IDX 32 58 33 59 41 60 34 61 40 62 42 63 39 64 35 65 36 66 37 67
REMARK SMILES IDX 38 68 64 69 65 70 73 71 66 72 72 73 74 74 71 75 67 76 68 77
REMARK SMILES IDX 69 78 70 79 49 80 50 81 58 82 51 83 57 84 59 85 56 86 52 87
REMARK SMILES IDX 53 88 54 89 55 90
REMARK H PARENT 13 8 4 13 20 24 79 43 47 54
REMARK Flexibility Score: inf
ROOT
ATOM      1  C   UNL A   1      42.007  22.689  28.777  1.00  0.00     0.002 C 
ENDROOT
BRANCH   1   2
ATOM      2  C   UNL A   1      42.677  23.832  28.004  1.00  0.00     0.002 C 
BRANCH   2   3
ATOM      3  C   UNL A   1      44.182  23.988  28.242  1.00  0.00     0.021 C 
BRANCH   3   4
ATOM      4  C   UNL A   1      45.034  22.943  27.530  1.00  0.00     0.116 C 
BRANCH   4   5
ATOM      5  N   UNL A   1      44.263  22.219  26.533  1.00  0.00    -0.354 N 
ATOM      6  C   UNL A   1      44.702  21.516  25.446  1.00  0.00     0.242 C 
ATOM      7  O   UNL A   1      43.858  20.893  24.790  1.00  0.00    -0.273 OA
ATOM      8  H   UNL A   1      43.287  22.238  26.658  1.00  0.00     0.163 HD
BRANCH   6   9
ATOM      9  C   UNL A   1      46.189  21.529  25.011  1.00  0.00     0.169 C 
BRANCH   9  10
ATOM     10  C   UNL A   1      46.528  20.142  24.429  1.00  0.00     0.031 C 
ATOM     11  C   UNL A   1      46.523  19.013  25.448  1.00  0.00     0.006 C 
ENDBRANCH   9  10
BRANCH   9  12
ATOM     12  N   UNL A   1      46.526  22.604  24.073  1.00  0.00    -0.357 N 
ATOM     13  H   UNL A   1      46.806  22.338  23.167  1.00  0.00     0.162 HD
BRANCH  12  14
ATOM     14  C   UNL A   1      46.486  23.921  24.340  1.00  0.00     0.148 A 
ATOM     15  C   UNL A   1      47.571  24.785  24.609  1.00  0.00     0.068 A 
ATOM     16  N   UNL A   1      45.320  24.548  24.471  1.00  0.00    -0.156 NA
ATOM     17  C   UNL A   1      46.993  25.967  25.017  1.00  0.00     0.110 A 
ATOM     18  N   UNL A   1      45.648  25.760  24.944  1.00  0.00    -0.274 N 
ATOM     19  C   UNL A   1      44.600  26.639  25.403  1.00  0.00     0.173 C 
ENDBRANCH  12  14
ENDBRANCH   9  12
ENDBRANCH   6   9
ENDBRANCH   4   5
ENDBRANCH   3   4
ENDBRANCH   2   3
ENDBRANCH   1   2
BRANCH   1  20
ATOM     20  C   UNL A   1      41.116  21.767  27.941  1.00  0.00     0.021 C 
BRANCH  20  21
ATOM     21  C   UNL A   1      40.981  22.167  26.476  1.00  0.00     0.116 C 
BRANCH  21  22
ATOM     22  N   UNL A   1      39.592  22.330  26.075  1.00  0.00    -0.352 N 
ATOM     23  C   UNL A   1      38.750  23.386  26.327  1.00  0.00     0.251 C 
ATOM     24  H   UNL A   1      39.206  21.587  25.557  1.00  0.00     0.163 HD
ATOM     25  O   UNL A   1      37.553  23.299  26.069  1.00  0.00    -0.269 OA
BRANCH  23  26
ATOM     26  C   UNL A   1      39.302  24.614  26.935  1.00  0.00     0.039 A 
ATOM     27  C   UNL A   1      40.012  25.514  26.137  1.00  0.00     0.014 A 
ATOM     28  C   UNL A   1      39.083  24.885  28.290  1.00  0.00     0.014 A 
ATOM     29  C   UNL A   1      40.454  26.721  26.684  1.00  0.00     0.010 A 
ATOM     30  C   UNL A   1      39.468  26.113  28.814  1.00  0.00     0.010 A 
ATOM     31  C   UNL A   1      40.159  27.042  28.017  1.00  0.00    -0.014 A 
BRANCH  31  32
ATOM     32  C   UNL A   1      40.579  28.328  28.631  1.00  0.00     0.031 A 
ATOM     33  C   UNL A   1      42.035  28.561  28.923  1.00  0.00     0.074 A 
ATOM     34  C   UNL A   1      39.654  29.219  29.031  1.00  0.00     0.049 A 
ATOM     35  N   UNL A   1      42.601  29.504  29.629  1.00  0.00    -0.248 NA
ATOM     36  C   UNL A   1      42.969  27.564  28.381  1.00  0.00     0.031 C 
ATOM     37  C   UNL A   1      38.210  29.086  28.834  1.00  0.00     0.029 A 
ATOM     38  N   UNL A   1      39.789  30.399  29.720  1.00  0.00    -0.354 N 
ATOM     39  C   UNL A   1      43.957  29.196  29.647  1.00  0.00     0.074 A 
ATOM     40  C   UNL A   1      44.111  27.948  28.928  1.00  0.00     0.031 C 
ATOM     41  C   UNL A   1      37.591  30.135  29.399  1.00  0.00     0.029 A 
ATOM     42  C   UNL A   1      38.588  30.989  30.039  1.00  0.00     0.049 A 
ATOM     43  H   UNL A   1      40.661  30.785  29.963  1.00  0.00     0.167 HD
ATOM     44  C   UNL A   1      44.979  29.897  30.200  1.00  0.00     0.034 A 
ATOM     45  C   UNL A   1      38.318  32.075  30.791  1.00  0.00     0.034 A 
ATOM     46  C   UNL A   1      44.799  31.147  30.898  1.00  0.00     0.049 A 
ATOM     47  C   UNL A   1      39.460  32.842  31.404  1.00  0.00     0.074 A 
ATOM     48  C   UNL A   1      45.762  31.981  31.439  1.00  0.00     0.029 A 
ATOM     49  N   UNL A   1      43.570  31.739  31.161  1.00  0.00    -0.354 N 
ATOM     50  N   UNL A   1      40.744  32.568  31.379  1.00  0.00    -0.248 NA
ATOM     51  C   UNL A   1      39.119  34.068  32.137  1.00  0.00     0.031 C 
ATOM     52  C   UNL A   1      45.113  33.041  32.082  1.00  0.00     0.029 A 
ATOM     53  C   UNL A   1      43.748  32.910  31.880  1.00  0.00     0.049 A 
ATOM     54  H   UNL A   1      42.699  31.378  30.878  1.00  0.00     0.167 HD
ATOM     55  C   UNL A   1      41.368  33.604  32.067  1.00  0.00     0.074 A 
ATOM     56  C   UNL A   1      40.319  34.506  32.498  1.00  0.00     0.031 C 
ATOM     57  C   UNL A   1      42.690  33.798  32.306  1.00  0.00     0.034 A 
BRANCH  44  58
ATOM     58  C   UNL A   1      46.362  29.296  30.098  1.00  0.00     0.023 A 
ATOM     59  C   UNL A   1      47.193  29.538  28.990  1.00  0.00     0.031 A 
ATOM     60  C   UNL A   1      46.829  28.409  31.085  1.00  0.00     0.131 A 
ATOM     61  C   UNL A   1      48.387  28.818  28.838  1.00  0.00     0.055 A 
ATOM     62  C   UNL A   1      48.066  27.771  30.976  1.00  0.00     0.041 A 
ATOM     63  F   UNL A   1      46.076  28.122  32.159  1.00  0.00    -0.206 F 
ATOM     64  C   UNL A   1      48.843  27.955  29.835  1.00  0.00     0.022 A 
BRANCH  61  65
ATOM     65  S   UNL A   1      49.228  28.877  27.231  1.00  0.00     0.124 S 
ATOM     66  O   UNL A   1      49.519  27.463  26.999  1.00  0.00    -0.237 OA
ATOM     67  O   UNL A   1      48.214  29.472  26.367  1.00  0.00    -0.237 OA
ATOM     68  O   UNL A   1      50.400  29.711  27.488  1.00  0.00    -0.744 OA
ENDBRANCH  61  65
ENDBRANCH  44  58
BRANCH  45  69
ATOM     69  C   UNL A   1      36.904  32.477  31.025  1.00  0.00     0.023 A 
ATOM     70  C   UNL A   1      36.140  33.069  30.008  1.00  0.00     0.031 A 
ATOM     71  C   UNL A   1      36.292  32.256  32.272  1.00  0.00     0.131 A 
ATOM     72  C   UNL A   1      34.810  33.441  30.263  1.00  0.00     0.055 A 
ATOM     73  C   UNL A   1      34.958  32.593  32.508  1.00  0.00     0.041 A 
ATOM     74  F   UNL A   1      36.978  31.680  33.270  1.00  0.00    -0.206 F 
ATOM     75  C   UNL A   1      34.211  33.196  31.501  1.00  0.00     0.022 A 
BRANCH  72  76
ATOM     76  S   UNL A   1      33.877  34.284  28.956  1.00  0.00     0.124 S 
ATOM     77  O   UNL A   1      33.577  33.183  28.047  1.00  0.00    -0.237 OA
ATOM     78  O   UNL A   1      32.745  34.833  29.695  1.00  0.00    -0.237 OA
ATOM     79  O   UNL A   1      34.824  35.274  28.447  1.00  0.00    -0.744 OA
ENDBRANCH  72  76
ENDBRANCH  45  69
BRANCH  57  80
ATOM     80  C   UNL A   1      43.086  35.067  33.017  1.00  0.00     0.023 A 
ATOM     81  C   UNL A   1      43.143  35.149  34.418  1.00  0.00     0.031 A 
ATOM     82  C   UNL A   1      43.448  36.201  32.267  1.00  0.00     0.131 A 
ATOM     83  C   UNL A   1      43.530  36.353  35.028  1.00  0.00     0.055 A 
ATOM     84  C   UNL A   1      43.876  37.379  32.879  1.00  0.00     0.041 A 
ATOM     85  F   UNL A   1      43.410  36.171  30.925  1.00  0.00    -0.206 F 
ATOM     86  C   UNL A   1      43.913  37.461  34.267  1.00  0.00     0.022 A 
BRANCH  83  87
ATOM     87  S   UNL A   1      43.491  36.470  36.838  1.00  0.00     0.124 S 
ATOM     88  O   UNL A   1      44.544  35.535  37.224  1.00  0.00    -0.237 OA
ATOM     89  O   UNL A   1      43.776  37.882  37.068  1.00  0.00    -0.237 OA
ATOM     90  O   UNL A   1      42.133  36.049  37.180  1.00  0.00    -0.744 OA
ENDBRANCH  83  87
ENDBRANCH  57  80
ENDBRANCH  31  32
ENDBRANCH  23  26
ENDBRANCH  21  22
ENDBRANCH  20  21
ENDBRANCH   1  20
TORSDOF 19
ENDMDL
