MODEL 1
REMARK VINA RESULT:     -10.5      0.000      0.000
REMARK SMILES CCN(CC(=O)NCCCCCCNC(=O)c1ccc(-c2c3nc(c(-c4cc(S(=O)(=O)[O-])ccc4F)c4ccc([nH]4)c(-c4cc(S(=O)(=O)[O-])ccc4F)c4nc(c(-c5cc(S(=O)(=O)[O-])ccc5F)c5ccc2[nH]5)C=C4)C=C3)cc1)C(=O)[C@@H]1CC[NH2+][C@@H]1C
REMARK SMILES IDX 10 1 9 2 8 3 7 4 5 5 6 6 4 8 3 9 2 10 1 11 80 12 81 13 82 14
REMARK SMILES IDX 83 15 86 16 84 17 85 18 87 19 11 22 12 23 13 24 14 25 15 26
REMARK SMILES IDX 16 28 17 29 18 30 79 31 19 32 78 33 20 34 21 35 22 36 72 37
REMARK SMILES IDX 23 38 77 39 71 40 73 41 24 42 76 43 70 44 69 45 25 47 57 48
REMARK SMILES IDX 37 49 56 50 38 51 41 52 55 53 74 54 39 55 40 56 54 58 75 59
REMARK SMILES IDX 42 60 26 61 27 62 35 63 28 64 34 65 36 66 33 67 29 68 30 69
REMARK SMILES IDX 31 70 32 71 58 72 59 73 67 74 60 75 66 76 68 77 65 78 61 79
REMARK SMILES IDX 62 80 63 81 64 82 43 83 44 84 52 85 45 86 51 87 53 88 50 89
REMARK SMILES IDX 46 90 47 91 48 92 49 93
REMARK H PARENT 7 7 85 20 85 21 14 27 73 46 41 57
REMARK Flexibility Score: inf
ROOT
ATOM      1  C   UNL A   1      34.072  22.925  23.018  1.00  0.00     0.002 C 
ENDROOT
BRANCH   1   2
ATOM      2  C   UNL A   1      33.419  21.878  23.930  1.00  0.00     0.021 C 
BRANCH   2   3
ATOM      3  C   UNL A   1      32.006  22.228  24.399  1.00  0.00     0.116 C 
BRANCH   3   4
ATOM      4  N   UNL A   1      31.950  22.612  25.792  1.00  0.00    -0.355 N 
ATOM      5  C   UNL A   1      31.446  23.743  26.359  1.00  0.00     0.239 C 
ATOM      6  O   UNL A   1      31.435  23.815  27.590  1.00  0.00    -0.273 OA
ATOM      7  H   UNL A   1      32.334  21.961  26.423  1.00  0.00     0.163 HD
BRANCH   5   8
ATOM      8  C   UNL A   1      30.824  24.845  25.502  1.00  0.00     0.219 C 
BRANCH   8   9
ATOM      9  N   UNL A   1      31.700  25.760  24.763  1.00  0.00    -0.333 N 
BRANCH   9  10
ATOM     10  C   UNL A   1      33.124  25.722  25.142  1.00  0.00     0.116 C 
ATOM     11  C   UNL A   1      33.544  26.840  26.088  1.00  0.00     0.027 C 
ENDBRANCH   9  10
BRANCH   9  12
ATOM     12  C   UNL A   1      31.400  26.394  23.564  1.00  0.00     0.232 C 
ATOM     13  O   UNL A   1      31.521  25.764  22.502  1.00  0.00    -0.274 OA
BRANCH  12  14
ATOM     14  C   UNL A   1      31.060  27.884  23.420  1.00  0.00     0.142 C 
ATOM     15  C   UNL A   1      29.758  28.157  22.680  1.00  0.00     0.081 C 
ATOM     16  C   UNL A   1      32.024  28.986  22.972  1.00  0.00     0.192 C 
ATOM     17  C   UNL A   1      29.922  29.552  22.114  1.00  0.00     0.261 C 
ATOM     18  N   UNL A   1      31.359  29.688  21.857  1.00  0.00    -0.343 N 
ATOM     19  C   UNL A   1      33.474  28.662  22.666  1.00  0.00     0.076 C 
ATOM     20  H   UNL A   1      31.627  30.672  21.843  1.00  0.00     0.346 HD
ATOM     21  H   UNL A   1      31.621  29.297  20.952  1.00  0.00     0.346 HD
ENDBRANCH  12  14
ENDBRANCH   9  12
ENDBRANCH   8   9
ENDBRANCH   5   8
ENDBRANCH   3   4
ENDBRANCH   2   3
ENDBRANCH   1   2
BRANCH   1  22
ATOM     22  C   UNL A   1      35.495  23.339  23.402  1.00  0.00     0.002 C 
BRANCH  22  23
ATOM     23  C   UNL A   1      36.398  22.200  23.877  1.00  0.00     0.021 C 
BRANCH  23  24
ATOM     24  C   UNL A   1      36.925  22.358  25.297  1.00  0.00     0.116 C 
BRANCH  24  25
ATOM     25  N   UNL A   1      37.798  21.261  25.674  1.00  0.00    -0.352 N 
ATOM     26  C   UNL A   1      39.085  21.308  26.150  1.00  0.00     0.251 C 
ATOM     27  H   UNL A   1      37.414  20.360  25.575  1.00  0.00     0.163 HD
ATOM     28  O   UNL A   1      39.749  20.278  26.203  1.00  0.00    -0.269 OA
BRANCH  26  29
ATOM     29  C   UNL A   1      39.671  22.601  26.574  1.00  0.00     0.039 A 
ATOM     30  C   UNL A   1      40.672  22.599  27.547  1.00  0.00     0.014 A 
ATOM     31  C   UNL A   1      39.219  23.812  26.039  1.00  0.00     0.014 A 
ATOM     32  C   UNL A   1      41.244  23.806  27.957  1.00  0.00     0.010 A 
ATOM     33  C   UNL A   1      39.840  25.008  26.396  1.00  0.00     0.010 A 
ATOM     34  C   UNL A   1      40.846  25.019  27.374  1.00  0.00    -0.014 A 
BRANCH  34  35
ATOM     35  C   UNL A   1      41.442  26.308  27.814  1.00  0.00     0.031 A 
ATOM     36  C   UNL A   1      42.851  26.659  27.416  1.00  0.00     0.074 A 
ATOM     37  C   UNL A   1      40.729  27.145  28.591  1.00  0.00     0.049 A 
ATOM     38  N   UNL A   1      43.556  27.722  27.711  1.00  0.00    -0.248 NA
ATOM     39  C   UNL A   1      43.574  25.668  26.606  1.00  0.00     0.031 C 
ATOM     40  C   UNL A   1      39.372  26.894  29.081  1.00  0.00     0.029 A 
ATOM     41  N   UNL A   1      41.043  28.377  29.107  1.00  0.00    -0.354 N 
ATOM     42  C   UNL A   1      44.805  27.523  27.132  1.00  0.00     0.074 A 
ATOM     43  C   UNL A   1      44.780  26.206  26.530  1.00  0.00     0.031 C 
ATOM     44  C   UNL A   1      38.961  27.951  29.800  1.00  0.00     0.029 A 
ATOM     45  C   UNL A   1      40.033  28.940  29.852  1.00  0.00     0.049 A 
ATOM     46  H   UNL A   1      41.912  28.817  28.958  1.00  0.00     0.167 HD
ATOM     47  C   UNL A   1      45.866  28.368  27.082  1.00  0.00     0.034 A 
ATOM     48  C   UNL A   1      39.978  30.119  30.501  1.00  0.00     0.034 A 
ATOM     49  C   UNL A   1      45.868  29.684  27.674  1.00  0.00     0.049 A 
ATOM     50  C   UNL A   1      41.164  31.047  30.428  1.00  0.00     0.074 A 
ATOM     51  C   UNL A   1      46.865  30.643  27.644  1.00  0.00     0.029 A 
ATOM     52  N   UNL A   1      44.820  30.227  28.409  1.00  0.00    -0.354 N 
ATOM     53  N   UNL A   1      42.320  30.866  29.829  1.00  0.00    -0.248 NA
ATOM     54  C   UNL A   1      41.031  32.345  31.100  1.00  0.00     0.031 C 
ATOM     55  C   UNL A   1      46.446  31.739  28.408  1.00  0.00     0.029 A 
ATOM     56  C   UNL A   1      45.158  31.495  28.856  1.00  0.00     0.049 A 
ATOM     57  H   UNL A   1      43.963  29.776  28.587  1.00  0.00     0.167 HD
ATOM     58  C   UNL A   1      43.038  32.042  30.029  1.00  0.00     0.074 A 
ATOM     59  C   UNL A   1      42.177  32.928  30.785  1.00  0.00     0.031 C 
ATOM     60  C   UNL A   1      44.293  32.363  29.622  1.00  0.00     0.034 A 
BRANCH  47  61
ATOM     61  C   UNL A   1      47.111  27.876  26.382  1.00  0.00     0.023 A 
ATOM     62  C   UNL A   1      47.309  28.073  25.003  1.00  0.00     0.031 A 
ATOM     63  C   UNL A   1      48.097  27.168  27.091  1.00  0.00     0.131 A 
ATOM     64  C   UNL A   1      48.417  27.496  24.363  1.00  0.00     0.055 A 
ATOM     65  C   UNL A   1      49.241  26.670  26.464  1.00  0.00     0.041 A 
ATOM     66  F   UNL A   1      47.957  26.931  28.405  1.00  0.00    -0.206 F 
ATOM     67  C   UNL A   1      49.399  26.818  25.089  1.00  0.00     0.022 A 
BRANCH  64  68
ATOM     68  S   UNL A   1      48.477  27.517  22.551  1.00  0.00     0.124 S 
ATOM     69  O   UNL A   1      47.240  28.222  22.224  1.00  0.00    -0.237 OA
ATOM     70  O   UNL A   1      49.715  28.239  22.283  1.00  0.00    -0.237 OA
ATOM     71  O   UNL A   1      48.491  26.099  22.193  1.00  0.00    -0.744 OA
ENDBRANCH  64  68
ENDBRANCH  47  61
BRANCH  48  72
ATOM     72  C   UNL A   1      38.761  30.501  31.272  1.00  0.00     0.023 A 
ATOM     73  C   UNL A   1      37.695  31.176  30.655  1.00  0.00     0.031 A 
ATOM     74  C   UNL A   1      38.661  30.230  32.647  1.00  0.00     0.131 A 
ATOM     75  C   UNL A   1      36.598  31.601  31.421  1.00  0.00     0.055 A 
ATOM     76  C   UNL A   1      37.546  30.611  33.396  1.00  0.00     0.041 A 
ATOM     77  F   UNL A   1      39.649  29.578  33.284  1.00  0.00    -0.206 F 
ATOM     78  C   UNL A   1      36.512  31.313  32.785  1.00  0.00     0.022 A 
BRANCH  75  79
ATOM     79  S   UNL A   1      35.319  32.609  30.622  1.00  0.00     0.124 S 
ATOM     80  O   UNL A   1      36.001  33.889  30.467  1.00  0.00    -0.237 OA
ATOM     81  O   UNL A   1      35.069  31.861  29.394  1.00  0.00    -0.237 OA
ATOM     82  O   UNL A   1      34.224  32.597  31.590  1.00  0.00    -0.744 OA
ENDBRANCH  75  79
ENDBRANCH  48  72
BRANCH  60  83
ATOM     83  C   UNL A   1      44.784  33.750  29.958  1.00  0.00     0.023 A 
ATOM     84  C   UNL A   1      45.477  34.019  31.151  1.00  0.00     0.031 A 
ATOM     85  C   UNL A   1      44.529  34.821  29.084  1.00  0.00     0.131 A 
ATOM     86  C   UNL A   1      45.832  35.339  31.469  1.00  0.00     0.055 A 
ATOM     87  C   UNL A   1      44.938  36.123  29.378  1.00  0.00     0.041 A 
ATOM     88  F   UNL A   1      43.869  34.621  27.931  1.00  0.00    -0.206 F 
ATOM     89  C   UNL A   1      45.581  36.390  30.584  1.00  0.00     0.022 A 
BRANCH  86  90
ATOM     90  S   UNL A   1      46.531  35.680  33.109  1.00  0.00     0.124 S 
ATOM     91  O   UNL A   1      47.285  34.459  33.378  1.00  0.00    -0.237 OA
ATOM     92  O   UNL A   1      47.326  36.879  32.864  1.00  0.00    -0.237 OA
ATOM     93  O   UNL A   1      45.352  35.879  33.950  1.00  0.00    -0.744 OA
ENDBRANCH  86  90
ENDBRANCH  60  83
ENDBRANCH  34  35
ENDBRANCH  26  29
ENDBRANCH  24  25
ENDBRANCH  23  24
ENDBRANCH  22  23
ENDBRANCH   1  22
TORSDOF 20
ENDMDL
MODEL 2
REMARK VINA RESULT:     -10.5      1.812      2.195
REMARK SMILES CCN(CC(=O)NCCCCCCNC(=O)c1ccc(-c2c3nc(c(-c4cc(S(=O)(=O)[O-])ccc4F)c4ccc([nH]4)c(-c4cc(S(=O)(=O)[O-])ccc4F)c4nc(c(-c5cc(S(=O)(=O)[O-])ccc5F)c5ccc2[nH]5)C=C4)C=C3)cc1)C(=O)[C@@H]1CC[NH2+][C@@H]1C
REMARK SMILES IDX 10 1 9 2 8 3 7 4 5 5 6 6 4 8 3 9 2 10 1 11 80 12 81 13 82 14
REMARK SMILES IDX 83 15 86 16 84 17 85 18 87 19 11 22 12 23 13 24 14 25 15 26
REMARK SMILES IDX 16 28 17 29 18 30 79 31 19 32 78 33 20 34 21 35 22 36 72 37
REMARK SMILES IDX 23 38 77 39 71 40 73 41 24 42 76 43 70 44 69 45 25 47 57 48
REMARK SMILES IDX 37 49 56 50 38 51 41 52 55 53 74 54 39 55 40 56 54 58 75 59
REMARK SMILES IDX 42 60 26 61 27 62 35 63 28 64 34 65 36 66 33 67 29 68 30 69
REMARK SMILES IDX 31 70 32 71 58 72 59 73 67 74 60 75 66 76 68 77 65 78 61 79
REMARK SMILES IDX 62 80 63 81 64 82 43 83 44 84 52 85 45 86 51 87 53 88 50 89
REMARK SMILES IDX 46 90 47 91 48 92 49 93
REMARK H PARENT 7 7 85 20 85 21 14 27 73 46 41 57
REMARK Flexibility Score: inf
ROOT
ATOM      1  C   UNL A   1      34.134  22.876  23.541  1.00  0.00     0.002 C 
ENDROOT
BRANCH   1   2
ATOM      2  C   UNL A   1      33.600  22.310  24.864  1.00  0.00     0.021 C 
BRANCH   2   3
ATOM      3  C   UNL A   1      32.830  23.311  25.725  1.00  0.00     0.116 C 
BRANCH   3   4
ATOM      4  N   UNL A   1      33.507  24.582  25.858  1.00  0.00    -0.355 N 
ATOM      5  C   UNL A   1      32.983  25.836  25.946  1.00  0.00     0.239 C 
ATOM      6  O   UNL A   1      33.761  26.774  26.138  1.00  0.00    -0.273 OA
ATOM      7  H   UNL A   1      34.489  24.534  25.887  1.00  0.00     0.163 HD
BRANCH   5   8
ATOM      8  C   UNL A   1      31.472  26.065  25.909  1.00  0.00     0.219 C 
BRANCH   8   9
ATOM      9  N   UNL A   1      30.813  26.292  24.618  1.00  0.00    -0.333 N 
BRANCH   9  10
ATOM     10  C   UNL A   1      29.978  25.183  24.124  1.00  0.00     0.116 C 
ATOM     11  C   UNL A   1      30.695  24.250  23.157  1.00  0.00     0.027 C 
ENDBRANCH   9  10
BRANCH   9  12
ATOM     12  C   UNL A   1      30.634  27.521  23.994  1.00  0.00     0.232 C 
ATOM     13  O   UNL A   1      29.499  27.841  23.608  1.00  0.00    -0.274 OA
BRANCH  12  14
ATOM     14  C   UNL A   1      31.766  28.482  23.604  1.00  0.00     0.142 C 
ATOM     15  C   UNL A   1      32.912  27.821  22.851  1.00  0.00     0.081 C 
ATOM     16  C   UNL A   1      32.422  29.517  24.522  1.00  0.00     0.192 C 
ATOM     17  C   UNL A   1      34.109  28.708  23.118  1.00  0.00     0.261 C 
ATOM     18  N   UNL A   1      33.875  29.268  24.452  1.00  0.00    -0.343 N 
ATOM     19  C   UNL A   1      31.935  29.698  25.948  1.00  0.00     0.076 C 
ATOM     20  H   UNL A   1      34.392  30.139  24.570  1.00  0.00     0.346 HD
ATOM     21  H   UNL A   1      34.187  28.636  25.189  1.00  0.00     0.346 HD
ENDBRANCH  12  14
ENDBRANCH   9  12
ENDBRANCH   8   9
ENDBRANCH   5   8
ENDBRANCH   3   4
ENDBRANCH   2   3
ENDBRANCH   1   2
BRANCH   1  22
ATOM     22  C   UNL A   1      35.634  23.180  23.512  1.00  0.00     0.002 C 
BRANCH  22  23
ATOM     23  C   UNL A   1      36.530  22.097  24.116  1.00  0.00     0.021 C 
BRANCH  23  24
ATOM     24  C   UNL A   1      37.205  22.488  25.424  1.00  0.00     0.116 C 
BRANCH  24  25
ATOM     25  N   UNL A   1      38.107  21.454  25.896  1.00  0.00    -0.352 N 
ATOM     26  C   UNL A   1      39.365  21.586  26.429  1.00  0.00     0.251 C 
ATOM     27  H   UNL A   1      37.771  20.531  25.824  1.00  0.00     0.163 HD
ATOM     28  O   UNL A   1      40.073  20.593  26.565  1.00  0.00    -0.269 OA
BRANCH  26  29
ATOM     29  C   UNL A   1      39.870  22.925  26.815  1.00  0.00     0.039 A 
ATOM     30  C   UNL A   1      40.785  23.021  27.866  1.00  0.00     0.014 A 
ATOM     31  C   UNL A   1      39.424  24.082  26.167  1.00  0.00     0.014 A 
ATOM     32  C   UNL A   1      41.279  24.273  28.242  1.00  0.00     0.010 A 
ATOM     33  C   UNL A   1      39.972  25.320  26.496  1.00  0.00     0.010 A 
ATOM     34  C   UNL A   1      40.891  25.431  27.550  1.00  0.00    -0.014 A 
BRANCH  34  35
ATOM     35  C   UNL A   1      41.404  26.767  27.953  1.00  0.00     0.031 A 
ATOM     36  C   UNL A   1      42.824  27.154  27.635  1.00  0.00     0.074 A 
ATOM     37  C   UNL A   1      40.605  27.616  28.628  1.00  0.00     0.049 A 
ATOM     38  N   UNL A   1      43.464  28.262  27.914  1.00  0.00    -0.248 NA
ATOM     39  C   UNL A   1      43.640  26.150  26.937  1.00  0.00     0.031 C 
ATOM     40  C   UNL A   1      39.227  27.336  29.036  1.00  0.00     0.029 A 
ATOM     41  N   UNL A   1      40.834  28.887  29.090  1.00  0.00    -0.354 N 
ATOM     42  C   UNL A   1      44.758  28.083  27.436  1.00  0.00     0.074 A 
ATOM     43  C   UNL A   1      44.828  26.734  26.913  1.00  0.00     0.031 C 
ATOM     44  C   UNL A   1      38.725  28.413  29.660  1.00  0.00     0.029 A 
ATOM     45  C   UNL A   1      39.752  29.448  29.728  1.00  0.00     0.049 A 
ATOM     46  H   UNL A   1      41.693  29.355  28.976  1.00  0.00     0.167 HD
ATOM     47  C   UNL A   1      45.787  28.969  27.411  1.00  0.00     0.034 A 
ATOM     48  C   UNL A   1      39.605  30.659  30.300  1.00  0.00     0.034 A 
ATOM     49  C   UNL A   1      45.696  30.315  27.922  1.00  0.00     0.049 A 
ATOM     50  C   UNL A   1      40.757  31.630  30.254  1.00  0.00     0.074 A 
ATOM     51  C   UNL A   1      46.655  31.312  27.904  1.00  0.00     0.029 A 
ATOM     52  N   UNL A   1      44.578  30.853  28.548  1.00  0.00    -0.354 N 
ATOM     53  N   UNL A   1      41.959  31.465  29.749  1.00  0.00    -0.248 NA
ATOM     54  C   UNL A   1      40.526  32.958  30.837  1.00  0.00     0.031 C 
ATOM     55  C   UNL A   1      46.140  32.430  28.570  1.00  0.00     0.029 A 
ATOM     56  C   UNL A   1      44.833  32.158  28.941  1.00  0.00     0.049 A 
ATOM     57  H   UNL A   1      43.728  30.377  28.692  1.00  0.00     0.167 HD
ATOM     58  C   UNL A   1      42.615  32.680  29.928  1.00  0.00     0.074 A 
ATOM     59  C   UNL A   1      41.669  33.570  30.569  1.00  0.00     0.031 C 
ATOM     60  C   UNL A   1      43.883  33.030  29.592  1.00  0.00     0.034 A 
BRANCH  47  61
ATOM     61  C   UNL A   1      47.097  28.491  26.829  1.00  0.00     0.023 A 
ATOM     62  C   UNL A   1      47.291  28.378  25.441  1.00  0.00     0.031 A 
ATOM     63  C   UNL A   1      48.154  28.106  27.672  1.00  0.00     0.131 A 
ATOM     64  C   UNL A   1      48.476  27.816  24.940  1.00  0.00     0.055 A 
ATOM     65  C   UNL A   1      49.364  27.627  27.165  1.00  0.00     0.041 A 
ATOM     66  F   UNL A   1      48.024  28.172  29.006  1.00  0.00    -0.206 F 
ATOM     67  C   UNL A   1      49.525  27.463  25.792  1.00  0.00     0.022 A 
BRANCH  64  68
ATOM     68  S   UNL A   1      48.564  27.413  23.174  1.00  0.00     0.124 S 
ATOM     69  O   UNL A   1      49.884  27.929  22.821  1.00  0.00    -0.237 OA
ATOM     70  O   UNL A   1      48.424  25.961  23.174  1.00  0.00    -0.237 OA
ATOM     71  O   UNL A   1      47.440  28.150  22.598  1.00  0.00    -0.744 OA
ENDBRANCH  64  68
ENDBRANCH  47  61
BRANCH  48  72
ATOM     72  C   UNL A   1      38.322  31.032  30.960  1.00  0.00     0.023 A 
ATOM     73  C   UNL A   1      37.296  31.669  30.241  1.00  0.00     0.031 A 
ATOM     74  C   UNL A   1      38.116  30.792  32.329  1.00  0.00     0.131 A 
ATOM     75  C   UNL A   1      36.132  32.087  30.905  1.00  0.00     0.055 A 
ATOM     76  C   UNL A   1      36.936  31.165  32.975  1.00  0.00     0.041 A 
ATOM     77  F   UNL A   1      39.061  30.177  33.060  1.00  0.00    -0.206 F 
ATOM     78  C   UNL A   1      35.942  31.830  32.265  1.00  0.00     0.022 A 
BRANCH  75  79
ATOM     79  S   UNL A   1      34.902  33.047  29.980  1.00  0.00     0.124 S 
ATOM     80  O   UNL A   1      35.729  34.083  29.371  1.00  0.00    -0.237 OA
ATOM     81  O   UNL A   1      34.358  32.043  29.072  1.00  0.00    -0.237 OA
ATOM     82  O   UNL A   1      33.983  33.510  31.017  1.00  0.00    -0.744 OA
ENDBRANCH  75  79
ENDBRANCH  48  72
BRANCH  60  83
ATOM     83  C   UNL A   1      44.295  34.454  29.878  1.00  0.00     0.023 A 
ATOM     84  C   UNL A   1      44.099  35.482  28.939  1.00  0.00     0.031 A 
ATOM     85  C   UNL A   1      44.917  34.780  31.096  1.00  0.00     0.131 A 
ATOM     86  C   UNL A   1      44.582  36.771  29.206  1.00  0.00     0.055 A 
ATOM     87  C   UNL A   1      45.341  36.078  31.380  1.00  0.00     0.041 A 
ATOM     88  F   UNL A   1      45.131  33.836  32.028  1.00  0.00    -0.206 F 
ATOM     89  C   UNL A   1      45.188  37.080  30.426  1.00  0.00     0.022 A 
BRANCH  86  90
ATOM     90  S   UNL A   1      44.506  38.018  27.889  1.00  0.00     0.124 S 
ATOM     91  O   UNL A   1      45.786  37.826  27.215  1.00  0.00    -0.237 OA
ATOM     92  O   UNL A   1      43.323  37.607  27.140  1.00  0.00    -0.237 OA
ATOM     93  O   UNL A   1      44.371  39.278  28.617  1.00  0.00    -0.744 OA
ENDBRANCH  86  90
ENDBRANCH  60  83
ENDBRANCH  34  35
ENDBRANCH  26  29
ENDBRANCH  24  25
ENDBRANCH  23  24
ENDBRANCH  22  23
ENDBRANCH   1  22
TORSDOF 20
ENDMDL
MODEL 3
REMARK VINA RESULT:     -10.5      4.649      9.898
REMARK SMILES CCN(CC(=O)NCCCCCCNC(=O)c1ccc(-c2c3nc(c(-c4cc(S(=O)(=O)[O-])ccc4F)c4ccc([nH]4)c(-c4cc(S(=O)(=O)[O-])ccc4F)c4nc(c(-c5cc(S(=O)(=O)[O-])ccc5F)c5ccc2[nH]5)C=C4)C=C3)cc1)C(=O)[C@@H]1CC[NH2+][C@@H]1C
REMARK SMILES IDX 10 1 9 2 8 3 7 4 5 5 6 6 4 8 3 9 2 10 1 11 80 12 81 13 82 14
REMARK SMILES IDX 83 15 86 16 84 17 85 18 87 19 11 22 12 23 13 24 14 25 15 26
REMARK SMILES IDX 16 28 17 29 18 30 79 31 19 32 78 33 20 34 21 35 22 36 72 37
REMARK SMILES IDX 23 38 77 39 71 40 73 41 24 42 76 43 70 44 69 45 25 47 57 48
REMARK SMILES IDX 37 49 56 50 38 51 41 52 55 53 74 54 39 55 40 56 54 58 75 59
REMARK SMILES IDX 42 60 26 61 27 62 35 63 28 64 34 65 36 66 33 67 29 68 30 69
REMARK SMILES IDX 31 70 32 71 58 72 59 73 67 74 60 75 66 76 68 77 65 78 61 79
REMARK SMILES IDX 62 80 63 81 64 82 43 83 44 84 52 85 45 86 51 87 53 88 50 89
REMARK SMILES IDX 46 90 47 91 48 92 49 93
REMARK H PARENT 7 7 85 20 85 21 14 27 73 46 41 57
REMARK Flexibility Score: inf
ROOT
ATOM      1  C   UNL A   1      30.709  27.907  24.735  1.00  0.00     0.002 C 
ENDROOT
BRANCH   1   2
ATOM      2  C   UNL A   1      29.914  27.110  23.691  1.00  0.00     0.021 C 
BRANCH   2   3
ATOM      3  C   UNL A   1      30.594  25.828  23.210  1.00  0.00     0.116 C 
BRANCH   3   4
ATOM      4  N   UNL A   1      31.735  26.077  22.357  1.00  0.00    -0.355 N 
ATOM      5  C   UNL A   1      33.054  25.829  22.582  1.00  0.00     0.239 C 
ATOM      6  O   UNL A   1      33.848  26.052  21.665  1.00  0.00    -0.273 OA
ATOM      7  H   UNL A   1      31.527  26.486  21.487  1.00  0.00     0.163 HD
BRANCH   5   8
ATOM      8  C   UNL A   1      33.527  25.199  23.894  1.00  0.00     0.219 C 
BRANCH   8   9
ATOM      9  N   UNL A   1      34.092  23.846  23.876  1.00  0.00    -0.333 N 
BRANCH   9  10
ATOM     10  C   UNL A   1      35.543  23.758  24.120  1.00  0.00     0.116 C 
ATOM     11  C   UNL A   1      36.251  22.707  23.276  1.00  0.00     0.027 C 
ENDBRANCH   9  10
BRANCH   9  12
ATOM     12  C   UNL A   1      33.379  22.658  23.980  1.00  0.00     0.232 C 
ATOM     13  O   UNL A   1      32.235  22.598  23.501  1.00  0.00    -0.274 OA
BRANCH  12  14
ATOM     14  C   UNL A   1      33.834  21.427  24.775  1.00  0.00     0.142 C 
ATOM     15  C   UNL A   1      33.231  20.115  24.293  1.00  0.00     0.081 C 
ATOM     16  C   UNL A   1      33.892  21.315  26.301  1.00  0.00     0.192 C 
ATOM     17  C   UNL A   1      33.276  19.204  25.502  1.00  0.00     0.261 C 
ATOM     18  N   UNL A   1      33.134  20.098  26.654  1.00  0.00    -0.343 N 
ATOM     19  C   UNL A   1      33.522  22.499  27.174  1.00  0.00     0.076 C 
ATOM     20  H   UNL A   1      33.523  19.666  27.492  1.00  0.00     0.346 HD
ATOM     21  H   UNL A   1      32.156  20.306  26.855  1.00  0.00     0.346 HD
ENDBRANCH  12  14
ENDBRANCH   9  12
ENDBRANCH   8   9
ENDBRANCH   5   8
ENDBRANCH   3   4
ENDBRANCH   2   3
ENDBRANCH   1   2
BRANCH   1  22
ATOM     22  C   UNL A   1      31.445  29.140  24.203  1.00  0.00     0.002 C 
BRANCH  22  23
ATOM     23  C   UNL A   1      32.968  29.092  24.327  1.00  0.00     0.021 C 
BRANCH  23  24
ATOM     24  C   UNL A   1      33.503  29.416  25.716  1.00  0.00     0.116 C 
BRANCH  24  25
ATOM     25  N   UNL A   1      33.107  30.743  26.151  1.00  0.00    -0.352 N 
ATOM     26  C   UNL A   1      33.613  31.499  27.179  1.00  0.00     0.251 C 
ATOM     27  H   UNL A   1      32.376  31.157  25.639  1.00  0.00     0.163 HD
ATOM     28  O   UNL A   1      33.010  32.502  27.548  1.00  0.00    -0.269 OA
BRANCH  26  29
ATOM     29  C   UNL A   1      34.869  31.090  27.851  1.00  0.00     0.039 A 
ATOM     30  C   UNL A   1      34.945  29.815  28.417  1.00  0.00     0.014 A 
ATOM     31  C   UNL A   1      35.957  31.964  27.949  1.00  0.00     0.014 A 
ATOM     32  C   UNL A   1      36.122  29.405  29.049  1.00  0.00     0.010 A 
ATOM     33  C   UNL A   1      37.154  31.528  28.515  1.00  0.00     0.010 A 
ATOM     34  C   UNL A   1      37.242  30.251  29.089  1.00  0.00    -0.014 A 
BRANCH  34  35
ATOM     35  C   UNL A   1      38.493  29.825  29.770  1.00  0.00     0.031 A 
ATOM     36  C   UNL A   1      38.829  30.369  31.133  1.00  0.00     0.074 A 
ATOM     37  C   UNL A   1      39.337  28.977  29.152  1.00  0.00     0.049 A 
ATOM     38  N   UNL A   1      39.876  30.136  31.884  1.00  0.00    -0.248 NA
ATOM     39  C   UNL A   1      37.876  31.325  31.715  1.00  0.00     0.031 C 
ATOM     40  C   UNL A   1      39.144  28.420  27.811  1.00  0.00     0.029 A 
ATOM     41  N   UNL A   1      40.526  28.433  29.567  1.00  0.00    -0.354 N 
ATOM     42  C   UNL A   1      39.712  30.923  33.019  1.00  0.00     0.074 A 
ATOM     43  C   UNL A   1      38.500  31.691  32.824  1.00  0.00     0.031 C 
ATOM     44  C   UNL A   1      40.163  27.592  27.528  1.00  0.00     0.029 A 
ATOM     45  C   UNL A   1      41.098  27.583  28.649  1.00  0.00     0.049 A 
ATOM     46  H   UNL A   1      40.933  28.633  30.441  1.00  0.00     0.167 HD
ATOM     47  C   UNL A   1      40.485  30.983  34.134  1.00  0.00     0.034 A 
ATOM     48  C   UNL A   1      42.242  26.876  28.706  1.00  0.00     0.034 A 
ATOM     49  C   UNL A   1      41.682  30.199  34.320  1.00  0.00     0.049 A 
ATOM     50  C   UNL A   1      43.083  26.950  29.956  1.00  0.00     0.074 A 
ATOM     51  C   UNL A   1      42.513  30.141  35.425  1.00  0.00     0.029 A 
ATOM     52  N   UNL A   1      42.222  29.336  33.373  1.00  0.00    -0.354 N 
ATOM     53  N   UNL A   1      42.885  27.658  31.045  1.00  0.00    -0.248 NA
ATOM     54  C   UNL A   1      44.288  26.113  29.992  1.00  0.00     0.031 C 
ATOM     55  C   UNL A   1      43.585  29.291  35.125  1.00  0.00     0.029 A 
ATOM     56  C   UNL A   1      43.386  28.762  33.860  1.00  0.00     0.049 A 
ATOM     57  H   UNL A   1      41.834  29.159  32.486  1.00  0.00     0.167 HD
ATOM     58  C   UNL A   1      43.927  27.328  31.906  1.00  0.00     0.074 A 
ATOM     59  C   UNL A   1      44.737  26.344  31.216  1.00  0.00     0.031 C 
ATOM     60  C   UNL A   1      44.192  27.792  33.155  1.00  0.00     0.034 A 
BRANCH  47  61
ATOM     61  C   UNL A   1      40.061  31.945  35.219  1.00  0.00     0.023 A 
ATOM     62  C   UNL A   1      39.278  31.528  36.311  1.00  0.00     0.031 A 
ATOM     63  C   UNL A   1      40.412  33.304  35.145  1.00  0.00     0.131 A 
ATOM     64  C   UNL A   1      38.801  32.471  37.234  1.00  0.00     0.055 A 
ATOM     65  C   UNL A   1      40.005  34.224  36.115  1.00  0.00     0.041 A 
ATOM     66  F   UNL A   1      41.142  33.768  34.119  1.00  0.00    -0.206 F 
ATOM     67  C   UNL A   1      39.180  33.813  37.158  1.00  0.00     0.022 A 
BRANCH  64  68
ATOM     68  S   UNL A   1      37.557  31.945  38.445  1.00  0.00     0.124 S 
ATOM     69  O   UNL A   1      37.236  30.601  37.970  1.00  0.00    -0.237 OA
ATOM     70  O   UNL A   1      38.288  32.022  39.704  1.00  0.00    -0.237 OA
ATOM     71  O   UNL A   1      36.485  32.927  38.283  1.00  0.00    -0.744 OA
ENDBRANCH  64  68
ENDBRANCH  47  61
BRANCH  48  72
ATOM     72  C   UNL A   1      42.666  26.030  27.555  1.00  0.00     0.023 A 
ATOM     73  C   UNL A   1      42.194  24.715  27.410  1.00  0.00     0.031 A 
ATOM     74  C   UNL A   1      43.580  26.511  26.601  1.00  0.00     0.131 A 
ATOM     75  C   UNL A   1      42.675  23.910  26.365  1.00  0.00     0.055 A 
ATOM     76  C   UNL A   1      44.017  25.723  25.535  1.00  0.00     0.041 A 
ATOM     77  F   UNL A   1      44.054  27.765  26.688  1.00  0.00    -0.206 F 
ATOM     78  C   UNL A   1      43.575  24.409  25.421  1.00  0.00     0.022 A 
BRANCH  75  79
ATOM     79  S   UNL A   1      42.166  22.169  26.304  1.00  0.00     0.124 S 
ATOM     80  O   UNL A   1      42.575  21.693  27.621  1.00  0.00    -0.237 OA
ATOM     81  O   UNL A   1      40.729  22.284  26.080  1.00  0.00    -0.237 OA
ATOM     82  O   UNL A   1      42.929  21.632  25.180  1.00  0.00    -0.744 OA
ENDBRANCH  75  79
ENDBRANCH  48  72
BRANCH  60  83
ATOM     83  C   UNL A   1      45.386  27.200  33.862  1.00  0.00     0.023 A 
ATOM     84  C   UNL A   1      45.274  26.051  34.666  1.00  0.00     0.031 A 
ATOM     85  C   UNL A   1      46.647  27.812  33.753  1.00  0.00     0.131 A 
ATOM     86  C   UNL A   1      46.389  25.590  35.381  1.00  0.00     0.055 A 
ATOM     87  C   UNL A   1      47.766  27.312  34.420  1.00  0.00     0.041 A 
ATOM     88  F   UNL A   1      46.810  28.912  33.000  1.00  0.00    -0.206 F 
ATOM     89  C   UNL A   1      47.638  26.203  35.252  1.00  0.00     0.022 A 
BRANCH  86  90
ATOM     90  S   UNL A   1      46.159  24.240  36.572  1.00  0.00     0.124 S 
ATOM     91  O   UNL A   1      45.192  23.390  35.885  1.00  0.00    -0.237 OA
ATOM     92  O   UNL A   1      47.510  23.700  36.693  1.00  0.00    -0.237 OA
ATOM     93  O   UNL A   1      45.653  24.917  37.765  1.00  0.00    -0.744 OA
ENDBRANCH  86  90
ENDBRANCH  60  83
ENDBRANCH  34  35
ENDBRANCH  26  29
ENDBRANCH  24  25
ENDBRANCH  23  24
ENDBRANCH  22  23
ENDBRANCH   1  22
TORSDOF 20
ENDMDL
