MODEL 1
REMARK VINA RESULT:     -11.4      0.000      0.000
REMARK SMILES C[C@H]1C[NH+](CC[C@@H]2CCC[C@]2([NH3+])C(=O)NCCCCCCNC(=O)c2ccc(-c3c4nc(c(-c5cc(S(=O)(=O)[O-])ccc5F)c5ccc([nH]5)c(-c5cc(S(=O)(=O)[O-])ccc5F)c5nc(c(-c6cc(S(=O)(=O)[O-])ccc6F)c6ccc3[nH]6)C=C5)C=C4)cc2)C[C@H](C)O1
REMARK SMILES IDX 18 1 17 2 16 3 15 4 13 5 14 6 11 8 7 9 8 10 9 11 10 12 6 13
REMARK SMILES IDX 5 14 4 15 1 16 2 17 3 18 91 19 89 20 88 21 90 23 12 24 19 28
REMARK SMILES IDX 20 29 21 30 22 31 23 32 24 34 25 35 26 36 87 37 27 38 86 39
REMARK SMILES IDX 28 40 29 41 30 42 80 43 31 44 85 45 79 46 81 47 32 48 84 49
REMARK SMILES IDX 78 50 77 51 33 53 65 54 45 55 64 56 46 57 49 58 63 59 82 60
REMARK SMILES IDX 47 61 48 62 62 64 83 65 50 66 34 67 35 68 43 69 36 70 42 71
REMARK SMILES IDX 44 72 41 73 37 74 38 75 39 76 40 77 66 78 67 79 75 80 68 81
REMARK SMILES IDX 74 82 76 83 73 84 69 85 70 86 71 87 72 88 51 89 52 90 60 91
REMARK SMILES IDX 53 92 59 93 61 94 58 95 54 96 55 97 56 98 57 99
REMARK H PARENT 15 7 4 22 12 25 12 26 12 27 22 33 81 52 49 63
REMARK Flexibility Score: inf
ROOT
ATOM      1  C   UNL A   1      32.188  29.701  27.022  1.00  0.00     0.002 C 
ENDROOT
BRANCH   1   2
ATOM      2  C   UNL A   1      33.414  28.957  26.472  1.00  0.00     0.021 C 
BRANCH   2   3
ATOM      3  C   UNL A   1      33.278  27.423  26.330  1.00  0.00     0.116 C 
BRANCH   3   4
ATOM      4  N   UNL A   1      31.891  26.933  26.375  1.00  0.00    -0.351 N 
ATOM      5  C   UNL A   1      30.957  26.243  25.688  1.00  0.00     0.281 C 
ATOM      6  O   UNL A   1      30.175  25.714  26.506  1.00  0.00    -0.268 OA
ATOM      7  H   UNL A   1      31.495  27.215  27.232  1.00  0.00     0.163 HD
BRANCH   5   8
ATOM      8  C   UNL A   1      30.700  25.964  24.115  1.00  0.00     0.177 C 
ATOM      9  C   UNL A   1      31.646  26.439  22.964  1.00  0.00     0.066 C 
ATOM     10  C   UNL A   1      31.647  27.969  23.150  1.00  0.00     0.011 C 
ATOM     11  C   UNL A   1      30.207  28.309  23.544  1.00  0.00     0.008 C 
ATOM     12  C   UNL A   1      29.525  26.959  23.755  1.00  0.00     0.079 C 
BRANCH   9  13
ATOM     13  C   UNL A   1      33.002  25.864  22.501  1.00  0.00     0.072 C 
BRANCH  13  14
ATOM     14  C   UNL A   1      33.206  24.364  22.435  1.00  0.00     0.262 C 
BRANCH  14  15
ATOM     15  N   UNL A   1      33.969  23.661  23.472  1.00  0.00    -0.331 N 
ATOM     16  C   UNL A   1      34.367  20.132  24.839  1.00  0.00     0.045 C 
ATOM     17  C   UNL A   1      34.657  21.605  24.605  1.00  0.00     0.170 C 
ATOM     18  C   UNL A   1      33.586  22.263  23.703  1.00  0.00     0.294 C 
ATOM     19  O   UNL A   1      34.711  22.234  25.896  1.00  0.00    -0.364 OA
ATOM     20  C   UNL A   1      34.979  23.635  25.817  1.00  0.00     0.170 C 
ATOM     21  C   UNL A   1      34.096  24.334  24.761  1.00  0.00     0.294 C 
ATOM     22  H   UNL A   1      34.889  23.677  23.031  1.00  0.00     0.348 HD
ATOM     23  C   UNL A   1      36.472  23.910  25.637  1.00  0.00     0.045 C 
ENDBRANCH  14  15
ENDBRANCH  13  14
ENDBRANCH   9  13
BRANCH   8  24
ATOM     24  N   UNL A   1      30.021  24.671  23.897  1.00  0.00    -0.345 N 
ATOM     25  H   UNL A   1      30.022  24.451  22.902  1.00  0.00     0.345 HD
ATOM     26  H   UNL A   1      29.059  24.733  24.230  1.00  0.00     0.345 HD
ATOM     27  H   UNL A   1      30.512  23.939  24.409  1.00  0.00     0.345 HD
ENDBRANCH   8  24
ENDBRANCH   5   8
ENDBRANCH   3   4
ENDBRANCH   2   3
ENDBRANCH   1   2
BRANCH   1  28
ATOM     28  C   UNL A   1      31.521  30.706  26.075  1.00  0.00     0.002 C 
BRANCH  28  29
ATOM     29  C   UNL A   1      31.452  32.168  26.541  1.00  0.00     0.021 C 
BRANCH  29  30
ATOM     30  C   UNL A   1      32.713  32.755  27.186  1.00  0.00     0.116 C 
BRANCH  30  31
ATOM     31  N   UNL A   1      32.527  34.111  27.677  1.00  0.00    -0.352 N 
ATOM     32  C   UNL A   1      33.155  34.802  28.688  1.00  0.00     0.251 C 
ATOM     33  H   UNL A   1      31.833  34.624  27.204  1.00  0.00     0.163 HD
ATOM     34  O   UNL A   1      32.711  35.900  29.018  1.00  0.00    -0.269 OA
BRANCH  32  35
ATOM     35  C   UNL A   1      34.335  34.245  29.395  1.00  0.00     0.039 A 
ATOM     36  C   UNL A   1      34.123  33.437  30.518  1.00  0.00     0.014 A 
ATOM     37  C   UNL A   1      35.639  34.561  29.010  1.00  0.00     0.014 A 
ATOM     38  C   UNL A   1      35.212  32.899  31.214  1.00  0.00     0.010 A 
ATOM     39  C   UNL A   1      36.724  33.978  29.669  1.00  0.00     0.010 A 
ATOM     40  C   UNL A   1      36.524  33.139  30.777  1.00  0.00    -0.014 A 
BRANCH  40  41
ATOM     41  C   UNL A   1      37.691  32.524  31.469  1.00  0.00     0.031 A 
ATOM     42  C   UNL A   1      38.438  31.382  30.831  1.00  0.00     0.074 A 
ATOM     43  C   UNL A   1      38.038  32.952  32.700  1.00  0.00     0.049 A 
ATOM     44  N   UNL A   1      39.423  30.664  31.309  1.00  0.00    -0.248 NA
ATOM     45  C   UNL A   1      37.998  30.977  29.487  1.00  0.00     0.031 C 
ATOM     46  C   UNL A   1      37.371  34.026  33.438  1.00  0.00     0.029 A 
ATOM     47  N   UNL A   1      39.028  32.530  33.555  1.00  0.00    -0.354 N 
ATOM     48  C   UNL A   1      39.708  29.711  30.336  1.00  0.00     0.074 A 
ATOM     49  C   UNL A   1      38.757  29.914  29.263  1.00  0.00     0.031 C 
ATOM     50  C   UNL A   1      37.975  34.185  34.627  1.00  0.00     0.029 A 
ATOM     51  C   UNL A   1      39.043  33.201  34.757  1.00  0.00     0.049 A 
ATOM     52  H   UNL A   1      39.665  31.815  33.329  1.00  0.00     0.167 HD
ATOM     53  C   UNL A   1      40.682  28.766  30.332  1.00  0.00     0.034 A 
ATOM     54  C   UNL A   1      39.818  33.032  35.847  1.00  0.00     0.034 A 
ATOM     55  C   UNL A   1      41.635  28.591  31.403  1.00  0.00     0.049 A 
ATOM     56  C   UNL A   1      40.889  31.969  35.823  1.00  0.00     0.074 A 
ATOM     57  C   UNL A   1      42.704  27.713  31.470  1.00  0.00     0.029 A 
ATOM     58  N   UNL A   1      41.629  29.297  32.599  1.00  0.00    -0.354 N 
ATOM     59  N   UNL A   1      41.183  31.116  34.869  1.00  0.00    -0.248 NA
ATOM     60  C   UNL A   1      41.738  31.855  37.015  1.00  0.00     0.031 C 
ATOM     61  C   UNL A   1      43.298  27.840  32.731  1.00  0.00     0.029 A 
ATOM     62  C   UNL A   1      42.652  28.852  33.422  1.00  0.00     0.049 A 
ATOM     63  H   UNL A   1      40.990  30.012  32.829  1.00  0.00     0.167 HD
ATOM     64  C   UNL A   1      42.273  30.387  35.336  1.00  0.00     0.074 A 
ATOM     65  C   UNL A   1      42.593  30.912  36.648  1.00  0.00     0.031 C 
ATOM     66  C   UNL A   1      42.953  29.377  34.734  1.00  0.00     0.034 A 
BRANCH  53  67
ATOM     67  C   UNL A   1      40.746  27.830  29.147  1.00  0.00     0.023 A 
ATOM     68  C   UNL A   1      41.686  28.000  28.114  1.00  0.00     0.031 A 
ATOM     69  C   UNL A   1      39.843  26.757  29.040  1.00  0.00     0.131 A 
ATOM     70  C   UNL A   1      41.653  27.162  26.990  1.00  0.00     0.055 A 
ATOM     71  C   UNL A   1      39.869  25.875  27.957  1.00  0.00     0.041 A 
ATOM     72  F   UNL A   1      38.909  26.552  29.983  1.00  0.00    -0.206 F 
ATOM     73  C   UNL A   1      40.768  26.084  26.916  1.00  0.00     0.022 A 
BRANCH  70  74
ATOM     74  S   UNL A   1      42.691  27.585  25.564  1.00  0.00     0.124 S 
ATOM     75  O   UNL A   1      42.011  28.770  25.047  1.00  0.00    -0.237 OA
ATOM     76  O   UNL A   1      43.994  27.810  26.176  1.00  0.00    -0.237 OA
ATOM     77  O   UNL A   1      42.599  26.401  24.710  1.00  0.00    -0.744 OA
ENDBRANCH  70  74
ENDBRANCH  53  67
BRANCH  54  78
ATOM     78  C   UNL A   1      39.608  33.872  37.064  1.00  0.00     0.023 A 
ATOM     79  C   UNL A   1      38.987  33.347  38.209  1.00  0.00     0.031 A 
ATOM     80  C   UNL A   1      39.984  35.227  37.082  1.00  0.00     0.131 A 
ATOM     81  C   UNL A   1      38.714  34.184  39.304  1.00  0.00     0.055 A 
ATOM     82  C   UNL A   1      39.760  36.041  38.195  1.00  0.00     0.041 A 
ATOM     83  F   UNL A   1      40.584  35.780  36.017  1.00  0.00    -0.206 F 
ATOM     84  C   UNL A   1      39.109  35.523  39.309  1.00  0.00     0.022 A 
BRANCH  81  85
ATOM     85  S   UNL A   1      37.747  33.516  40.687  1.00  0.00     0.124 S 
ATOM     86  O   UNL A   1      38.661  32.519  41.234  1.00  0.00    -0.237 OA
ATOM     87  O   UNL A   1      37.530  34.704  41.504  1.00  0.00    -0.237 OA
ATOM     88  O   UNL A   1      36.553  32.980  40.039  1.00  0.00    -0.744 OA
ENDBRANCH  81  85
ENDBRANCH  54  78
BRANCH  66  89
ATOM     89  C   UNL A   1      44.137  28.809  35.477  1.00  0.00     0.023 A 
ATOM     90  C   UNL A   1      44.010  27.716  36.352  1.00  0.00     0.031 A 
ATOM     91  C   UNL A   1      45.413  29.380  35.313  1.00  0.00     0.131 A 
ATOM     92  C   UNL A   1      45.126  27.264  37.073  1.00  0.00     0.055 A 
ATOM     93  C   UNL A   1      46.531  28.886  35.987  1.00  0.00     0.041 A 
ATOM     94  F   UNL A   1      45.592  30.427  34.492  1.00  0.00    -0.206 F 
ATOM     95  C   UNL A   1      46.389  27.831  36.883  1.00  0.00     0.022 A 
BRANCH  92  96
ATOM     96  S   UNL A   1      44.887  25.983  38.334  1.00  0.00     0.124 S 
ATOM     97  O   UNL A   1      46.217  25.388  38.418  1.00  0.00    -0.237 OA
ATOM     98  O   UNL A   1      44.462  26.761  39.493  1.00  0.00    -0.237 OA
ATOM     99  O   UNL A   1      43.857  25.121  37.756  1.00  0.00    -0.744 OA
ENDBRANCH  92  96
ENDBRANCH  66  89
ENDBRANCH  40  41
ENDBRANCH  32  35
ENDBRANCH  30  31
ENDBRANCH  29  30
ENDBRANCH  28  29
ENDBRANCH   1  28
TORSDOF 20
ENDMDL
MODEL 2
REMARK VINA RESULT:     -11.0      1.541      2.026
REMARK SMILES C[C@H]1C[NH+](CC[C@@H]2CCC[C@]2([NH3+])C(=O)NCCCCCCNC(=O)c2ccc(-c3c4nc(c(-c5cc(S(=O)(=O)[O-])ccc5F)c5ccc([nH]5)c(-c5cc(S(=O)(=O)[O-])ccc5F)c5nc(c(-c6cc(S(=O)(=O)[O-])ccc6F)c6ccc3[nH]6)C=C5)C=C4)cc2)C[C@H](C)O1
REMARK SMILES IDX 18 1 17 2 16 3 15 4 13 5 14 6 11 8 7 9 8 10 9 11 10 12 6 13
REMARK SMILES IDX 5 14 4 15 1 16 2 17 3 18 91 19 89 20 88 21 90 23 12 24 19 28
REMARK SMILES IDX 20 29 21 30 22 31 23 32 24 34 25 35 26 36 87 37 27 38 86 39
REMARK SMILES IDX 28 40 29 41 30 42 80 43 31 44 85 45 79 46 81 47 32 48 84 49
REMARK SMILES IDX 78 50 77 51 33 53 65 54 45 55 64 56 46 57 49 58 63 59 82 60
REMARK SMILES IDX 47 61 48 62 62 64 83 65 50 66 34 67 35 68 43 69 36 70 42 71
REMARK SMILES IDX 44 72 41 73 37 74 38 75 39 76 40 77 66 78 67 79 75 80 68 81
REMARK SMILES IDX 74 82 76 83 73 84 69 85 70 86 71 87 72 88 51 89 52 90 60 91
REMARK SMILES IDX 53 92 59 93 61 94 58 95 54 96 55 97 56 98 57 99
REMARK H PARENT 15 7 4 22 12 25 12 26 12 27 22 33 81 52 49 63
REMARK Flexibility Score: inf
ROOT
ATOM      1  C   UNL A   1      31.714  29.603  26.551  1.00  0.00     0.002 C 
ENDROOT
BRANCH   1   2
ATOM      2  C   UNL A   1      32.965  28.893  26.012  1.00  0.00     0.021 C 
BRANCH   2   3
ATOM      3  C   UNL A   1      32.990  27.353  26.142  1.00  0.00     0.116 C 
BRANCH   3   4
ATOM      4  N   UNL A   1      31.659  26.735  26.260  1.00  0.00    -0.351 N 
ATOM      5  C   UNL A   1      30.733  26.009  25.598  1.00  0.00     0.281 C 
ATOM      6  O   UNL A   1      30.071  25.358  26.434  1.00  0.00    -0.268 OA
ATOM      7  H   UNL A   1      31.313  26.923  27.162  1.00  0.00     0.163 HD
BRANCH   5   8
ATOM      8  C   UNL A   1      30.371  25.811  24.034  1.00  0.00     0.177 C 
ATOM      9  C   UNL A   1      31.101  26.535  22.855  1.00  0.00     0.066 C 
ATOM     10  C   UNL A   1      30.859  28.022  23.183  1.00  0.00     0.011 C 
ATOM     11  C   UNL A   1      29.429  28.067  23.729  1.00  0.00     0.008 C 
ATOM     12  C   UNL A   1      29.013  26.604  23.871  1.00  0.00     0.079 C 
BRANCH   9  13
ATOM     13  C   UNL A   1      32.482  26.251  22.226  1.00  0.00     0.072 C 
BRANCH  13  14
ATOM     14  C   UNL A   1      32.900  24.824  21.932  1.00  0.00     0.262 C 
BRANCH  14  15
ATOM     15  N   UNL A   1      33.244  23.900  23.018  1.00  0.00    -0.331 N 
ATOM     16  C   UNL A   1      36.122  23.247  25.419  1.00  0.00     0.045 C 
ATOM     17  C   UNL A   1      34.733  23.160  24.813  1.00  0.00     0.170 C 
ATOM     18  C   UNL A   1      34.626  23.983  23.506  1.00  0.00     0.294 C 
ATOM     19  O   UNL A   1      34.464  21.767  24.576  1.00  0.00    -0.364 OA
ATOM     20  C   UNL A   1      33.176  21.543  24.000  1.00  0.00     0.170 C 
ATOM     21  C   UNL A   1      32.898  22.496  22.817  1.00  0.00     0.294 C 
ATOM     22  H   UNL A   1      32.622  24.264  23.740  1.00  0.00     0.348 HD
ATOM     23  C   UNL A   1      32.077  21.561  25.062  1.00  0.00     0.045 C 
ENDBRANCH  14  15
ENDBRANCH  13  14
ENDBRANCH   9  13
BRANCH   8  24
ATOM     24  N   UNL A   1      29.905  24.438  23.754  1.00  0.00    -0.345 N 
ATOM     25  H   UNL A   1      29.543  24.021  24.611  1.00  0.00     0.345 HD
ATOM     26  H   UNL A   1      30.685  23.879  23.406  1.00  0.00     0.345 HD
ATOM     27  H   UNL A   1      29.167  24.466  23.051  1.00  0.00     0.345 HD
ENDBRANCH   8  24
ENDBRANCH   5   8
ENDBRANCH   3   4
ENDBRANCH   2   3
ENDBRANCH   1   2
BRANCH   1  28
ATOM     28  C   UNL A   1      31.171  30.760  25.705  1.00  0.00     0.002 C 
BRANCH  28  29
ATOM     29  C   UNL A   1      31.269  32.171  26.303  1.00  0.00     0.021 C 
BRANCH  29  30
ATOM     30  C   UNL A   1      32.442  32.447  27.251  1.00  0.00     0.116 C 
BRANCH  30  31
ATOM     31  N   UNL A   1      32.562  33.848  27.623  1.00  0.00    -0.352 N 
ATOM     32  C   UNL A   1      33.427  34.486  28.480  1.00  0.00     0.251 C 
ATOM     33  H   UNL A   1      31.911  34.442  27.184  1.00  0.00     0.163 HD
ATOM     34  O   UNL A   1      33.229  35.669  28.748  1.00  0.00    -0.269 OA
BRANCH  32  35
ATOM     35  C   UNL A   1      34.576  33.777  29.097  1.00  0.00     0.039 A 
ATOM     36  C   UNL A   1      35.872  34.198  28.778  1.00  0.00     0.014 A 
ATOM     37  C   UNL A   1      34.396  32.669  29.927  1.00  0.00     0.014 A 
ATOM     38  C   UNL A   1      36.980  33.550  29.337  1.00  0.00     0.010 A 
ATOM     39  C   UNL A   1      35.500  32.059  30.529  1.00  0.00     0.010 A 
ATOM     40  C   UNL A   1      36.804  32.493  30.243  1.00  0.00    -0.014 A 
BRANCH  40  41
ATOM     41  C   UNL A   1      37.970  31.833  30.895  1.00  0.00     0.031 A 
ATOM     42  C   UNL A   1      38.750  30.771  30.164  1.00  0.00     0.074 A 
ATOM     43  C   UNL A   1      38.286  32.145  32.169  1.00  0.00     0.049 A 
ATOM     44  N   UNL A   1      39.739  30.027  30.590  1.00  0.00    -0.248 NA
ATOM     45  C   UNL A   1      38.342  30.492  28.779  1.00  0.00     0.031 C 
ATOM     46  C   UNL A   1      37.585  33.130  32.994  1.00  0.00     0.029 A 
ATOM     47  N   UNL A   1      39.267  31.659  32.998  1.00  0.00    -0.354 N 
ATOM     48  C   UNL A   1      40.060  29.178  29.535  1.00  0.00     0.074 A 
ATOM     49  C   UNL A   1      39.125  29.468  28.468  1.00  0.00     0.031 C 
ATOM     50  C   UNL A   1      38.164  33.183  34.204  1.00  0.00     0.029 A 
ATOM     51  C   UNL A   1      39.248  32.209  34.260  1.00  0.00     0.049 A 
ATOM     52  H   UNL A   1      39.922  30.980  32.717  1.00  0.00     0.167 HD
ATOM     53  C   UNL A   1      41.052  28.255  29.459  1.00  0.00     0.034 A 
ATOM     54  C   UNL A   1      40.006  31.948  35.344  1.00  0.00     0.034 A 
ATOM     55  C   UNL A   1      41.987  27.992  30.527  1.00  0.00     0.049 A 
ATOM     56  C   UNL A   1      41.097  30.910  35.238  1.00  0.00     0.074 A 
ATOM     57  C   UNL A   1      43.071  27.130  30.530  1.00  0.00     0.029 A 
ATOM     58  N   UNL A   1      41.946  28.578  31.785  1.00  0.00    -0.354 N 
ATOM     59  N   UNL A   1      41.425  30.160  34.212  1.00  0.00    -0.248 NA
ATOM     60  C   UNL A   1      41.926  30.695  36.431  1.00  0.00     0.031 C 
ATOM     61  C   UNL A   1      43.639  27.143  31.809  1.00  0.00     0.029 A 
ATOM     62  C   UNL A   1      42.961  28.072  32.582  1.00  0.00     0.049 A 
ATOM     63  H   UNL A   1      41.290  29.256  32.070  1.00  0.00     0.167 HD
ATOM     64  C   UNL A   1      42.519  29.406  34.628  1.00  0.00     0.074 A 
ATOM     65  C   UNL A   1      42.804  29.807  35.991  1.00  0.00     0.031 C 
ATOM     66  C   UNL A   1      43.229  28.472  33.944  1.00  0.00     0.034 A 
BRANCH  53  67
ATOM     67  C   UNL A   1      41.154  27.440  28.190  1.00  0.00     0.023 A 
ATOM     68  C   UNL A   1      40.790  26.082  28.148  1.00  0.00     0.031 A 
ATOM     69  C   UNL A   1      41.637  28.026  27.006  1.00  0.00     0.131 A 
ATOM     70  C   UNL A   1      40.983  25.339  26.972  1.00  0.00     0.055 A 
ATOM     71  C   UNL A   1      41.749  27.302  25.817  1.00  0.00     0.041 A 
ATOM     72  F   UNL A   1      42.019  29.313  26.986  1.00  0.00    -0.206 F 
ATOM     73  C   UNL A   1      41.436  25.946  25.799  1.00  0.00     0.022 A 
BRANCH  70  74
ATOM     74  S   UNL A   1      40.766  23.540  27.039  1.00  0.00     0.124 S 
ATOM     75  O   UNL A   1      41.608  23.100  25.930  1.00  0.00    -0.237 OA
ATOM     76  O   UNL A   1      41.245  23.213  28.376  1.00  0.00    -0.237 OA
ATOM     77  O   UNL A   1      39.329  23.361  26.830  1.00  0.00    -0.744 OA
ENDBRANCH  70  74
ENDBRANCH  53  67
BRANCH  54  78
ATOM     78  C   UNL A   1      39.758  32.661  36.632  1.00  0.00     0.023 A 
ATOM     79  C   UNL A   1      38.780  32.211  37.534  1.00  0.00     0.031 A 
ATOM     80  C   UNL A   1      40.464  33.833  36.959  1.00  0.00     0.131 A 
ATOM     81  C   UNL A   1      38.499  32.955  38.692  1.00  0.00     0.055 A 
ATOM     82  C   UNL A   1      40.220  34.538  38.139  1.00  0.00     0.041 A 
ATOM     83  F   UNL A   1      41.412  34.306  36.135  1.00  0.00    -0.206 F 
ATOM     84  C   UNL A   1      39.222  34.107  39.006  1.00  0.00     0.022 A 
BRANCH  81  85
ATOM     85  S   UNL A   1      37.106  32.443  39.736  1.00  0.00     0.124 S 
ATOM     86  O   UNL A   1      37.406  31.033  39.961  1.00  0.00    -0.237 OA
ATOM     87  O   UNL A   1      37.255  33.323  40.890  1.00  0.00    -0.237 OA
ATOM     88  O   UNL A   1      35.939  32.707  38.898  1.00  0.00    -0.744 OA
ENDBRANCH  81  85
ENDBRANCH  54  78
BRANCH  66  89
ATOM     89  C   UNL A   1      44.410  27.854  34.652  1.00  0.00     0.023 A 
ATOM     90  C   UNL A   1      44.303  26.641  35.354  1.00  0.00     0.031 A 
ATOM     91  C   UNL A   1      45.660  28.499  34.633  1.00  0.00     0.131 A 
ATOM     92  C   UNL A   1      45.410  26.138  36.054  1.00  0.00     0.055 A 
ATOM     93  C   UNL A   1      46.774  27.962  35.280  1.00  0.00     0.041 A 
ATOM     94  F   UNL A   1      45.819  29.661  33.980  1.00  0.00    -0.206 F 
ATOM     95  C   UNL A   1      46.650  26.782  36.007  1.00  0.00     0.022 A 
BRANCH  92  96
ATOM     96  S   UNL A   1      45.186  24.677  37.106  1.00  0.00     0.124 S 
ATOM     97  O   UNL A   1      44.348  25.201  38.179  1.00  0.00    -0.237 OA
ATOM     98  O   UNL A   1      44.542  23.734  36.197  1.00  0.00    -0.237 OA
ATOM     99  O   UNL A   1      46.550  24.325  37.499  1.00  0.00    -0.744 OA
ENDBRANCH  92  96
ENDBRANCH  66  89
ENDBRANCH  40  41
ENDBRANCH  32  35
ENDBRANCH  30  31
ENDBRANCH  29  30
ENDBRANCH  28  29
ENDBRANCH   1  28
TORSDOF 20
ENDMDL
MODEL 3
REMARK VINA RESULT:     -11.0      1.568      7.685
REMARK SMILES C[C@H]1C[NH+](CC[C@@H]2CCC[C@]2([NH3+])C(=O)NCCCCCCNC(=O)c2ccc(-c3c4nc(c(-c5cc(S(=O)(=O)[O-])ccc5F)c5ccc([nH]5)c(-c5cc(S(=O)(=O)[O-])ccc5F)c5nc(c(-c6cc(S(=O)(=O)[O-])ccc6F)c6ccc3[nH]6)C=C5)C=C4)cc2)C[C@H](C)O1
REMARK SMILES IDX 18 1 17 2 16 3 15 4 13 5 14 6 11 8 7 9 8 10 9 11 10 12 6 13
REMARK SMILES IDX 5 14 4 15 1 16 2 17 3 18 91 19 89 20 88 21 90 23 12 24 19 28
REMARK SMILES IDX 20 29 21 30 22 31 23 32 24 34 25 35 26 36 87 37 27 38 86 39
REMARK SMILES IDX 28 40 29 41 30 42 80 43 31 44 85 45 79 46 81 47 32 48 84 49
REMARK SMILES IDX 78 50 77 51 33 53 65 54 45 55 64 56 46 57 49 58 63 59 82 60
REMARK SMILES IDX 47 61 48 62 62 64 83 65 50 66 34 67 35 68 43 69 36 70 42 71
REMARK SMILES IDX 44 72 41 73 37 74 38 75 39 76 40 77 66 78 67 79 75 80 68 81
REMARK SMILES IDX 74 82 76 83 73 84 69 85 70 86 71 87 72 88 51 89 52 90 60 91
REMARK SMILES IDX 53 92 59 93 61 94 58 95 54 96 55 97 56 98 57 99
REMARK H PARENT 15 7 4 22 12 25 12 26 12 27 22 33 81 52 49 63
REMARK Flexibility Score: inf
ROOT
ATOM      1  C   UNL A   1      31.778  29.858  26.629  1.00  0.00     0.002 C 
ENDROOT
BRANCH   1   2
ATOM      2  C   UNL A   1      33.024  29.231  25.987  1.00  0.00     0.021 C 
BRANCH   2   3
ATOM      3  C   UNL A   1      33.128  27.690  26.053  1.00  0.00     0.116 C 
BRANCH   3   4
ATOM      4  N   UNL A   1      31.836  27.004  26.212  1.00  0.00    -0.351 N 
ATOM      5  C   UNL A   1      30.966  26.165  25.609  1.00  0.00     0.281 C 
ATOM      6  O   UNL A   1      30.333  25.551  26.494  1.00  0.00    -0.268 OA
ATOM      7  H   UNL A   1      31.465  27.249  27.090  1.00  0.00     0.163 HD
BRANCH   5   8
ATOM      8  C   UNL A   1      30.641  25.805  24.066  1.00  0.00     0.177 C 
ATOM      9  C   UNL A   1      31.398  26.406  22.836  1.00  0.00     0.066 C 
ATOM     10  C   UNL A   1      31.149  27.918  23.004  1.00  0.00     0.011 C 
ATOM     11  C   UNL A   1      29.707  28.016  23.508  1.00  0.00     0.008 C 
ATOM     12  C   UNL A   1      29.287  26.574  23.790  1.00  0.00     0.079 C 
BRANCH   9  13
ATOM     13  C   UNL A   1      32.794  26.061  22.273  1.00  0.00     0.072 C 
BRANCH  13  14
ATOM     14  C   UNL A   1      33.178  24.615  22.036  1.00  0.00     0.262 C 
BRANCH  14  15
ATOM     15  N   UNL A   1      33.871  23.840  23.071  1.00  0.00    -0.331 N 
ATOM     16  C   UNL A   1      33.660  20.411  24.707  1.00  0.00     0.045 C 
ATOM     17  C   UNL A   1      34.223  21.768  24.325  1.00  0.00     0.170 C 
ATOM     18  C   UNL A   1      33.232  22.574  23.450  1.00  0.00     0.294 C 
ATOM     19  O   UNL A   1      34.521  22.461  25.550  1.00  0.00    -0.364 OA
ATOM     20  C   UNL A   1      35.061  23.764  25.330  1.00  0.00     0.170 C 
ATOM     21  C   UNL A   1      34.249  24.559  24.285  1.00  0.00     0.294 C 
ATOM     22  H   UNL A   1      34.732  23.631  22.565  1.00  0.00     0.348 HD
ATOM     23  C   UNL A   1      36.556  23.705  25.017  1.00  0.00     0.045 C 
ENDBRANCH  14  15
ENDBRANCH  13  14
ENDBRANCH   9  13
BRANCH   8  24
ATOM     24  N   UNL A   1      30.181  24.410  23.919  1.00  0.00    -0.345 N 
ATOM     25  H   UNL A   1      29.224  24.403  23.568  1.00  0.00     0.345 HD
ATOM     26  H   UNL A   1      30.215  23.945  24.826  1.00  0.00     0.345 HD
ATOM     27  H   UNL A   1      30.788  23.920  23.262  1.00  0.00     0.345 HD
ENDBRANCH   8  24
ENDBRANCH   5   8
ENDBRANCH   3   4
ENDBRANCH   2   3
ENDBRANCH   1   2
BRANCH   1  28
ATOM     28  C   UNL A   1      31.146  31.038  25.881  1.00  0.00     0.002 C 
BRANCH  28  29
ATOM     29  C   UNL A   1      31.315  32.432  26.502  1.00  0.00     0.021 C 
BRANCH  29  30
ATOM     30  C   UNL A   1      32.710  32.802  27.018  1.00  0.00     0.116 C 
BRANCH  30  31
ATOM     31  N   UNL A   1      32.754  34.101  27.671  1.00  0.00    -0.352 N 
ATOM     32  C   UNL A   1      33.521  34.564  28.713  1.00  0.00     0.251 C 
ATOM     33  H   UNL A   1      32.126  34.763  27.301  1.00  0.00     0.163 HD
ATOM     34  O   UNL A   1      33.265  35.667  29.192  1.00  0.00    -0.269 OA
BRANCH  32  35
ATOM     35  C   UNL A   1      34.632  33.760  29.280  1.00  0.00     0.039 A 
ATOM     36  C   UNL A   1      35.946  34.203  29.085  1.00  0.00     0.014 A 
ATOM     37  C   UNL A   1      34.403  32.550  29.938  1.00  0.00     0.014 A 
ATOM     38  C   UNL A   1      37.020  33.467  29.601  1.00  0.00     0.010 A 
ATOM     39  C   UNL A   1      35.471  31.846  30.501  1.00  0.00     0.010 A 
ATOM     40  C   UNL A   1      36.792  32.297  30.341  1.00  0.00    -0.014 A 
BRANCH  40  41
ATOM     41  C   UNL A   1      37.919  31.536  30.949  1.00  0.00     0.031 A 
ATOM     42  C   UNL A   1      38.386  31.854  32.345  1.00  0.00     0.074 A 
ATOM     43  C   UNL A   1      38.564  30.603  30.219  1.00  0.00     0.049 A 
ATOM     44  N   UNL A   1      39.398  31.362  33.014  1.00  0.00    -0.248 NA
ATOM     45  C   UNL A   1      37.628  32.883  33.074  1.00  0.00     0.031 C 
ATOM     46  C   UNL A   1      38.229  30.230  28.843  1.00  0.00     0.029 A 
ATOM     47  N   UNL A   1      39.641  29.807  30.523  1.00  0.00    -0.354 N 
ATOM     48  C   UNL A   1      39.412  32.034  34.233  1.00  0.00     0.074 A 
ATOM     49  C   UNL A   1      38.336  33.002  34.188  1.00  0.00     0.031 C 
ATOM     50  C   UNL A   1      39.075  29.273  28.428  1.00  0.00     0.029 A 
ATOM     51  C   UNL A   1      40.038  28.993  29.487  1.00  0.00     0.049 A 
ATOM     52  H   UNL A   1      40.088  29.819  31.400  1.00  0.00     0.167 HD
ATOM     53  C   UNL A   1      40.236  31.848  35.296  1.00  0.00     0.034 A 
ATOM     54  C   UNL A   1      41.070  28.130  29.393  1.00  0.00     0.034 A 
ATOM     55  C   UNL A   1      41.292  30.864  35.330  1.00  0.00     0.049 A 
ATOM     56  C   UNL A   1      41.978  27.947  30.585  1.00  0.00     0.074 A 
ATOM     57  C   UNL A   1      42.138  30.545  36.379  1.00  0.00     0.029 A 
ATOM     58  N   UNL A   1      41.655  30.047  34.268  1.00  0.00    -0.354 N 
ATOM     59  N   UNL A   1      41.939  28.548  31.751  1.00  0.00    -0.248 NA
ATOM     60  C   UNL A   1      43.059  26.962  30.450  1.00  0.00     0.031 C 
ATOM     61  C   UNL A   1      43.055  29.588  35.928  1.00  0.00     0.029 A 
ATOM     62  C   UNL A   1      42.733  29.251  34.624  1.00  0.00     0.049 A 
ATOM     63  H   UNL A   1      41.212  30.035  33.388  1.00  0.00     0.167 HD
ATOM     64  C   UNL A   1      42.971  27.988  32.500  1.00  0.00     0.074 A 
ATOM     65  C   UNL A   1      43.601  26.992  31.658  1.00  0.00     0.031 C 
ATOM     66  C   UNL A   1      43.360  28.268  33.771  1.00  0.00     0.034 A 
BRANCH  53  67
ATOM     67  C   UNL A   1      40.047  32.750  36.495  1.00  0.00     0.023 A 
ATOM     68  C   UNL A   1      39.220  32.387  37.574  1.00  0.00     0.031 A 
ATOM     69  C   UNL A   1      40.693  33.997  36.554  1.00  0.00     0.131 A 
ATOM     70  C   UNL A   1      39.003  33.290  38.626  1.00  0.00     0.055 A 
ATOM     71  C   UNL A   1      40.538  34.858  37.645  1.00  0.00     0.041 A 
ATOM     72  F   UNL A   1      41.480  34.409  35.548  1.00  0.00    -0.206 F 
ATOM     73  C   UNL A   1      39.676  34.513  38.681  1.00  0.00     0.022 A 
BRANCH  70  74
ATOM     74  S   UNL A   1      37.722  32.902  39.849  1.00  0.00     0.124 S 
ATOM     75  O   UNL A   1      38.214  31.643  40.402  1.00  0.00    -0.237 OA
ATOM     76  O   UNL A   1      37.774  34.056  40.739  1.00  0.00    -0.237 OA
ATOM     77  O   UNL A   1      36.505  32.788  39.046  1.00  0.00    -0.744 OA
ENDBRANCH  70  74
ENDBRANCH  53  67
BRANCH  54  78
ATOM     78  C   UNL A   1      41.320  27.382  28.125  1.00  0.00     0.023 A 
ATOM     79  C   UNL A   1      41.029  26.013  28.021  1.00  0.00     0.031 A 
ATOM     80  C   UNL A   1      41.899  28.018  27.012  1.00  0.00     0.131 A 
ATOM     81  C   UNL A   1      41.364  25.312  26.850  1.00  0.00     0.055 A 
ATOM     82  C   UNL A   1      42.178  27.329  25.830  1.00  0.00     0.041 A 
ATOM     83  F   UNL A   1      42.194  29.327  27.055  1.00  0.00    -0.206 F 
ATOM     84  C   UNL A   1      41.924  25.964  25.750  1.00  0.00     0.022 A 
BRANCH  81  85
ATOM     85  S   UNL A   1      41.143  23.511  26.823  1.00  0.00     0.124 S 
ATOM     86  O   UNL A   1      39.711  23.392  26.567  1.00  0.00    -0.237 OA
ATOM     87  O   UNL A   1      42.024  23.116  25.730  1.00  0.00    -0.237 OA
ATOM     88  O   UNL A   1      41.577  23.096  28.154  1.00  0.00    -0.744 OA
ENDBRANCH  81  85
ENDBRANCH  54  78
BRANCH  66  89
ATOM     89  C   UNL A   1      44.495  27.450  34.336  1.00  0.00     0.023 A 
ATOM     90  C   UNL A   1      44.271  26.244  35.022  1.00  0.00     0.031 A 
ATOM     91  C   UNL A   1      45.823  27.894  34.196  1.00  0.00     0.131 A 
ATOM     92  C   UNL A   1      45.351  25.551  35.590  1.00  0.00     0.055 A 
ATOM     93  C   UNL A   1      46.899  27.168  34.710  1.00  0.00     0.041 A 
ATOM     94  F   UNL A   1      46.095  29.041  33.554  1.00  0.00    -0.206 F 
ATOM     95  C   UNL A   1      46.665  25.997  35.424  1.00  0.00     0.022 A 
BRANCH  92  96
ATOM     96  S   UNL A   1      45.008  24.105  36.631  1.00  0.00     0.124 S 
ATOM     97  O   UNL A   1      44.234  23.259  35.728  1.00  0.00    -0.237 OA
ATOM     98  O   UNL A   1      46.348  23.631  36.957  1.00  0.00    -0.237 OA
ATOM     99  O   UNL A   1      44.258  24.662  37.755  1.00  0.00    -0.744 OA
ENDBRANCH  92  96
ENDBRANCH  66  89
ENDBRANCH  40  41
ENDBRANCH  32  35
ENDBRANCH  30  31
ENDBRANCH  29  30
ENDBRANCH  28  29
ENDBRANCH   1  28
TORSDOF 20
ENDMDL
