MODEL 1
REMARK VINA RESULT:     -12.7      0.000      0.000
REMARK SMILES CC[C@@H](C)[C@@H](NC(=O)CCn1ccc2ccc(Br)cc21)C(=O)NCCCCCCNC(=O)c1ccc(-c2c3nc(c(-c4cc(S(=O)(=O)[O-])ccc4F)c4ccc([nH]4)c(-c4cc(S(=O)(=O)[O-])ccc4F)c4nc(c(-c5cc(S(=O)(=O)[O-])ccc5F)c5ccc2[nH]5)C=C4)C=C3)cc1
REMARK SMILES IDX 26 1 25 2 24 3 23 4 21 5 22 6 5 8 3 9 4 10 2 11 1 12 6 13
REMARK SMILES IDX 7 14 8 16 9 17 10 18 11 19 12 20 20 21 13 22 14 23 19 24
REMARK SMILES IDX 15 25 17 26 16 27 18 28 27 29 28 30 29 31 30 32 31 33 32 35
REMARK SMILES IDX 33 36 34 37 95 38 35 39 94 40 36 41 37 42 38 43 88 44 39 45
REMARK SMILES IDX 93 46 87 47 89 48 40 49 92 50 86 51 85 52 41 54 73 55 53 56
REMARK SMILES IDX 72 57 54 58 57 59 71 60 90 61 55 62 56 63 70 65 91 66 58 67
REMARK SMILES IDX 42 68 43 69 51 70 44 71 50 72 52 73 49 74 45 75 46 76 47 77
REMARK SMILES IDX 48 78 74 79 75 80 83 81 76 82 82 83 84 84 81 85 77 86 78 87
REMARK SMILES IDX 79 88 80 89 59 90 60 91 68 92 61 93 67 94 69 95 66 96 62 97
REMARK SMILES IDX 63 98 64 99 65 100
REMARK H PARENT 23 7 6 15 30 34 89 53 57 64
REMARK Flexibility Score: inf
ROOT
ATOM      1  C   UNL A   1      32.006  28.053  26.579  1.00  0.00     0.002 C 
ENDROOT
BRANCH   1   2
ATOM      2  C   UNL A   1      31.352  28.370  25.243  1.00  0.00     0.021 C 
BRANCH   2   3
ATOM      3  C   UNL A   1      30.962  27.307  24.185  1.00  0.00     0.116 C 
BRANCH   3   4
ATOM      4  N   UNL A   1      31.647  26.954  22.809  1.00  0.00    -0.354 N 
ATOM      5  C   UNL A   1      32.235  25.850  22.085  1.00  0.00     0.242 C 
ATOM      6  O   UNL A   1      31.774  25.802  20.919  1.00  0.00    -0.273 OA
ATOM      7  H   UNL A   1      31.688  27.764  22.252  1.00  0.00     0.163 HD
BRANCH   5   8
ATOM      8  C   UNL A   1      33.521  24.543  22.398  1.00  0.00     0.174 C 
BRANCH   8   9
ATOM      9  C   UNL A   1      34.497  23.942  23.699  1.00  0.00     0.018 C 
ATOM     10  C   UNL A   1      34.607  24.827  24.962  1.00  0.00     0.010 C 
BRANCH   9  11
ATOM     11  C   UNL A   1      35.929  23.321  23.419  1.00  0.00     0.002 C 
ATOM     12  C   UNL A   1      36.919  23.493  24.600  1.00  0.00     0.004 C 
ENDBRANCH   9  11
ENDBRANCH   8   9
BRANCH   8  13
ATOM     13  N   UNL A   1      33.070  23.374  21.718  1.00  0.00    -0.344 N 
ATOM     14  C   UNL A   1      32.189  22.596  22.370  1.00  0.00     0.222 C 
ATOM     15  H   UNL A   1      33.388  23.149  20.814  1.00  0.00     0.164 HD
ATOM     16  O   UNL A   1      31.877  21.477  21.918  1.00  0.00    -0.275 OA
BRANCH  14  17
ATOM     17  C   UNL A   1      31.496  23.250  23.537  1.00  0.00     0.122 C 
BRANCH  17  18
ATOM     18  C   UNL A   1      31.558  22.757  25.184  1.00  0.00     0.132 C 
BRANCH  18  19
ATOM     19  N   UNL A   1      32.476  21.824  26.044  1.00  0.00    -0.347 N 
ATOM     20  C   UNL A   1      33.265  22.002  27.193  1.00  0.00     0.087 A 
ATOM     21  C   UNL A   1      33.140  20.703  25.509  1.00  0.00     0.049 A 
ATOM     22  C   UNL A   1      34.564  21.622  26.929  1.00  0.00     0.028 A 
ATOM     23  C   UNL A   1      34.516  20.898  25.733  1.00  0.00    -0.000 A 
ATOM     24  C   UNL A   1      32.799  19.355  25.423  1.00  0.00     0.042 A 
ATOM     25  C   UNL A   1      35.459  20.067  25.111  1.00  0.00     0.011 A 
ATOM     26  C   UNL A   1      33.690  18.476  24.832  1.00  0.00     0.020 A 
ATOM     27  C   UNL A   1      34.991  18.868  24.572  1.00  0.00     0.016 A 
ATOM     28  Br  UNL A   1      33.126  16.694  24.572  1.00  0.00    -0.051 Br
ENDBRANCH  18  19
ENDBRANCH  17  18
ENDBRANCH  14  17
ENDBRANCH   8  13
ENDBRANCH   5   8
ENDBRANCH   3   4
ENDBRANCH   2   3
ENDBRANCH   1   2
BRANCH   1  29
ATOM     29  C   UNL A   1      33.534  28.125  26.517  1.00  0.00     0.002 C 
BRANCH  29  30
ATOM     30  C   UNL A   1      34.227  29.080  27.511  1.00  0.00     0.021 C 
BRANCH  30  31
ATOM     31  C   UNL A   1      34.147  30.583  27.212  1.00  0.00     0.116 C 
BRANCH  31  32
ATOM     32  N   UNL A   1      34.120  31.448  28.374  1.00  0.00    -0.352 N 
ATOM     33  C   UNL A   1      35.013  31.723  29.374  1.00  0.00     0.251 C 
ATOM     34  H   UNL A   1      33.276  31.947  28.462  1.00  0.00     0.163 HD
ATOM     35  O   UNL A   1      34.644  32.511  30.247  1.00  0.00    -0.269 OA
BRANCH  33  36
ATOM     36  C   UNL A   1      36.333  31.061  29.500  1.00  0.00     0.039 A 
ATOM     37  C   UNL A   1      37.542  31.635  29.110  1.00  0.00     0.014 A 
ATOM     38  C   UNL A   1      36.335  29.758  30.024  1.00  0.00     0.014 A 
ATOM     39  C   UNL A   1      38.687  30.861  29.047  1.00  0.00     0.010 A 
ATOM     40  C   UNL A   1      37.500  29.004  30.045  1.00  0.00     0.010 A 
ATOM     41  C   UNL A   1      38.659  29.534  29.489  1.00  0.00    -0.014 A 
BRANCH  41  42
ATOM     42  C   UNL A   1      39.924  28.809  29.494  1.00  0.00     0.031 A 
ATOM     43  C   UNL A   1      40.440  28.544  30.869  1.00  0.00     0.074 A 
ATOM     44  C   UNL A   1      40.530  28.352  28.381  1.00  0.00     0.049 A 
ATOM     45  N   UNL A   1      41.488  29.046  31.435  1.00  0.00    -0.248 NA
ATOM     46  C   UNL A   1      39.568  27.794  31.787  1.00  0.00     0.031 C 
ATOM     47  C   UNL A   1      39.998  28.292  27.017  1.00  0.00     0.029 A 
ATOM     48  N   UNL A   1      41.742  27.746  28.255  1.00  0.00    -0.354 N 
ATOM     49  C   UNL A   1      41.524  28.508  32.722  1.00  0.00     0.074 A 
ATOM     50  C   UNL A   1      40.236  27.902  32.937  1.00  0.00     0.031 C 
ATOM     51  C   UNL A   1      40.767  27.463  26.272  1.00  0.00     0.029 A 
ATOM     52  C   UNL A   1      41.927  27.073  27.054  1.00  0.00     0.049 A 
ATOM     53  H   UNL A   1      42.431  27.783  28.957  1.00  0.00     0.167 HD
ATOM     54  C   UNL A   1      42.686  28.422  33.430  1.00  0.00     0.034 A 
ATOM     55  C   UNL A   1      42.929  26.207  26.756  1.00  0.00     0.034 A 
ATOM     56  C   UNL A   1      43.701  29.258  32.849  1.00  0.00     0.049 A 
ATOM     57  C   UNL A   1      44.025  26.429  27.728  1.00  0.00     0.074 A 
ATOM     58  C   UNL A   1      43.887  30.616  32.708  1.00  0.00     0.029 A 
ATOM     59  N   UNL A   1      44.565  28.655  31.969  1.00  0.00    -0.354 N 
ATOM     60  N   UNL A   1      44.761  27.504  27.763  1.00  0.00    -0.248 NA
ATOM     61  C   UNL A   1      44.004  25.643  28.951  1.00  0.00     0.031 C 
ATOM     62  C   UNL A   1      44.528  30.770  31.447  1.00  0.00     0.029 A 
ATOM     63  C   UNL A   1      44.765  29.500  30.912  1.00  0.00     0.049 A 
ATOM     64  H   UNL A   1      44.971  27.765  32.080  1.00  0.00     0.167 HD
ATOM     65  C   UNL A   1      44.905  27.777  29.114  1.00  0.00     0.074 A 
ATOM     66  C   UNL A   1      44.512  26.543  29.795  1.00  0.00     0.031 C 
ATOM     67  C   UNL A   1      45.051  29.058  29.560  1.00  0.00     0.034 A 
BRANCH  54  68
ATOM     68  C   UNL A   1      43.013  27.305  34.398  1.00  0.00     0.023 A 
ATOM     69  C   UNL A   1      43.517  26.056  33.992  1.00  0.00     0.031 A 
ATOM     70  C   UNL A   1      43.055  27.557  35.786  1.00  0.00     0.131 A 
ATOM     71  C   UNL A   1      44.040  25.136  34.910  1.00  0.00     0.055 A 
ATOM     72  C   UNL A   1      43.636  26.666  36.698  1.00  0.00     0.041 A 
ATOM     73  F   UNL A   1      42.593  28.710  36.296  1.00  0.00    -0.206 F 
ATOM     74  C   UNL A   1      44.139  25.449  36.261  1.00  0.00     0.022 A 
BRANCH  71  75
ATOM     75  S   UNL A   1      44.630  23.515  34.348  1.00  0.00     0.124 S 
ATOM     76  O   UNL A   1      43.660  23.182  33.312  1.00  0.00    -0.237 OA
ATOM     77  O   UNL A   1      45.975  23.840  33.877  1.00  0.00    -0.237 OA
ATOM     78  O   UNL A   1      44.581  22.696  35.555  1.00  0.00    -0.744 OA
ENDBRANCH  71  75
ENDBRANCH  54  68
BRANCH  55  79
ATOM     79  C   UNL A   1      42.782  24.899  26.069  1.00  0.00     0.023 A 
ATOM     80  C   UNL A   1      41.811  23.986  26.520  1.00  0.00     0.031 A 
ATOM     81  C   UNL A   1      43.796  24.404  25.229  1.00  0.00     0.131 A 
ATOM     82  C   UNL A   1      41.907  22.628  26.189  1.00  0.00     0.055 A 
ATOM     83  C   UNL A   1      43.875  23.049  24.882  1.00  0.00     0.041 A 
ATOM     84  F   UNL A   1      44.777  25.212  24.798  1.00  0.00    -0.206 F 
ATOM     85  C   UNL A   1      42.936  22.150  25.377  1.00  0.00     0.022 A 
BRANCH  82  86
ATOM     86  S   UNL A   1      40.751  21.428  26.910  1.00  0.00     0.124 S 
ATOM     87  O   UNL A   1      39.504  21.749  26.218  1.00  0.00    -0.237 OA
ATOM     88  O   UNL A   1      41.369  20.161  26.536  1.00  0.00    -0.237 OA
ATOM     89  O   UNL A   1      40.769  21.750  28.333  1.00  0.00    -0.744 OA
ENDBRANCH  82  86
ENDBRANCH  55  79
BRANCH  67  90
ATOM     90  C   UNL A   1      45.320  30.153  28.553  1.00  0.00     0.023 A 
ATOM     91  C   UNL A   1      46.660  30.545  28.397  1.00  0.00     0.031 A 
ATOM     92  C   UNL A   1      44.333  30.954  27.945  1.00  0.00     0.131 A 
ATOM     93  C   UNL A   1      46.979  31.725  27.719  1.00  0.00     0.055 A 
ATOM     94  C   UNL A   1      44.663  32.091  27.198  1.00  0.00     0.041 A 
ATOM     95  F   UNL A   1      43.028  30.717  28.124  1.00  0.00    -0.206 F 
ATOM     96  C   UNL A   1      45.991  32.494  27.101  1.00  0.00     0.022 A 
BRANCH  93  97
ATOM     97  S   UNL A   1      48.667  32.377  27.789  1.00  0.00     0.124 S 
ATOM     98  O   UNL A   1      49.242  31.878  26.543  1.00  0.00    -0.237 OA
ATOM     99  O   UNL A   1      48.439  33.819  27.843  1.00  0.00    -0.237 OA
ATOM    100  O   UNL A   1      49.220  31.796  29.009  1.00  0.00    -0.744 OA
ENDBRANCH  93  97
ENDBRANCH  67  90
ENDBRANCH  41  42
ENDBRANCH  33  36
ENDBRANCH  31  32
ENDBRANCH  30  31
ENDBRANCH  29  30
ENDBRANCH   1  29
TORSDOF 22
ENDMDL
MODEL 2
REMARK VINA RESULT:     -12.2      2.564      3.773
REMARK SMILES CC[C@@H](C)[C@@H](NC(=O)CCn1ccc2ccc(Br)cc21)C(=O)NCCCCCCNC(=O)c1ccc(-c2c3nc(c(-c4cc(S(=O)(=O)[O-])ccc4F)c4ccc([nH]4)c(-c4cc(S(=O)(=O)[O-])ccc4F)c4nc(c(-c5cc(S(=O)(=O)[O-])ccc5F)c5ccc2[nH]5)C=C4)C=C3)cc1
REMARK SMILES IDX 26 1 25 2 24 3 23 4 21 5 22 6 5 8 3 9 4 10 2 11 1 12 6 13
REMARK SMILES IDX 7 14 8 16 9 17 10 18 11 19 12 20 20 21 13 22 14 23 19 24
REMARK SMILES IDX 15 25 17 26 16 27 18 28 27 29 28 30 29 31 30 32 31 33 32 35
REMARK SMILES IDX 33 36 34 37 95 38 35 39 94 40 36 41 37 42 38 43 88 44 39 45
REMARK SMILES IDX 93 46 87 47 89 48 40 49 92 50 86 51 85 52 41 54 73 55 53 56
REMARK SMILES IDX 72 57 54 58 57 59 71 60 90 61 55 62 56 63 70 65 91 66 58 67
REMARK SMILES IDX 42 68 43 69 51 70 44 71 50 72 52 73 49 74 45 75 46 76 47 77
REMARK SMILES IDX 48 78 74 79 75 80 83 81 76 82 82 83 84 84 81 85 77 86 78 87
REMARK SMILES IDX 79 88 80 89 59 90 60 91 68 92 61 93 67 94 69 95 66 96 62 97
REMARK SMILES IDX 63 98 64 99 65 100
REMARK H PARENT 23 7 6 15 30 34 89 53 57 64
REMARK Flexibility Score: inf
ROOT
ATOM      1  C   UNL A   1      35.394  30.769  28.078  1.00  0.00     0.002 C 
ENDROOT
BRANCH   1   2
ATOM      2  C   UNL A   1      34.294  29.956  27.414  1.00  0.00     0.021 C 
BRANCH   2   3
ATOM      3  C   UNL A   1      32.931  30.535  26.958  1.00  0.00     0.116 C 
BRANCH   3   4
ATOM      4  N   UNL A   1      32.198  30.419  25.566  1.00  0.00    -0.354 N 
ATOM      5  C   UNL A   1      31.397  29.511  24.779  1.00  0.00     0.242 C 
ATOM      6  O   UNL A   1      30.393  30.106  24.319  1.00  0.00    -0.273 OA
ATOM      7  H   UNL A   1      32.335  31.252  25.059  1.00  0.00     0.163 HD
BRANCH   5   8
ATOM      8  C   UNL A   1      31.491  27.738  24.222  1.00  0.00     0.174 C 
BRANCH   8   9
ATOM      9  C   UNL A   1      30.542  26.288  24.279  1.00  0.00     0.018 C 
ATOM     10  C   UNL A   1      29.032  26.425  23.977  1.00  0.00     0.010 C 
BRANCH   9  11
ATOM     11  C   UNL A   1      30.704  25.258  25.474  1.00  0.00     0.002 C 
ATOM     12  C   UNL A   1      29.405  25.057  26.296  1.00  0.00     0.004 C 
ENDBRANCH   9  11
ENDBRANCH   8   9
BRANCH   8  13
ATOM     13  N   UNL A   1      32.024  27.767  22.901  1.00  0.00    -0.344 N 
ATOM     14  C   UNL A   1      33.347  27.560  22.777  1.00  0.00     0.222 C 
ATOM     15  H   UNL A   1      31.451  27.930  22.117  1.00  0.00     0.164 HD
ATOM     16  O   UNL A   1      33.915  27.736  21.682  1.00  0.00    -0.275 OA
BRANCH  14  17
ATOM     17  C   UNL A   1      34.014  26.936  23.975  1.00  0.00     0.122 C 
BRANCH  17  18
ATOM     18  C   UNL A   1      34.072  25.263  24.370  1.00  0.00     0.132 C 
BRANCH  18  19
ATOM     19  N   UNL A   1      33.757  23.921  23.627  1.00  0.00    -0.347 N 
ATOM     20  C   UNL A   1      32.830  23.529  22.646  1.00  0.00     0.087 A 
ATOM     21  C   UNL A   1      33.996  22.657  24.200  1.00  0.00     0.049 A 
ATOM     22  C   UNL A   1      32.084  22.465  23.107  1.00  0.00     0.028 A 
ATOM     23  C   UNL A   1      32.762  21.980  24.231  1.00  0.00    -0.000 A 
ATOM     24  C   UNL A   1      35.081  21.784  24.143  1.00  0.00     0.042 A 
ATOM     25  C   UNL A   1      32.626  20.788  24.955  1.00  0.00     0.011 A 
ATOM     26  C   UNL A   1      35.010  20.582  24.825  1.00  0.00     0.020 A 
ATOM     27  C   UNL A   1      33.802  20.135  25.331  1.00  0.00     0.016 A 
ATOM     28  Br  UNL A   1      36.558  19.505  24.874  1.00  0.00    -0.051 Br
ENDBRANCH  18  19
ENDBRANCH  17  18
ENDBRANCH  14  17
ENDBRANCH   8  13
ENDBRANCH   5   8
ENDBRANCH   3   4
ENDBRANCH   2   3
ENDBRANCH   1   2
BRANCH   1  29
ATOM     29  C   UNL A   1      35.208  32.276  27.884  1.00  0.00     0.002 C 
BRANCH  29  30
ATOM     30  C   UNL A   1      35.296  33.157  29.148  1.00  0.00     0.021 C 
BRANCH  30  31
ATOM     31  C   UNL A   1      36.650  33.812  29.453  1.00  0.00     0.116 C 
BRANCH  31  32
ATOM     32  N   UNL A   1      36.967  33.960  30.859  1.00  0.00    -0.352 N 
ATOM     33  C   UNL A   1      37.773  33.275  31.727  1.00  0.00     0.251 C 
ATOM     34  H   UNL A   1      36.503  34.719  31.280  1.00  0.00     0.163 HD
ATOM     35  O   UNL A   1      37.788  33.665  32.897  1.00  0.00    -0.269 OA
BRANCH  33  36
ATOM     36  C   UNL A   1      38.537  32.060  31.354  1.00  0.00     0.039 A 
ATOM     37  C   UNL A   1      37.987  30.784  31.256  1.00  0.00     0.014 A 
ATOM     38  C   UNL A   1      39.911  32.230  31.119  1.00  0.00     0.014 A 
ATOM     39  C   UNL A   1      38.813  29.681  31.134  1.00  0.00     0.010 A 
ATOM     40  C   UNL A   1      40.735  31.133  30.908  1.00  0.00     0.010 A 
ATOM     41  C   UNL A   1      40.193  29.855  30.988  1.00  0.00    -0.014 A 
BRANCH  41  42
ATOM     42  C   UNL A   1      40.992  28.658  30.758  1.00  0.00     0.031 A 
ATOM     43  C   UNL A   1      41.816  28.268  31.941  1.00  0.00     0.074 A 
ATOM     44  C   UNL A   1      40.940  27.927  29.627  1.00  0.00     0.049 A 
ATOM     45  N   UNL A   1      43.103  28.300  32.059  1.00  0.00    -0.248 NA
ATOM     46  C   UNL A   1      41.106  28.016  33.206  1.00  0.00     0.031 C 
ATOM     47  C   UNL A   1      39.982  28.031  28.523  1.00  0.00     0.029 A 
ATOM     48  N   UNL A   1      41.694  26.854  29.268  1.00  0.00    -0.354 N 
ATOM     49  C   UNL A   1      43.379  27.866  33.357  1.00  0.00     0.074 A 
ATOM     50  C   UNL A   1      42.123  27.886  34.059  1.00  0.00     0.031 C 
ATOM     51  C   UNL A   1      40.054  26.914  27.761  1.00  0.00     0.029 A 
ATOM     52  C   UNL A   1      41.169  26.105  28.223  1.00  0.00     0.049 A 
ATOM     53  H   UNL A   1      42.543  26.627  29.711  1.00  0.00     0.167 HD
ATOM     54  C   UNL A   1      44.585  27.326  33.689  1.00  0.00     0.034 A 
ATOM     55  C   UNL A   1      41.583  24.878  27.816  1.00  0.00     0.034 A 
ATOM     56  C   UNL A   1      45.569  27.612  32.680  1.00  0.00     0.049 A 
ATOM     57  C   UNL A   1      42.945  24.658  28.354  1.00  0.00     0.074 A 
ATOM     58  C   UNL A   1      46.202  28.749  32.226  1.00  0.00     0.029 A 
ATOM     59  N   UNL A   1      45.761  26.652  31.719  1.00  0.00    -0.354 N 
ATOM     60  N   UNL A   1      44.000  25.311  27.956  1.00  0.00    -0.248 NA
ATOM     61  C   UNL A   1      43.055  24.021  29.657  1.00  0.00     0.031 C 
ATOM     62  C   UNL A   1      46.363  28.547  30.826  1.00  0.00     0.029 A 
ATOM     63  C   UNL A   1      45.886  27.273  30.506  1.00  0.00     0.049 A 
ATOM     64  H   UNL A   1      45.803  25.681  31.876  1.00  0.00     0.167 HD
ATOM     65  C   UNL A   1      44.705  25.565  29.122  1.00  0.00     0.074 A 
ATOM     66  C   UNL A   1      44.134  24.659  30.117  1.00  0.00     0.031 C 
ATOM     67  C   UNL A   1      45.482  26.680  29.244  1.00  0.00     0.034 A 
BRANCH  54  68
ATOM     68  C   UNL A   1      44.774  26.229  34.714  1.00  0.00     0.023 A 
ATOM     69  C   UNL A   1      45.221  26.468  36.026  1.00  0.00     0.031 A 
ATOM     70  C   UNL A   1      44.271  24.932  34.468  1.00  0.00     0.131 A 
ATOM     71  C   UNL A   1      45.152  25.484  37.021  1.00  0.00     0.055 A 
ATOM     72  C   UNL A   1      44.143  23.968  35.477  1.00  0.00     0.041 A 
ATOM     73  F   UNL A   1      43.825  24.581  33.252  1.00  0.00    -0.206 F 
ATOM     74  C   UNL A   1      44.579  24.244  36.765  1.00  0.00     0.022 A 
BRANCH  71  75
ATOM     75  S   UNL A   1      45.789  25.819  38.687  1.00  0.00     0.124 S 
ATOM     76  O   UNL A   1      47.230  25.725  38.484  1.00  0.00    -0.237 OA
ATOM     77  O   UNL A   1      45.271  27.162  38.934  1.00  0.00    -0.237 OA
ATOM     78  O   UNL A   1      45.189  24.766  39.501  1.00  0.00    -0.744 OA
ENDBRANCH  71  75
ENDBRANCH  54  68
BRANCH  55  79
ATOM     79  C   UNL A   1      40.709  23.726  27.474  1.00  0.00     0.023 A 
ATOM     80  C   UNL A   1      41.274  22.445  27.346  1.00  0.00     0.031 A 
ATOM     81  C   UNL A   1      39.425  23.926  26.934  1.00  0.00     0.131 A 
ATOM     82  C   UNL A   1      40.597  21.437  26.645  1.00  0.00     0.055 A 
ATOM     83  C   UNL A   1      38.742  22.910  26.253  1.00  0.00     0.041 A 
ATOM     84  F   UNL A   1      38.848  25.136  26.983  1.00  0.00    -0.206 F 
ATOM     85  C   UNL A   1      39.336  21.662  26.092  1.00  0.00     0.022 A 
BRANCH  82  86
ATOM     86  S   UNL A   1      41.400  19.839  26.338  1.00  0.00     0.124 S 
ATOM     87  O   UNL A   1      41.780  19.422  27.686  1.00  0.00    -0.237 OA
ATOM     88  O   UNL A   1      40.317  19.077  25.726  1.00  0.00    -0.237 OA
ATOM     89  O   UNL A   1      42.514  20.181  25.459  1.00  0.00    -0.744 OA
ENDBRANCH  82  86
ENDBRANCH  55  79
BRANCH  67  90
ATOM     90  C   UNL A   1      45.778  27.500  28.008  1.00  0.00     0.023 A 
ATOM     91  C   UNL A   1      47.037  27.307  27.416  1.00  0.00     0.031 A 
ATOM     92  C   UNL A   1      45.005  28.585  27.551  1.00  0.00     0.131 A 
ATOM     93  C   UNL A   1      47.518  28.206  26.460  1.00  0.00     0.055 A 
ATOM     94  C   UNL A   1      45.456  29.435  26.535  1.00  0.00     0.041 A 
ATOM     95  F   UNL A   1      43.840  28.907  28.124  1.00  0.00    -0.206 F 
ATOM     96  C   UNL A   1      46.728  29.261  26.000  1.00  0.00     0.022 A 
BRANCH  93  97
ATOM     97  S   UNL A   1      49.249  28.125  25.935  1.00  0.00     0.124 S 
ATOM     98  O   UNL A   1      49.744  26.973  26.683  1.00  0.00    -0.237 OA
ATOM     99  O   UNL A   1      49.124  27.930  24.492  1.00  0.00    -0.237 OA
ATOM    100  O   UNL A   1      49.801  29.415  26.336  1.00  0.00    -0.744 OA
ENDBRANCH  93  97
ENDBRANCH  67  90
ENDBRANCH  41  42
ENDBRANCH  33  36
ENDBRANCH  31  32
ENDBRANCH  30  31
ENDBRANCH  29  30
ENDBRANCH   1  29
TORSDOF 22
ENDMDL
MODEL 3
REMARK VINA RESULT:     -11.5      1.859      2.804
REMARK SMILES CC[C@@H](C)[C@@H](NC(=O)CCn1ccc2ccc(Br)cc21)C(=O)NCCCCCCNC(=O)c1ccc(-c2c3nc(c(-c4cc(S(=O)(=O)[O-])ccc4F)c4ccc([nH]4)c(-c4cc(S(=O)(=O)[O-])ccc4F)c4nc(c(-c5cc(S(=O)(=O)[O-])ccc5F)c5ccc2[nH]5)C=C4)C=C3)cc1
REMARK SMILES IDX 26 1 25 2 24 3 23 4 21 5 22 6 5 8 3 9 4 10 2 11 1 12 6 13
REMARK SMILES IDX 7 14 8 16 9 17 10 18 11 19 12 20 20 21 13 22 14 23 19 24
REMARK SMILES IDX 15 25 17 26 16 27 18 28 27 29 28 30 29 31 30 32 31 33 32 35
REMARK SMILES IDX 33 36 34 37 95 38 35 39 94 40 36 41 37 42 38 43 88 44 39 45
REMARK SMILES IDX 93 46 87 47 89 48 40 49 92 50 86 51 85 52 41 54 73 55 53 56
REMARK SMILES IDX 72 57 54 58 57 59 71 60 90 61 55 62 56 63 70 65 91 66 58 67
REMARK SMILES IDX 42 68 43 69 51 70 44 71 50 72 52 73 49 74 45 75 46 76 47 77
REMARK SMILES IDX 48 78 74 79 75 80 83 81 76 82 82 83 84 84 81 85 77 86 78 87
REMARK SMILES IDX 79 88 80 89 59 90 60 91 68 92 61 93 67 94 69 95 66 96 62 97
REMARK SMILES IDX 63 98 64 99 65 100
REMARK H PARENT 23 7 6 15 30 34 89 53 57 64
REMARK Flexibility Score: inf
ROOT
ATOM      1  C   UNL A   1      35.110  30.321  27.950  1.00  0.00     0.002 C 
ENDROOT
BRANCH   1   2
ATOM      2  C   UNL A   1      34.402  29.047  27.515  1.00  0.00     0.021 C 
BRANCH   2   3
ATOM      3  C   UNL A   1      32.933  28.985  27.025  1.00  0.00     0.116 C 
BRANCH   3   4
ATOM      4  N   UNL A   1      32.362  28.733  25.577  1.00  0.00    -0.354 N 
ATOM      5  C   UNL A   1      31.623  27.763  24.802  1.00  0.00     0.242 C 
ATOM      6  O   UNL A   1      30.702  28.327  24.165  1.00  0.00    -0.273 OA
ATOM      7  H   UNL A   1      32.587  29.500  25.003  1.00  0.00     0.163 HD
BRANCH   5   8
ATOM      8  C   UNL A   1      31.714  25.937  24.455  1.00  0.00     0.174 C 
BRANCH   8   9
ATOM      9  C   UNL A   1      31.257  24.433  25.187  1.00  0.00     0.018 C 
ATOM     10  C   UNL A   1      30.969  23.248  24.236  1.00  0.00     0.010 C 
BRANCH   9  11
ATOM     11  C   UNL A   1      30.182  24.390  26.351  1.00  0.00     0.002 C 
ATOM     12  C   UNL A   1      30.010  22.985  26.983  1.00  0.00     0.004 C 
ENDBRANCH   9  11
ENDBRANCH   8   9
BRANCH   8  13
ATOM     13  N   UNL A   1      31.386  25.780  23.077  1.00  0.00    -0.344 N 
ATOM     14  C   UNL A   1      32.414  25.740  22.211  1.00  0.00     0.222 C 
ATOM     15  H   UNL A   1      30.453  25.705  22.775  1.00  0.00     0.164 HD
ATOM     16  O   UNL A   1      32.207  25.775  20.982  1.00  0.00    -0.275 OA
BRANCH  14  17
ATOM     17  C   UNL A   1      33.760  25.462  22.825  1.00  0.00     0.122 C 
BRANCH  17  18
ATOM     18  C   UNL A   1      34.430  23.921  23.192  1.00  0.00     0.132 C 
BRANCH  18  19
ATOM     19  N   UNL A   1      34.701  23.094  24.494  1.00  0.00    -0.347 N 
ATOM     20  C   UNL A   1      35.429  23.320  25.674  1.00  0.00     0.087 A 
ATOM     21  C   UNL A   1      34.704  21.686  24.518  1.00  0.00     0.049 A 
ATOM     22  C   UNL A   1      36.349  22.310  25.855  1.00  0.00     0.028 A 
ATOM     23  C   UNL A   1      35.972  21.286  24.979  1.00  0.00    -0.000 A 
ATOM     24  C   UNL A   1      33.716  20.743  24.793  1.00  0.00     0.042 A 
ATOM     25  C   UNL A   1      36.367  19.944  24.893  1.00  0.00     0.011 A 
ATOM     26  C   UNL A   1      34.039  19.398  24.739  1.00  0.00     0.020 A 
ATOM     27  C   UNL A   1      35.363  19.000  24.676  1.00  0.00     0.016 A 
ATOM     28  Br  UNL A   1      32.641  18.148  24.943  1.00  0.00    -0.051 Br
ENDBRANCH  18  19
ENDBRANCH  17  18
ENDBRANCH  14  17
ENDBRANCH   8  13
ENDBRANCH   5   8
ENDBRANCH   3   4
ENDBRANCH   2   3
ENDBRANCH   1   2
BRANCH   1  29
ATOM     29  C   UNL A   1      34.420  31.583  27.426  1.00  0.00     0.002 C 
BRANCH  29  30
ATOM     30  C   UNL A   1      34.587  32.867  28.265  1.00  0.00     0.021 C 
BRANCH  30  31
ATOM     31  C   UNL A   1      35.998  33.463  28.362  1.00  0.00     0.116 C 
BRANCH  31  32
ATOM     32  N   UNL A   1      36.368  33.976  29.665  1.00  0.00    -0.352 N 
ATOM     33  C   UNL A   1      37.362  33.675  30.557  1.00  0.00     0.251 C 
ATOM     34  H   UNL A   1      35.777  34.700  29.976  1.00  0.00     0.163 HD
ATOM     35  O   UNL A   1      37.369  34.306  31.616  1.00  0.00    -0.269 OA
BRANCH  33  36
ATOM     36  C   UNL A   1      38.347  32.587  30.351  1.00  0.00     0.039 A 
ATOM     37  C   UNL A   1      38.018  31.237  30.236  1.00  0.00     0.014 A 
ATOM     38  C   UNL A   1      39.699  32.965  30.301  1.00  0.00     0.014 A 
ATOM     39  C   UNL A   1      39.012  30.276  30.281  1.00  0.00     0.010 A 
ATOM     40  C   UNL A   1      40.702  32.007  30.258  1.00  0.00     0.010 A 
ATOM     41  C   UNL A   1      40.356  30.662  30.321  1.00  0.00    -0.014 A 
BRANCH  41  42
ATOM     42  C   UNL A   1      41.353  29.600  30.260  1.00  0.00     0.031 A 
ATOM     43  C   UNL A   1      41.699  29.046  31.602  1.00  0.00     0.074 A 
ATOM     44  C   UNL A   1      41.856  29.109  29.111  1.00  0.00     0.049 A 
ATOM     45  N   UNL A   1      42.818  29.151  32.242  1.00  0.00    -0.248 NA
ATOM     46  C   UNL A   1      40.601  28.490  32.409  1.00  0.00     0.031 C 
ATOM     47  C   UNL A   1      41.401  29.358  27.740  1.00  0.00     0.029 A 
ATOM     48  N   UNL A   1      42.845  28.191  28.934  1.00  0.00    -0.354 N 
ATOM     49  C   UNL A   1      42.629  28.489  33.455  1.00  0.00     0.074 A 
ATOM     50  C   UNL A   1      41.212  28.270  33.574  1.00  0.00     0.031 C 
ATOM     51  C   UNL A   1      41.932  28.426  26.915  1.00  0.00     0.029 A 
ATOM     52  C   UNL A   1      42.887  27.629  27.664  1.00  0.00     0.049 A 
ATOM     53  H   UNL A   1      43.478  27.946  29.646  1.00  0.00     0.167 HD
ATOM     54  C   UNL A   1      43.678  27.987  34.167  1.00  0.00     0.034 A 
ATOM     55  C   UNL A   1      43.608  26.544  27.281  1.00  0.00     0.034 A 
ATOM     56  C   UNL A   1      44.921  28.545  33.708  1.00  0.00     0.049 A 
ATOM     57  C   UNL A   1      44.670  26.326  28.291  1.00  0.00     0.074 A 
ATOM     58  C   UNL A   1      45.501  29.795  33.733  1.00  0.00     0.029 A 
ATOM     59  N   UNL A   1      45.616  27.815  32.777  1.00  0.00    -0.354 N 
ATOM     60  N   UNL A   1      45.684  27.125  28.466  1.00  0.00    -0.248 NA
ATOM     61  C   UNL A   1      44.359  25.451  29.411  1.00  0.00     0.031 C 
ATOM     62  C   UNL A   1      46.222  29.891  32.510  1.00  0.00     0.029 A 
ATOM     63  C   UNL A   1      46.107  28.675  31.832  1.00  0.00     0.049 A 
ATOM     64  H   UNL A   1      45.740  26.838  32.787  1.00  0.00     0.167 HD
ATOM     65  C   UNL A   1      45.832  27.194  29.843  1.00  0.00     0.074 A 
ATOM     66  C   UNL A   1      45.063  26.064  30.365  1.00  0.00     0.031 C 
ATOM     67  C   UNL A   1      46.321  28.318  30.442  1.00  0.00     0.034 A 
BRANCH  54  68
ATOM     68  C   UNL A   1      43.616  26.724  34.999  1.00  0.00     0.023 A 
ATOM     69  C   UNL A   1      44.218  25.514  34.610  1.00  0.00     0.031 A 
ATOM     70  C   UNL A   1      43.153  26.774  36.333  1.00  0.00     0.131 A 
ATOM     71  C   UNL A   1      44.360  24.440  35.499  1.00  0.00     0.055 A 
ATOM     72  C   UNL A   1      43.351  25.725  37.240  1.00  0.00     0.041 A 
ATOM     73  F   UNL A   1      42.552  27.872  36.817  1.00  0.00    -0.206 F 
ATOM     74  C   UNL A   1      43.963  24.550  36.826  1.00  0.00     0.022 A 
BRANCH  71  75
ATOM     75  S   UNL A   1      45.094  22.878  34.938  1.00  0.00     0.124 S 
ATOM     76  O   UNL A   1      45.298  22.170  36.197  1.00  0.00    -0.237 OA
ATOM     77  O   UNL A   1      44.038  22.350  34.078  1.00  0.00    -0.237 OA
ATOM     78  O   UNL A   1      46.305  23.300  34.241  1.00  0.00    -0.744 OA
ENDBRANCH  71  75
ENDBRANCH  54  68
BRANCH  55  79
ATOM     79  C   UNL A   1      43.123  25.421  26.440  1.00  0.00     0.023 A 
ATOM     80  C   UNL A   1      42.072  24.611  26.907  1.00  0.00     0.031 A 
ATOM     81  C   UNL A   1      43.897  24.927  25.374  1.00  0.00     0.131 A 
ATOM     82  C   UNL A   1      41.863  23.336  26.364  1.00  0.00     0.055 A 
ATOM     83  C   UNL A   1      43.671  23.661  24.818  1.00  0.00     0.041 A 
ATOM     84  F   UNL A   1      44.941  25.630  24.909  1.00  0.00    -0.206 F 
ATOM     85  C   UNL A   1      42.659  22.852  25.325  1.00  0.00     0.022 A 
BRANCH  82  86
ATOM     86  S   UNL A   1      40.617  22.230  27.082  1.00  0.00     0.124 S 
ATOM     87  O   UNL A   1      41.149  21.997  28.423  1.00  0.00    -0.237 OA
ATOM     88  O   UNL A   1      39.416  23.055  27.016  1.00  0.00    -0.237 OA
ATOM     89  O   UNL A   1      40.641  21.069  26.198  1.00  0.00    -0.744 OA
ENDBRANCH  82  86
ENDBRANCH  55  79
BRANCH  67  90
ATOM     90  C   UNL A   1      46.947  29.389  29.577  1.00  0.00     0.023 A 
ATOM     91  C   UNL A   1      46.062  30.245  28.902  1.00  0.00     0.031 A 
ATOM     92  C   UNL A   1      48.308  29.447  29.218  1.00  0.00     0.131 A 
ATOM     93  C   UNL A   1      46.519  31.068  27.869  1.00  0.00     0.055 A 
ATOM     94  C   UNL A   1      48.775  30.331  28.238  1.00  0.00     0.041 A 
ATOM     95  F   UNL A   1      49.207  28.600  29.733  1.00  0.00    -0.206 F 
ATOM     96  C   UNL A   1      47.875  31.131  27.542  1.00  0.00     0.022 A 
BRANCH  93  97
ATOM     97  S   UNL A   1      45.331  31.931  26.809  1.00  0.00     0.124 S 
ATOM     98  O   UNL A   1      44.596  32.747  27.771  1.00  0.00    -0.237 OA
ATOM     99  O   UNL A   1      46.207  32.667  25.900  1.00  0.00    -0.237 OA
ATOM    100  O   UNL A   1      44.565  30.855  26.187  1.00  0.00    -0.744 OA
ENDBRANCH  93  97
ENDBRANCH  67  90
ENDBRANCH  41  42
ENDBRANCH  33  36
ENDBRANCH  31  32
ENDBRANCH  30  31
ENDBRANCH  29  30
ENDBRANCH   1  29
TORSDOF 22
ENDMDL
