MODEL 1
REMARK VINA RESULT:     -12.0      0.000      0.000
REMARK SMILES O=C(NCCCCCCNC(=O)[C@H]1CC2(CCN(C(=O)c3cccc(O)c3)CC2)CN1C(=O)C1CC1)c1ccc(-c2c3nc(c(-c4cc(S(=O)(=O)[O-])ccc4F)c4ccc([nH]4)c(-c4cc(S(=O)(=O)[O-])ccc4F)c4nc(c(-c5cc(S(=O)(=O)[O-])ccc5F)c5ccc2[nH]5)C=C4)C=C3)cc1
REMARK SMILES IDX 6 1 5 2 4 3 3 4 1 5 2 6 37 8 38 9 99 10 39 11 98 12 40 13
REMARK SMILES IDX 41 14 42 15 92 16 43 17 97 18 91 19 93 20 44 21 96 22 90 23
REMARK SMILES IDX 89 24 45 26 77 27 57 28 76 29 58 30 61 31 75 32 94 33 59 34
REMARK SMILES IDX 60 35 74 37 95 38 62 39 46 40 47 41 55 42 48 43 54 44 56 45
REMARK SMILES IDX 53 46 49 47 50 48 51 49 52 50 78 51 79 52 87 53 80 54 86 55
REMARK SMILES IDX 88 56 85 57 81 58 82 59 83 60 84 61 63 62 64 63 72 64 65 65
REMARK SMILES IDX 71 66 73 67 70 68 66 69 67 70 68 71 69 72 7 73 8 74 9 75
REMARK SMILES IDX 10 76 11 77 12 79 13 80 14 81 31 82 15 83 30 84 16 85 29 86
REMARK SMILES IDX 17 87 28 88 18 89 19 90 20 91 32 92 33 93 34 94 35 95 36 96
REMARK SMILES IDX 21 97 22 98 27 99 23 100 25 101 24 102 26 103
REMARK H PARENT 3 7 93 25 61 36 10 78 26 104
REMARK Flexibility Score: inf
ROOT
ATOM      1  C   UNL A   1      34.688  33.413  28.230  1.00  0.00     0.002 C 
ENDROOT
BRANCH   1   2
ATOM      2  C   UNL A   1      33.429  34.263  28.361  1.00  0.00     0.021 C 
BRANCH   2   3
ATOM      3  C   UNL A   1      33.641  35.599  29.054  1.00  0.00     0.116 C 
BRANCH   3   4
ATOM      4  N   UNL A   1      32.735  35.809  30.177  1.00  0.00    -0.352 N 
ATOM      5  O   UNL A   1      31.997  35.448  32.296  1.00  0.00    -0.269 OA
ATOM      6  C   UNL A   1      32.879  35.317  31.455  1.00  0.00     0.251 C 
ATOM      7  H   UNL A   1      31.938  36.360  30.003  1.00  0.00     0.163 HD
BRANCH   6   8
ATOM      8  C   UNL A   1      34.130  34.600  31.770  1.00  0.00     0.039 A 
ATOM      9  C   UNL A   1      34.057  33.275  32.206  1.00  0.00     0.014 A 
ATOM     10  C   UNL A   1      35.347  35.286  31.756  1.00  0.00     0.014 A 
ATOM     11  C   UNL A   1      35.182  32.677  32.754  1.00  0.00     0.010 A 
ATOM     12  C   UNL A   1      36.497  34.646  32.223  1.00  0.00     0.010 A 
ATOM     13  C   UNL A   1      36.420  33.344  32.746  1.00  0.00    -0.014 A 
BRANCH  13  14
ATOM     14  C   UNL A   1      37.629  32.609  33.195  1.00  0.00     0.031 A 
ATOM     15  C   UNL A   1      38.243  31.516  32.368  1.00  0.00     0.074 A 
ATOM     16  C   UNL A   1      38.186  32.982  34.364  1.00  0.00     0.049 A 
ATOM     17  N   UNL A   1      39.295  30.783  32.628  1.00  0.00    -0.248 NA
ATOM     18  C   UNL A   1      37.592  31.198  31.089  1.00  0.00     0.031 C 
ATOM     19  C   UNL A   1      37.664  34.035  35.242  1.00  0.00     0.029 A 
ATOM     20  N   UNL A   1      39.314  32.548  35.007  1.00  0.00    -0.354 N 
ATOM     21  C   UNL A   1      39.429  29.904  31.558  1.00  0.00     0.074 A 
ATOM     22  C   UNL A   1      38.330  30.183  30.654  1.00  0.00     0.031 C 
ATOM     23  C   UNL A   1      38.498  34.202  36.276  1.00  0.00     0.029 A 
ATOM     24  C   UNL A   1      39.562  33.212  36.186  1.00  0.00     0.049 A 
ATOM     25  H   UNL A   1      39.892  31.831  34.659  1.00  0.00     0.167 HD
ATOM     26  C   UNL A   1      40.381  28.959  31.355  1.00  0.00     0.034 A 
ATOM     27  C   UNL A   1      40.520  33.025  37.113  1.00  0.00     0.034 A 
ATOM     28  C   UNL A   1      41.465  28.701  32.276  1.00  0.00     0.049 A 
ATOM     29  C   UNL A   1      41.535  31.943  36.879  1.00  0.00     0.074 A 
ATOM     30  C   UNL A   1      42.494  27.781  32.164  1.00  0.00     0.029 A 
ATOM     31  N   UNL A   1      41.659  29.360  33.486  1.00  0.00    -0.354 N 
ATOM     32  N   UNL A   1      41.645  31.124  35.859  1.00  0.00    -0.248 NA
ATOM     33  C   UNL A   1      42.553  31.760  37.919  1.00  0.00     0.031 C 
ATOM     34  C   UNL A   1      43.267  27.837  33.330  1.00  0.00     0.029 A 
ATOM     35  C   UNL A   1      42.770  28.845  34.140  1.00  0.00     0.049 A 
ATOM     36  H   UNL A   1      41.090  30.087  33.829  1.00  0.00     0.167 HD
ATOM     37  C   UNL A   1      42.756  30.333  36.132  1.00  0.00     0.074 A 
ATOM     38  C   UNL A   1      43.298  30.800  37.392  1.00  0.00     0.031 C 
ATOM     39  C   UNL A   1      43.279  29.308  35.410  1.00  0.00     0.034 A 
BRANCH  26  40
ATOM     40  C   UNL A   1      40.269  28.101  30.115  1.00  0.00     0.023 A 
ATOM     41  C   UNL A   1      41.084  28.310  28.989  1.00  0.00     0.031 A 
ATOM     42  C   UNL A   1      39.337  27.048  30.064  1.00  0.00     0.131 A 
ATOM     43  C   UNL A   1      40.916  27.516  27.843  1.00  0.00     0.055 A 
ATOM     44  C   UNL A   1      39.222  26.217  28.948  1.00  0.00     0.041 A 
ATOM     45  F   UNL A   1      38.516  26.811  31.100  1.00  0.00    -0.206 F 
ATOM     46  C   UNL A   1      40.008  26.455  27.824  1.00  0.00     0.022 A 
BRANCH  43  47
ATOM     47  S   UNL A   1      41.820  27.961  26.335  1.00  0.00     0.124 S 
ATOM     48  O   UNL A   1      41.533  26.819  25.469  1.00  0.00    -0.237 OA
ATOM     49  O   UNL A   1      41.196  29.223  25.952  1.00  0.00    -0.237 OA
ATOM     50  O   UNL A   1      43.207  28.061  26.782  1.00  0.00    -0.744 OA
ENDBRANCH  43  47
ENDBRANCH  26  40
BRANCH  27  51
ATOM     51  C   UNL A   1      40.530  33.845  38.357  1.00  0.00     0.023 A 
ATOM     52  C   UNL A   1      39.660  33.560  39.420  1.00  0.00     0.031 A 
ATOM     53  C   UNL A   1      41.395  34.948  38.489  1.00  0.00     0.131 A 
ATOM     54  C   UNL A   1      39.642  34.395  40.547  1.00  0.00     0.055 A 
ATOM     55  C   UNL A   1      41.418  35.735  39.639  1.00  0.00     0.041 A 
ATOM     56  F   UNL A   1      42.251  35.263  37.503  1.00  0.00    -0.206 F 
ATOM     57  C   UNL A   1      40.525  35.470  40.672  1.00  0.00     0.022 A 
BRANCH  54  58
ATOM     58  S   UNL A   1      38.370  34.114  41.810  1.00  0.00     0.124 S 
ATOM     59  O   UNL A   1      37.778  35.441  41.935  1.00  0.00    -0.237 OA
ATOM     60  O   UNL A   1      37.537  33.097  41.178  1.00  0.00    -0.237 OA
ATOM     61  O   UNL A   1      39.137  33.660  42.968  1.00  0.00    -0.744 OA
ENDBRANCH  54  58
ENDBRANCH  27  51
BRANCH  39  62
ATOM     62  C   UNL A   1      44.517  28.656  35.975  1.00  0.00     0.023 A 
ATOM     63  C   UNL A   1      44.435  27.682  36.986  1.00  0.00     0.031 A 
ATOM     64  C   UNL A   1      45.791  29.052  35.536  1.00  0.00     0.131 A 
ATOM     65  C   UNL A   1      45.609  27.189  37.575  1.00  0.00     0.055 A 
ATOM     66  C   UNL A   1      46.955  28.508  36.080  1.00  0.00     0.041 A 
ATOM     67  F   UNL A   1      45.926  29.982  34.577  1.00  0.00    -0.206 F 
ATOM     68  C   UNL A   1      46.868  27.584  37.118  1.00  0.00     0.022 A 
BRANCH  65  69
ATOM     69  S   UNL A   1      45.464  26.112  39.028  1.00  0.00     0.124 S 
ATOM     70  O   UNL A   1      45.573  24.784  38.432  1.00  0.00    -0.237 OA
ATOM     71  O   UNL A   1      46.595  26.539  39.846  1.00  0.00    -0.237 OA
ATOM     72  O   UNL A   1      44.148  26.443  39.570  1.00  0.00    -0.744 OA
ENDBRANCH  65  69
ENDBRANCH  39  62
ENDBRANCH  13  14
ENDBRANCH   6   8
ENDBRANCH   3   4
ENDBRANCH   2   3
ENDBRANCH   1   2
BRANCH   1  73
ATOM     73  C   UNL A   1      34.537  31.960  28.677  1.00  0.00     0.002 C 
BRANCH  73  74
ATOM     74  C   UNL A   1      35.504  30.954  28.043  1.00  0.00     0.021 C 
BRANCH  74  75
ATOM     75  C   UNL A   1      34.856  29.773  27.322  1.00  0.00     0.116 C 
BRANCH  75  76
ATOM     76  N   UNL A   1      33.469  29.534  27.691  1.00  0.00    -0.354 N 
ATOM     77  C   UNL A   1      32.600  28.572  27.257  1.00  0.00     0.242 C 
ATOM     78  H   UNL A   1      33.100  30.162  28.353  1.00  0.00     0.163 HD
ATOM     79  O   UNL A   1      31.543  28.415  27.874  1.00  0.00    -0.273 OA
BRANCH  77  80
ATOM     80  C   UNL A   1      33.024  27.618  26.149  1.00  0.00     0.175 C 
ATOM     81  C   UNL A   1      32.670  26.136  26.256  1.00  0.00     0.044 C 
ATOM     82  N   UNL A   1      32.900  27.825  24.715  1.00  0.00    -0.330 N 
ATOM     83  C   UNL A   1      33.455  25.528  25.039  1.00  0.00    -0.006 C 
ATOM     84  C   UNL A   1      33.715  26.767  24.116  1.00  0.00     0.127 C 
ATOM     85  C   UNL A   1      32.640  24.462  24.271  1.00  0.00     0.030 C 
ATOM     86  C   UNL A   1      34.793  24.904  25.503  1.00  0.00     0.030 C 
ATOM     87  C   UNL A   1      32.498  23.151  25.039  1.00  0.00     0.120 C 
ATOM     88  C   UNL A   1      34.600  23.584  26.253  1.00  0.00     0.120 C 
ATOM     89  N   UNL A   1      33.805  22.651  25.466  1.00  0.00    -0.339 N 
ATOM     90  C   UNL A   1      34.242  21.332  25.362  1.00  0.00     0.253 C 
ATOM     91  O   UNL A   1      35.197  20.879  25.990  1.00  0.00    -0.269 OA
BRANCH  82  92
ATOM     92  C   UNL A   1      31.818  28.256  23.946  1.00  0.00     0.226 C 
ATOM     93  O   UNL A   1      31.993  29.109  23.075  1.00  0.00    -0.275 OA
BRANCH  92  94
ATOM     94  C   UNL A   1      30.402  27.800  24.066  1.00  0.00     0.079 C 
ATOM     95  C   UNL A   1      29.890  26.867  22.979  1.00  0.00     0.014 C 
ATOM     96  C   UNL A   1      29.672  26.544  24.416  1.00  0.00     0.014 C 
ENDBRANCH  92  94
ENDBRANCH  82  92
BRANCH  90  97
ATOM     97  C   UNL A   1      33.550  20.409  24.437  1.00  0.00     0.043 A 
ATOM     98  C   UNL A   1      33.495  19.038  24.713  1.00  0.00     0.014 A 
ATOM     99  C   UNL A   1      32.871  20.937  23.336  1.00  0.00     0.060 A 
ATOM    100  C   UNL A   1      32.795  18.187  23.856  1.00  0.00     0.005 A 
ATOM    101  C   UNL A   1      32.177  20.078  22.493  1.00  0.00     0.116 A 
ATOM    102  C   UNL A   1      32.138  18.707  22.738  1.00  0.00     0.046 A 
BRANCH 101 103
ATOM    103  O   UNL A   1      31.533  20.622  21.420  1.00  0.00    -0.508 OA
ATOM    104  H   UNL A   1      31.205  21.499  21.465  1.00  0.00     0.293 HD
ENDBRANCH 101 103
ENDBRANCH  90  97
ENDBRANCH  77  80
ENDBRANCH  75  76
ENDBRANCH  74  75
ENDBRANCH  73  74
ENDBRANCH   1  73
TORSDOF 20
ENDMDL
MODEL 2
REMARK VINA RESULT:     -11.8      1.321      7.547
REMARK SMILES O=C(NCCCCCCNC(=O)[C@H]1CC2(CCN(C(=O)c3cccc(O)c3)CC2)CN1C(=O)C1CC1)c1ccc(-c2c3nc(c(-c4cc(S(=O)(=O)[O-])ccc4F)c4ccc([nH]4)c(-c4cc(S(=O)(=O)[O-])ccc4F)c4nc(c(-c5cc(S(=O)(=O)[O-])ccc5F)c5ccc2[nH]5)C=C4)C=C3)cc1
REMARK SMILES IDX 6 1 5 2 4 3 3 4 1 5 2 6 37 8 38 9 99 10 39 11 98 12 40 13
REMARK SMILES IDX 41 14 42 15 92 16 43 17 97 18 91 19 93 20 44 21 96 22 90 23
REMARK SMILES IDX 89 24 45 26 77 27 57 28 76 29 58 30 61 31 75 32 94 33 59 34
REMARK SMILES IDX 60 35 74 37 95 38 62 39 46 40 47 41 55 42 48 43 54 44 56 45
REMARK SMILES IDX 53 46 49 47 50 48 51 49 52 50 78 51 79 52 87 53 80 54 86 55
REMARK SMILES IDX 88 56 85 57 81 58 82 59 83 60 84 61 63 62 64 63 72 64 65 65
REMARK SMILES IDX 71 66 73 67 70 68 66 69 67 70 68 71 69 72 7 73 8 74 9 75
REMARK SMILES IDX 10 76 11 77 12 79 13 80 14 81 31 82 15 83 30 84 16 85 29 86
REMARK SMILES IDX 17 87 28 88 18 89 19 90 20 91 32 92 33 93 34 94 35 95 36 96
REMARK SMILES IDX 21 97 22 98 27 99 23 100 25 101 24 102 26 103
REMARK H PARENT 3 7 93 25 61 36 10 78 26 104
REMARK Flexibility Score: inf
ROOT
ATOM      1  C   UNL A   1      35.909  32.530  28.048  1.00  0.00     0.002 C 
ENDROOT
BRANCH   1   2
ATOM      2  C   UNL A   1      35.017  33.767  28.066  1.00  0.00     0.021 C 
BRANCH   2   3
ATOM      3  C   UNL A   1      33.595  33.510  28.536  1.00  0.00     0.116 C 
BRANCH   3   4
ATOM      4  N   UNL A   1      33.036  34.623  29.295  1.00  0.00    -0.352 N 
ATOM      5  O   UNL A   1      32.779  35.892  31.162  1.00  0.00    -0.269 OA
ATOM      6  C   UNL A   1      33.396  35.019  30.563  1.00  0.00     0.251 C 
ATOM      7  H   UNL A   1      32.328  35.145  28.854  1.00  0.00     0.163 HD
BRANCH   6   8
ATOM      8  C   UNL A   1      34.544  34.334  31.189  1.00  0.00     0.039 A 
ATOM      9  C   UNL A   1      35.800  34.944  31.143  1.00  0.00     0.014 A 
ATOM     10  C   UNL A   1      34.391  33.042  31.697  1.00  0.00     0.014 A 
ATOM     11  C   UNL A   1      36.925  34.208  31.484  1.00  0.00     0.010 A 
ATOM     12  C   UNL A   1      35.519  32.338  32.127  1.00  0.00     0.010 A 
ATOM     13  C   UNL A   1      36.797  32.907  32.004  1.00  0.00    -0.014 A 
BRANCH  13  14
ATOM     14  C   UNL A   1      38.011  32.217  32.505  1.00  0.00     0.031 A 
ATOM     15  C   UNL A   1      38.585  32.508  33.863  1.00  0.00     0.074 A 
ATOM     16  C   UNL A   1      38.569  31.282  31.710  1.00  0.00     0.049 A 
ATOM     17  N   UNL A   1      39.640  31.989  34.436  1.00  0.00    -0.248 NA
ATOM     18  C   UNL A   1      37.893  33.516  34.679  1.00  0.00     0.031 C 
ATOM     19  C   UNL A   1      38.086  30.925  30.372  1.00  0.00     0.029 A 
ATOM     20  N   UNL A   1      39.636  30.448  31.907  1.00  0.00    -0.354 N 
ATOM     21  C   UNL A   1      39.753  32.613  35.675  1.00  0.00     0.074 A 
ATOM     22  C   UNL A   1      38.668  33.570  35.756  1.00  0.00     0.031 C 
ATOM     23  C   UNL A   1      38.817  29.910  29.894  1.00  0.00     0.029 A 
ATOM     24  C   UNL A   1      39.875  29.604  30.846  1.00  0.00     0.049 A 
ATOM     25  H   UNL A   1      40.180  30.451  32.727  1.00  0.00     0.167 HD
ATOM     26  C   UNL A   1      40.676  32.401  36.646  1.00  0.00     0.034 A 
ATOM     27  C   UNL A   1      40.856  28.706  30.645  1.00  0.00     0.034 A 
ATOM     28  C   UNL A   1      41.751  31.440  36.536  1.00  0.00     0.049 A 
ATOM     29  C   UNL A   1      41.888  28.524  31.722  1.00  0.00     0.074 A 
ATOM     30  C   UNL A   1      42.732  31.130  37.463  1.00  0.00     0.029 A 
ATOM     31  N   UNL A   1      41.993  30.635  35.427  1.00  0.00    -0.354 N 
ATOM     32  N   UNL A   1      41.976  29.123  32.887  1.00  0.00    -0.248 NA
ATOM     33  C   UNL A   1      42.950  27.548  31.457  1.00  0.00     0.031 C 
ATOM     34  C   UNL A   1      43.601  30.192  36.892  1.00  0.00     0.029 A 
ATOM     35  C   UNL A   1      43.121  29.855  35.637  1.00  0.00     0.049 A 
ATOM     36  H   UNL A   1      41.441  30.621  34.611  1.00  0.00     0.167 HD
ATOM     37  C   UNL A   1      43.102  28.584  33.501  1.00  0.00     0.074 A 
ATOM     38  C   UNL A   1      43.633  27.589  32.590  1.00  0.00     0.031 C 
ATOM     39  C   UNL A   1      43.651  28.888  34.705  1.00  0.00     0.034 A 
BRANCH  26  40
ATOM     40  C   UNL A   1      40.597  33.253  37.893  1.00  0.00     0.023 A 
ATOM     41  C   UNL A   1      39.851  32.859  39.017  1.00  0.00     0.031 A 
ATOM     42  C   UNL A   1      41.288  34.477  37.959  1.00  0.00     0.131 A 
ATOM     43  C   UNL A   1      39.771  33.704  40.137  1.00  0.00     0.055 A 
ATOM     44  C   UNL A   1      41.261  35.279  39.102  1.00  0.00     0.041 A 
ATOM     45  F   UNL A   1      42.001  34.917  36.910  1.00  0.00    -0.206 F 
ATOM     46  C   UNL A   1      40.490  34.899  40.196  1.00  0.00     0.022 A 
BRANCH  43  47
ATOM     47  S   UNL A   1      38.619  33.273  41.471  1.00  0.00     0.124 S 
ATOM     48  O   UNL A   1      38.941  34.281  42.479  1.00  0.00    -0.237 OA
ATOM     49  O   UNL A   1      37.319  33.411  40.824  1.00  0.00    -0.237 OA
ATOM     50  O   UNL A   1      38.998  31.907  41.825  1.00  0.00    -0.744 OA
ENDBRANCH  43  47
ENDBRANCH  26  40
BRANCH  27  51
ATOM     51  C   UNL A   1      40.934  27.955  29.360  1.00  0.00     0.023 A 
ATOM     52  C   UNL A   1      41.888  28.282  28.385  1.00  0.00     0.031 A 
ATOM     53  C   UNL A   1      40.030  26.914  29.075  1.00  0.00     0.131 A 
ATOM     54  C   UNL A   1      41.888  27.607  27.156  1.00  0.00     0.055 A 
ATOM     55  C   UNL A   1      40.076  26.203  27.877  1.00  0.00     0.041 A 
ATOM     56  F   UNL A   1      39.098  26.558  29.974  1.00  0.00    -0.206 F 
ATOM     57  C   UNL A   1      41.000  26.558  26.901  1.00  0.00     0.022 A 
BRANCH  54  58
ATOM     58  S   UNL A   1      43.004  28.188  25.850  1.00  0.00     0.124 S 
ATOM     59  O   UNL A   1      43.048  29.622  26.114  1.00  0.00    -0.237 OA
ATOM     60  O   UNL A   1      44.224  27.444  26.141  1.00  0.00    -0.237 OA
ATOM     61  O   UNL A   1      42.316  27.801  24.619  1.00  0.00    -0.744 OA
ENDBRANCH  54  58
ENDBRANCH  27  51
BRANCH  39  62
ATOM     62  C   UNL A   1      44.877  28.100  35.097  1.00  0.00     0.023 A 
ATOM     63  C   UNL A   1      44.774  26.869  35.768  1.00  0.00     0.031 A 
ATOM     64  C   UNL A   1      46.160  28.612  34.843  1.00  0.00     0.131 A 
ATOM     65  C   UNL A   1      45.933  26.226  36.227  1.00  0.00     0.055 A 
ATOM     66  C   UNL A   1      47.312  27.934  35.243  1.00  0.00     0.041 A 
ATOM     67  F   UNL A   1      46.316  29.786  34.209  1.00  0.00    -0.206 F 
ATOM     68  C   UNL A   1      47.202  26.743  35.955  1.00  0.00     0.022 A 
BRANCH  65  69
ATOM     69  S   UNL A   1      45.753  24.765  37.287  1.00  0.00     0.124 S 
ATOM     70  O   UNL A   1      44.880  25.263  38.345  1.00  0.00    -0.237 OA
ATOM     71  O   UNL A   1      45.160  23.791  36.376  1.00  0.00    -0.237 OA
ATOM     72  O   UNL A   1      47.124  24.471  37.701  1.00  0.00    -0.744 OA
ENDBRANCH  65  69
ENDBRANCH  39  62
ENDBRANCH  13  14
ENDBRANCH   6   8
ENDBRANCH   3   4
ENDBRANCH   2   3
ENDBRANCH   1   2
BRANCH   1  73
ATOM     73  C   UNL A   1      35.199  31.214  28.361  1.00  0.00     0.002 C 
BRANCH  73  74
ATOM     74  C   UNL A   1      35.631  30.000  27.533  1.00  0.00     0.021 C 
BRANCH  74  75
ATOM     75  C   UNL A   1      34.505  29.229  26.843  1.00  0.00     0.116 C 
BRANCH  75  76
ATOM     76  N   UNL A   1      33.315  30.023  26.574  1.00  0.00    -0.354 N 
ATOM     77  C   UNL A   1      32.274  29.780  25.721  1.00  0.00     0.242 C 
ATOM     78  H   UNL A   1      33.249  30.862  27.085  1.00  0.00     0.163 HD
ATOM     79  O   UNL A   1      31.259  30.474  25.822  1.00  0.00    -0.273 OA
BRANCH  77  80
ATOM     80  C   UNL A   1      32.325  28.572  24.797  1.00  0.00     0.175 C 
ATOM     81  C   UNL A   1      32.429  27.171  25.397  1.00  0.00     0.044 C 
ATOM     82  N   UNL A   1      31.481  28.312  23.641  1.00  0.00    -0.330 N 
ATOM     83  C   UNL A   1      32.650  26.287  24.117  1.00  0.00    -0.006 C 
ATOM     84  C   UNL A   1      32.131  27.197  22.951  1.00  0.00     0.127 C 
ATOM     85  C   UNL A   1      31.844  24.968  24.152  1.00  0.00     0.030 C 
ATOM     86  C   UNL A   1      34.150  25.959  23.927  1.00  0.00     0.030 C 
ATOM     87  C   UNL A   1      32.405  23.952  25.144  1.00  0.00     0.120 C 
ATOM     88  C   UNL A   1      34.660  24.926  24.933  1.00  0.00     0.120 C 
ATOM     89  N   UNL A   1      33.831  23.728  24.912  1.00  0.00    -0.339 N 
ATOM     90  C   UNL A   1      34.463  22.485  24.885  1.00  0.00     0.253 C 
ATOM     91  O   UNL A   1      35.678  22.336  24.994  1.00  0.00    -0.269 OA
BRANCH  82  92
ATOM     92  C   UNL A   1      30.096  28.384  23.489  1.00  0.00     0.226 C 
ATOM     93  O   UNL A   1      29.420  27.358  23.584  1.00  0.00    -0.275 OA
BRANCH  92  94
ATOM     94  C   UNL A   1      29.294  29.608  23.195  1.00  0.00     0.079 C 
ATOM     95  C   UNL A   1      29.452  30.211  21.807  1.00  0.00     0.014 C 
ATOM     96  C   UNL A   1      28.098  29.975  22.378  1.00  0.00     0.014 C 
ENDBRANCH  92  94
ENDBRANCH  82  92
BRANCH  90  97
ATOM     97  C   UNL A   1      33.652  21.264  24.695  1.00  0.00     0.043 A 
ATOM     98  C   UNL A   1      33.057  20.994  23.456  1.00  0.00     0.014 A 
ATOM     99  C   UNL A   1      33.568  20.337  25.737  1.00  0.00     0.060 A 
ATOM    100  C   UNL A   1      32.337  19.812  23.278  1.00  0.00     0.005 A 
ATOM    101  C   UNL A   1      32.849  19.164  25.544  1.00  0.00     0.116 A 
ATOM    102  C   UNL A   1      32.227  18.895  24.325  1.00  0.00     0.046 A 
BRANCH 101 103
ATOM    103  O   UNL A   1      32.776  18.284  26.584  1.00  0.00    -0.508 OA
ATOM    104  H   UNL A   1      31.944  18.069  26.959  1.00  0.00     0.293 HD
ENDBRANCH 101 103
ENDBRANCH  90  97
ENDBRANCH  77  80
ENDBRANCH  75  76
ENDBRANCH  74  75
ENDBRANCH  73  74
ENDBRANCH   1  73
TORSDOF 20
ENDMDL
MODEL 3
REMARK VINA RESULT:     -11.6      1.775      7.611
REMARK SMILES O=C(NCCCCCCNC(=O)[C@H]1CC2(CCN(C(=O)c3cccc(O)c3)CC2)CN1C(=O)C1CC1)c1ccc(-c2c3nc(c(-c4cc(S(=O)(=O)[O-])ccc4F)c4ccc([nH]4)c(-c4cc(S(=O)(=O)[O-])ccc4F)c4nc(c(-c5cc(S(=O)(=O)[O-])ccc5F)c5ccc2[nH]5)C=C4)C=C3)cc1
REMARK SMILES IDX 6 1 5 2 4 3 3 4 1 5 2 6 37 8 38 9 99 10 39 11 98 12 40 13
REMARK SMILES IDX 41 14 42 15 92 16 43 17 97 18 91 19 93 20 44 21 96 22 90 23
REMARK SMILES IDX 89 24 45 26 77 27 57 28 76 29 58 30 61 31 75 32 94 33 59 34
REMARK SMILES IDX 60 35 74 37 95 38 62 39 46 40 47 41 55 42 48 43 54 44 56 45
REMARK SMILES IDX 53 46 49 47 50 48 51 49 52 50 78 51 79 52 87 53 80 54 86 55
REMARK SMILES IDX 88 56 85 57 81 58 82 59 83 60 84 61 63 62 64 63 72 64 65 65
REMARK SMILES IDX 71 66 73 67 70 68 66 69 67 70 68 71 69 72 7 73 8 74 9 75
REMARK SMILES IDX 10 76 11 77 12 79 13 80 14 81 31 82 15 83 30 84 16 85 29 86
REMARK SMILES IDX 17 87 28 88 18 89 19 90 20 91 32 92 33 93 34 94 35 95 36 96
REMARK SMILES IDX 21 97 22 98 27 99 23 100 25 101 24 102 26 103
REMARK H PARENT 3 7 93 25 61 36 10 78 26 104
REMARK Flexibility Score: inf
ROOT
ATOM      1  C   UNL A   1      36.035  33.280  28.491  1.00  0.00     0.002 C 
ENDROOT
BRANCH   1   2
ATOM      2  C   UNL A   1      34.855  34.236  28.352  1.00  0.00     0.021 C 
BRANCH   2   3
ATOM      3  C   UNL A   1      33.608  33.813  29.111  1.00  0.00     0.116 C 
BRANCH   3   4
ATOM      4  N   UNL A   1      33.096  34.855  29.992  1.00  0.00    -0.352 N 
ATOM      5  O   UNL A   1      32.941  35.954  31.976  1.00  0.00    -0.269 OA
ATOM      6  C   UNL A   1      33.521  35.135  31.272  1.00  0.00     0.251 C 
ATOM      7  H   UNL A   1      32.371  35.417  29.636  1.00  0.00     0.163 HD
BRANCH   6   8
ATOM      8  C   UNL A   1      34.694  34.394  31.776  1.00  0.00     0.039 A 
ATOM      9  C   UNL A   1      35.946  35.013  31.751  1.00  0.00     0.014 A 
ATOM     10  C   UNL A   1      34.563  33.053  32.145  1.00  0.00     0.014 A 
ATOM     11  C   UNL A   1      37.084  34.252  31.967  1.00  0.00     0.010 A 
ATOM     12  C   UNL A   1      35.708  32.314  32.454  1.00  0.00     0.010 A 
ATOM     13  C   UNL A   1      36.979  32.902  32.346  1.00  0.00    -0.014 A 
BRANCH  13  14
ATOM     14  C   UNL A   1      38.213  32.168  32.724  1.00  0.00     0.031 A 
ATOM     15  C   UNL A   1      38.918  32.423  34.026  1.00  0.00     0.074 A 
ATOM     16  C   UNL A   1      38.666  31.230  31.869  1.00  0.00     0.049 A 
ATOM     17  N   UNL A   1      40.006  31.865  34.492  1.00  0.00    -0.248 NA
ATOM     18  C   UNL A   1      38.336  33.438  34.915  1.00  0.00     0.031 C 
ATOM     19  C   UNL A   1      38.050  30.907  30.577  1.00  0.00     0.029 A 
ATOM     20  N   UNL A   1      39.721  30.362  31.956  1.00  0.00    -0.354 N 
ATOM     21  C   UNL A   1      40.252  32.466  35.722  1.00  0.00     0.074 A 
ATOM     22  C   UNL A   1      39.208  33.453  35.916  1.00  0.00     0.031 C 
ATOM     23  C   UNL A   1      38.702  29.879  30.021  1.00  0.00     0.029 A 
ATOM     24  C   UNL A   1      39.834  29.528  30.867  1.00  0.00     0.049 A 
ATOM     25  H   UNL A   1      40.338  30.337  32.722  1.00  0.00     0.167 HD
ATOM     26  C   UNL A   1      41.255  32.212  36.601  1.00  0.00     0.034 A 
ATOM     27  C   UNL A   1      40.765  28.604  30.564  1.00  0.00     0.034 A 
ATOM     28  C   UNL A   1      42.284  31.222  36.379  1.00  0.00     0.049 A 
ATOM     29  C   UNL A   1      41.886  28.376  31.538  1.00  0.00     0.074 A 
ATOM     30  C   UNL A   1      43.337  30.870  37.207  1.00  0.00     0.029 A 
ATOM     31  N   UNL A   1      42.398  30.428  35.243  1.00  0.00    -0.354 N 
ATOM     32  N   UNL A   1      42.100  28.955  32.697  1.00  0.00    -0.248 NA
ATOM     33  C   UNL A   1      42.888  27.374  31.164  1.00  0.00     0.031 C 
ATOM     34  C   UNL A   1      44.121  29.916  36.547  1.00  0.00     0.029 A 
ATOM     35  C   UNL A   1      43.517  29.612  35.337  1.00  0.00     0.049 A 
ATOM     36  H   UNL A   1      41.773  30.442  34.482  1.00  0.00     0.167 HD
ATOM     37  C   UNL A   1      43.261  28.374  33.197  1.00  0.00     0.074 A 
ATOM     38  C   UNL A   1      43.675  27.378  32.229  1.00  0.00     0.031 C 
ATOM     39  C   UNL A   1      43.928  28.644  34.348  1.00  0.00     0.034 A 
BRANCH  26  40
ATOM     40  C   UNL A   1      41.317  33.048  37.860  1.00  0.00     0.023 A 
ATOM     41  C   UNL A   1      40.713  32.633  39.060  1.00  0.00     0.031 A 
ATOM     42  C   UNL A   1      42.001  34.278  37.860  1.00  0.00     0.131 A 
ATOM     43  C   UNL A   1      40.760  33.462  40.192  1.00  0.00     0.055 A 
ATOM     44  C   UNL A   1      42.104  35.065  39.009  1.00  0.00     0.041 A 
ATOM     45  F   UNL A   1      42.580  34.738  36.740  1.00  0.00    -0.206 F 
ATOM     46  C   UNL A   1      41.472  34.663  40.182  1.00  0.00     0.022 A 
BRANCH  43  47
ATOM     47  S   UNL A   1      39.780  33.002  41.648  1.00  0.00     0.124 S 
ATOM     48  O   UNL A   1      40.696  33.329  42.738  1.00  0.00    -0.237 OA
ATOM     49  O   UNL A   1      38.606  33.860  41.523  1.00  0.00    -0.237 OA
ATOM     50  O   UNL A   1      39.532  31.575  41.459  1.00  0.00    -0.744 OA
ENDBRANCH  43  47
ENDBRANCH  26  40
BRANCH  27  51
ATOM     51  C   UNL A   1      40.701  27.871  29.268  1.00  0.00     0.023 A 
ATOM     52  C   UNL A   1      41.581  28.173  28.219  1.00  0.00     0.031 A 
ATOM     53  C   UNL A   1      39.732  26.872  29.050  1.00  0.00     0.131 A 
ATOM     54  C   UNL A   1      41.446  27.518  26.986  1.00  0.00     0.055 A 
ATOM     55  C   UNL A   1      39.645  26.178  27.845  1.00  0.00     0.041 A 
ATOM     56  F   UNL A   1      38.866  26.541  30.022  1.00  0.00    -0.206 F 
ATOM     57  C   UNL A   1      40.496  26.511  26.797  1.00  0.00     0.022 A 
BRANCH  54  58
ATOM     58  S   UNL A   1      42.469  28.073  25.596  1.00  0.00     0.124 S 
ATOM     59  O   UNL A   1      43.694  28.483  26.273  1.00  0.00    -0.237 OA
ATOM     60  O   UNL A   1      42.559  26.864  24.784  1.00  0.00    -0.237 OA
ATOM     61  O   UNL A   1      41.686  29.159  25.011  1.00  0.00    -0.744 OA
ENDBRANCH  54  58
ENDBRANCH  27  51
BRANCH  39  62
ATOM     62  C   UNL A   1      45.161  27.815  34.615  1.00  0.00     0.023 A 
ATOM     63  C   UNL A   1      46.429  28.222  34.164  1.00  0.00     0.031 A 
ATOM     64  C   UNL A   1      45.058  26.582  35.280  1.00  0.00     0.131 A 
ATOM     65  C   UNL A   1      47.531  27.368  34.319  1.00  0.00     0.055 A 
ATOM     66  C   UNL A   1      46.171  25.768  35.491  1.00  0.00     0.041 A 
ATOM     67  F   UNL A   1      43.869  26.143  35.727  1.00  0.00    -0.206 F 
ATOM     68  C   UNL A   1      47.413  26.151  34.994  1.00  0.00     0.022 A 
BRANCH  65  69
ATOM     69  S   UNL A   1      49.098  27.820  33.524  1.00  0.00     0.124 S 
ATOM     70  O   UNL A   1      49.034  27.064  32.277  1.00  0.00    -0.237 OA
ATOM     71  O   UNL A   1      48.976  29.270  33.398  1.00  0.00    -0.237 OA
ATOM     72  O   UNL A   1      50.109  27.364  34.475  1.00  0.00    -0.744 OA
ENDBRANCH  65  69
ENDBRANCH  39  62
ENDBRANCH  13  14
ENDBRANCH   6   8
ENDBRANCH   3   4
ENDBRANCH   2   3
ENDBRANCH   1   2
BRANCH   1  73
ATOM     73  C   UNL A   1      35.945  32.013  27.643  1.00  0.00     0.002 C 
BRANCH  73  74
ATOM     74  C   UNL A   1      35.248  30.813  28.292  1.00  0.00     0.021 C 
BRANCH  74  75
ATOM     75  C   UNL A   1      34.535  29.859  27.335  1.00  0.00     0.116 C 
BRANCH  75  76
ATOM     76  N   UNL A   1      33.181  29.509  27.737  1.00  0.00    -0.354 N 
ATOM     77  C   UNL A   1      32.389  28.467  27.338  1.00  0.00     0.242 C 
ATOM     78  H   UNL A   1      32.772  30.115  28.396  1.00  0.00     0.163 HD
ATOM     79  O   UNL A   1      31.362  28.232  27.980  1.00  0.00    -0.273 OA
BRANCH  77  80
ATOM     80  C   UNL A   1      32.873  27.533  26.238  1.00  0.00     0.175 C 
ATOM     81  C   UNL A   1      32.522  26.048  26.305  1.00  0.00     0.044 C 
ATOM     82  N   UNL A   1      32.817  27.761  24.803  1.00  0.00    -0.330 N 
ATOM     83  C   UNL A   1      33.370  25.462  25.119  1.00  0.00    -0.006 C 
ATOM     84  C   UNL A   1      33.666  26.717  24.228  1.00  0.00     0.127 C 
ATOM     85  C   UNL A   1      32.599  24.404  24.296  1.00  0.00     0.030 C 
ATOM     86  C   UNL A   1      34.687  24.838  25.639  1.00  0.00     0.030 C 
ATOM     87  C   UNL A   1      32.428  23.081  25.037  1.00  0.00     0.120 C 
ATOM     88  C   UNL A   1      34.465  23.506  26.358  1.00  0.00     0.120 C 
ATOM     89  N   UNL A   1      33.715  22.581  25.520  1.00  0.00    -0.339 N 
ATOM     90  C   UNL A   1      34.164  21.266  25.417  1.00  0.00     0.253 C 
ATOM     91  O   UNL A   1      35.090  20.808  26.085  1.00  0.00    -0.269 OA
BRANCH  82  92
ATOM     92  C   UNL A   1      31.771  28.198  23.988  1.00  0.00     0.226 C 
ATOM     93  O   UNL A   1      31.985  29.062  23.137  1.00  0.00    -0.275 OA
BRANCH  92  94
ATOM     94  C   UNL A   1      30.353  27.736  24.035  1.00  0.00     0.079 C 
ATOM     95  C   UNL A   1      29.965  26.622  23.075  1.00  0.00     0.014 C 
ATOM     96  C   UNL A   1      29.596  26.541  24.514  1.00  0.00     0.014 C 
ENDBRANCH  92  94
ENDBRANCH  82  92
BRANCH  90  97
ATOM     97  C   UNL A   1      33.524  20.354  24.446  1.00  0.00     0.043 A 
ATOM     98  C   UNL A   1      33.521  18.971  24.667  1.00  0.00     0.014 A 
ATOM     99  C   UNL A   1      32.839  20.897  23.356  1.00  0.00     0.060 A 
ATOM    100  C   UNL A   1      32.869  18.128  23.766  1.00  0.00     0.005 A 
ATOM    101  C   UNL A   1      32.194  20.046  22.469  1.00  0.00     0.116 A 
ATOM    102  C   UNL A   1      32.206  18.665  22.660  1.00  0.00     0.046 A 
BRANCH 101 103
ATOM    103  O   UNL A   1      31.543  20.606  21.408  1.00  0.00    -0.508 OA
ATOM    104  H   UNL A   1      31.417  20.112  20.621  1.00  0.00     0.293 HD
ENDBRANCH 101 103
ENDBRANCH  90  97
ENDBRANCH  77  80
ENDBRANCH  75  76
ENDBRANCH  74  75
ENDBRANCH  73  74
ENDBRANCH   1  73
TORSDOF 20
ENDMDL
