MODEL 1
REMARK VINA RESULT:     -13.2      0.000      0.000
REMARK SMILES C[C@]12C(=O)N(c3ccc(C(=O)NCCCCCCNC(=O)c4ccc(-c5c6nc(c(-c7cc(S(=O)(=O)[O-])ccc7F)c7ccc([nH]7)c(-c7cc(S(=O)(=O)[O-])ccc7F)c7nc(c(-c8cc(S(=O)(=O)[O-])ccc8F)c8ccc5[nH]8)C=C7)C=C6)cc4)cc3)C(=O)[C@H]1[C@H]1c3ccccc3[C@@H]2c2ccccc21
REMARK SMILES IDX 16 1 15 2 14 3 13 4 12 5 10 6 11 7 9 9 6 10 7 11 86 12 8 13
REMARK SMILES IDX 85 14 5 15 1 16 2 17 3 18 89 19 97 20 4 21 87 22 90 23 96 24
REMARK SMILES IDX 98 25 88 26 91 27 103 28 95 29 99 30 92 31 102 32 94 33
REMARK SMILES IDX 100 34 93 35 101 36 17 37 18 38 19 39 20 40 21 42 22 43
REMARK SMILES IDX 23 44 84 45 24 46 83 47 25 48 26 49 27 50 77 51 28 52 82 53
REMARK SMILES IDX 76 54 78 55 29 56 81 57 75 58 74 59 30 61 62 62 42 63 61 64
REMARK SMILES IDX 43 65 46 66 60 67 79 68 44 69 45 70 59 72 80 73 47 74 31 75
REMARK SMILES IDX 32 76 40 77 33 78 39 79 41 80 38 81 34 82 35 83 36 84 37 85
REMARK SMILES IDX 63 86 64 87 72 88 65 89 71 90 73 91 70 92 66 93 67 94 68 95
REMARK SMILES IDX 69 96 48 97 49 98 57 99 50 100 56 101 58 102 55 103 51 104
REMARK SMILES IDX 52 105 53 106 54 107
REMARK H PARENT 12 8 19 41 78 60 46 71
REMARK Flexibility Score: inf
ROOT
ATOM      1  C   UNL A   1      34.557  32.754  29.112  1.00  0.00     0.002 C 
ENDROOT
BRANCH   1   2
ATOM      2  C   UNL A   1      35.220  31.932  28.004  1.00  0.00     0.002 C 
BRANCH   2   3
ATOM      3  C   UNL A   1      35.500  30.461  28.312  1.00  0.00     0.021 C 
BRANCH   3   4
ATOM      4  C   UNL A   1      35.109  29.458  27.235  1.00  0.00     0.116 C 
BRANCH   4   5
ATOM      5  N   UNL A   1      34.042  29.916  26.369  1.00  0.00    -0.352 N 
ATOM      6  C   UNL A   1      33.037  29.203  25.764  1.00  0.00     0.251 C 
ATOM      7  O   UNL A   1      32.237  29.783  25.032  1.00  0.00    -0.269 OA
ATOM      8  H   UNL A   1      34.036  30.884  26.187  1.00  0.00     0.163 HD
BRANCH   6   9
ATOM      9  C   UNL A   1      32.946  27.731  25.923  1.00  0.00     0.039 A 
ATOM     10  C   UNL A   1      32.582  24.932  26.214  1.00  0.00     0.052 A 
ATOM     11  C   UNL A   1      31.739  25.859  26.857  1.00  0.00     0.027 A 
ATOM     12  C   UNL A   1      33.638  25.447  25.448  1.00  0.00     0.027 A 
ATOM     13  C   UNL A   1      31.915  27.238  26.716  1.00  0.00     0.016 A 
ATOM     14  C   UNL A   1      33.840  26.832  25.337  1.00  0.00     0.016 A 
BRANCH  10  15
ATOM     15  N   UNL A   1      32.506  23.536  26.514  1.00  0.00    -0.250 N 
ATOM     16  C   UNL A   1      33.208  20.420  27.284  1.00  0.00     0.024 C 
ATOM     17  C   UNL A   1      33.344  21.408  26.108  1.00  0.00     0.071 C 
ATOM     18  C   UNL A   1      33.629  22.761  26.699  1.00  0.00     0.241 C 
ATOM     19  C   UNL A   1      31.982  21.603  25.363  1.00  0.00     0.107 C 
ATOM     20  C   UNL A   1      34.458  21.035  25.081  1.00  0.00     0.066 C 
ATOM     21  O   UNL A   1      34.680  23.029  27.262  1.00  0.00    -0.273 OA
ATOM     22  C   UNL A   1      31.405  22.721  26.215  1.00  0.00     0.238 C 
ATOM     23  C   UNL A   1      32.061  20.908  23.949  1.00  0.00     0.063 C 
ATOM     24  C   UNL A   1      34.313  21.972  23.868  1.00  0.00    -0.036 A 
ATOM     25  C   UNL A   1      34.091  19.642  24.588  1.00  0.00    -0.036 A 
ATOM     26  O   UNL A   1      30.226  22.885  26.484  1.00  0.00    -0.274 OA
ATOM     27  C   UNL A   1      33.066  21.842  23.182  1.00  0.00    -0.036 A 
ATOM     28  C   UNL A   1      32.787  19.562  24.029  1.00  0.00    -0.036 A 
ATOM     29  C   UNL A   1      35.184  23.002  23.543  1.00  0.00     0.005 A 
ATOM     30  C   UNL A   1      34.939  18.544  24.611  1.00  0.00     0.005 A 
ATOM     31  C   UNL A   1      32.699  22.737  22.184  1.00  0.00     0.004 A 
ATOM     32  C   UNL A   1      32.348  18.368  23.476  1.00  0.00     0.004 A 
ATOM     33  C   UNL A   1      34.808  23.903  22.542  1.00  0.00     0.000 A 
ATOM     34  C   UNL A   1      34.487  17.347  24.059  1.00  0.00     0.000 A 
ATOM     35  C   UNL A   1      33.580  23.771  21.869  1.00  0.00     0.000 A 
ATOM     36  C   UNL A   1      33.205  17.261  23.495  1.00  0.00     0.000 A 
ENDBRANCH  10  15
ENDBRANCH   6   9
ENDBRANCH   4   5
ENDBRANCH   3   4
ENDBRANCH   2   3
ENDBRANCH   1   2
BRANCH   1  37
ATOM     37  C   UNL A   1      33.645  33.897  28.669  1.00  0.00     0.021 C 
BRANCH  37  38
ATOM     38  C   UNL A   1      33.972  35.271  29.233  1.00  0.00     0.116 C 
BRANCH  38  39
ATOM     39  N   UNL A   1      32.942  35.793  30.114  1.00  0.00    -0.352 N 
ATOM     40  C   UNL A   1      32.830  35.681  31.483  1.00  0.00     0.251 C 
ATOM     41  H   UNL A   1      32.222  36.299  29.672  1.00  0.00     0.163 HD
ATOM     42  O   UNL A   1      31.823  36.092  32.050  1.00  0.00    -0.269 OA
BRANCH  40  43
ATOM     43  C   UNL A   1      33.908  35.018  32.256  1.00  0.00     0.039 A 
ATOM     44  C   UNL A   1      35.133  35.653  32.467  1.00  0.00     0.014 A 
ATOM     45  C   UNL A   1      33.704  33.721  32.737  1.00  0.00     0.014 A 
ATOM     46  C   UNL A   1      36.207  34.925  32.971  1.00  0.00     0.010 A 
ATOM     47  C   UNL A   1      34.760  33.025  33.336  1.00  0.00     0.010 A 
ATOM     48  C   UNL A   1      36.040  33.599  33.401  1.00  0.00    -0.014 A 
BRANCH  48  49
ATOM     49  C   UNL A   1      37.220  32.841  33.908  1.00  0.00     0.031 A 
ATOM     50  C   UNL A   1      37.835  31.729  33.098  1.00  0.00     0.074 A 
ATOM     51  C   UNL A   1      37.779  33.206  35.078  1.00  0.00     0.049 A 
ATOM     52  N   UNL A   1      38.906  31.021  33.355  1.00  0.00    -0.248 NA
ATOM     53  C   UNL A   1      37.167  31.357  31.841  1.00  0.00     0.031 C 
ATOM     54  C   UNL A   1      37.267  34.262  35.953  1.00  0.00     0.029 A 
ATOM     55  N   UNL A   1      38.907  32.759  35.721  1.00  0.00    -0.354 N 
ATOM     56  C   UNL A   1      39.032  30.116  32.306  1.00  0.00     0.074 A 
ATOM     57  C   UNL A   1      37.904  30.335  31.429  1.00  0.00     0.031 C 
ATOM     58  C   UNL A   1      38.110  34.427  36.980  1.00  0.00     0.029 A 
ATOM     59  C   UNL A   1      39.185  33.442  36.884  1.00  0.00     0.049 A 
ATOM     60  H   UNL A   1      39.464  32.021  35.384  1.00  0.00     0.167 HD
ATOM     61  C   UNL A   1      40.008  29.202  32.086  1.00  0.00     0.034 A 
ATOM     62  C   UNL A   1      40.186  33.298  37.778  1.00  0.00     0.034 A 
ATOM     63  C   UNL A   1      41.138  29.006  32.961  1.00  0.00     0.049 A 
ATOM     64  C   UNL A   1      41.251  32.266  37.516  1.00  0.00     0.074 A 
ATOM     65  C   UNL A   1      42.191  28.121  32.809  1.00  0.00     0.029 A 
ATOM     66  N   UNL A   1      41.370  29.700  34.141  1.00  0.00    -0.354 N 
ATOM     67  N   UNL A   1      41.380  31.456  36.492  1.00  0.00    -0.248 NA
ATOM     68  C   UNL A   1      42.313  32.130  38.522  1.00  0.00     0.031 C 
ATOM     69  C   UNL A   1      43.022  28.232  33.924  1.00  0.00     0.029 A 
ATOM     70  C   UNL A   1      42.537  29.246  34.735  1.00  0.00     0.049 A 
ATOM     71  H   UNL A   1      40.792  30.411  34.501  1.00  0.00     0.167 HD
ATOM     72  C   UNL A   1      42.548  30.733  36.718  1.00  0.00     0.074 A 
ATOM     73  C   UNL A   1      43.103  31.223  37.962  1.00  0.00     0.031 C 
ATOM     74  C   UNL A   1      43.103  29.749  35.966  1.00  0.00     0.034 A 
BRANCH  61  75
ATOM     75  C   UNL A   1      39.931  28.338  30.849  1.00  0.00     0.023 A 
ATOM     76  C   UNL A   1      40.655  28.695  29.694  1.00  0.00     0.031 A 
ATOM     77  C   UNL A   1      39.040  27.253  30.763  1.00  0.00     0.131 A 
ATOM     78  C   UNL A   1      40.443  28.001  28.496  1.00  0.00     0.055 A 
ATOM     79  C   UNL A   1      38.868  26.535  29.578  1.00  0.00     0.041 A 
ATOM     80  F   UNL A   1      38.324  26.872  31.833  1.00  0.00    -0.206 F 
ATOM     81  C   UNL A   1      39.560  26.918  28.434  1.00  0.00     0.022 A 
BRANCH  78  82
ATOM     82  S   UNL A   1      41.244  28.523  26.953  1.00  0.00     0.124 S 
ATOM     83  O   UNL A   1      42.307  29.395  27.449  1.00  0.00    -0.237 OA
ATOM     84  O   UNL A   1      41.693  27.249  26.397  1.00  0.00    -0.237 OA
ATOM     85  O   UNL A   1      40.182  29.195  26.215  1.00  0.00    -0.744 OA
ENDBRANCH  78  82
ENDBRANCH  61  75
BRANCH  62  86
ATOM     86  C   UNL A   1      40.233  34.203  38.964  1.00  0.00     0.023 A 
ATOM     87  C   UNL A   1      39.474  33.923  40.115  1.00  0.00     0.031 A 
ATOM     88  C   UNL A   1      40.939  35.417  38.919  1.00  0.00     0.131 A 
ATOM     89  C   UNL A   1      39.373  34.879  41.134  1.00  0.00     0.055 A 
ATOM     90  C   UNL A   1      40.901  36.331  39.974  1.00  0.00     0.041 A 
ATOM     91  F   UNL A   1      41.666  35.738  37.838  1.00  0.00    -0.206 F 
ATOM     92  C   UNL A   1      40.098  36.073  41.080  1.00  0.00     0.022 A 
BRANCH  89  93
ATOM     93  S   UNL A   1      38.178  34.671  42.485  1.00  0.00     0.124 S 
ATOM     94  O   UNL A   1      36.923  34.513  41.759  1.00  0.00    -0.237 OA
ATOM     95  O   UNL A   1      38.683  33.468  43.143  1.00  0.00    -0.237 OA
ATOM     96  O   UNL A   1      38.313  35.901  43.257  1.00  0.00    -0.744 OA
ENDBRANCH  89  93
ENDBRANCH  62  86
BRANCH  74  97
ATOM     97  C   UNL A   1      44.395  29.119  36.431  1.00  0.00     0.023 A 
ATOM     98  C   UNL A   1      44.362  28.023  37.317  1.00  0.00     0.031 A 
ATOM     99  C   UNL A   1      45.644  29.685  36.126  1.00  0.00     0.131 A 
ATOM    100  C   UNL A   1      45.548  27.557  37.897  1.00  0.00     0.055 A 
ATOM    101  C   UNL A   1      46.829  29.183  36.666  1.00  0.00     0.041 A 
ATOM    102  F   UNL A   1      45.730  30.740  35.299  1.00  0.00    -0.206 F 
ATOM    103  C   UNL A   1      46.783  28.124  37.567  1.00  0.00     0.022 A 
BRANCH 100 104
ATOM    104  S   UNL A   1      45.523  26.267  39.174  1.00  0.00     0.124 S 
ATOM    105  O   UNL A   1      46.731  26.575  39.936  1.00  0.00    -0.237 OA
ATOM    106  O   UNL A   1      44.265  26.541  39.864  1.00  0.00    -0.237 OA
ATOM    107  O   UNL A   1      45.565  25.020  38.417  1.00  0.00    -0.744 OA
ENDBRANCH 100 104
ENDBRANCH  74  97
ENDBRANCH  48  49
ENDBRANCH  40  43
ENDBRANCH  38  39
ENDBRANCH  37  38
ENDBRANCH   1  37
TORSDOF 17
ENDMDL
MODEL 2
REMARK VINA RESULT:     -13.1      1.360      7.406
REMARK SMILES C[C@]12C(=O)N(c3ccc(C(=O)NCCCCCCNC(=O)c4ccc(-c5c6nc(c(-c7cc(S(=O)(=O)[O-])ccc7F)c7ccc([nH]7)c(-c7cc(S(=O)(=O)[O-])ccc7F)c7nc(c(-c8cc(S(=O)(=O)[O-])ccc8F)c8ccc5[nH]8)C=C7)C=C6)cc4)cc3)C(=O)[C@H]1[C@H]1c3ccccc3[C@@H]2c2ccccc21
REMARK SMILES IDX 16 1 15 2 14 3 13 4 12 5 10 6 11 7 9 9 6 10 7 11 86 12 8 13
REMARK SMILES IDX 85 14 5 15 1 16 2 17 3 18 89 19 97 20 4 21 87 22 90 23 96 24
REMARK SMILES IDX 98 25 88 26 91 27 103 28 95 29 99 30 92 31 102 32 94 33
REMARK SMILES IDX 100 34 93 35 101 36 17 37 18 38 19 39 20 40 21 42 22 43
REMARK SMILES IDX 23 44 84 45 24 46 83 47 25 48 26 49 27 50 77 51 28 52 82 53
REMARK SMILES IDX 76 54 78 55 29 56 81 57 75 58 74 59 30 61 62 62 42 63 61 64
REMARK SMILES IDX 43 65 46 66 60 67 79 68 44 69 45 70 59 72 80 73 47 74 31 75
REMARK SMILES IDX 32 76 40 77 33 78 39 79 41 80 38 81 34 82 35 83 36 84 37 85
REMARK SMILES IDX 63 86 64 87 72 88 65 89 71 90 73 91 70 92 66 93 67 94 68 95
REMARK SMILES IDX 69 96 48 97 49 98 57 99 50 100 56 101 58 102 55 103 51 104
REMARK SMILES IDX 52 105 53 106 54 107
REMARK H PARENT 12 8 19 41 78 60 46 71
REMARK Flexibility Score: inf
ROOT
ATOM      1  C   UNL A   1      35.051  33.557  27.911  1.00  0.00     0.002 C 
ENDROOT
BRANCH   1   2
ATOM      2  C   UNL A   1      35.531  32.150  28.278  1.00  0.00     0.002 C 
BRANCH   2   3
ATOM      3  C   UNL A   1      34.470  31.051  28.327  1.00  0.00     0.021 C 
BRANCH   3   4
ATOM      4  C   UNL A   1      34.452  30.075  27.157  1.00  0.00     0.116 C 
BRANCH   4   5
ATOM      5  N   UNL A   1      33.406  30.341  26.191  1.00  0.00    -0.352 N 
ATOM      6  C   UNL A   1      32.547  29.470  25.569  1.00  0.00     0.251 C 
ATOM      7  O   UNL A   1      31.740  29.898  24.745  1.00  0.00    -0.269 OA
ATOM      8  H   UNL A   1      33.294  31.287  25.943  1.00  0.00     0.163 HD
BRANCH   6   9
ATOM      9  C   UNL A   1      32.626  28.010  25.821  1.00  0.00     0.039 A 
ATOM     10  C   UNL A   1      32.590  25.210  26.280  1.00  0.00     0.052 A 
ATOM     11  C   UNL A   1      31.599  26.060  26.810  1.00  0.00     0.027 A 
ATOM     12  C   UNL A   1      33.622  25.808  25.542  1.00  0.00     0.027 A 
ATOM     13  C   UNL A   1      31.615  27.439  26.585  1.00  0.00     0.016 A 
ATOM     14  C   UNL A   1      33.660  27.198  25.350  1.00  0.00     0.016 A 
BRANCH  10  15
ATOM     15  N   UNL A   1      32.666  23.837  26.668  1.00  0.00    -0.250 N 
ATOM     16  C   UNL A   1      33.710  20.834  27.500  1.00  0.00     0.024 C 
ATOM     17  C   UNL A   1      33.591  21.745  26.262  1.00  0.00     0.071 C 
ATOM     18  C   UNL A   1      33.859  23.152  26.722  1.00  0.00     0.241 C 
ATOM     19  C   UNL A   1      32.122  21.799  25.728  1.00  0.00     0.107 C 
ATOM     20  C   UNL A   1      34.563  21.376  25.098  1.00  0.00     0.066 C 
ATOM     21  O   UNL A   1      34.960  23.527  27.098  1.00  0.00    -0.273 OA
ATOM     22  C   UNL A   1      31.597  22.932  26.593  1.00  0.00     0.238 C 
ATOM     23  C   UNL A   1      32.039  21.014  24.362  1.00  0.00     0.063 C 
ATOM     24  C   UNL A   1      34.165  22.216  23.870  1.00  0.00    -0.036 A 
ATOM     25  C   UNL A   1      34.232  19.931  24.750  1.00  0.00    -0.036 A 
ATOM     26  O   UNL A   1      30.463  23.036  27.032  1.00  0.00    -0.274 OA
ATOM     27  C   UNL A   1      32.842  21.956  23.395  1.00  0.00    -0.036 A 
ATOM     28  C   UNL A   1      32.868  19.727  24.406  1.00  0.00    -0.036 A 
ATOM     29  C   UNL A   1      34.897  23.275  23.353  1.00  0.00     0.005 A 
ATOM     30  C   UNL A   1      35.154  18.895  24.705  1.00  0.00     0.005 A 
ATOM     31  C   UNL A   1      32.262  22.754  22.416  1.00  0.00     0.004 A 
ATOM     32  C   UNL A   1      32.442  18.471  23.998  1.00  0.00     0.004 A 
ATOM     33  C   UNL A   1      34.307  24.079  22.372  1.00  0.00     0.000 A 
ATOM     34  C   UNL A   1      34.716  17.637  24.300  1.00  0.00     0.000 A 
ATOM     35  C   UNL A   1      33.005  23.820  21.907  1.00  0.00     0.000 A 
ATOM     36  C   UNL A   1      33.374  17.427  23.949  1.00  0.00     0.000 A 
ENDBRANCH  10  15
ENDBRANCH   6   9
ENDBRANCH   4   5
ENDBRANCH   3   4
ENDBRANCH   2   3
ENDBRANCH   1   2
BRANCH   1  37
ATOM     37  C   UNL A   1      33.663  33.961  28.407  1.00  0.00     0.021 C 
BRANCH  37  38
ATOM     38  C   UNL A   1      33.547  35.354  29.008  1.00  0.00     0.116 C 
BRANCH  38  39
ATOM     39  N   UNL A   1      32.876  35.372  30.296  1.00  0.00    -0.352 N 
ATOM     40  C   UNL A   1      33.249  34.773  31.479  1.00  0.00     0.251 C 
ATOM     41  H   UNL A   1      32.036  35.885  30.328  1.00  0.00     0.163 HD
ATOM     42  O   UNL A   1      32.492  34.803  32.444  1.00  0.00    -0.269 OA
BRANCH  40  43
ATOM     43  C   UNL A   1      34.543  34.054  31.563  1.00  0.00     0.039 A 
ATOM     44  C   UNL A   1      34.588  32.697  31.885  1.00  0.00     0.014 A 
ATOM     45  C   UNL A   1      35.732  34.762  31.360  1.00  0.00     0.014 A 
ATOM     46  C   UNL A   1      35.807  32.106  32.202  1.00  0.00     0.010 A 
ATOM     47  C   UNL A   1      36.963  34.134  31.582  1.00  0.00     0.010 A 
ATOM     48  C   UNL A   1      37.011  32.818  32.067  1.00  0.00    -0.014 A 
BRANCH  48  49
ATOM     49  C   UNL A   1      38.295  32.161  32.444  1.00  0.00     0.031 A 
ATOM     50  C   UNL A   1      38.975  32.477  33.751  1.00  0.00     0.074 A 
ATOM     51  C   UNL A   1      38.815  31.223  31.628  1.00  0.00     0.049 A 
ATOM     52  N   UNL A   1      40.053  31.942  34.266  1.00  0.00    -0.248 NA
ATOM     53  C   UNL A   1      38.375  33.527  34.589  1.00  0.00     0.031 C 
ATOM     54  C   UNL A   1      38.250  30.839  30.334  1.00  0.00     0.029 A 
ATOM     55  N   UNL A   1      39.908  30.404  31.770  1.00  0.00    -0.354 N 
ATOM     56  C   UNL A   1      40.268  32.596  35.475  1.00  0.00     0.074 A 
ATOM     57  C   UNL A   1      39.234  33.598  35.598  1.00  0.00     0.031 C 
ATOM     58  C   UNL A   1      38.957  29.819  29.832  1.00  0.00     0.029 A 
ATOM     59  C   UNL A   1      40.073  29.519  30.728  1.00  0.00     0.049 A 
ATOM     60  H   UNL A   1      40.516  30.445  32.543  1.00  0.00     0.167 HD
ATOM     61  C   UNL A   1      41.229  32.369  36.404  1.00  0.00     0.034 A 
ATOM     62  C   UNL A   1      41.011  28.575  30.508  1.00  0.00     0.034 A 
ATOM     63  C   UNL A   1      42.246  31.354  36.277  1.00  0.00     0.049 A 
ATOM     64  C   UNL A   1      42.075  28.351  31.550  1.00  0.00     0.074 A 
ATOM     65  C   UNL A   1      43.246  31.031  37.177  1.00  0.00     0.029 A 
ATOM     66  N   UNL A   1      42.393  30.495  35.196  1.00  0.00    -0.354 N 
ATOM     67  N   UNL A   1      42.230  28.944  32.710  1.00  0.00    -0.248 NA
ATOM     68  C   UNL A   1      43.086  27.325  31.264  1.00  0.00     0.031 C 
ATOM     69  C   UNL A   1      44.036  30.029  36.614  1.00  0.00     0.029 A 
ATOM     70  C   UNL A   1      43.481  29.662  35.399  1.00  0.00     0.049 A 
ATOM     71  H   UNL A   1      41.810  30.481  34.403  1.00  0.00     0.167 HD
ATOM     72  C   UNL A   1      43.340  28.348  33.301  1.00  0.00     0.074 A 
ATOM     73  C   UNL A   1      43.799  27.327  32.383  1.00  0.00     0.031 C 
ATOM     74  C   UNL A   1      43.927  28.628  34.493  1.00  0.00     0.034 A 
BRANCH  61  75
ATOM     75  C   UNL A   1      41.242  33.210  37.660  1.00  0.00     0.023 A 
ATOM     76  C   UNL A   1      40.507  32.800  38.790  1.00  0.00     0.031 A 
ATOM     77  C   UNL A   1      41.855  34.474  37.691  1.00  0.00     0.131 A 
ATOM     78  C   UNL A   1      40.371  33.664  39.884  1.00  0.00     0.055 A 
ATOM     79  C   UNL A   1      41.755  35.312  38.804  1.00  0.00     0.041 A 
ATOM     80  F   UNL A   1      42.565  34.915  36.640  1.00  0.00    -0.206 F 
ATOM     81  C   UNL A   1      40.998  34.914  39.901  1.00  0.00     0.022 A 
BRANCH  78  82
ATOM     82  S   UNL A   1      39.314  33.234  41.295  1.00  0.00     0.124 S 
ATOM     83  O   UNL A   1      39.980  33.933  42.392  1.00  0.00    -0.237 OA
ATOM     84  O   UNL A   1      38.025  33.792  40.891  1.00  0.00    -0.237 OA
ATOM     85  O   UNL A   1      39.380  31.778  41.354  1.00  0.00    -0.744 OA
ENDBRANCH  78  82
ENDBRANCH  61  75
BRANCH  62  86
ATOM     86  C   UNL A   1      40.929  27.748  29.267  1.00  0.00     0.023 A 
ATOM     87  C   UNL A   1      41.829  27.951  28.205  1.00  0.00     0.031 A 
ATOM     88  C   UNL A   1      39.882  26.831  29.078  1.00  0.00     0.131 A 
ATOM     89  C   UNL A   1      41.615  27.311  26.977  1.00  0.00     0.055 A 
ATOM     90  C   UNL A   1      39.721  26.133  27.879  1.00  0.00     0.041 A 
ATOM     91  F   UNL A   1      38.988  26.612  30.056  1.00  0.00    -0.206 F 
ATOM     92  C   UNL A   1      40.578  26.388  26.814  1.00  0.00     0.022 A 
BRANCH  89  93
ATOM     93  S   UNL A   1      42.580  27.774  25.511  1.00  0.00     0.124 S 
ATOM     94  O   UNL A   1      41.877  28.966  25.048  1.00  0.00    -0.237 OA
ATOM     95  O   UNL A   1      43.903  28.004  26.087  1.00  0.00    -0.237 OA
ATOM     96  O   UNL A   1      42.476  26.603  24.647  1.00  0.00    -0.744 OA
ENDBRANCH  89  93
ENDBRANCH  62  86
BRANCH  74  97
ATOM     97  C   UNL A   1      45.134  27.822  34.916  1.00  0.00     0.023 A 
ATOM     98  C   UNL A   1      44.958  26.618  35.627  1.00  0.00     0.031 A 
ATOM     99  C   UNL A   1      46.442  28.309  34.752  1.00  0.00     0.131 A 
ATOM    100  C   UNL A   1      46.066  25.967  36.183  1.00  0.00     0.055 A 
ATOM    101  C   UNL A   1      47.547  27.628  35.262  1.00  0.00     0.041 A 
ATOM    102  F   UNL A   1      46.663  29.458  34.095  1.00  0.00    -0.206 F 
ATOM    103  C   UNL A   1      47.361  26.459  35.994  1.00  0.00     0.022 A 
BRANCH 100 104
ATOM    104  S   UNL A   1      45.859  24.515  37.253  1.00  0.00     0.124 S 
ATOM    105  O   UNL A   1      44.441  24.211  37.077  1.00  0.00    -0.237 OA
ATOM    106  O   UNL A   1      46.782  23.555  36.651  1.00  0.00    -0.237 OA
ATOM    107  O   UNL A   1      46.232  24.997  38.579  1.00  0.00    -0.744 OA
ENDBRANCH 100 104
ENDBRANCH  74  97
ENDBRANCH  48  49
ENDBRANCH  40  43
ENDBRANCH  38  39
ENDBRANCH  37  38
ENDBRANCH   1  37
TORSDOF 17
ENDMDL
MODEL 3
REMARK VINA RESULT:     -13.1      5.830     10.030
REMARK SMILES C[C@]12C(=O)N(c3ccc(C(=O)NCCCCCCNC(=O)c4ccc(-c5c6nc(c(-c7cc(S(=O)(=O)[O-])ccc7F)c7ccc([nH]7)c(-c7cc(S(=O)(=O)[O-])ccc7F)c7nc(c(-c8cc(S(=O)(=O)[O-])ccc8F)c8ccc5[nH]8)C=C7)C=C6)cc4)cc3)C(=O)[C@H]1[C@H]1c3ccccc3[C@@H]2c2ccccc21
REMARK SMILES IDX 16 1 15 2 14 3 13 4 12 5 10 6 11 7 9 9 6 10 7 11 86 12 8 13
REMARK SMILES IDX 85 14 5 15 1 16 2 17 3 18 89 19 97 20 4 21 87 22 90 23 96 24
REMARK SMILES IDX 98 25 88 26 91 27 103 28 95 29 99 30 92 31 102 32 94 33
REMARK SMILES IDX 100 34 93 35 101 36 17 37 18 38 19 39 20 40 21 42 22 43
REMARK SMILES IDX 23 44 84 45 24 46 83 47 25 48 26 49 27 50 77 51 28 52 82 53
REMARK SMILES IDX 76 54 78 55 29 56 81 57 75 58 74 59 30 61 62 62 42 63 61 64
REMARK SMILES IDX 43 65 46 66 60 67 79 68 44 69 45 70 59 72 80 73 47 74 31 75
REMARK SMILES IDX 32 76 40 77 33 78 39 79 41 80 38 81 34 82 35 83 36 84 37 85
REMARK SMILES IDX 63 86 64 87 72 88 65 89 71 90 73 91 70 92 66 93 67 94 68 95
REMARK SMILES IDX 69 96 48 97 49 98 57 99 50 100 56 101 58 102 55 103 51 104
REMARK SMILES IDX 52 105 53 106 54 107
REMARK H PARENT 12 8 19 41 78 60 46 71
REMARK Flexibility Score: inf
ROOT
ATOM      1  C   UNL A   1      36.495  19.076  24.977  1.00  0.00     0.002 C 
ENDROOT
BRANCH   1   2
ATOM      2  C   UNL A   1      35.186  18.366  24.620  1.00  0.00     0.002 C 
BRANCH   2   3
ATOM      3  C   UNL A   1      33.967  18.695  25.482  1.00  0.00     0.021 C 
BRANCH   3   4
ATOM      4  C   UNL A   1      32.720  17.857  25.236  1.00  0.00     0.116 C 
BRANCH   4   5
ATOM      5  N   UNL A   1      32.535  17.476  23.851  1.00  0.00    -0.352 N 
ATOM      6  C   UNL A   1      32.324  18.263  22.746  1.00  0.00     0.251 C 
ATOM      7  O   UNL A   1      32.158  17.736  21.648  1.00  0.00    -0.269 OA
ATOM      8  H   UNL A   1      32.565  16.508  23.674  1.00  0.00     0.163 HD
BRANCH   6   9
ATOM      9  C   UNL A   1      32.221  19.738  22.871  1.00  0.00     0.039 A 
ATOM     10  C   UNL A   1      31.903  22.556  22.961  1.00  0.00     0.052 A 
ATOM     11  C   UNL A   1      32.019  21.863  21.740  1.00  0.00     0.027 A 
ATOM     12  C   UNL A   1      31.987  21.800  24.139  1.00  0.00     0.027 A 
ATOM     13  C   UNL A   1      32.176  20.475  21.692  1.00  0.00     0.016 A 
ATOM     14  C   UNL A   1      32.184  20.412  24.094  1.00  0.00     0.016 A 
BRANCH  10  15
ATOM     15  N   UNL A   1      31.929  23.985  23.002  1.00  0.00    -0.250 N 
ATOM     16  C   UNL A   1      32.864  27.135  23.034  1.00  0.00     0.024 C 
ATOM     17  C   UNL A   1      32.867  25.890  23.943  1.00  0.00     0.071 C 
ATOM     18  C   UNL A   1      33.106  24.698  23.059  1.00  0.00     0.241 C 
ATOM     19  C   UNL A   1      31.452  25.624  24.556  1.00  0.00     0.107 C 
ATOM     20  C   UNL A   1      33.936  25.928  25.080  1.00  0.00     0.066 C 
ATOM     21  O   UNL A   1      34.173  24.493  22.497  1.00  0.00    -0.273 OA
ATOM     22  C   UNL A   1      30.863  24.785  23.436  1.00  0.00     0.238 C 
ATOM     23  C   UNL A   1      31.486  25.959  26.098  1.00  0.00     0.063 C 
ATOM     24  C   UNL A   1      33.660  24.743  26.025  1.00  0.00    -0.036 A 
ATOM     25  C   UNL A   1      33.624  27.187  25.875  1.00  0.00    -0.036 A 
ATOM     26  O   UNL A   1      29.695  24.776  23.082  1.00  0.00    -0.274 OA
ATOM     27  C   UNL A   1      32.382  24.799  26.664  1.00  0.00    -0.036 A 
ATOM     28  C   UNL A   1      32.294  27.228  26.377  1.00  0.00    -0.036 A 
ATOM     29  C   UNL A   1      34.445  23.605  26.133  1.00  0.00     0.005 A 
ATOM     30  C   UNL A   1      34.536  28.195  26.155  1.00  0.00     0.005 A 
ATOM     31  C   UNL A   1      31.901  23.723  27.401  1.00  0.00     0.004 A 
ATOM     32  C   UNL A   1      31.895  28.287  27.180  1.00  0.00     0.004 A 
ATOM     33  C   UNL A   1      33.955  22.523  26.871  1.00  0.00     0.000 A 
ATOM     34  C   UNL A   1      34.124  29.257  26.957  1.00  0.00     0.000 A 
ATOM     35  C   UNL A   1      32.698  22.582  27.499  1.00  0.00     0.000 A 
ATOM     36  C   UNL A   1      32.816  29.301  27.465  1.00  0.00     0.000 A 
ENDBRANCH  10  15
ENDBRANCH   6   9
ENDBRANCH   4   5
ENDBRANCH   3   4
ENDBRANCH   2   3
ENDBRANCH   1   2
BRANCH   1  37
ATOM     37  C   UNL A   1      36.473  20.604  24.972  1.00  0.00     0.021 C 
BRANCH  37  38
ATOM     38  C   UNL A   1      37.754  21.293  25.417  1.00  0.00     0.116 C 
BRANCH  38  39
ATOM     39  N   UNL A   1      38.844  20.369  25.680  1.00  0.00    -0.352 N 
ATOM     40  C   UNL A   1      40.066  20.611  26.270  1.00  0.00     0.251 C 
ATOM     41  H   UNL A   1      38.688  19.439  25.398  1.00  0.00     0.163 HD
ATOM     42  O   UNL A   1      40.914  19.725  26.305  1.00  0.00    -0.269 OA
BRANCH  40  43
ATOM     43  C   UNL A   1      40.366  21.958  26.812  1.00  0.00     0.039 A 
ATOM     44  C   UNL A   1      39.912  23.108  26.165  1.00  0.00     0.014 A 
ATOM     45  C   UNL A   1      41.155  22.071  27.961  1.00  0.00     0.014 A 
ATOM     46  C   UNL A   1      40.409  24.352  26.543  1.00  0.00     0.010 A 
ATOM     47  C   UNL A   1      41.571  23.333  28.399  1.00  0.00     0.010 A 
ATOM     48  C   UNL A   1      41.254  24.482  27.657  1.00  0.00    -0.014 A 
BRANCH  48  49
ATOM     49  C   UNL A   1      41.791  25.826  28.014  1.00  0.00     0.031 A 
ATOM     50  C   UNL A   1      43.159  26.263  27.557  1.00  0.00     0.074 A 
ATOM     51  C   UNL A   1      41.009  26.682  28.701  1.00  0.00     0.049 A 
ATOM     52  N   UNL A   1      43.745  27.423  27.715  1.00  0.00    -0.248 NA
ATOM     53  C   UNL A   1      43.977  25.278  26.833  1.00  0.00     0.031 C 
ATOM     54  C   UNL A   1      39.670  26.368  29.203  1.00  0.00     0.029 A 
ATOM     55  N   UNL A   1      41.204  27.990  29.070  1.00  0.00    -0.354 N 
ATOM     56  C   UNL A   1      45.000  27.304  27.126  1.00  0.00     0.074 A 
ATOM     57  C   UNL A   1      45.108  25.945  26.645  1.00  0.00     0.031 C 
ATOM     58  C   UNL A   1      39.140  27.467  29.754  1.00  0.00     0.029 A 
ATOM     59  C   UNL A   1      40.123  28.548  29.715  1.00  0.00     0.049 A 
ATOM     60  H   UNL A   1      42.037  28.483  28.892  1.00  0.00     0.167 HD
ATOM     61  C   UNL A   1      45.964  28.245  26.984  1.00  0.00     0.034 A 
ATOM     62  C   UNL A   1      39.935  29.784  30.222  1.00  0.00     0.034 A 
ATOM     63  C   UNL A   1      45.837  29.604  27.454  1.00  0.00     0.049 A 
ATOM     64  C   UNL A   1      41.027  30.809  30.062  1.00  0.00     0.074 A 
ATOM     65  C   UNL A   1      46.750  30.637  27.333  1.00  0.00     0.029 A 
ATOM     66  N   UNL A   1      44.736  30.122  28.123  1.00  0.00    -0.354 N 
ATOM     67  N   UNL A   1      42.185  30.691  29.456  1.00  0.00    -0.248 NA
ATOM     68  C   UNL A   1      40.790  32.137  30.643  1.00  0.00     0.031 C 
ATOM     69  C   UNL A   1      46.233  31.756  27.986  1.00  0.00     0.029 A 
ATOM     70  C   UNL A   1      44.960  31.452  28.441  1.00  0.00     0.049 A 
ATOM     71  H   UNL A   1      43.919  29.619  28.339  1.00  0.00     0.167 HD
ATOM     72  C   UNL A   1      42.802  31.935  29.562  1.00  0.00     0.074 A 
ATOM     73  C   UNL A   1      41.876  32.797  30.264  1.00  0.00     0.031 C 
ATOM     74  C   UNL A   1      44.028  32.320  29.123  1.00  0.00     0.034 A 
BRANCH  61  75
ATOM     75  C   UNL A   1      47.250  27.873  26.282  1.00  0.00     0.023 A 
ATOM     76  C   UNL A   1      47.360  28.025  24.885  1.00  0.00     0.031 A 
ATOM     77  C   UNL A   1      48.303  27.238  26.964  1.00  0.00     0.131 A 
ATOM     78  C   UNL A   1      48.477  27.512  24.213  1.00  0.00     0.055 A 
ATOM     79  C   UNL A   1      49.436  26.771  26.295  1.00  0.00     0.041 A 
ATOM     80  F   UNL A   1      48.248  27.065  28.294  1.00  0.00    -0.206 F 
ATOM     81  C   UNL A   1      49.519  26.894  24.911  1.00  0.00     0.022 A 
BRANCH  78  82
ATOM     82  S   UNL A   1      48.587  27.558  22.403  1.00  0.00     0.124 S 
ATOM     83  O   UNL A   1      47.367  28.282  22.048  1.00  0.00    -0.237 OA
ATOM     84  O   UNL A   1      49.831  28.292  22.192  1.00  0.00    -0.237 OA
ATOM     85  O   UNL A   1      48.610  26.152  22.017  1.00  0.00    -0.744 OA
ENDBRANCH  78  82
ENDBRANCH  61  75
BRANCH  62  86
ATOM     86  C   UNL A   1      38.632  30.109  30.874  1.00  0.00     0.023 A 
ATOM     87  C   UNL A   1      37.656  30.865  30.198  1.00  0.00     0.031 A 
ATOM     88  C   UNL A   1      38.393  29.775  32.217  1.00  0.00     0.131 A 
ATOM     89  C   UNL A   1      36.531  31.330  30.890  1.00  0.00     0.055 A 
ATOM     90  C   UNL A   1      37.229  30.172  32.880  1.00  0.00     0.041 A 
ATOM     91  F   UNL A   1      39.299  29.068  32.911  1.00  0.00    -0.206 F 
ATOM     92  C   UNL A   1      36.300  30.971  32.221  1.00  0.00     0.022 A 
BRANCH  89  93
ATOM     93  S   UNL A   1      35.411  32.540  30.130  1.00  0.00     0.124 S 
ATOM     94  O   UNL A   1      34.275  32.519  31.046  1.00  0.00    -0.237 OA
ATOM     95  O   UNL A   1      36.224  33.754  30.158  1.00  0.00    -0.237 OA
ATOM     96  O   UNL A   1      35.163  31.992  28.801  1.00  0.00    -0.744 OA
ENDBRANCH  89  93
ENDBRANCH  62  86
BRANCH  74  97
ATOM     97  C   UNL A   1      44.468  33.746  29.359  1.00  0.00     0.023 A 
ATOM     98  C   UNL A   1      45.090  34.096  30.574  1.00  0.00     0.031 A 
ATOM     99  C   UNL A   1      44.144  34.777  28.461  1.00  0.00     0.131 A 
ATOM    100  C   UNL A   1      45.329  35.443  30.875  1.00  0.00     0.055 A 
ATOM    101  C   UNL A   1      44.433  36.113  28.742  1.00  0.00     0.041 A 
ATOM    102  F   UNL A   1      43.538  34.499  27.296  1.00  0.00    -0.206 F 
ATOM    103  C   UNL A   1      45.014  36.452  29.960  1.00  0.00     0.022 A 
BRANCH 100 104
ATOM    104  S   UNL A   1      45.964  35.942  32.501  1.00  0.00     0.124 S 
ATOM    105  O   UNL A   1      46.227  37.364  32.297  1.00  0.00    -0.237 OA
ATOM    106  O   UNL A   1      44.837  35.635  33.378  1.00  0.00    -0.237 OA
ATOM    107  O   UNL A   1      47.149  35.110  32.688  1.00  0.00    -0.744 OA
ENDBRANCH 100 104
ENDBRANCH  74  97
ENDBRANCH  48  49
ENDBRANCH  40  43
ENDBRANCH  38  39
ENDBRANCH  37  38
ENDBRANCH   1  37
TORSDOF 17
ENDMDL
