MODEL 1
REMARK VINA RESULT:     -10.9      0.000      0.000
REMARK SMILES CCCC1(CCC)C[NH+]([C@H]2C=C[C@@H](C(=O)NCCCCCCNC(=O)c3ccc(-c4c5nc(c(-c6cc(S(=O)(=O)[O-])ccc6F)c6ccc([nH]6)c(-c6cc(S(=O)(=O)[O-])ccc6F)c6nc(c(-c7cc(S(=O)(=O)[O-])ccc7F)c7ccc4[nH]7)C=C6)C=C5)cc3)C2)C1
REMARK SMILES IDX 19 1 18 2 17 3 16 4 14 5 15 6 13 8 10 9 11 10 89 11 12 12
REMARK SMILES IDX 9 13 4 14 8 15 90 16 3 18 2 19 1 20 5 21 6 22 7 23 20 24
REMARK SMILES IDX 21 25 22 26 23 27 24 28 25 30 26 31 27 32 88 33 28 34 87 35
REMARK SMILES IDX 29 36 30 37 31 38 81 39 32 40 86 41 80 42 82 43 33 44 85 45
REMARK SMILES IDX 79 46 78 47 34 49 66 50 46 51 65 52 47 53 50 54 64 55 83 56
REMARK SMILES IDX 48 57 49 58 63 60 84 61 51 62 35 63 36 64 44 65 37 66 43 67
REMARK SMILES IDX 45 68 42 69 38 70 39 71 40 72 41 73 67 74 68 75 76 76 69 77
REMARK SMILES IDX 75 78 77 79 74 80 70 81 71 82 72 83 73 84 52 85 53 86 61 87
REMARK SMILES IDX 54 88 60 89 62 90 59 91 55 92 56 93 57 94 58 95
REMARK H PARENT 16 7 9 17 23 29 82 48 50 59
REMARK Flexibility Score: inf
ROOT
ATOM      1  C   UNL A   1      32.184  27.461  23.867  1.00  0.00     0.002 C 
ENDROOT
BRANCH   1   2
ATOM      2  C   UNL A   1      30.970  26.563  24.107  1.00  0.00     0.021 C 
BRANCH   2   3
ATOM      3  C   UNL A   1      30.671  26.211  25.567  1.00  0.00     0.116 C 
BRANCH   3   4
ATOM      4  N   UNL A   1      30.375  24.799  25.752  1.00  0.00    -0.356 N 
ATOM      5  C   UNL A   1      31.043  23.757  26.312  1.00  0.00     0.227 C 
ATOM      6  O   UNL A   1      30.460  22.663  26.266  1.00  0.00    -0.274 OA
ATOM      7  H   UNL A   1      29.497  24.541  25.390  1.00  0.00     0.163 HD
BRANCH   5   8
ATOM      8  C   UNL A   1      32.440  23.812  26.972  1.00  0.00     0.107 C 
ATOM      9  C   UNL A   1      34.065  21.905  27.042  1.00  0.00     0.208 C 
ATOM     10  C   UNL A   1      34.540  23.068  26.211  1.00  0.00     0.033 C 
ATOM     11  C   UNL A   1      32.808  22.509  27.719  1.00  0.00     0.087 C 
ATOM     12  C   UNL A   1      33.673  24.089  26.187  1.00  0.00    -0.012 C 
BRANCH   9  13
ATOM     13  N   UNL A   1      34.082  20.626  26.320  1.00  0.00    -0.328 N 
ATOM     14  C   UNL A   1      33.086  20.276  24.422  1.00  0.00     0.068 C 
ATOM     15  C   UNL A   1      32.769  20.101  25.958  1.00  0.00     0.275 C 
ATOM     16  C   UNL A   1      34.525  20.641  24.934  1.00  0.00     0.275 C 
ATOM     17  H   UNL A   1      34.661  20.130  26.998  1.00  0.00     0.348 HD
BRANCH  14  18
ATOM     18  C   UNL A   1      33.021  18.935  23.676  1.00  0.00     0.018 C 
BRANCH  18  19
ATOM     19  C   UNL A   1      34.090  17.891  24.025  1.00  0.00    -0.002 C 
ATOM     20  C   UNL A   1      34.040  16.536  23.344  1.00  0.00     0.004 C 
ENDBRANCH  18  19
ENDBRANCH  14  18
BRANCH  14  21
ATOM     21  C   UNL A   1      32.333  21.473  23.802  1.00  0.00     0.018 C 
BRANCH  21  22
ATOM     22  C   UNL A   1      32.764  22.257  22.554  1.00  0.00    -0.002 C 
ATOM     23  C   UNL A   1      33.197  23.703  22.587  1.00  0.00     0.004 C 
ENDBRANCH  21  22
ENDBRANCH  14  21
ENDBRANCH   9  13
ENDBRANCH   5   8
ENDBRANCH   3   4
ENDBRANCH   2   3
ENDBRANCH   1   2
BRANCH   1  24
ATOM     24  C   UNL A   1      33.312  27.302  24.892  1.00  0.00     0.002 C 
BRANCH  24  25
ATOM     25  C   UNL A   1      33.934  28.587  25.462  1.00  0.00     0.021 C 
BRANCH  25  26
ATOM     26  C   UNL A   1      33.525  28.969  26.884  1.00  0.00     0.116 C 
BRANCH  26  27
ATOM     27  N   UNL A   1      33.441  30.407  27.068  1.00  0.00    -0.352 N 
ATOM     28  C   UNL A   1      34.241  31.244  27.811  1.00  0.00     0.251 C 
ATOM     29  H   UNL A   1      32.702  30.848  26.591  1.00  0.00     0.163 HD
ATOM     30  O   UNL A   1      33.868  32.391  28.037  1.00  0.00    -0.269 OA
BRANCH  28  31
ATOM     31  C   UNL A   1      35.535  30.765  28.355  1.00  0.00     0.039 A 
ATOM     32  C   UNL A   1      35.528  29.737  29.300  1.00  0.00     0.014 A 
ATOM     33  C   UNL A   1      36.746  31.353  27.975  1.00  0.00     0.014 A 
ATOM     34  C   UNL A   1      36.736  29.260  29.821  1.00  0.00     0.010 A 
ATOM     35  C   UNL A   1      37.954  30.832  28.448  1.00  0.00     0.010 A 
ATOM     36  C   UNL A   1      37.963  29.783  29.380  1.00  0.00    -0.014 A 
BRANCH  36  37
ATOM     37  C   UNL A   1      39.248  29.226  29.889  1.00  0.00     0.031 A 
ATOM     38  C   UNL A   1      39.916  29.815  31.104  1.00  0.00     0.074 A 
ATOM     39  C   UNL A   1      39.832  28.201  29.236  1.00  0.00     0.049 A 
ATOM     40  N   UNL A   1      41.021  29.447  31.702  1.00  0.00    -0.248 NA
ATOM     41  C   UNL A   1      39.272  30.991  31.707  1.00  0.00     0.031 C 
ATOM     42  C   UNL A   1      39.320  27.583  28.011  1.00  0.00     0.029 A 
ATOM     43  N   UNL A   1      40.980  27.497  29.505  1.00  0.00    -0.354 N 
ATOM     44  C   UNL A   1      41.209  30.347  32.747  1.00  0.00     0.074 A 
ATOM     45  C   UNL A   1      40.137  31.316  32.657  1.00  0.00     0.031 C 
ATOM     46  C   UNL A   1      40.132  26.576  27.653  1.00  0.00     0.029 A 
ATOM     47  C   UNL A   1      41.240  26.494  28.600  1.00  0.00     0.049 A 
ATOM     48  H   UNL A   1      41.562  27.693  30.275  1.00  0.00     0.167 HD
ATOM     49  C   UNL A   1      42.172  30.352  33.704  1.00  0.00     0.034 A 
ATOM     50  C   UNL A   1      42.252  25.606  28.538  1.00  0.00     0.034 A 
ATOM     51  C   UNL A   1      43.233  29.374  33.785  1.00  0.00     0.049 A 
ATOM     52  C   UNL A   1      43.301  25.620  29.621  1.00  0.00     0.074 A 
ATOM     53  C   UNL A   1      44.220  29.248  34.748  1.00  0.00     0.029 A 
ATOM     54  N   UNL A   1      43.455  28.361  32.860  1.00  0.00    -0.354 N 
ATOM     55  N   UNL A   1      43.419  26.428  30.648  1.00  0.00    -0.248 NA
ATOM     56  C   UNL A   1      44.339  24.583  29.546  1.00  0.00     0.031 C 
ATOM     57  C   UNL A   1      45.075  28.208  34.369  1.00  0.00     0.029 A 
ATOM     58  C   UNL A   1      44.579  27.627  33.213  1.00  0.00     0.049 A 
ATOM     59  H   UNL A   1      42.896  28.189  32.068  1.00  0.00     0.167 HD
ATOM     60  C   UNL A   1      44.529  25.979  31.359  1.00  0.00     0.074 A 
ATOM     61  C   UNL A   1      45.028  24.816  30.654  1.00  0.00     0.031 C 
ATOM     62  C   UNL A   1      45.084  26.480  32.493  1.00  0.00     0.034 A 
BRANCH  49  63
ATOM     63  C   UNL A   1      42.132  31.469  34.725  1.00  0.00     0.023 A 
ATOM     64  C   UNL A   1      41.160  31.513  35.740  1.00  0.00     0.031 A 
ATOM     65  C   UNL A   1      43.063  32.522  34.666  1.00  0.00     0.131 A 
ATOM     66  C   UNL A   1      41.088  32.621  36.599  1.00  0.00     0.055 A 
ATOM     67  C   UNL A   1      43.040  33.580  35.578  1.00  0.00     0.041 A 
ATOM     68  F   UNL A   1      44.005  32.551  33.709  1.00  0.00    -0.206 F 
ATOM     69  C   UNL A   1      42.037  33.643  36.542  1.00  0.00     0.022 A 
BRANCH  66  70
ATOM     70  S   UNL A   1      39.646  32.781  37.687  1.00  0.00     0.124 S 
ATOM     71  O   UNL A   1      39.144  34.103  37.320  1.00  0.00    -0.237 OA
ATOM     72  O   UNL A   1      38.819  31.650  37.284  1.00  0.00    -0.237 OA
ATOM     73  O   UNL A   1      40.216  32.691  39.030  1.00  0.00    -0.744 OA
ENDBRANCH  66  70
ENDBRANCH  49  63
BRANCH  50  74
ATOM     74  C   UNL A   1      42.326  24.627  27.415  1.00  0.00     0.023 A 
ATOM     75  C   UNL A   1      41.568  23.445  27.428  1.00  0.00     0.031 A 
ATOM     76  C   UNL A   1      43.184  24.847  26.323  1.00  0.00     0.131 A 
ATOM     77  C   UNL A   1      41.716  22.508  26.394  1.00  0.00     0.055 A 
ATOM     78  C   UNL A   1      43.290  23.936  25.272  1.00  0.00     0.041 A 
ATOM     79  F   UNL A   1      43.926  25.964  26.258  1.00  0.00    -0.206 F 
ATOM     80  C   UNL A   1      42.562  22.751  25.309  1.00  0.00     0.022 A 
BRANCH  77  81
ATOM     81  S   UNL A   1      40.841  20.924  26.522  1.00  0.00     0.124 S 
ATOM     82  O   UNL A   1      40.823  20.709  27.964  1.00  0.00    -0.237 OA
ATOM     83  O   UNL A   1      39.557  21.236  25.903  1.00  0.00    -0.237 OA
ATOM     84  O   UNL A   1      41.688  20.005  25.764  1.00  0.00    -0.744 OA
ENDBRANCH  77  81
ENDBRANCH  50  74
BRANCH  62  85
ATOM     85  C   UNL A   1      46.274  25.740  33.057  1.00  0.00     0.023 A 
ATOM     86  C   UNL A   1      47.564  25.889  32.519  1.00  0.00     0.031 A 
ATOM     87  C   UNL A   1      46.107  24.841  34.127  1.00  0.00     0.131 A 
ATOM     88  C   UNL A   1      48.621  25.099  32.999  1.00  0.00     0.055 A 
ATOM     89  C   UNL A   1      47.176  24.109  34.647  1.00  0.00     0.041 A 
ATOM     90  F   UNL A   1      44.898  24.654  34.680  1.00  0.00    -0.206 F 
ATOM     91  C   UNL A   1      48.437  24.222  34.072  1.00  0.00     0.022 A 
BRANCH  88  92
ATOM     92  S   UNL A   1      50.209  25.142  32.124  1.00  0.00     0.124 S 
ATOM     93  O   UNL A   1      50.627  23.745  32.187  1.00  0.00    -0.237 OA
ATOM     94  O   UNL A   1      49.824  25.634  30.805  1.00  0.00    -0.237 OA
ATOM     95  O   UNL A   1      51.014  26.066  32.920  1.00  0.00    -0.744 OA
ENDBRANCH  88  92
ENDBRANCH  62  85
ENDBRANCH  36  37
ENDBRANCH  28  31
ENDBRANCH  26  27
ENDBRANCH  25  26
ENDBRANCH  24  25
ENDBRANCH   1  24
TORSDOF 21
ENDMDL
MODEL 2
REMARK VINA RESULT:     -10.5      2.908      8.402
REMARK SMILES CCCC1(CCC)C[NH+]([C@H]2C=C[C@@H](C(=O)NCCCCCCNC(=O)c3ccc(-c4c5nc(c(-c6cc(S(=O)(=O)[O-])ccc6F)c6ccc([nH]6)c(-c6cc(S(=O)(=O)[O-])ccc6F)c6nc(c(-c7cc(S(=O)(=O)[O-])ccc7F)c7ccc4[nH]7)C=C6)C=C5)cc3)C2)C1
REMARK SMILES IDX 19 1 18 2 17 3 16 4 14 5 15 6 13 8 10 9 11 10 89 11 12 12
REMARK SMILES IDX 9 13 4 14 8 15 90 16 3 18 2 19 1 20 5 21 6 22 7 23 20 24
REMARK SMILES IDX 21 25 22 26 23 27 24 28 25 30 26 31 27 32 88 33 28 34 87 35
REMARK SMILES IDX 29 36 30 37 31 38 81 39 32 40 86 41 80 42 82 43 33 44 85 45
REMARK SMILES IDX 79 46 78 47 34 49 66 50 46 51 65 52 47 53 50 54 64 55 83 56
REMARK SMILES IDX 48 57 49 58 63 60 84 61 51 62 35 63 36 64 44 65 37 66 43 67
REMARK SMILES IDX 45 68 42 69 38 70 39 71 40 72 41 73 67 74 68 75 76 76 69 77
REMARK SMILES IDX 75 78 77 79 74 80 70 81 71 82 72 83 73 84 52 85 53 86 61 87
REMARK SMILES IDX 54 88 60 89 62 90 59 91 55 92 56 93 57 94 58 95
REMARK H PARENT 16 7 9 17 23 29 82 48 50 59
REMARK Flexibility Score: inf
ROOT
ATOM      1  C   UNL A   1      32.040  29.591  25.713  1.00  0.00     0.002 C 
ENDROOT
BRANCH   1   2
ATOM      2  C   UNL A   1      33.271  29.558  24.807  1.00  0.00     0.021 C 
BRANCH   2   3
ATOM      3  C   UNL A   1      33.147  28.718  23.532  1.00  0.00     0.116 C 
BRANCH   3   4
ATOM      4  N   UNL A   1      31.953  29.039  22.766  1.00  0.00    -0.356 N 
ATOM      5  C   UNL A   1      30.790  28.386  22.507  1.00  0.00     0.227 C 
ATOM      6  O   UNL A   1      29.991  28.990  21.776  1.00  0.00    -0.274 OA
ATOM      7  H   UNL A   1      31.997  29.926  22.340  1.00  0.00     0.163 HD
BRANCH   5   8
ATOM      8  C   UNL A   1      30.393  26.982  23.019  1.00  0.00     0.107 C 
ATOM      9  C   UNL A   1      31.999  25.104  23.432  1.00  0.00     0.208 C 
ATOM     10  C   UNL A   1      31.343  25.619  24.687  1.00  0.00     0.033 C 
ATOM     11  C   UNL A   1      31.187  25.844  22.340  1.00  0.00     0.087 C 
ATOM     12  C   UNL A   1      30.477  26.615  24.459  1.00  0.00    -0.012 C 
BRANCH   9  13
ATOM     13  N   UNL A   1      33.466  25.088  23.505  1.00  0.00    -0.328 N 
ATOM     14  C   UNL A   1      34.631  23.497  24.417  1.00  0.00     0.068 C 
ATOM     15  C   UNL A   1      34.018  24.888  24.842  1.00  0.00     0.275 C 
ATOM     16  C   UNL A   1      34.154  23.918  22.980  1.00  0.00     0.275 C 
ATOM     17  H   UNL A   1      33.606  25.976  23.023  1.00  0.00     0.348 HD
BRANCH  14  18
ATOM     18  C   UNL A   1      36.159  23.481  24.577  1.00  0.00     0.018 C 
BRANCH  18  19
ATOM     19  C   UNL A   1      36.904  22.261  24.018  1.00  0.00    -0.002 C 
ATOM     20  C   UNL A   1      37.380  21.190  24.982  1.00  0.00     0.004 C 
ENDBRANCH  18  19
ENDBRANCH  14  18
BRANCH  14  21
ATOM     21  C   UNL A   1      33.842  22.306  25.001  1.00  0.00     0.018 C 
BRANCH  21  22
ATOM     22  C   UNL A   1      33.519  20.996  24.270  1.00  0.00    -0.002 C 
ATOM     23  C   UNL A   1      33.922  19.634  24.782  1.00  0.00     0.004 C 
ENDBRANCH  21  22
ENDBRANCH  14  21
ENDBRANCH   9  13
ENDBRANCH   5   8
ENDBRANCH   3   4
ENDBRANCH   2   3
ENDBRANCH   1   2
BRANCH   1  24
ATOM     24  C   UNL A   1      31.048  30.718  25.405  1.00  0.00     0.002 C 
BRANCH  24  25
ATOM     25  C   UNL A   1      31.043  31.930  26.351  1.00  0.00     0.021 C 
BRANCH  25  26
ATOM     26  C   UNL A   1      32.388  32.331  26.954  1.00  0.00     0.116 C 
BRANCH  26  27
ATOM     27  N   UNL A   1      32.425  33.728  27.344  1.00  0.00    -0.352 N 
ATOM     28  C   UNL A   1      33.196  34.352  28.298  1.00  0.00     0.251 C 
ATOM     29  H   UNL A   1      31.807  34.317  26.855  1.00  0.00     0.163 HD
ATOM     30  O   UNL A   1      32.913  35.493  28.650  1.00  0.00    -0.269 OA
BRANCH  28  31
ATOM     31  C   UNL A   1      34.348  33.650  28.915  1.00  0.00     0.039 A 
ATOM     32  C   UNL A   1      35.588  34.291  28.943  1.00  0.00     0.014 A 
ATOM     33  C   UNL A   1      34.223  32.354  29.423  1.00  0.00     0.014 A 
ATOM     34  C   UNL A   1      36.688  33.656  29.530  1.00  0.00     0.010 A 
ATOM     35  C   UNL A   1      35.306  31.747  30.065  1.00  0.00     0.010 A 
ATOM     36  C   UNL A   1      36.553  32.388  30.122  1.00  0.00    -0.014 A 
BRANCH  36  37
ATOM     37  C   UNL A   1      37.711  31.745  30.802  1.00  0.00     0.031 A 
ATOM     38  C   UNL A   1      38.550  30.717  30.090  1.00  0.00     0.074 A 
ATOM     39  C   UNL A   1      37.993  32.068  32.081  1.00  0.00     0.049 A 
ATOM     40  N   UNL A   1      39.607  30.071  30.515  1.00  0.00    -0.248 NA
ATOM     41  C   UNL A   1      38.127  30.345  28.733  1.00  0.00     0.031 C 
ATOM     42  C   UNL A   1      37.219  33.002  32.903  1.00  0.00     0.029 A 
ATOM     43  N   UNL A   1      39.001  31.652  32.916  1.00  0.00    -0.354 N 
ATOM     44  C   UNL A   1      39.973  29.212  29.482  1.00  0.00     0.074 A 
ATOM     45  C   UNL A   1      38.983  29.377  28.438  1.00  0.00     0.031 C 
ATOM     46  C   UNL A   1      37.796  33.109  34.110  1.00  0.00     0.029 A 
ATOM     47  C   UNL A   1      38.961  32.230  34.164  1.00  0.00     0.049 A 
ATOM     48  H   UNL A   1      39.687  31.000  32.645  1.00  0.00     0.167 HD
ATOM     49  C   UNL A   1      41.045  28.383  29.403  1.00  0.00     0.034 A 
ATOM     50  C   UNL A   1      39.770  32.075  35.231  1.00  0.00     0.034 A 
ATOM     51  C   UNL A   1      42.028  28.235  30.451  1.00  0.00     0.049 A 
ATOM     52  C   UNL A   1      40.963  31.161  35.115  1.00  0.00     0.074 A 
ATOM     53  C   UNL A   1      43.185  27.473  30.449  1.00  0.00     0.029 A 
ATOM     54  N   UNL A   1      41.965  28.850  31.696  1.00  0.00    -0.354 N 
ATOM     55  N   UNL A   1      41.339  30.417  34.101  1.00  0.00    -0.248 NA
ATOM     56  C   UNL A   1      41.853  31.087  36.281  1.00  0.00     0.031 C 
ATOM     57  C   UNL A   1      43.780  27.572  31.712  1.00  0.00     0.029 A 
ATOM     58  C   UNL A   1      43.044  28.461  32.479  1.00  0.00     0.049 A 
ATOM     59  H   UNL A   1      41.257  29.472  31.982  1.00  0.00     0.167 HD
ATOM     60  C   UNL A   1      42.527  29.808  34.497  1.00  0.00     0.074 A 
ATOM     61  C   UNL A   1      42.813  30.292  35.833  1.00  0.00     0.031 C 
ATOM     62  C   UNL A   1      43.312  28.931  33.818  1.00  0.00     0.034 A 
BRANCH  49  63
ATOM     63  C   UNL A   1      41.190  27.552  28.146  1.00  0.00     0.023 A 
ATOM     64  C   UNL A   1      40.885  26.180  28.125  1.00  0.00     0.031 A 
ATOM     65  C   UNL A   1      41.666  28.134  26.957  1.00  0.00     0.131 A 
ATOM     66  C   UNL A   1      41.137  25.420  26.971  1.00  0.00     0.055 A 
ATOM     67  C   UNL A   1      41.833  27.391  25.786  1.00  0.00     0.041 A 
ATOM     68  F   UNL A   1      41.993  29.436  26.916  1.00  0.00    -0.206 F 
ATOM     69  C   UNL A   1      41.584  26.021  25.794  1.00  0.00     0.022 A 
BRANCH  66  70
ATOM     70  S   UNL A   1      41.019  23.614  27.080  1.00  0.00     0.124 S 
ATOM     71  O   UNL A   1      41.814  23.195  25.928  1.00  0.00    -0.237 OA
ATOM     72  O   UNL A   1      41.598  23.338  28.389  1.00  0.00    -0.237 OA
ATOM     73  O   UNL A   1      39.585  23.355  26.965  1.00  0.00    -0.744 OA
ENDBRANCH  66  70
ENDBRANCH  49  63
BRANCH  50  74
ATOM     74  C   UNL A   1      39.485  32.801  36.503  1.00  0.00     0.023 A 
ATOM     75  C   UNL A   1      38.600  32.277  37.458  1.00  0.00     0.031 A 
ATOM     76  C   UNL A   1      40.074  34.051  36.765  1.00  0.00     0.131 A 
ATOM     77  C   UNL A   1      38.294  33.019  38.610  1.00  0.00     0.055 A 
ATOM     78  C   UNL A   1      39.806  34.761  37.936  1.00  0.00     0.041 A 
ATOM     79  F   UNL A   1      40.933  34.594  35.888  1.00  0.00    -0.206 F 
ATOM     80  C   UNL A   1      38.901  34.252  38.861  1.00  0.00     0.022 A 
BRANCH  77  81
ATOM     81  S   UNL A   1      37.029  32.385  39.744  1.00  0.00     0.124 S 
ATOM     82  O   UNL A   1      37.129  33.322  40.857  1.00  0.00    -0.237 OA
ATOM     83  O   UNL A   1      35.820  32.479  38.932  1.00  0.00    -0.237 OA
ATOM     84  O   UNL A   1      37.479  31.024  40.030  1.00  0.00    -0.744 OA
ENDBRANCH  77  81
ENDBRANCH  50  74
BRANCH  62  85
ATOM     85  C   UNL A   1      44.577  28.473  34.505  1.00  0.00     0.023 A 
ATOM     86  C   UNL A   1      44.613  27.313  35.299  1.00  0.00     0.031 A 
ATOM     87  C   UNL A   1      45.757  29.230  34.394  1.00  0.00     0.131 A 
ATOM     88  C   UNL A   1      45.778  26.984  36.009  1.00  0.00     0.055 A 
ATOM     89  C   UNL A   1      46.934  28.860  35.047  1.00  0.00     0.041 A 
ATOM     90  F   UNL A   1      45.784  30.349  33.653  1.00  0.00    -0.206 F 
ATOM     91  C   UNL A   1      46.944  27.742  35.874  1.00  0.00     0.022 A 
BRANCH  88  92
ATOM     92  S   UNL A   1      45.714  25.624  37.208  1.00  0.00     0.124 S 
ATOM     93  O   UNL A   1      46.707  26.041  38.193  1.00  0.00    -0.237 OA
ATOM     94  O   UNL A   1      44.323  25.663  37.648  1.00  0.00    -0.237 OA
ATOM     95  O   UNL A   1      46.081  24.452  36.416  1.00  0.00    -0.744 OA
ENDBRANCH  88  92
ENDBRANCH  62  85
ENDBRANCH  36  37
ENDBRANCH  28  31
ENDBRANCH  26  27
ENDBRANCH  25  26
ENDBRANCH  24  25
ENDBRANCH   1  24
TORSDOF 21
ENDMDL
MODEL 3
REMARK VINA RESULT:     -10.5      2.571      3.241
REMARK SMILES CCCC1(CCC)C[NH+]([C@H]2C=C[C@@H](C(=O)NCCCCCCNC(=O)c3ccc(-c4c5nc(c(-c6cc(S(=O)(=O)[O-])ccc6F)c6ccc([nH]6)c(-c6cc(S(=O)(=O)[O-])ccc6F)c6nc(c(-c7cc(S(=O)(=O)[O-])ccc7F)c7ccc4[nH]7)C=C6)C=C5)cc3)C2)C1
REMARK SMILES IDX 19 1 18 2 17 3 16 4 14 5 15 6 13 8 10 9 11 10 89 11 12 12
REMARK SMILES IDX 9 13 4 14 8 15 90 16 3 18 2 19 1 20 5 21 6 22 7 23 20 24
REMARK SMILES IDX 21 25 22 26 23 27 24 28 25 30 26 31 27 32 88 33 28 34 87 35
REMARK SMILES IDX 29 36 30 37 31 38 81 39 32 40 86 41 80 42 82 43 33 44 85 45
REMARK SMILES IDX 79 46 78 47 34 49 66 50 46 51 65 52 47 53 50 54 64 55 83 56
REMARK SMILES IDX 48 57 49 58 63 60 84 61 51 62 35 63 36 64 44 65 37 66 43 67
REMARK SMILES IDX 45 68 42 69 38 70 39 71 40 72 41 73 67 74 68 75 76 76 69 77
REMARK SMILES IDX 75 78 77 79 74 80 70 81 71 82 72 83 73 84 52 85 53 86 61 87
REMARK SMILES IDX 54 88 60 89 62 90 59 91 55 92 56 93 57 94 58 95
REMARK H PARENT 16 7 9 17 23 29 82 48 50 59
REMARK Flexibility Score: inf
ROOT
ATOM      1  C   UNL A   1      30.162  28.985  23.632  1.00  0.00     0.002 C 
ENDROOT
BRANCH   1   2
ATOM      2  C   UNL A   1      29.488  27.804  22.934  1.00  0.00     0.021 C 
BRANCH   2   3
ATOM      3  C   UNL A   1      28.998  26.674  23.844  1.00  0.00     0.116 C 
BRANCH   3   4
ATOM      4  N   UNL A   1      29.639  25.402  23.549  1.00  0.00    -0.356 N 
ATOM      5  C   UNL A   1      30.526  24.612  24.210  1.00  0.00     0.227 C 
ATOM      6  O   UNL A   1      30.865  23.578  23.615  1.00  0.00    -0.274 OA
ATOM      7  H   UNL A   1      29.372  25.031  22.677  1.00  0.00     0.163 HD
BRANCH   5   8
ATOM      8  C   UNL A   1      31.147  24.893  25.597  1.00  0.00     0.107 C 
ATOM      9  C   UNL A   1      32.240  23.170  27.051  1.00  0.00     0.208 C 
ATOM     10  C   UNL A   1      33.195  24.218  26.541  1.00  0.00     0.033 C 
ATOM     11  C   UNL A   1      30.877  23.767  26.620  1.00  0.00     0.087 C 
ATOM     12  C   UNL A   1      32.603  25.143  25.775  1.00  0.00    -0.012 C 
BRANCH   9  13
ATOM     13  N   UNL A   1      32.672  21.796  26.760  1.00  0.00    -0.328 N 
ATOM     14  C   UNL A   1      33.733  21.199  24.961  1.00  0.00     0.068 C 
ATOM     15  C   UNL A   1      32.240  21.272  25.467  1.00  0.00     0.275 C 
ATOM     16  C   UNL A   1      34.077  21.584  26.445  1.00  0.00     0.275 C 
ATOM     17  H   UNL A   1      32.313  21.387  27.623  1.00  0.00     0.348 HD
BRANCH  14  18
ATOM     18  C   UNL A   1      34.134  19.764  24.589  1.00  0.00     0.018 C 
BRANCH  18  19
ATOM     19  C   UNL A   1      33.026  18.848  24.053  1.00  0.00    -0.002 C 
ATOM     20  C   UNL A   1      33.416  17.600  23.284  1.00  0.00     0.004 C 
ENDBRANCH  18  19
ENDBRANCH  14  18
BRANCH  14  21
ATOM     21  C   UNL A   1      34.061  22.316  23.946  1.00  0.00     0.018 C 
BRANCH  21  22
ATOM     22  C   UNL A   1      35.452  22.639  23.383  1.00  0.00    -0.002 C 
ATOM     23  C   UNL A   1      36.726  22.508  24.184  1.00  0.00     0.004 C 
ENDBRANCH  21  22
ENDBRANCH  14  21
ENDBRANCH   9  13
ENDBRANCH   5   8
ENDBRANCH   3   4
ENDBRANCH   2   3
ENDBRANCH   1   2
BRANCH   1  24
ATOM     24  C   UNL A   1      31.092  28.601  24.788  1.00  0.00     0.002 C 
BRANCH  24  25
ATOM     25  C   UNL A   1      32.182  29.611  25.182  1.00  0.00     0.021 C 
BRANCH  25  26
ATOM     26  C   UNL A   1      32.104  30.180  26.598  1.00  0.00     0.116 C 
BRANCH  26  27
ATOM     27  N   UNL A   1      32.056  31.630  26.609  1.00  0.00    -0.352 N 
ATOM     28  C   UNL A   1      32.803  32.526  27.339  1.00  0.00     0.251 C 
ATOM     29  H   UNL A   1      31.391  32.033  26.006  1.00  0.00     0.163 HD
ATOM     30  O   UNL A   1      32.452  33.701  27.392  1.00  0.00    -0.269 OA
BRANCH  28  31
ATOM     31  C   UNL A   1      34.011  32.080  28.075  1.00  0.00     0.039 A 
ATOM     32  C   UNL A   1      34.245  30.710  28.214  1.00  0.00     0.014 A 
ATOM     33  C   UNL A   1      34.884  32.998  28.665  1.00  0.00     0.014 A 
ATOM     34  C   UNL A   1      35.383  30.263  28.894  1.00  0.00     0.010 A 
ATOM     35  C   UNL A   1      36.053  32.551  29.288  1.00  0.00     0.010 A 
ATOM     36  C   UNL A   1      36.314  31.178  29.414  1.00  0.00    -0.014 A 
BRANCH  36  37
ATOM     37  C   UNL A   1      37.556  30.695  30.080  1.00  0.00     0.031 A 
ATOM     38  C   UNL A   1      37.896  31.126  31.482  1.00  0.00     0.074 A 
ATOM     39  C   UNL A   1      38.399  29.887  29.406  1.00  0.00     0.049 A 
ATOM     40  N   UNL A   1      38.920  30.790  32.227  1.00  0.00    -0.248 NA
ATOM     41  C   UNL A   1      36.982  32.083  32.120  1.00  0.00     0.031 C 
ATOM     42  C   UNL A   1      38.216  29.449  28.020  1.00  0.00     0.029 A 
ATOM     43  N   UNL A   1      39.574  29.289  29.788  1.00  0.00    -0.354 N 
ATOM     44  C   UNL A   1      38.776  31.497  33.418  1.00  0.00     0.074 A 
ATOM     45  C   UNL A   1      37.601  32.329  33.265  1.00  0.00     0.031 C 
ATOM     46  C   UNL A   1      39.225  28.631  27.680  1.00  0.00     0.029 A 
ATOM     47  C   UNL A   1      40.144  28.509  28.808  1.00  0.00     0.049 A 
ATOM     48  H   UNL A   1      39.972  29.408  30.681  1.00  0.00     0.167 HD
ATOM     49  C   UNL A   1      39.539  31.441  34.539  1.00  0.00     0.034 A 
ATOM     50  C   UNL A   1      41.276  27.777  28.813  1.00  0.00     0.034 A 
ATOM     51  C   UNL A   1      40.706  30.600  34.678  1.00  0.00     0.049 A 
ATOM     52  C   UNL A   1      42.099  27.717  30.075  1.00  0.00     0.074 A 
ATOM     53  C   UNL A   1      41.512  30.417  35.790  1.00  0.00     0.029 A 
ATOM     54  N   UNL A   1      41.245  29.810  33.669  1.00  0.00    -0.354 N 
ATOM     55  N   UNL A   1      41.904  28.330  31.219  1.00  0.00    -0.248 NA
ATOM     56  C   UNL A   1      43.280  26.845  30.050  1.00  0.00     0.031 C 
ATOM     57  C   UNL A   1      42.572  29.577  35.433  1.00  0.00     0.029 A 
ATOM     58  C   UNL A   1      42.387  29.164  34.124  1.00  0.00     0.049 A 
ATOM     59  H   UNL A   1      40.870  29.720  32.763  1.00  0.00     0.167 HD
ATOM     60  C   UNL A   1      42.925  27.894  32.061  1.00  0.00     0.074 A 
ATOM     61  C   UNL A   1      43.715  26.950  31.297  1.00  0.00     0.031 C 
ATOM     62  C   UNL A   1      43.183  28.240  33.349  1.00  0.00     0.034 A 
BRANCH  49  63
ATOM     63  C   UNL A   1      39.146  32.336  35.694  1.00  0.00     0.023 A 
ATOM     64  C   UNL A   1      39.552  33.681  35.762  1.00  0.00     0.031 A 
ATOM     65  C   UNL A   1      38.375  31.833  36.757  1.00  0.00     0.131 A 
ATOM     66  C   UNL A   1      39.260  34.448  36.900  1.00  0.00     0.055 A 
ATOM     67  C   UNL A   1      38.014  32.626  37.849  1.00  0.00     0.041 A 
ATOM     68  F   UNL A   1      37.970  30.552  36.762  1.00  0.00    -0.206 F 
ATOM     69  C   UNL A   1      38.472  33.938  37.933  1.00  0.00     0.022 A 
BRANCH  66  70
ATOM     70  S   UNL A   1      40.057  36.068  37.082  1.00  0.00     0.124 S 
ATOM     71  O   UNL A   1      41.444  35.688  37.338  1.00  0.00    -0.237 OA
ATOM     72  O   UNL A   1      39.795  36.695  35.792  1.00  0.00    -0.237 OA
ATOM     73  O   UNL A   1      39.362  36.667  38.219  1.00  0.00    -0.744 OA
ENDBRANCH  66  70
ENDBRANCH  49  63
BRANCH  50  74
ATOM     74  C   UNL A   1      41.700  27.039  27.588  1.00  0.00     0.023 A 
ATOM     75  C   UNL A   1      41.564  25.645  27.494  1.00  0.00     0.031 A 
ATOM     76  C   UNL A   1      42.278  27.719  26.502  1.00  0.00     0.131 A 
ATOM     77  C   UNL A   1      42.042  24.970  26.360  1.00  0.00     0.055 A 
ATOM     78  C   UNL A   1      42.705  27.050  25.355  1.00  0.00     0.041 A 
ATOM     79  F   UNL A   1      42.424  29.053  26.537  1.00  0.00    -0.206 F 
ATOM     80  C   UNL A   1      42.600  25.665  25.284  1.00  0.00     0.022 A 
BRANCH  77  81
ATOM     81  S   UNL A   1      41.995  23.157  26.340  1.00  0.00     0.124 S 
ATOM     82  O   UNL A   1      40.567  22.894  26.484  1.00  0.00    -0.237 OA
ATOM     83  O   UNL A   1      42.575  22.853  25.036  1.00  0.00    -0.237 OA
ATOM     84  O   UNL A   1      42.818  22.782  27.488  1.00  0.00    -0.744 OA
ENDBRANCH  77  81
ENDBRANCH  50  74
BRANCH  62  85
ATOM     85  C   UNL A   1      44.352  27.557  34.019  1.00  0.00     0.023 A 
ATOM     86  C   UNL A   1      44.210  26.331  34.693  1.00  0.00     0.031 A 
ATOM     87  C   UNL A   1      45.622  28.161  34.016  1.00  0.00     0.131 A 
ATOM     88  C   UNL A   1      45.295  25.786  35.396  1.00  0.00     0.055 A 
ATOM     89  C   UNL A   1      46.716  27.580  34.660  1.00  0.00     0.041 A 
ATOM     90  F   UNL A   1      45.820  29.334  33.392  1.00  0.00    -0.206 F 
ATOM     91  C   UNL A   1      46.552  26.395  35.370  1.00  0.00     0.022 A 
BRANCH  88  92
ATOM     92  S   UNL A   1      45.012  24.336  36.449  1.00  0.00     0.124 S 
ATOM     93  O   UNL A   1      44.365  24.930  37.616  1.00  0.00    -0.237 OA
ATOM     94  O   UNL A   1      44.163  23.500  35.607  1.00  0.00    -0.237 OA
ATOM     95  O   UNL A   1      46.357  23.816  36.685  1.00  0.00    -0.744 OA
ENDBRANCH  88  92
ENDBRANCH  62  85
ENDBRANCH  36  37
ENDBRANCH  28  31
ENDBRANCH  26  27
ENDBRANCH  25  26
ENDBRANCH  24  25
ENDBRANCH   1  24
TORSDOF 21
ENDMDL
