MODEL 1
REMARK VINA RESULT:      -9.8      0.000      0.000
REMARK SMILES C[C@]12c3ccccc3[C@](C)(c3ccccc31)[C@@H]1C(=O)N(c3ccc(C(=O)NCCCCCCNC(=O)c4ccc(-c5c6nc(c(-c7cc(S(=O)(=O)[O-])ccc7F)c7ccc([nH]7)c(-c7cc(S(=O)(=O)[O-])ccc7F)c7nc(c(-c8cc(S(=O)(=O)[O-])ccc8F)c8ccc5[nH]8)C=C7)C=C6)cc4)cc3)C(=O)[C@H]12
REMARK SMILES IDX 31 1 30 2 29 3 28 4 27 5 25 6 26 7 24 9 21 10 22 11 101 12
REMARK SMILES IDX 23 13 100 14 20 15 1 16 2 17 16 18 3 19 104 20 15 21 11 22
REMARK SMILES IDX 8 23 4 24 17 25 102 26 14 27 12 28 9 29 7 30 5 31 18 32
REMARK SMILES IDX 103 33 13 34 10 35 6 36 19 37 32 38 33 39 34 40 35 41 36 43
REMARK SMILES IDX 37 44 38 45 99 46 39 47 98 48 40 49 41 50 42 51 92 52 43 53
REMARK SMILES IDX 97 54 91 55 93 56 44 57 96 58 90 59 89 60 45 62 77 63 57 64
REMARK SMILES IDX 76 65 58 66 61 67 75 68 94 69 59 70 60 71 74 73 95 74 62 75
REMARK SMILES IDX 46 76 47 77 55 78 48 79 54 80 56 81 53 82 49 83 50 84 51 85
REMARK SMILES IDX 52 86 78 87 79 88 87 89 80 90 86 91 88 92 85 93 81 94 82 95
REMARK SMILES IDX 83 96 84 97 63 98 64 99 72 100 65 101 71 102 73 103 70 104
REMARK SMILES IDX 66 105 67 106 68 107 69 108
REMARK H PARENT 27 8 34 42 93 61 61 72
REMARK Flexibility Score: inf
ROOT
ATOM      1  C   UNL A   1      47.510  25.270  32.414  1.00  0.00     0.002 C 
ENDROOT
BRANCH   1   2
ATOM      2  C   UNL A   1      47.531  26.379  31.360  1.00  0.00     0.002 C 
BRANCH   2   3
ATOM      3  C   UNL A   1      47.901  25.954  29.936  1.00  0.00     0.021 C 
BRANCH   3   4
ATOM      4  C   UNL A   1      46.749  25.859  28.939  1.00  0.00     0.116 C 
BRANCH   4   5
ATOM      5  N   UNL A   1      47.168  26.001  27.555  1.00  0.00    -0.352 N 
ATOM      6  C   UNL A   1      47.141  27.095  26.725  1.00  0.00     0.251 C 
ATOM      7  O   UNL A   1      47.499  26.972  25.555  1.00  0.00    -0.269 OA
ATOM      8  H   UNL A   1      47.528  25.181  27.147  1.00  0.00     0.163 HD
BRANCH   6   9
ATOM      9  C   UNL A   1      46.623  28.406  27.191  1.00  0.00     0.039 A 
ATOM     10  C   UNL A   1      45.455  30.739  28.249  1.00  0.00     0.052 A 
ATOM     11  C   UNL A   1      44.700  29.854  27.470  1.00  0.00     0.027 A 
ATOM     12  C   UNL A   1      46.827  30.494  28.404  1.00  0.00     0.027 A 
ATOM     13  C   UNL A   1      45.283  28.704  26.928  1.00  0.00     0.016 A 
ATOM     14  C   UNL A   1      47.409  29.337  27.873  1.00  0.00     0.016 A 
BRANCH  10  15
ATOM     15  N   UNL A   1      44.839  31.818  28.922  1.00  0.00    -0.250 N 
ATOM     16  C   UNL A   1      43.221  35.969  28.139  1.00  0.00     0.022 C 
ATOM     17  C   UNL A   1      43.109  35.148  29.422  1.00  0.00     0.030 C 
ATOM     18  C   UNL A   1      41.663  34.783  29.845  1.00  0.00    -0.033 A 
ATOM     19  C   UNL A   1      43.710  35.838  30.689  1.00  0.00    -0.033 A 
ATOM     20  C   UNL A   1      44.021  33.897  29.399  1.00  0.00     0.108 C 
ATOM     21  C   UNL A   1      40.495  35.133  29.174  1.00  0.00     0.005 A 
ATOM     22  C   UNL A   1      41.575  34.068  31.091  1.00  0.00    -0.033 A 
ATOM     23  C   UNL A   1      43.714  34.988  31.850  1.00  0.00    -0.033 A 
ATOM     24  C   UNL A   1      44.262  37.114  30.744  1.00  0.00     0.005 A 
ATOM     25  C   UNL A   1      43.495  32.885  30.418  1.00  0.00     0.108 C 
ATOM     26  C   UNL A   1      44.365  32.971  28.278  1.00  0.00     0.238 C 
ATOM     27  C   UNL A   1      39.259  34.800  29.734  1.00  0.00     0.000 A 
ATOM     28  C   UNL A   1      40.336  33.759  31.646  1.00  0.00     0.005 A 
ATOM     29  C   UNL A   1      42.967  33.643  31.659  1.00  0.00     0.030 C 
ATOM     30  C   UNL A   1      44.299  35.438  33.029  1.00  0.00     0.005 A 
ATOM     31  C   UNL A   1      44.836  37.548  31.939  1.00  0.00     0.000 A 
ATOM     32  C   UNL A   1      44.544  31.831  30.291  1.00  0.00     0.238 C 
ATOM     33  O   UNL A   1      44.316  33.242  27.091  1.00  0.00    -0.274 OA
ATOM     34  C   UNL A   1      39.180  34.132  30.962  1.00  0.00     0.000 A 
ATOM     35  C   UNL A   1      42.905  32.745  32.892  1.00  0.00     0.022 C 
ATOM     36  C   UNL A   1      44.863  36.716  33.065  1.00  0.00     0.000 A 
ATOM     37  O   UNL A   1      44.945  31.101  31.183  1.00  0.00    -0.274 OA
ENDBRANCH  10  15
ENDBRANCH   6   9
ENDBRANCH   4   5
ENDBRANCH   3   4
ENDBRANCH   2   3
ENDBRANCH   1   2
BRANCH   1  38
ATOM     38  C   UNL A   1      48.720  25.208  33.344  1.00  0.00     0.021 C 
BRANCH  38  39
ATOM     39  C   UNL A   1      49.193  26.546  33.897  1.00  0.00     0.116 C 
BRANCH  39  40
ATOM     40  N   UNL A   1      48.856  26.739  35.298  1.00  0.00    -0.352 N 
ATOM     41  C   UNL A   1      47.677  27.184  35.854  1.00  0.00     0.251 C 
ATOM     42  H   UNL A   1      49.571  26.521  35.940  1.00  0.00     0.163 HD
ATOM     43  O   UNL A   1      47.613  27.414  37.058  1.00  0.00    -0.269 OA
BRANCH  41  44
ATOM     44  C   UNL A   1      46.506  27.426  34.980  1.00  0.00     0.039 A 
ATOM     45  C   UNL A   1      46.444  28.570  34.182  1.00  0.00     0.014 A 
ATOM     46  C   UNL A   1      45.434  26.532  35.005  1.00  0.00     0.014 A 
ATOM     47  C   UNL A   1      45.243  28.921  33.580  1.00  0.00     0.010 A 
ATOM     48  C   UNL A   1      44.261  26.836  34.307  1.00  0.00     0.010 A 
ATOM     49  C   UNL A   1      44.132  28.063  33.639  1.00  0.00    -0.014 A 
BRANCH  49  50
ATOM     50  C   UNL A   1      42.854  28.479  32.998  1.00  0.00     0.031 A 
ATOM     51  C   UNL A   1      41.844  29.310  33.747  1.00  0.00     0.074 A 
ATOM     52  C   UNL A   1      42.629  28.154  31.711  1.00  0.00     0.049 A 
ATOM     53  N   UNL A   1      40.697  29.785  33.328  1.00  0.00    -0.248 NA
ATOM     54  C   UNL A   1      42.153  29.648  35.145  1.00  0.00     0.031 C 
ATOM     55  C   UNL A   1      43.536  27.355  30.886  1.00  0.00     0.029 A 
ATOM     56  N   UNL A   1      41.595  28.466  30.863  1.00  0.00    -0.354 N 
ATOM     57  C   UNL A   1      40.148  30.470  34.408  1.00  0.00     0.074 A 
ATOM     58  C   UNL A   1      41.061  30.300  35.517  1.00  0.00     0.031 C 
ATOM     59  C   UNL A   1      43.049  27.286  29.641  1.00  0.00     0.029 A 
ATOM     60  C   UNL A   1      41.756  27.962  29.593  1.00  0.00     0.049 A 
ATOM     61  H   UNL A   1      40.815  29.000  31.137  1.00  0.00     0.167 HD
ATOM     62  C   UNL A   1      39.003  31.193  34.460  1.00  0.00     0.034 A 
ATOM     63  C   UNL A   1      40.950  28.013  28.513  1.00  0.00     0.034 A 
ATOM     64  C   UNL A   1      38.106  31.353  33.342  1.00  0.00     0.049 A 
ATOM     65  C   UNL A   1      39.660  28.783  28.604  1.00  0.00     0.074 A 
ATOM     66  C   UNL A   1      36.925  32.072  33.292  1.00  0.00     0.029 A 
ATOM     67  N   UNL A   1      38.286  30.799  32.081  1.00  0.00    -0.354 N 
ATOM     68  N   UNL A   1      39.175  29.454  29.621  1.00  0.00    -0.248 NA
ATOM     69  C   UNL A   1      38.812  28.815  27.405  1.00  0.00     0.031 C 
ATOM     70  C   UNL A   1      36.356  31.892  32.031  1.00  0.00     0.029 A 
ATOM     71  C   UNL A   1      37.226  31.141  31.257  1.00  0.00     0.049 A 
ATOM     72  H   UNL A   1      39.055  30.245  31.812  1.00  0.00     0.167 HD
ATOM     73  C   UNL A   1      37.975  30.005  29.181  1.00  0.00     0.074 A 
ATOM     74  C   UNL A   1      37.824  29.611  27.796  1.00  0.00     0.031 C 
ATOM     75  C   UNL A   1      37.081  30.760  29.869  1.00  0.00     0.034 A 
BRANCH  62  76
ATOM     76  C   UNL A   1      38.644  31.889  35.754  1.00  0.00     0.023 A 
ATOM     77  C   UNL A   1      38.011  31.178  36.792  1.00  0.00     0.031 A 
ATOM     78  C   UNL A   1      38.812  33.278  35.913  1.00  0.00     0.131 A 
ATOM     79  C   UNL A   1      37.536  31.862  37.919  1.00  0.00     0.055 A 
ATOM     80  C   UNL A   1      38.385  33.945  37.062  1.00  0.00     0.041 A 
ATOM     81  F   UNL A   1      39.404  34.008  34.953  1.00  0.00    -0.206 F 
ATOM     82  C   UNL A   1      37.730  33.238  38.065  1.00  0.00     0.022 A 
BRANCH  79  83
ATOM     83  S   UNL A   1      36.578  31.008  39.203  1.00  0.00     0.124 S 
ATOM     84  O   UNL A   1      35.415  31.881  39.336  1.00  0.00    -0.237 OA
ATOM     85  O   UNL A   1      36.319  29.714  38.579  1.00  0.00    -0.237 OA
ATOM     86  O   UNL A   1      37.475  30.987  40.353  1.00  0.00    -0.744 OA
ENDBRANCH  79  83
ENDBRANCH  62  76
BRANCH  63  87
ATOM     87  C   UNL A   1      41.395  27.337  27.258  1.00  0.00     0.023 A 
ATOM     88  C   UNL A   1      41.518  25.935  27.209  1.00  0.00     0.031 A 
ATOM     89  C   UNL A   1      41.848  28.079  26.155  1.00  0.00     0.131 A 
ATOM     90  C   UNL A   1      42.172  25.331  26.128  1.00  0.00     0.055 A 
ATOM     91  C   UNL A   1      42.421  27.464  25.041  1.00  0.00     0.041 A 
ATOM     92  F   UNL A   1      41.764  29.419  26.161  1.00  0.00    -0.206 F 
ATOM     93  C   UNL A   1      42.607  26.084  25.035  1.00  0.00     0.022 A 
BRANCH  90  94
ATOM     94  S   UNL A   1      42.631  23.576  26.188  1.00  0.00     0.124 S 
ATOM     95  O   UNL A   1      41.382  22.948  26.606  1.00  0.00    -0.237 OA
ATOM     96  O   UNL A   1      43.030  23.329  24.804  1.00  0.00    -0.237 OA
ATOM     97  O   UNL A   1      43.716  23.536  27.163  1.00  0.00    -0.744 OA
ENDBRANCH  90  94
ENDBRANCH  63  87
BRANCH  75  98
ATOM     98  C   UNL A   1      35.839  31.247  29.157  1.00  0.00     0.023 A 
ATOM     99  C   UNL A   1      34.985  30.320  28.526  1.00  0.00     0.031 A 
ATOM    100  C   UNL A   1      35.592  32.617  28.959  1.00  0.00     0.131 A 
ATOM    101  C   UNL A   1      33.962  30.774  27.684  1.00  0.00     0.055 A 
ATOM    102  C   UNL A   1      34.532  33.064  28.167  1.00  0.00     0.041 A 
ATOM    103  F   UNL A   1      36.383  33.542  29.526  1.00  0.00    -0.206 F 
ATOM    104  C   UNL A   1      33.724  32.140  27.510  1.00  0.00     0.022 A 
BRANCH 101 105
ATOM    105  S   UNL A   1      32.974  29.611  26.701  1.00  0.00     0.124 S 
ATOM    106  O   UNL A   1      32.081  30.512  25.976  1.00  0.00    -0.237 OA
ATOM    107  O   UNL A   1      33.993  28.953  25.889  1.00  0.00    -0.237 OA
ATOM    108  O   UNL A   1      32.326  28.768  27.701  1.00  0.00    -0.744 OA
ENDBRANCH 101 105
ENDBRANCH  75  98
ENDBRANCH  49  50
ENDBRANCH  41  44
ENDBRANCH  39  40
ENDBRANCH  38  39
ENDBRANCH   1  38
TORSDOF 17
ENDMDL
MODEL 2
REMARK VINA RESULT:      -9.7      4.974     12.469
REMARK SMILES C[C@]12c3ccccc3[C@](C)(c3ccccc31)[C@@H]1C(=O)N(c3ccc(C(=O)NCCCCCCNC(=O)c4ccc(-c5c6nc(c(-c7cc(S(=O)(=O)[O-])ccc7F)c7ccc([nH]7)c(-c7cc(S(=O)(=O)[O-])ccc7F)c7nc(c(-c8cc(S(=O)(=O)[O-])ccc8F)c8ccc5[nH]8)C=C7)C=C6)cc4)cc3)C(=O)[C@H]12
REMARK SMILES IDX 31 1 30 2 29 3 28 4 27 5 25 6 26 7 24 9 21 10 22 11 101 12
REMARK SMILES IDX 23 13 100 14 20 15 1 16 2 17 16 18 3 19 104 20 15 21 11 22
REMARK SMILES IDX 8 23 4 24 17 25 102 26 14 27 12 28 9 29 7 30 5 31 18 32
REMARK SMILES IDX 103 33 13 34 10 35 6 36 19 37 32 38 33 39 34 40 35 41 36 43
REMARK SMILES IDX 37 44 38 45 99 46 39 47 98 48 40 49 41 50 42 51 92 52 43 53
REMARK SMILES IDX 97 54 91 55 93 56 44 57 96 58 90 59 89 60 45 62 77 63 57 64
REMARK SMILES IDX 76 65 58 66 61 67 75 68 94 69 59 70 60 71 74 73 95 74 62 75
REMARK SMILES IDX 46 76 47 77 55 78 48 79 54 80 56 81 53 82 49 83 50 84 51 85
REMARK SMILES IDX 52 86 78 87 79 88 87 89 80 90 86 91 88 92 85 93 81 94 82 95
REMARK SMILES IDX 83 96 84 97 63 98 64 99 72 100 65 101 71 102 73 103 70 104
REMARK SMILES IDX 66 105 67 106 68 107 69 108
REMARK H PARENT 27 8 34 42 93 61 61 72
REMARK Flexibility Score: inf
ROOT
ATOM      1  C   UNL A   1      31.031  30.381  25.384  1.00  0.00     0.002 C 
ENDROOT
BRANCH   1   2
ATOM      2  C   UNL A   1      30.404  31.733  25.036  1.00  0.00     0.002 C 
BRANCH   2   3
ATOM      3  C   UNL A   1      29.080  31.690  24.269  1.00  0.00     0.021 C 
BRANCH   3   4
ATOM      4  C   UNL A   1      29.035  32.461  22.953  1.00  0.00     0.116 C 
BRANCH   4   5
ATOM      5  N   UNL A   1      28.340  31.755  21.891  1.00  0.00    -0.352 N 
ATOM      6  C   UNL A   1      28.448  30.451  21.470  1.00  0.00     0.251 C 
ATOM      7  O   UNL A   1      27.793  30.076  20.499  1.00  0.00    -0.269 OA
ATOM      8  H   UNL A   1      27.687  32.297  21.392  1.00  0.00     0.163 HD
BRANCH   6   9
ATOM      9  C   UNL A   1      29.391  29.505  22.118  1.00  0.00     0.039 A 
ATOM     10  C   UNL A   1      31.055  27.498  23.179  1.00  0.00     0.052 A 
ATOM     11  C   UNL A   1      29.673  27.469  23.401  1.00  0.00     0.027 A 
ATOM     12  C   UNL A   1      31.604  28.600  22.509  1.00  0.00     0.027 A 
ATOM     13  C   UNL A   1      28.847  28.474  22.890  1.00  0.00     0.016 A 
ATOM     14  C   UNL A   1      30.778  29.601  21.986  1.00  0.00     0.016 A 
BRANCH  10  15
ATOM     15  N   UNL A   1      31.873  26.410  23.561  1.00  0.00    -0.250 N 
ATOM     16  C   UNL A   1      32.910  23.913  27.187  1.00  0.00     0.022 C 
ATOM     17  C   UNL A   1      33.334  23.680  25.738  1.00  0.00     0.030 C 
ATOM     18  C   UNL A   1      32.826  22.357  25.109  1.00  0.00    -0.033 A 
ATOM     19  C   UNL A   1      34.880  23.635  25.513  1.00  0.00    -0.033 A 
ATOM     20  C   UNL A   1      33.015  24.894  24.832  1.00  0.00     0.108 C 
ATOM     21  C   UNL A   1      32.041  21.395  25.737  1.00  0.00     0.005 A 
ATOM     22  C   UNL A   1      33.292  22.125  23.768  1.00  0.00    -0.033 A 
ATOM     23  C   UNL A   1      35.249  23.552  24.124  1.00  0.00    -0.033 A 
ATOM     24  C   UNL A   1      35.856  23.727  26.501  1.00  0.00     0.005 A 
ATOM     25  C   UNL A   1      32.968  24.423  23.378  1.00  0.00     0.108 C 
ATOM     26  C   UNL A   1      31.844  25.822  24.834  1.00  0.00     0.238 C 
ATOM     27  C   UNL A   1      31.739  20.211  25.058  1.00  0.00     0.000 A 
ATOM     28  C   UNL A   1      32.996  20.933  23.110  1.00  0.00     0.005 A 
ATOM     29  C   UNL A   1      34.055  23.344  23.158  1.00  0.00     0.030 C 
ATOM     30  C   UNL A   1      36.593  23.591  23.768  1.00  0.00     0.005 A 
ATOM     31  C   UNL A   1      37.198  23.759  26.121  1.00  0.00     0.000 A 
ATOM     32  C   UNL A   1      32.740  25.731  22.696  1.00  0.00     0.238 C 
ATOM     33  O   UNL A   1      31.118  26.048  25.787  1.00  0.00    -0.274 OA
ATOM     34  C   UNL A   1      32.221  19.978  23.764  1.00  0.00     0.000 A 
ATOM     35  C   UNL A   1      34.422  23.195  21.683  1.00  0.00     0.022 C 
ATOM     36  C   UNL A   1      37.561  23.701  24.770  1.00  0.00     0.000 A 
ATOM     37  O   UNL A   1      33.150  26.051  21.592  1.00  0.00    -0.274 OA
ENDBRANCH  10  15
ENDBRANCH   6   9
ENDBRANCH   4   5
ENDBRANCH   3   4
ENDBRANCH   2   3
ENDBRANCH   1   2
BRANCH   1  38
ATOM     38  C   UNL A   1      32.487  30.416  25.842  1.00  0.00     0.021 C 
BRANCH  38  39
ATOM     39  C   UNL A   1      32.714  30.891  27.271  1.00  0.00     0.116 C 
BRANCH  39  40
ATOM     40  N   UNL A   1      32.844  32.336  27.382  1.00  0.00    -0.352 N 
ATOM     41  C   UNL A   1      33.903  33.078  27.855  1.00  0.00     0.251 C 
ATOM     42  H   UNL A   1      32.067  32.856  27.074  1.00  0.00     0.163 HD
ATOM     43  O   UNL A   1      33.788  34.291  28.000  1.00  0.00    -0.269 OA
BRANCH  41  44
ATOM     44  C   UNL A   1      35.161  32.393  28.232  1.00  0.00     0.039 A 
ATOM     45  C   UNL A   1      35.148  31.050  28.612  1.00  0.00     0.014 A 
ATOM     46  C   UNL A   1      36.355  33.117  28.263  1.00  0.00     0.014 A 
ATOM     47  C   UNL A   1      36.271  30.497  29.215  1.00  0.00     0.010 A 
ATOM     48  C   UNL A   1      37.514  32.521  28.770  1.00  0.00     0.010 A 
ATOM     49  C   UNL A   1      37.468  31.227  29.309  1.00  0.00    -0.014 A 
BRANCH  49  50
ATOM     50  C   UNL A   1      38.648  30.611  29.977  1.00  0.00     0.031 A 
ATOM     51  C   UNL A   1      39.017  30.976  31.391  1.00  0.00     0.074 A 
ATOM     52  C   UNL A   1      39.356  29.671  29.322  1.00  0.00     0.049 A 
ATOM     53  N   UNL A   1      39.992  30.511  32.133  1.00  0.00    -0.248 NA
ATOM     54  C   UNL A   1      38.196  31.997  32.060  1.00  0.00     0.031 C 
ATOM     55  C   UNL A   1      39.090  29.236  27.951  1.00  0.00     0.029 A 
ATOM     56  N   UNL A   1      40.420  28.898  29.717  1.00  0.00    -0.354 N 
ATOM     57  C   UNL A   1      39.904  31.183  33.349  1.00  0.00     0.074 A 
ATOM     58  C   UNL A   1      38.817  32.129  33.224  1.00  0.00     0.031 C 
ATOM     59  C   UNL A   1      39.926  28.239  27.638  1.00  0.00     0.029 A 
ATOM     60  C   UNL A   1      40.846  28.017  28.750  1.00  0.00     0.049 A 
ATOM     61  H   UNL A   1      40.837  28.967  30.605  1.00  0.00     0.167 HD
ATOM     62  C   UNL A   1      40.645  31.009  34.470  1.00  0.00     0.034 A 
ATOM     63  C   UNL A   1      41.872  27.141  28.742  1.00  0.00     0.034 A 
ATOM     64  C   UNL A   1      41.724  30.058  34.576  1.00  0.00     0.049 A 
ATOM     65  C   UNL A   1      42.712  26.994  29.982  1.00  0.00     0.074 A 
ATOM     66  C   UNL A   1      42.530  29.800  35.671  1.00  0.00     0.029 A 
ATOM     67  N   UNL A   1      42.147  29.206  33.564  1.00  0.00    -0.354 N 
ATOM     68  N   UNL A   1      42.592  27.611  31.133  1.00  0.00    -0.248 NA
ATOM     69  C   UNL A   1      43.818  26.028  29.931  1.00  0.00     0.031 C 
ATOM     70  C   UNL A   1      43.483  28.852  35.300  1.00  0.00     0.029 A 
ATOM     71  C   UNL A   1      43.217  28.442  34.003  1.00  0.00     0.049 A 
ATOM     72  H   UNL A   1      41.746  29.152  32.666  1.00  0.00     0.167 HD
ATOM     73  C   UNL A   1      43.593  27.097  31.951  1.00  0.00     0.074 A 
ATOM     74  C   UNL A   1      44.290  26.096  31.170  1.00  0.00     0.031 C 
ATOM     75  C   UNL A   1      43.905  27.433  33.229  1.00  0.00     0.034 A 
BRANCH  62  76
ATOM     76  C   UNL A   1      40.318  31.841  35.690  1.00  0.00     0.023 A 
ATOM     77  C   UNL A   1      39.262  31.467  36.543  1.00  0.00     0.031 A 
ATOM     78  C   UNL A   1      40.965  33.066  35.939  1.00  0.00     0.131 A 
ATOM     79  C   UNL A   1      38.860  32.325  37.575  1.00  0.00     0.055 A 
ATOM     80  C   UNL A   1      40.596  33.891  37.002  1.00  0.00     0.041 A 
ATOM     81  F   UNL A   1      41.976  33.476  35.155  1.00  0.00    -0.206 F 
ATOM     82  C   UNL A   1      39.528  33.529  37.817  1.00  0.00     0.022 A 
BRANCH  79  83
ATOM     83  S   UNL A   1      37.406  31.953  38.595  1.00  0.00     0.124 S 
ATOM     84  O   UNL A   1      37.951  32.067  39.945  1.00  0.00    -0.237 OA
ATOM     85  O   UNL A   1      36.482  33.014  38.205  1.00  0.00    -0.237 OA
ATOM     86  O   UNL A   1      37.027  30.604  38.189  1.00  0.00    -0.744 OA
ENDBRANCH  79  83
ENDBRANCH  62  76
BRANCH  63  87
ATOM     87  C   UNL A   1      42.102  26.324  27.514  1.00  0.00     0.023 A 
ATOM     88  C   UNL A   1      41.658  24.989  27.451  1.00  0.00     0.031 A 
ATOM     89  C   UNL A   1      42.896  26.806  26.460  1.00  0.00     0.131 A 
ATOM     90  C   UNL A   1      42.095  24.157  26.413  1.00  0.00     0.055 A 
ATOM     91  C   UNL A   1      43.257  25.996  25.382  1.00  0.00     0.041 A 
ATOM     92  F   UNL A   1      43.355  28.067  26.480  1.00  0.00    -0.206 F 
ATOM     93  C   UNL A   1      42.875  24.657  25.368  1.00  0.00     0.022 A 
BRANCH  90  94
ATOM     94  S   UNL A   1      41.807  22.366  26.479  1.00  0.00     0.124 S 
ATOM     95  O   UNL A   1      42.543  21.896  25.310  1.00  0.00    -0.237 OA
ATOM     96  O   UNL A   1      42.390  22.022  27.774  1.00  0.00    -0.237 OA
ATOM     97  O   UNL A   1      40.355  22.248  26.401  1.00  0.00    -0.744 OA
ENDBRANCH  90  94
ENDBRANCH  63  87
BRANCH  75  98
ATOM     98  C   UNL A   1      45.050  26.717  33.910  1.00  0.00     0.023 A 
ATOM     99  C   UNL A   1      44.790  25.598  34.726  1.00  0.00     0.031 A 
ATOM    100  C   UNL A   1      46.358  27.232  33.890  1.00  0.00     0.131 A 
ATOM    101  C   UNL A   1      45.806  25.067  35.530  1.00  0.00     0.055 A 
ATOM    102  C   UNL A   1      47.382  26.661  34.648  1.00  0.00     0.041 A 
ATOM    103  F   UNL A   1      46.657  28.305  33.141  1.00  0.00    -0.206 F 
ATOM    104  C   UNL A   1      47.104  25.586  35.487  1.00  0.00     0.022 A 
BRANCH 101 105
ATOM    105  S   UNL A   1      45.458  23.758  36.738  1.00  0.00     0.124 S 
ATOM    106  O   UNL A   1      44.531  24.426  37.649  1.00  0.00    -0.237 OA
ATOM    107  O   UNL A   1      44.870  22.717  35.900  1.00  0.00    -0.237 OA
ATOM    108  O   UNL A   1      46.767  23.445  37.303  1.00  0.00    -0.744 OA
ENDBRANCH 101 105
ENDBRANCH  75  98
ENDBRANCH  49  50
ENDBRANCH  41  44
ENDBRANCH  39  40
ENDBRANCH  38  39
ENDBRANCH   1  38
TORSDOF 17
ENDMDL
MODEL 3
REMARK VINA RESULT:      -9.5      5.319     12.916
REMARK SMILES C[C@]12c3ccccc3[C@](C)(c3ccccc31)[C@@H]1C(=O)N(c3ccc(C(=O)NCCCCCCNC(=O)c4ccc(-c5c6nc(c(-c7cc(S(=O)(=O)[O-])ccc7F)c7ccc([nH]7)c(-c7cc(S(=O)(=O)[O-])ccc7F)c7nc(c(-c8cc(S(=O)(=O)[O-])ccc8F)c8ccc5[nH]8)C=C7)C=C6)cc4)cc3)C(=O)[C@H]12
REMARK SMILES IDX 31 1 30 2 29 3 28 4 27 5 25 6 26 7 24 9 21 10 22 11 101 12
REMARK SMILES IDX 23 13 100 14 20 15 1 16 2 17 16 18 3 19 104 20 15 21 11 22
REMARK SMILES IDX 8 23 4 24 17 25 102 26 14 27 12 28 9 29 7 30 5 31 18 32
REMARK SMILES IDX 103 33 13 34 10 35 6 36 19 37 32 38 33 39 34 40 35 41 36 43
REMARK SMILES IDX 37 44 38 45 99 46 39 47 98 48 40 49 41 50 42 51 92 52 43 53
REMARK SMILES IDX 97 54 91 55 93 56 44 57 96 58 90 59 89 60 45 62 77 63 57 64
REMARK SMILES IDX 76 65 58 66 61 67 75 68 94 69 59 70 60 71 74 73 95 74 62 75
REMARK SMILES IDX 46 76 47 77 55 78 48 79 54 80 56 81 53 82 49 83 50 84 51 85
REMARK SMILES IDX 52 86 78 87 79 88 87 89 80 90 86 91 88 92 85 93 81 94 82 95
REMARK SMILES IDX 83 96 84 97 63 98 64 99 72 100 65 101 71 102 73 103 70 104
REMARK SMILES IDX 66 105 67 106 68 107 69 108
REMARK H PARENT 27 8 34 42 93 61 61 72
REMARK Flexibility Score: inf
ROOT
ATOM      1  C   UNL A   1      31.281  30.182  25.786  1.00  0.00     0.002 C 
ENDROOT
BRANCH   1   2
ATOM      2  C   UNL A   1      30.741  31.559  25.393  1.00  0.00     0.002 C 
BRANCH   2   3
ATOM      3  C   UNL A   1      29.452  31.572  24.567  1.00  0.00     0.021 C 
BRANCH   3   4
ATOM      4  C   UNL A   1      29.493  32.363  23.263  1.00  0.00     0.116 C 
BRANCH   4   5
ATOM      5  N   UNL A   1      28.687  31.778  22.205  1.00  0.00    -0.352 N 
ATOM      6  C   UNL A   1      28.633  30.487  21.739  1.00  0.00     0.251 C 
ATOM      7  O   UNL A   1      27.907  30.223  20.781  1.00  0.00    -0.269 OA
ATOM      8  H   UNL A   1      28.083  32.408  21.749  1.00  0.00     0.163 HD
BRANCH   6   9
ATOM      9  C   UNL A   1      29.484  29.419  22.319  1.00  0.00     0.039 A 
ATOM     10  C   UNL A   1      30.946  27.200  23.251  1.00  0.00     0.052 A 
ATOM     11  C   UNL A   1      29.576  27.316  23.522  1.00  0.00     0.027 A 
ATOM     12  C   UNL A   1      31.593  28.259  22.599  1.00  0.00     0.027 A 
ATOM     13  C   UNL A   1      28.853  28.426  23.076  1.00  0.00     0.016 A 
ATOM     14  C   UNL A   1      30.867  29.364  22.141  1.00  0.00     0.016 A 
BRANCH  10  15
ATOM     15  N   UNL A   1      31.647  26.015  23.566  1.00  0.00    -0.250 N 
ATOM     16  C   UNL A   1      34.269  22.877  21.630  1.00  0.00     0.022 C 
ATOM     17  C   UNL A   1      33.949  23.043  23.115  1.00  0.00     0.030 C 
ATOM     18  C   UNL A   1      35.170  23.347  24.021  1.00  0.00    -0.033 A 
ATOM     19  C   UNL A   1      33.288  21.793  23.780  1.00  0.00    -0.033 A 
ATOM     20  C   UNL A   1      32.802  24.054  23.358  1.00  0.00     0.108 C 
ATOM     21  C   UNL A   1      36.492  23.475  23.605  1.00  0.00     0.005 A 
ATOM     22  C   UNL A   1      34.858  23.433  25.423  1.00  0.00    -0.033 A 
ATOM     23  C   UNL A   1      32.874  22.026  25.139  1.00  0.00    -0.033 A 
ATOM     24  C   UNL A   1      33.035  20.572  23.162  1.00  0.00     0.005 A 
ATOM     25  C   UNL A   1      32.887  24.557  24.800  1.00  0.00     0.108 C 
ATOM     26  C   UNL A   1      32.480  25.337  22.662  1.00  0.00     0.238 C 
ATOM     27  C   UNL A   1      37.493  23.664  24.562  1.00  0.00     0.000 A 
ATOM     28  C   UNL A   1      35.868  23.604  26.366  1.00  0.00     0.005 A 
ATOM     29  C   UNL A   1      33.324  23.391  25.718  1.00  0.00     0.030 C 
ATOM     30  C   UNL A   1      32.191  21.029  25.829  1.00  0.00     0.005 A 
ATOM     31  C   UNL A   1      32.355  19.585  23.876  1.00  0.00     0.000 A 
ATOM     32  C   UNL A   1      31.673  25.424  24.836  1.00  0.00     0.238 C 
ATOM     33  O   UNL A   1      32.813  25.635  21.528  1.00  0.00    -0.274 OA
ATOM     34  C   UNL A   1      37.186  23.716  25.927  1.00  0.00     0.000 A 
ATOM     35  C   UNL A   1      32.948  23.642  27.177  1.00  0.00     0.022 C 
ATOM     36  C   UNL A   1      31.930  19.814  25.190  1.00  0.00     0.000 A 
ATOM     37  O   UNL A   1      30.957  25.624  25.803  1.00  0.00    -0.274 OA
ENDBRANCH  10  15
ENDBRANCH   6   9
ENDBRANCH   4   5
ENDBRANCH   3   4
ENDBRANCH   2   3
ENDBRANCH   1   2
BRANCH   1  38
ATOM     38  C   UNL A   1      32.787  29.982  25.623  1.00  0.00     0.021 C 
BRANCH  38  39
ATOM     39  C   UNL A   1      33.583  29.907  26.919  1.00  0.00     0.116 C 
BRANCH  39  40
ATOM     40  N   UNL A   1      33.568  31.149  27.675  1.00  0.00    -0.352 N 
ATOM     41  C   UNL A   1      34.503  31.638  28.560  1.00  0.00     0.251 C 
ATOM     42  H   UNL A   1      32.779  31.721  27.534  1.00  0.00     0.163 HD
ATOM     43  O   UNL A   1      34.263  32.649  29.213  1.00  0.00    -0.269 OA
BRANCH  41  44
ATOM     44  C   UNL A   1      35.777  30.906  28.750  1.00  0.00     0.039 A 
ATOM     45  C   UNL A   1      35.820  29.755  29.538  1.00  0.00     0.014 A 
ATOM     46  C   UNL A   1      36.950  31.411  28.184  1.00  0.00     0.014 A 
ATOM     47  C   UNL A   1      37.048  29.236  29.927  1.00  0.00     0.010 A 
ATOM     48  C   UNL A   1      38.179  30.818  28.492  1.00  0.00     0.010 A 
ATOM     49  C   UNL A   1      38.245  29.764  29.415  1.00  0.00    -0.014 A 
BRANCH  49  50
ATOM     50  C   UNL A   1      39.546  29.196  29.867  1.00  0.00     0.031 A 
ATOM     51  C   UNL A   1      40.234  29.718  31.101  1.00  0.00     0.074 A 
ATOM     52  C   UNL A   1      40.080  28.161  29.191  1.00  0.00     0.049 A 
ATOM     53  N   UNL A   1      41.352  29.315  31.652  1.00  0.00    -0.248 NA
ATOM     54  C   UNL A   1      39.593  30.838  31.807  1.00  0.00     0.031 C 
ATOM     55  C   UNL A   1      39.502  27.571  27.983  1.00  0.00     0.029 A 
ATOM     56  N   UNL A   1      41.203  27.407  29.425  1.00  0.00    -0.354 N 
ATOM     57  C   UNL A   1      41.551  30.133  32.761  1.00  0.00     0.074 A 
ATOM     58  C   UNL A   1      40.468  31.091  32.771  1.00  0.00     0.031 C 
ATOM     59  C   UNL A   1      40.240  26.517  27.615  1.00  0.00     0.029 A 
ATOM     60  C   UNL A   1      41.391  26.402  28.505  1.00  0.00     0.049 A 
ATOM     61  H   UNL A   1      41.815  27.570  30.178  1.00  0.00     0.167 HD
ATOM     62  C   UNL A   1      42.530  30.072  33.695  1.00  0.00     0.034 A 
ATOM     63  C   UNL A   1      42.384  25.499  28.372  1.00  0.00     0.034 A 
ATOM     64  C   UNL A   1      43.602  29.106  33.670  1.00  0.00     0.049 A 
ATOM     65  C   UNL A   1      43.488  25.476  29.394  1.00  0.00     0.074 A 
ATOM     66  C   UNL A   1      44.638  28.958  34.574  1.00  0.00     0.029 A 
ATOM     67  N   UNL A   1      43.776  28.125  32.703  1.00  0.00    -0.354 N 
ATOM     68  N   UNL A   1      43.640  26.232  30.455  1.00  0.00    -0.248 NA
ATOM     69  C   UNL A   1      44.549  24.476  29.214  1.00  0.00     0.031 C 
ATOM     70  C   UNL A   1      45.476  27.941  34.117  1.00  0.00     0.029 A 
ATOM     71  C   UNL A   1      44.916  27.385  32.978  1.00  0.00     0.049 A 
ATOM     72  H   UNL A   1      43.177  27.975  31.935  1.00  0.00     0.167 HD
ATOM     73  C   UNL A   1      44.801  25.789  31.080  1.00  0.00     0.074 A 
ATOM     74  C   UNL A   1      45.296  24.679  30.292  1.00  0.00     0.031 C 
ATOM     75  C   UNL A   1      45.403  26.268  32.200  1.00  0.00     0.034 A 
BRANCH  62  76
ATOM     76  C   UNL A   1      42.499  31.056  34.843  1.00  0.00     0.023 A 
ATOM     77  C   UNL A   1      43.158  32.296  34.734  1.00  0.00     0.031 A 
ATOM     78  C   UNL A   1      41.928  30.719  36.085  1.00  0.00     0.131 A 
ATOM     79  C   UNL A   1      43.264  33.132  35.854  1.00  0.00     0.055 A 
ATOM     80  C   UNL A   1      41.990  31.581  37.182  1.00  0.00     0.041 A 
ATOM     81  F   UNL A   1      41.292  29.548  36.249  1.00  0.00    -0.206 F 
ATOM     82  C   UNL A   1      42.674  32.787  37.073  1.00  0.00     0.022 A 
BRANCH  79  83
ATOM     83  S   UNL A   1      44.238  34.662  35.796  1.00  0.00     0.124 S 
ATOM     84  O   UNL A   1      43.365  35.543  35.024  1.00  0.00    -0.237 OA
ATOM     85  O   UNL A   1      44.364  34.995  37.212  1.00  0.00    -0.237 OA
ATOM     86  O   UNL A   1      45.472  34.268  35.128  1.00  0.00    -0.744 OA
ENDBRANCH  79  83
ENDBRANCH  62  76
BRANCH  63  87
ATOM     87  C   UNL A   1      42.321  24.531  27.237  1.00  0.00     0.023 A 
ATOM     88  C   UNL A   1      41.501  23.389  27.317  1.00  0.00     0.031 A 
ATOM     89  C   UNL A   1      43.184  24.648  26.135  1.00  0.00     0.131 A 
ATOM     90  C   UNL A   1      41.637  22.365  26.372  1.00  0.00     0.055 A 
ATOM     91  C   UNL A   1      43.253  23.663  25.148  1.00  0.00     0.041 A 
ATOM     92  F   UNL A   1      43.995  25.711  26.020  1.00  0.00    -0.206 F 
ATOM     93  C   UNL A   1      42.494  22.503  25.277  1.00  0.00     0.022 A 
BRANCH  90  94
ATOM     94  S   UNL A   1      40.837  20.756  26.628  1.00  0.00     0.124 S 
ATOM     95  O   UNL A   1      41.760  19.846  25.958  1.00  0.00    -0.237 OA
ATOM     96  O   UNL A   1      40.810  20.670  28.086  1.00  0.00    -0.237 OA
ATOM     97  O   UNL A   1      39.534  20.915  25.992  1.00  0.00    -0.744 OA
ENDBRANCH  90  94
ENDBRANCH  63  87
BRANCH  75  98
ATOM     98  C   UNL A   1      46.671  25.603  32.685  1.00  0.00     0.023 A 
ATOM     99  C   UNL A   1      46.604  24.600  33.672  1.00  0.00     0.031 A 
ATOM    100  C   UNL A   1      47.941  26.070  32.301  1.00  0.00     0.131 A 
ATOM    101  C   UNL A   1      47.777  24.139  34.281  1.00  0.00     0.055 A 
ATOM    102  C   UNL A   1      49.111  25.563  32.869  1.00  0.00     0.041 A 
ATOM    103  F   UNL A   1      48.063  27.034  31.374  1.00  0.00    -0.206 F 
ATOM    104  C   UNL A   1      49.031  24.606  33.877  1.00  0.00     0.022 A 
BRANCH 101 105
ATOM    105  S   UNL A   1      47.714  22.998  35.691  1.00  0.00     0.124 S 
ATOM    106  O   UNL A   1      47.938  21.707  35.046  1.00  0.00    -0.237 OA
ATOM    107  O   UNL A   1      48.812  23.480  36.524  1.00  0.00    -0.237 OA
ATOM    108  O   UNL A   1      46.376  23.193  36.242  1.00  0.00    -0.744 OA
ENDBRANCH 101 105
ENDBRANCH  75  98
ENDBRANCH  49  50
ENDBRANCH  41  44
ENDBRANCH  39  40
ENDBRANCH  38  39
ENDBRANCH   1  38
TORSDOF 17
ENDMDL
