MODEL 1
REMARK VINA RESULT:     -12.3      0.000      0.000
REMARK SMILES O=C(NCCCCCCNC(=O)c1c(-c2ccc(Cl)cc2)noc1CO[C@@H]1CCCCO1)c1ccc(-c2c3nc(c(-c4cc(S(=O)(=O)[O-])ccc4F)c4ccc([nH]4)c(-c4cc(S(=O)(=O)[O-])ccc4F)c4nc(c(-c5cc(S(=O)(=O)[O-])ccc5F)c5ccc2[nH]5)C=C4)C=C3)cc1
REMARK SMILES IDX 6 1 5 2 4 3 3 4 1 5 2 6 33 8 34 9 95 10 35 11 94 12 36 13
REMARK SMILES IDX 37 14 38 15 88 16 39 17 93 18 87 19 89 20 40 21 92 22 86 23
REMARK SMILES IDX 85 24 41 26 73 27 53 28 72 29 54 30 57 31 71 32 90 33 55 34
REMARK SMILES IDX 56 35 70 37 91 38 58 39 42 40 43 41 51 42 44 43 50 44 52 45
REMARK SMILES IDX 49 46 45 47 46 48 47 49 48 50 74 51 75 52 83 53 76 54 82 55
REMARK SMILES IDX 84 56 81 57 77 58 78 59 79 60 80 61 59 62 60 63 68 64 61 65
REMARK SMILES IDX 67 66 69 67 66 68 62 69 63 70 64 71 65 72 7 73 8 74 9 75
REMARK SMILES IDX 10 76 11 77 12 79 13 80 14 81 24 82 22 83 23 84 15 85 16 86
REMARK SMILES IDX 21 87 17 88 20 89 18 90 19 91 25 92 26 93 27 94 28 95 32 96
REMARK SMILES IDX 29 97 31 98 30 99
REMARK H PARENT 3 7 89 25 57 36 10 78
REMARK Flexibility Score: inf
ROOT
ATOM      1  C   UNL A   1      32.020  30.409  26.241  1.00  0.00     0.002 C 
ENDROOT
BRANCH   1   2
ATOM      2  C   UNL A   1      31.741  31.788  26.841  1.00  0.00     0.021 C 
BRANCH   2   3
ATOM      3  C   UNL A   1      32.963  32.580  27.286  1.00  0.00     0.116 C 
BRANCH   3   4
ATOM      4  N   UNL A   1      32.666  33.938  27.702  1.00  0.00    -0.352 N 
ATOM      5  O   UNL A   1      32.832  35.761  29.025  1.00  0.00    -0.269 OA
ATOM      6  C   UNL A   1      33.255  34.649  28.725  1.00  0.00     0.251 C 
ATOM      7  H   UNL A   1      31.964  34.406  27.194  1.00  0.00     0.163 HD
BRANCH   6   8
ATOM      8  C   UNL A   1      34.375  34.045  29.485  1.00  0.00     0.039 A 
ATOM      9  C   UNL A   1      35.703  34.323  29.153  1.00  0.00     0.014 A 
ATOM     10  C   UNL A   1      34.087  33.178  30.546  1.00  0.00     0.014 A 
ATOM     11  C   UNL A   1      36.737  33.648  29.798  1.00  0.00     0.010 A 
ATOM     12  C   UNL A   1      35.129  32.547  31.233  1.00  0.00     0.010 A 
ATOM     13  C   UNL A   1      36.461  32.756  30.845  1.00  0.00    -0.014 A 
BRANCH  13  14
ATOM     14  C   UNL A   1      37.590  32.095  31.548  1.00  0.00     0.031 A 
ATOM     15  C   UNL A   1      38.420  31.045  30.865  1.00  0.00     0.074 A 
ATOM     16  C   UNL A   1      37.891  32.488  32.800  1.00  0.00     0.049 A 
ATOM     17  N   UNL A   1      39.466  30.398  31.316  1.00  0.00    -0.248 NA
ATOM     18  C   UNL A   1      38.021  30.665  29.502  1.00  0.00     0.031 C 
ATOM     19  C   UNL A   1      37.144  33.488  33.569  1.00  0.00     0.029 A 
ATOM     20  N   UNL A   1      38.908  32.117  33.638  1.00  0.00    -0.354 N 
ATOM     21  C   UNL A   1      39.844  29.525  30.302  1.00  0.00     0.074 A 
ATOM     22  C   UNL A   1      38.900  29.711  29.218  1.00  0.00     0.031 C 
ATOM     23  C   UNL A   1      37.753  33.680  34.748  1.00  0.00     0.029 A 
ATOM     24  C   UNL A   1      38.907  32.791  34.837  1.00  0.00     0.049 A 
ATOM     25  H   UNL A   1      39.577  31.433  33.405  1.00  0.00     0.167 HD
ATOM     26  C   UNL A   1      40.881  28.651  30.277  1.00  0.00     0.034 A 
ATOM     27  C   UNL A   1      39.738  32.703  35.891  1.00  0.00     0.034 A 
ATOM     28  C   UNL A   1      41.816  28.473  31.362  1.00  0.00     0.049 A 
ATOM     29  C   UNL A   1      40.895  31.746  35.827  1.00  0.00     0.074 A 
ATOM     30  C   UNL A   1      42.900  27.613  31.440  1.00  0.00     0.029 A 
ATOM     31  N   UNL A   1      41.779  29.168  32.564  1.00  0.00    -0.354 N 
ATOM     32  N   UNL A   1      41.229  30.921  34.862  1.00  0.00    -0.248 NA
ATOM     33  C   UNL A   1      41.786  31.712  36.992  1.00  0.00     0.031 C 
ATOM     34  C   UNL A   1      43.492  27.761  32.701  1.00  0.00     0.029 A 
ATOM     35  C   UNL A   1      42.809  28.747  33.392  1.00  0.00     0.049 A 
ATOM     36  H   UNL A   1      41.116  29.859  32.795  1.00  0.00     0.167 HD
ATOM     37  C   UNL A   1      42.367  30.261  35.310  1.00  0.00     0.074 A 
ATOM     38  C   UNL A   1      42.681  30.811  36.614  1.00  0.00     0.031 C 
ATOM     39  C   UNL A   1      43.083  29.282  34.704  1.00  0.00     0.034 A 
BRANCH  26  40
ATOM     40  C   UNL A   1      41.027  27.789  29.049  1.00  0.00     0.023 A 
ATOM     41  C   UNL A   1      42.024  28.035  28.091  1.00  0.00     0.031 A 
ATOM     42  C   UNL A   1      40.143  26.719  28.826  1.00  0.00     0.131 A 
ATOM     43  C   UNL A   1      42.082  27.254  26.926  1.00  0.00     0.055 A 
ATOM     44  C   UNL A   1      40.243  25.907  27.694  1.00  0.00     0.041 A 
ATOM     45  F   UNL A   1      39.160  26.453  29.699  1.00  0.00    -0.206 F 
ATOM     46  C   UNL A   1      41.211  26.179  26.731  1.00  0.00     0.022 A 
BRANCH  43  47
ATOM     47  S   UNL A   1      43.247  27.726  25.619  1.00  0.00     0.124 S 
ATOM     48  O   UNL A   1      43.778  28.984  26.137  1.00  0.00    -0.237 OA
ATOM     49  O   UNL A   1      44.175  26.601  25.600  1.00  0.00    -0.237 OA
ATOM     50  O   UNL A   1      42.400  27.855  24.434  1.00  0.00    -0.744 OA
ENDBRANCH  43  47
ENDBRANCH  26  40
BRANCH  27  51
ATOM     51  C   UNL A   1      39.492  33.526  37.103  1.00  0.00     0.023 A 
ATOM     52  C   UNL A   1      38.867  32.983  38.234  1.00  0.00     0.031 A 
ATOM     53  C   UNL A   1      39.879  34.877  37.139  1.00  0.00     0.131 A 
ATOM     54  C   UNL A   1      38.621  33.795  39.351  1.00  0.00     0.055 A 
ATOM     55  C   UNL A   1      39.663  35.672  38.264  1.00  0.00     0.041 A 
ATOM     56  F   UNL A   1      40.491  35.434  36.084  1.00  0.00    -0.206 F 
ATOM     57  C   UNL A   1      39.021  35.133  39.375  1.00  0.00     0.022 A 
BRANCH  54  58
ATOM     58  S   UNL A   1      37.719  33.091  40.756  1.00  0.00     0.124 S 
ATOM     59  O   UNL A   1      37.846  34.144  41.757  1.00  0.00    -0.237 OA
ATOM     60  O   UNL A   1      36.387  32.902  40.194  1.00  0.00    -0.237 OA
ATOM     61  O   UNL A   1      38.450  31.859  41.049  1.00  0.00    -0.744 OA
ENDBRANCH  54  58
ENDBRANCH  27  51
BRANCH  39  62
ATOM     62  C   UNL A   1      44.268  28.755  35.467  1.00  0.00     0.023 A 
ATOM     63  C   UNL A   1      44.132  27.684  36.367  1.00  0.00     0.031 A 
ATOM     64  C   UNL A   1      45.528  29.360  35.334  1.00  0.00     0.131 A 
ATOM     65  C   UNL A   1      45.229  27.284  37.144  1.00  0.00     0.055 A 
ATOM     66  C   UNL A   1      46.626  28.931  36.079  1.00  0.00     0.041 A 
ATOM     67  F   UNL A   1      45.705  30.389  34.490  1.00  0.00    -0.206 F 
ATOM     68  C   UNL A   1      46.477  27.895  37.000  1.00  0.00     0.022 A 
BRANCH  65  69
ATOM     69  S   UNL A   1      44.978  26.013  38.412  1.00  0.00     0.124 S 
ATOM     70  O   UNL A   1      46.262  26.015  39.106  1.00  0.00    -0.237 OA
ATOM     71  O   UNL A   1      43.846  26.543  39.166  1.00  0.00    -0.237 OA
ATOM     72  O   UNL A   1      44.695  24.806  37.638  1.00  0.00    -0.744 OA
ENDBRANCH  65  69
ENDBRANCH  39  62
ENDBRANCH  13  14
ENDBRANCH   6   8
ENDBRANCH   3   4
ENDBRANCH   2   3
ENDBRANCH   1   2
BRANCH   1  73
ATOM     73  C   UNL A   1      32.210  29.250  27.225  1.00  0.00     0.002 C 
BRANCH  73  74
ATOM     74  C   UNL A   1      33.531  28.472  27.148  1.00  0.00     0.021 C 
BRANCH  74  75
ATOM     75  C   UNL A   1      33.638  27.424  26.041  1.00  0.00     0.116 C 
BRANCH  75  76
ATOM     76  N   UNL A   1      32.402  26.691  25.860  1.00  0.00    -0.352 N 
ATOM     77  C   UNL A   1      31.800  26.220  24.726  1.00  0.00     0.257 C 
ATOM     78  H   UNL A   1      31.913  26.498  26.693  1.00  0.00     0.163 HD
ATOM     79  O   UNL A   1      30.684  25.717  24.841  1.00  0.00    -0.269 OA
BRANCH  77  80
ATOM     80  C   UNL A   1      32.465  26.314  23.450  1.00  0.00     0.113 A 
ATOM     81  C   UNL A   1      33.200  25.287  22.786  1.00  0.00     0.127 A 
ATOM     82  C   UNL A   1      32.736  27.445  22.705  1.00  0.00     0.175 A 
ATOM     83  N   UNL A   1      33.751  25.744  21.655  1.00  0.00    -0.079 NA
ATOM     84  O   UNL A   1      33.448  27.087  21.600  1.00  0.00    -0.357 OA
BRANCH  81  85
ATOM     85  C   UNL A   1      33.447  23.926  23.240  1.00  0.00     0.005 A 
ATOM     86  C   UNL A   1      32.426  22.967  23.245  1.00  0.00     0.012 A 
ATOM     87  C   UNL A   1      34.713  23.590  23.741  1.00  0.00     0.012 A 
ATOM     88  C   UNL A   1      32.667  21.692  23.766  1.00  0.00     0.021 A 
ATOM     89  C   UNL A   1      34.950  22.319  24.268  1.00  0.00     0.021 A 
ATOM     90  C   UNL A   1      33.924  21.378  24.283  1.00  0.00     0.041 A 
ATOM     91  Cl  UNL A   1      34.207  19.820  24.953  1.00  0.00    -0.084 Cl
ENDBRANCH  81  85
BRANCH  82  92
ATOM     92  C   UNL A   1      32.481  28.896  22.849  1.00  0.00     0.242 C 
BRANCH  92  93
ATOM     93  O   UNL A   1      31.159  29.180  22.424  1.00  0.00    -0.345 OA
BRANCH  93  94
ATOM     94  C   UNL A   1      30.130  29.329  23.399  1.00  0.00     0.250 C 
ATOM     95  C   UNL A   1      28.955  28.363  23.196  1.00  0.00     0.062 C 
ATOM     96  O   UNL A   1      29.794  30.658  23.780  1.00  0.00    -0.353 OA
ATOM     97  C   UNL A   1      27.705  28.997  22.614  1.00  0.00     0.008 C 
ATOM     98  C   UNL A   1      28.645  31.230  23.175  1.00  0.00     0.163 C 
ATOM     99  C   UNL A   1      27.424  30.338  23.266  1.00  0.00     0.029 C 
ENDBRANCH  93  94
ENDBRANCH  92  93
ENDBRANCH  82  92
ENDBRANCH  77  80
ENDBRANCH  75  76
ENDBRANCH  74  75
ENDBRANCH  73  74
ENDBRANCH   1  73
TORSDOF 20
ENDMDL
MODEL 2
REMARK VINA RESULT:     -12.1      1.724      3.822
REMARK SMILES O=C(NCCCCCCNC(=O)c1c(-c2ccc(Cl)cc2)noc1CO[C@@H]1CCCCO1)c1ccc(-c2c3nc(c(-c4cc(S(=O)(=O)[O-])ccc4F)c4ccc([nH]4)c(-c4cc(S(=O)(=O)[O-])ccc4F)c4nc(c(-c5cc(S(=O)(=O)[O-])ccc5F)c5ccc2[nH]5)C=C4)C=C3)cc1
REMARK SMILES IDX 6 1 5 2 4 3 3 4 1 5 2 6 33 8 34 9 95 10 35 11 94 12 36 13
REMARK SMILES IDX 37 14 38 15 88 16 39 17 93 18 87 19 89 20 40 21 92 22 86 23
REMARK SMILES IDX 85 24 41 26 73 27 53 28 72 29 54 30 57 31 71 32 90 33 55 34
REMARK SMILES IDX 56 35 70 37 91 38 58 39 42 40 43 41 51 42 44 43 50 44 52 45
REMARK SMILES IDX 49 46 45 47 46 48 47 49 48 50 74 51 75 52 83 53 76 54 82 55
REMARK SMILES IDX 84 56 81 57 77 58 78 59 79 60 80 61 59 62 60 63 68 64 61 65
REMARK SMILES IDX 67 66 69 67 66 68 62 69 63 70 64 71 65 72 7 73 8 74 9 75
REMARK SMILES IDX 10 76 11 77 12 79 13 80 14 81 24 82 22 83 23 84 15 85 16 86
REMARK SMILES IDX 21 87 17 88 20 89 18 90 19 91 25 92 26 93 27 94 28 95 32 96
REMARK SMILES IDX 29 97 31 98 30 99
REMARK H PARENT 3 7 89 25 57 36 10 78
REMARK Flexibility Score: inf
ROOT
ATOM      1  C   UNL A   1      31.497  30.401  26.092  1.00  0.00     0.002 C 
ENDROOT
BRANCH   1   2
ATOM      2  C   UNL A   1      31.410  31.871  26.509  1.00  0.00     0.021 C 
BRANCH   2   3
ATOM      3  C   UNL A   1      32.677  32.470  27.103  1.00  0.00     0.116 C 
BRANCH   3   4
ATOM      4  N   UNL A   1      32.528  33.843  27.549  1.00  0.00    -0.352 N 
ATOM      5  O   UNL A   1      32.952  35.632  28.861  1.00  0.00    -0.269 OA
ATOM      6  C   UNL A   1      33.256  34.492  28.522  1.00  0.00     0.251 C 
ATOM      7  H   UNL A   1      31.826  34.372  27.105  1.00  0.00     0.163 HD
BRANCH   6   8
ATOM      8  C   UNL A   1      34.383  33.791  29.182  1.00  0.00     0.039 A 
ATOM      9  C   UNL A   1      34.155  32.718  30.048  1.00  0.00     0.014 A 
ATOM     10  C   UNL A   1      35.691  34.222  28.934  1.00  0.00     0.014 A 
ATOM     11  C   UNL A   1      35.216  32.157  30.754  1.00  0.00     0.010 A 
ATOM     12  C   UNL A   1      36.763  33.616  29.598  1.00  0.00     0.010 A 
ATOM     13  C   UNL A   1      36.530  32.598  30.535  1.00  0.00    -0.014 A 
BRANCH  13  14
ATOM     14  C   UNL A   1      37.644  31.940  31.264  1.00  0.00     0.031 A 
ATOM     15  C   UNL A   1      38.470  30.866  30.613  1.00  0.00     0.074 A 
ATOM     16  C   UNL A   1      37.935  32.357  32.511  1.00  0.00     0.049 A 
ATOM     17  N   UNL A   1      39.503  30.218  31.090  1.00  0.00    -0.248 NA
ATOM     18  C   UNL A   1      38.081  30.461  29.255  1.00  0.00     0.031 C 
ATOM     19  C   UNL A   1      37.192  33.382  33.249  1.00  0.00     0.029 A 
ATOM     20  N   UNL A   1      38.939  31.993  33.368  1.00  0.00    -0.354 N 
ATOM     21  C   UNL A   1      39.882  29.318  30.100  1.00  0.00     0.074 A 
ATOM     22  C   UNL A   1      38.951  29.492  29.001  1.00  0.00     0.031 C 
ATOM     23  C   UNL A   1      37.790  33.593  34.430  1.00  0.00     0.029 A 
ATOM     24  C   UNL A   1      38.933  32.693  34.551  1.00  0.00     0.049 A 
ATOM     25  H   UNL A   1      39.602  31.297  33.157  1.00  0.00     0.167 HD
ATOM     26  C   UNL A   1      40.909  28.433  30.105  1.00  0.00     0.034 A 
ATOM     27  C   UNL A   1      39.751  32.619  35.617  1.00  0.00     0.034 A 
ATOM     28  C   UNL A   1      41.830  28.268  31.204  1.00  0.00     0.049 A 
ATOM     29  C   UNL A   1      40.898  31.648  35.586  1.00  0.00     0.074 A 
ATOM     30  C   UNL A   1      42.903  27.398  31.313  1.00  0.00     0.029 A 
ATOM     31  N   UNL A   1      41.788  28.990  32.391  1.00  0.00    -0.354 N 
ATOM     32  N   UNL A   1      41.233  30.799  34.643  1.00  0.00    -0.248 NA
ATOM     33  C   UNL A   1      41.776  31.630  36.762  1.00  0.00     0.031 C 
ATOM     34  C   UNL A   1      43.484  27.567  32.577  1.00  0.00     0.029 A 
ATOM     35  C   UNL A   1      42.804  28.576  33.239  1.00  0.00     0.049 A 
ATOM     36  H   UNL A   1      41.131  29.693  32.599  1.00  0.00     0.167 HD
ATOM     37  C   UNL A   1      42.359  30.136  35.118  1.00  0.00     0.074 A 
ATOM     38  C   UNL A   1      42.665  30.711  36.413  1.00  0.00     0.031 C 
ATOM     39  C   UNL A   1      43.070  29.136  34.541  1.00  0.00     0.034 A 
BRANCH  26  40
ATOM     40  C   UNL A   1      41.058  27.543  28.898  1.00  0.00     0.023 A 
ATOM     41  C   UNL A   1      42.034  27.788  27.917  1.00  0.00     0.031 A 
ATOM     42  C   UNL A   1      40.200  26.444  28.718  1.00  0.00     0.131 A 
ATOM     43  C   UNL A   1      42.094  26.978  26.773  1.00  0.00     0.055 A 
ATOM     44  C   UNL A   1      40.303  25.605  27.606  1.00  0.00     0.041 A 
ATOM     45  F   UNL A   1      39.238  26.176  29.614  1.00  0.00    -0.206 F 
ATOM     46  C   UNL A   1      41.249  25.876  26.620  1.00  0.00     0.022 A 
BRANCH  43  47
ATOM     47  S   UNL A   1      43.226  27.445  25.435  1.00  0.00     0.124 S 
ATOM     48  O   UNL A   1      43.682  26.140  24.964  1.00  0.00    -0.237 OA
ATOM     49  O   UNL A   1      42.355  28.182  24.527  1.00  0.00    -0.237 OA
ATOM     50  O   UNL A   1      44.244  28.247  26.111  1.00  0.00    -0.744 OA
ENDBRANCH  43  47
ENDBRANCH  26  40
BRANCH  27  51
ATOM     51  C   UNL A   1      39.502  33.472  36.807  1.00  0.00     0.023 A 
ATOM     52  C   UNL A   1      38.860  32.960  37.944  1.00  0.00     0.031 A 
ATOM     53  C   UNL A   1      39.901  34.819  36.817  1.00  0.00     0.131 A 
ATOM     54  C   UNL A   1      38.612  33.799  39.040  1.00  0.00     0.055 A 
ATOM     55  C   UNL A   1      39.682  35.641  37.922  1.00  0.00     0.041 A 
ATOM     56  F   UNL A   1      40.529  35.347  35.756  1.00  0.00    -0.206 F 
ATOM     57  C   UNL A   1      39.025  35.134  39.039  1.00  0.00     0.022 A 
BRANCH  54  58
ATOM     58  S   UNL A   1      37.689  33.135  40.452  1.00  0.00     0.124 S 
ATOM     59  O   UNL A   1      38.485  31.967  40.812  1.00  0.00    -0.237 OA
ATOM     60  O   UNL A   1      37.732  34.250  41.391  1.00  0.00    -0.237 OA
ATOM     61  O   UNL A   1      36.371  32.844  39.892  1.00  0.00    -0.744 OA
ENDBRANCH  54  58
ENDBRANCH  27  51
BRANCH  39  62
ATOM     62  C   UNL A   1      44.240  28.613  35.329  1.00  0.00     0.023 A 
ATOM     63  C   UNL A   1      44.083  27.565  36.252  1.00  0.00     0.031 A 
ATOM     64  C   UNL A   1      45.509  29.200  35.196  1.00  0.00     0.131 A 
ATOM     65  C   UNL A   1      45.166  27.171  37.049  1.00  0.00     0.055 A 
ATOM     66  C   UNL A   1      46.594  28.775  35.961  1.00  0.00     0.041 A 
ATOM     67  F   UNL A   1      45.707  30.207  34.330  1.00  0.00    -0.206 F 
ATOM     68  C   UNL A   1      46.423  27.763  36.905  1.00  0.00     0.022 A 
BRANCH  65  69
ATOM     69  S   UNL A   1      44.886  25.932  38.344  1.00  0.00     0.124 S 
ATOM     70  O   UNL A   1      46.247  25.509  38.662  1.00  0.00    -0.237 OA
ATOM     71  O   UNL A   1      44.204  26.707  39.375  1.00  0.00    -0.237 OA
ATOM     72  O   UNL A   1      44.064  24.922  37.682  1.00  0.00    -0.744 OA
ENDBRANCH  65  69
ENDBRANCH  39  62
ENDBRANCH  13  14
ENDBRANCH   6   8
ENDBRANCH   3   4
ENDBRANCH   2   3
ENDBRANCH   1   2
BRANCH   1  73
ATOM     73  C   UNL A   1      31.963  29.405  27.158  1.00  0.00     0.002 C 
BRANCH  73  74
ATOM     74  C   UNL A   1      33.232  28.596  26.857  1.00  0.00     0.021 C 
BRANCH  74  75
ATOM     75  C   UNL A   1      33.063  27.381  25.946  1.00  0.00     0.116 C 
BRANCH  75  76
ATOM     76  N   UNL A   1      31.783  26.729  26.136  1.00  0.00    -0.352 N 
ATOM     77  C   UNL A   1      30.922  26.172  25.231  1.00  0.00     0.257 C 
ATOM     78  H   UNL A   1      31.482  26.678  27.072  1.00  0.00     0.163 HD
ATOM     79  O   UNL A   1      29.836  25.774  25.649  1.00  0.00    -0.269 OA
BRANCH  77  80
ATOM     80  C   UNL A   1      31.291  26.057  23.841  1.00  0.00     0.113 A 
ATOM     81  C   UNL A   1      30.876  26.904  22.770  1.00  0.00     0.127 A 
ATOM     82  C   UNL A   1      31.919  25.005  23.204  1.00  0.00     0.175 A 
ATOM     83  N   UNL A   1      31.345  26.459  21.597  1.00  0.00    -0.079 NA
ATOM     84  O   UNL A   1      32.005  25.282  21.873  1.00  0.00    -0.357 OA
BRANCH  81  85
ATOM     85  C   UNL A   1      29.994  28.061  22.832  1.00  0.00     0.005 A 
ATOM     86  C   UNL A   1      30.498  29.362  22.711  1.00  0.00     0.012 A 
ATOM     87  C   UNL A   1      28.628  27.869  23.081  1.00  0.00     0.012 A 
ATOM     88  C   UNL A   1      29.644  30.460  22.860  1.00  0.00     0.021 A 
ATOM     89  C   UNL A   1      27.778  28.965  23.236  1.00  0.00     0.021 A 
ATOM     90  C   UNL A   1      28.291  30.255  23.131  1.00  0.00     0.041 A 
ATOM     91  Cl  UNL A   1      27.249  31.606  23.346  1.00  0.00    -0.084 Cl
ENDBRANCH  81  85
BRANCH  82  92
ATOM     92  C   UNL A   1      32.453  23.686  23.611  1.00  0.00     0.242 C 
BRANCH  92  93
ATOM     93  O   UNL A   1      32.749  23.712  24.997  1.00  0.00    -0.345 OA
BRANCH  93  94
ATOM     94  C   UNL A   1      34.078  23.432  25.431  1.00  0.00     0.250 C 
ATOM     95  C   UNL A   1      35.151  24.164  24.615  1.00  0.00     0.062 C 
ATOM     96  O   UNL A   1      34.367  22.086  25.786  1.00  0.00    -0.353 OA
ATOM     97  C   UNL A   1      35.902  23.291  23.625  1.00  0.00     0.008 C 
ATOM     98  C   UNL A   1      35.027  21.290  24.814  1.00  0.00     0.163 C 
ATOM     99  C   UNL A   1      36.264  21.956  24.248  1.00  0.00     0.029 C 
ENDBRANCH  93  94
ENDBRANCH  92  93
ENDBRANCH  82  92
ENDBRANCH  77  80
ENDBRANCH  75  76
ENDBRANCH  74  75
ENDBRANCH  73  74
ENDBRANCH   1  73
TORSDOF 20
ENDMDL
MODEL 3
REMARK VINA RESULT:     -12.0      5.757     11.575
REMARK SMILES O=C(NCCCCCCNC(=O)c1c(-c2ccc(Cl)cc2)noc1CO[C@@H]1CCCCO1)c1ccc(-c2c3nc(c(-c4cc(S(=O)(=O)[O-])ccc4F)c4ccc([nH]4)c(-c4cc(S(=O)(=O)[O-])ccc4F)c4nc(c(-c5cc(S(=O)(=O)[O-])ccc5F)c5ccc2[nH]5)C=C4)C=C3)cc1
REMARK SMILES IDX 6 1 5 2 4 3 3 4 1 5 2 6 33 8 34 9 95 10 35 11 94 12 36 13
REMARK SMILES IDX 37 14 38 15 88 16 39 17 93 18 87 19 89 20 40 21 92 22 86 23
REMARK SMILES IDX 85 24 41 26 73 27 53 28 72 29 54 30 57 31 71 32 90 33 55 34
REMARK SMILES IDX 56 35 70 37 91 38 58 39 42 40 43 41 51 42 44 43 50 44 52 45
REMARK SMILES IDX 49 46 45 47 46 48 47 49 48 50 74 51 75 52 83 53 76 54 82 55
REMARK SMILES IDX 84 56 81 57 77 58 78 59 79 60 80 61 59 62 60 63 68 64 61 65
REMARK SMILES IDX 67 66 69 67 66 68 62 69 63 70 64 71 65 72 7 73 8 74 9 75
REMARK SMILES IDX 10 76 11 77 12 79 13 80 14 81 24 82 22 83 23 84 15 85 16 86
REMARK SMILES IDX 21 87 17 88 20 89 18 90 19 91 25 92 26 93 27 94 28 95 32 96
REMARK SMILES IDX 29 97 31 98 30 99
REMARK H PARENT 3 7 89 25 57 36 10 78
REMARK Flexibility Score: inf
ROOT
ATOM      1  C   UNL A   1      37.400  21.100  24.625  1.00  0.00     0.002 C 
ENDROOT
BRANCH   1   2
ATOM      2  C   UNL A   1      38.305  19.929  25.012  1.00  0.00     0.021 C 
BRANCH   2   3
ATOM      3  C   UNL A   1      39.330  20.210  26.102  1.00  0.00     0.116 C 
BRANCH   3   4
ATOM      4  N   UNL A   1      40.463  19.303  26.095  1.00  0.00    -0.352 N 
ATOM      5  O   UNL A   1      42.655  18.757  26.096  1.00  0.00    -0.269 OA
ATOM      6  C   UNL A   1      41.796  19.627  26.217  1.00  0.00     0.251 C 
ATOM      7  H   UNL A   1      40.254  18.346  25.993  1.00  0.00     0.163 HD
BRANCH   6   8
ATOM      8  C   UNL A   1      42.189  21.037  26.454  1.00  0.00     0.039 A 
ATOM      9  C   UNL A   1      42.258  21.951  25.400  1.00  0.00     0.014 A 
ATOM     10  C   UNL A   1      42.499  21.446  27.756  1.00  0.00     0.014 A 
ATOM     11  C   UNL A   1      42.749  23.235  25.625  1.00  0.00     0.010 A 
ATOM     12  C   UNL A   1      42.935  22.754  27.990  1.00  0.00     0.010 A 
ATOM     13  C   UNL A   1      43.090  23.650  26.921  1.00  0.00    -0.014 A 
BRANCH  13  14
ATOM     14  C   UNL A   1      43.558  25.043  27.134  1.00  0.00     0.031 A 
ATOM     15  C   UNL A   1      42.663  26.077  27.757  1.00  0.00     0.074 A 
ATOM     16  C   UNL A   1      44.825  25.357  26.799  1.00  0.00     0.049 A 
ATOM     17  N   UNL A   1      42.925  27.325  28.053  1.00  0.00    -0.248 NA
ATOM     18  C   UNL A   1      41.292  25.657  28.084  1.00  0.00     0.031 C 
ATOM     19  C   UNL A   1      45.780  24.439  26.173  1.00  0.00     0.029 A 
ATOM     20  N   UNL A   1      45.534  26.517  26.957  1.00  0.00    -0.354 N 
ATOM     21  C   UNL A   1      41.752  27.847  28.587  1.00  0.00     0.074 A 
ATOM     22  C   UNL A   1      40.770  26.782  28.555  1.00  0.00     0.031 C 
ATOM     23  C   UNL A   1      46.961  25.059  26.037  1.00  0.00     0.029 A 
ATOM     24  C   UNL A   1      46.837  26.428  26.529  1.00  0.00     0.049 A 
ATOM     25  H   UNL A   1      45.148  27.338  27.340  1.00  0.00     0.167 HD
ATOM     26  C   UNL A   1      41.519  29.097  29.061  1.00  0.00     0.034 A 
ATOM     27  C   UNL A   1      47.824  27.343  26.528  1.00  0.00     0.034 A 
ATOM     28  C   UNL A   1      42.504  30.150  29.088  1.00  0.00     0.049 A 
ATOM     29  C   UNL A   1      47.545  28.712  27.083  1.00  0.00     0.074 A 
ATOM     30  C   UNL A   1      42.370  31.452  29.544  1.00  0.00     0.029 A 
ATOM     31  N   UNL A   1      43.813  30.025  28.638  1.00  0.00    -0.354 N 
ATOM     32  N   UNL A   1      46.426  29.189  27.575  1.00  0.00    -0.248 NA
ATOM     33  C   UNL A   1      48.664  29.661  27.085  1.00  0.00     0.031 C 
ATOM     34  C   UNL A   1      43.582  32.122  29.335  1.00  0.00     0.029 A 
ATOM     35  C   UNL A   1      44.489  31.226  28.794  1.00  0.00     0.049 A 
ATOM     36  H   UNL A   1      44.203  29.202  28.264  1.00  0.00     0.167 HD
ATOM     37  C   UNL A   1      46.705  30.502  27.936  1.00  0.00     0.074 A 
ATOM     38  C   UNL A   1      48.105  30.727  27.640  1.00  0.00     0.031 C 
ATOM     39  C   UNL A   1      45.876  31.440  28.458  1.00  0.00     0.034 A 
BRANCH  26  40
ATOM     40  C   UNL A   1      40.124  29.400  29.545  1.00  0.00     0.023 A 
ATOM     41  C   UNL A   1      39.817  29.460  30.915  1.00  0.00     0.031 A 
ATOM     42  C   UNL A   1      39.084  29.612  28.623  1.00  0.00     0.131 A 
ATOM     43  C   UNL A   1      38.492  29.675  31.325  1.00  0.00     0.055 A 
ATOM     44  C   UNL A   1      37.778  29.885  29.038  1.00  0.00     0.041 A 
ATOM     45  F   UNL A   1      39.318  29.546  27.304  1.00  0.00    -0.206 F 
ATOM     46  C   UNL A   1      37.474  29.907  30.396  1.00  0.00     0.022 A 
BRANCH  43  47
ATOM     47  S   UNL A   1      38.096  29.543  33.090  1.00  0.00     0.124 S 
ATOM     48  O   UNL A   1      37.320  28.306  33.127  1.00  0.00    -0.237 OA
ATOM     49  O   UNL A   1      39.415  29.487  33.708  1.00  0.00    -0.237 OA
ATOM     50  O   UNL A   1      37.331  30.759  33.362  1.00  0.00    -0.744 OA
ENDBRANCH  43  47
ENDBRANCH  26  40
BRANCH  27  51
ATOM     51  C   UNL A   1      49.155  27.002  25.964  1.00  0.00     0.023 A 
ATOM     52  C   UNL A   1      49.527  27.422  24.679  1.00  0.00     0.031 A 
ATOM     53  C   UNL A   1      50.073  26.243  26.709  1.00  0.00     0.131 A 
ATOM     54  C   UNL A   1      50.779  27.057  24.163  1.00  0.00     0.055 A 
ATOM     55  C   UNL A   1      51.331  25.911  26.205  1.00  0.00     0.041 A 
ATOM     56  F   UNL A   1      49.764  25.831  27.947  1.00  0.00    -0.206 F 
ATOM     57  C   UNL A   1      51.685  26.311  24.920  1.00  0.00     0.022 A 
BRANCH  54  58
ATOM     58  S   UNL A   1      51.188  27.528  22.461  1.00  0.00     0.124 S 
ATOM     59  O   UNL A   1      52.571  27.079  22.346  1.00  0.00    -0.237 OA
ATOM     60  O   UNL A   1      50.206  26.769  21.695  1.00  0.00    -0.237 OA
ATOM     61  O   UNL A   1      50.999  28.977  22.452  1.00  0.00    -0.744 OA
ENDBRANCH  54  58
ENDBRANCH  27  51
BRANCH  39  62
ATOM     62  C   UNL A   1      46.485  32.789  28.726  1.00  0.00     0.023 A 
ATOM     63  C   UNL A   1      47.012  33.109  29.989  1.00  0.00     0.031 A 
ATOM     64  C   UNL A   1      46.493  33.779  27.729  1.00  0.00     0.131 A 
ATOM     65  C   UNL A   1      47.475  34.408  30.242  1.00  0.00     0.055 A 
ATOM     66  C   UNL A   1      46.994  35.057  27.974  1.00  0.00     0.041 A 
ATOM     67  F   UNL A   1      45.997  33.521  26.508  1.00  0.00    -0.206 F 
ATOM     68  C   UNL A   1      47.477  35.382  29.240  1.00  0.00     0.022 A 
BRANCH  65  69
ATOM     69  S   UNL A   1      47.991  34.834  31.927  1.00  0.00     0.124 S 
ATOM     70  O   UNL A   1      47.646  33.624  32.668  1.00  0.00    -0.237 OA
ATOM     71  O   UNL A   1      49.417  35.092  31.761  1.00  0.00    -0.237 OA
ATOM     72  O   UNL A   1      47.182  36.008  32.249  1.00  0.00    -0.744 OA
ENDBRANCH  65  69
ENDBRANCH  39  62
ENDBRANCH  13  14
ENDBRANCH   6   8
ENDBRANCH   3   4
ENDBRANCH   2   3
ENDBRANCH   1   2
BRANCH   1  73
ATOM     73  C   UNL A   1      37.331  22.275  25.605  1.00  0.00     0.002 C 
BRANCH  73  74
ATOM     74  C   UNL A   1      37.050  23.664  25.018  1.00  0.00     0.021 C 
BRANCH  74  75
ATOM     75  C   UNL A   1      35.647  24.227  25.245  1.00  0.00     0.116 C 
BRANCH  75  76
ATOM     76  N   UNL A   1      34.732  23.858  24.184  1.00  0.00    -0.352 N 
ATOM     77  C   UNL A   1      33.447  23.393  24.233  1.00  0.00     0.257 C 
ATOM     78  H   UNL A   1      35.095  23.960  23.274  1.00  0.00     0.163 HD
ATOM     79  O   UNL A   1      32.924  23.050  23.176  1.00  0.00    -0.269 OA
BRANCH  77  80
ATOM     80  C   UNL A   1      32.742  23.319  25.490  1.00  0.00     0.113 A 
ATOM     81  C   UNL A   1      31.923  24.329  26.076  1.00  0.00     0.127 A 
ATOM     82  C   UNL A   1      32.876  22.381  26.495  1.00  0.00     0.175 A 
ATOM     83  N   UNL A   1      31.488  23.954  27.286  1.00  0.00    -0.079 NA
ATOM     84  O   UNL A   1      32.073  22.733  27.538  1.00  0.00    -0.357 OA
BRANCH  81  85
ATOM     85  C   UNL A   1      31.616  25.652  25.550  1.00  0.00     0.005 A 
ATOM     86  C   UNL A   1      31.979  26.811  26.246  1.00  0.00     0.012 A 
ATOM     87  C   UNL A   1      30.888  25.762  24.356  1.00  0.00     0.012 A 
ATOM     88  C   UNL A   1      31.598  28.066  25.763  1.00  0.00     0.021 A 
ATOM     89  C   UNL A   1      30.501  27.015  23.879  1.00  0.00     0.021 A 
ATOM     90  C   UNL A   1      30.853  28.161  24.587  1.00  0.00     0.041 A 
ATOM     91  Cl  UNL A   1      30.357  29.704  24.012  1.00  0.00    -0.084 Cl
ENDBRANCH  81  85
BRANCH  82  92
ATOM     92  C   UNL A   1      33.688  21.162  26.706  1.00  0.00     0.242 C 
BRANCH  92  93
ATOM     93  O   UNL A   1      33.123  20.093  25.967  1.00  0.00    -0.345 OA
BRANCH  93  94
ATOM     94  C   UNL A   1      33.658  19.771  24.686  1.00  0.00     0.250 C 
ATOM     95  C   UNL A   1      32.582  19.545  23.617  1.00  0.00     0.062 C 
ATOM     96  O   UNL A   1      34.768  18.882  24.659  1.00  0.00    -0.353 OA
ATOM     97  C   UNL A   1      32.346  18.091  23.249  1.00  0.00     0.008 C 
ATOM     98  C   UNL A   1      34.498  17.522  24.358  1.00  0.00     0.163 C 
ATOM     99  C   UNL A   1      33.662  17.349  23.107  1.00  0.00     0.029 C 
ENDBRANCH  93  94
ENDBRANCH  92  93
ENDBRANCH  82  92
ENDBRANCH  77  80
ENDBRANCH  75  76
ENDBRANCH  74  75
ENDBRANCH  73  74
ENDBRANCH   1  73
TORSDOF 20
ENDMDL
