MODEL 1
REMARK VINA RESULT:     -11.8      0.000      0.000
REMARK SMILES Cc1cc(Oc2ccnc(C(=O)NCCCCCCNC(=O)c3ccc(-c4c5nc(c(-c6cc(S(=O)(=O)[O-])ccc6F)c6ccc([nH]6)c(-c6cc(S(=O)(=O)[O-])ccc6F)c6nc(c(-c7cc(S(=O)(=O)[O-])ccc7F)c7ccc4[nH]7)C=C6)C=C5)cc3)c2)cc(C)c1Cl
REMARK SMILES IDX 17 1 16 2 15 3 14 4 13 5 11 6 12 7 10 9 6 10 7 11 86 12 8 13
REMARK SMILES IDX 9 14 5 15 4 16 1 17 2 18 3 19 90 20 88 21 91 22 87 23 89 24
REMARK SMILES IDX 18 25 19 26 20 27 21 28 22 30 23 31 24 32 85 33 25 34 84 35
REMARK SMILES IDX 26 36 27 37 28 38 78 39 29 40 83 41 77 42 79 43 30 44 82 45
REMARK SMILES IDX 76 46 75 47 31 49 63 50 43 51 62 52 44 53 47 54 61 55 80 56
REMARK SMILES IDX 45 57 46 58 60 60 81 61 48 62 32 63 33 64 41 65 34 66 40 67
REMARK SMILES IDX 42 68 39 69 35 70 36 71 37 72 38 73 64 74 65 75 73 76 66 77
REMARK SMILES IDX 72 78 74 79 71 80 67 81 68 82 69 83 70 84 49 85 50 86 58 87
REMARK SMILES IDX 51 88 57 89 59 90 56 91 52 92 53 93 54 94 55 95
REMARK H PARENT 13 8 20 29 79 48 47 59
REMARK Flexibility Score: inf
ROOT
ATOM      1  C   UNL A   1      32.839  27.201  25.982  1.00  0.00     0.002 C 
ENDROOT
BRANCH   1   2
ATOM      2  C   UNL A   1      33.815  27.456  24.825  1.00  0.00     0.002 C 
BRANCH   2   3
ATOM      3  C   UNL A   1      33.803  28.888  24.269  1.00  0.00     0.021 C 
BRANCH   3   4
ATOM      4  C   UNL A   1      33.666  28.946  22.748  1.00  0.00     0.116 C 
BRANCH   4   5
ATOM      5  N   UNL A   1      32.299  29.237  22.366  1.00  0.00    -0.351 N 
ATOM      6  C   UNL A   1      31.123  28.533  22.283  1.00  0.00     0.270 C 
ATOM      7  O   UNL A   1      30.160  29.192  21.875  1.00  0.00    -0.268 OA
ATOM      8  H   UNL A   1      32.184  30.177  22.098  1.00  0.00     0.163 HD
BRANCH   6   9
ATOM      9  C   UNL A   1      30.914  27.085  22.659  1.00  0.00     0.131 A 
ATOM     10  C   UNL A   1      31.363  24.741  22.705  1.00  0.00     0.131 A 
ATOM     11  C   UNL A   1      30.362  24.551  23.643  1.00  0.00     0.067 A 
ATOM     12  C   UNL A   1      31.647  26.008  22.199  1.00  0.00     0.081 A 
ATOM     13  C   UNL A   1      29.635  25.660  24.009  1.00  0.00     0.116 A 
ATOM     14  N   UNL A   1      29.891  26.902  23.548  1.00  0.00    -0.251 NA
BRANCH  10  15
ATOM     15  O   UNL A   1      32.155  23.693  22.309  1.00  0.00    -0.457 OA
BRANCH  15  16
ATOM     16  C   UNL A   1      33.062  23.186  23.217  1.00  0.00     0.128 A 
ATOM     17  C   UNL A   1      36.113  24.110  25.273  1.00  0.00     0.046 C 
ATOM     18  C   UNL A   1      34.998  23.288  24.687  1.00  0.00    -0.028 A 
ATOM     19  C   UNL A   1      34.077  23.916  23.835  1.00  0.00     0.052 A 
ATOM     20  C   UNL A   1      34.873  21.907  24.933  1.00  0.00     0.047 A 
ATOM     21  C   UNL A   1      33.826  21.168  24.351  1.00  0.00    -0.028 A 
ATOM     22  Cl  UNL A   1      36.036  21.110  25.943  1.00  0.00    -0.084 Cl
ATOM     23  C   UNL A   1      32.935  21.821  23.483  1.00  0.00     0.052 A 
ATOM     24  C   UNL A   1      33.651  19.694  24.603  1.00  0.00     0.046 C 
ENDBRANCH  15  16
ENDBRANCH  10  15
ENDBRANCH   6   9
ENDBRANCH   4   5
ENDBRANCH   3   4
ENDBRANCH   2   3
ENDBRANCH   1   2
BRANCH   1  25
ATOM     25  C   UNL A   1      31.687  28.205  26.093  1.00  0.00     0.021 C 
BRANCH  25  26
ATOM     26  C   UNL A   1      31.812  29.176  27.261  1.00  0.00     0.116 C 
BRANCH  26  27
ATOM     27  N   UNL A   1      31.822  30.556  26.806  1.00  0.00    -0.352 N 
ATOM     28  C   UNL A   1      32.689  31.571  27.128  1.00  0.00     0.251 C 
ATOM     29  H   UNL A   1      31.105  30.799  26.178  1.00  0.00     0.163 HD
ATOM     30  O   UNL A   1      32.394  32.731  26.858  1.00  0.00    -0.269 OA
BRANCH  28  31
ATOM     31  C   UNL A   1      33.963  31.259  27.809  1.00  0.00     0.039 A 
ATOM     32  C   UNL A   1      34.708  32.302  28.365  1.00  0.00     0.014 A 
ATOM     33  C   UNL A   1      34.434  29.944  27.880  1.00  0.00     0.014 A 
ATOM     34  C   UNL A   1      35.901  32.019  29.034  1.00  0.00     0.010 A 
ATOM     35  C   UNL A   1      35.584  29.656  28.611  1.00  0.00     0.010 A 
ATOM     36  C   UNL A   1      36.335  30.692  29.187  1.00  0.00    -0.014 A 
BRANCH  36  37
ATOM     37  C   UNL A   1      37.584  30.369  29.926  1.00  0.00     0.031 A 
ATOM     38  C   UNL A   1      38.628  29.494  29.286  1.00  0.00     0.074 A 
ATOM     39  C   UNL A   1      37.752  30.821  31.184  1.00  0.00     0.049 A 
ATOM     40  N   UNL A   1      39.745  29.033  29.790  1.00  0.00    -0.248 NA
ATOM     41  C   UNL A   1      38.368  29.058  27.906  1.00  0.00     0.031 C 
ATOM     42  C   UNL A   1      36.797  31.654  31.918  1.00  0.00     0.029 A 
ATOM     43  N   UNL A   1      38.783  30.641  32.073  1.00  0.00    -0.354 N 
ATOM     44  C   UNL A   1      40.315  28.248  28.794  1.00  0.00     0.074 A 
ATOM     45  C   UNL A   1      39.387  28.242  27.683  1.00  0.00     0.031 C 
ATOM     46  C   UNL A   1      37.298  31.935  33.132  1.00  0.00     0.029 A 
ATOM     47  C   UNL A   1      38.585  31.261  33.285  1.00  0.00     0.049 A 
ATOM     48  H   UNL A   1      39.589  30.116  31.862  1.00  0.00     0.167 HD
ATOM     49  C   UNL A   1      41.513  27.613  28.796  1.00  0.00     0.034 A 
ATOM     50  C   UNL A   1      39.345  31.274  34.398  1.00  0.00     0.034 A 
ATOM     51  C   UNL A   1      42.431  27.639  29.909  1.00  0.00     0.049 A 
ATOM     52  C   UNL A   1      40.655  30.524  34.389  1.00  0.00     0.074 A 
ATOM     53  C   UNL A   1      43.686  27.062  30.005  1.00  0.00     0.029 A 
ATOM     54  N   UNL A   1      42.191  28.270  31.123  1.00  0.00    -0.354 N 
ATOM     55  N   UNL A   1      41.198  29.817  33.424  1.00  0.00    -0.248 NA
ATOM     56  C   UNL A   1      41.461  30.583  35.616  1.00  0.00     0.031 C 
ATOM     57  C   UNL A   1      44.173  27.285  31.296  1.00  0.00     0.029 A 
ATOM     58  C   UNL A   1      43.262  28.073  31.981  1.00  0.00     0.049 A 
ATOM     59  H   UNL A   1      41.381  28.784  31.342  1.00  0.00     0.167 HD
ATOM     60  C   UNL A   1      42.425  29.382  33.917  1.00  0.00     0.074 A 
ATOM     61  C   UNL A   1      42.547  29.917  35.256  1.00  0.00     0.031 C 
ATOM     62  C   UNL A   1      43.368  28.612  33.317  1.00  0.00     0.034 A 
BRANCH  49  63
ATOM     63  C   UNL A   1      41.885  26.823  27.563  1.00  0.00     0.023 A 
ATOM     64  C   UNL A   1      41.619  25.446  27.459  1.00  0.00     0.031 A 
ATOM     65  C   UNL A   1      42.528  27.450  26.481  1.00  0.00     0.131 A 
ATOM     66  C   UNL A   1      42.057  24.730  26.336  1.00  0.00     0.055 A 
ATOM     67  C   UNL A   1      42.886  26.747  25.329  1.00  0.00     0.041 A 
ATOM     68  F   UNL A   1      42.831  28.758  26.529  1.00  0.00    -0.206 F 
ATOM     69  C   UNL A   1      42.663  25.375  25.257  1.00  0.00     0.022 A 
BRANCH  66  70
ATOM     70  S   UNL A   1      41.945  22.920  26.368  1.00  0.00     0.124 S 
ATOM     71  O   UNL A   1      40.500  22.716  26.434  1.00  0.00    -0.237 OA
ATOM     72  O   UNL A   1      42.588  22.541  25.115  1.00  0.00    -0.237 OA
ATOM     73  O   UNL A   1      42.675  22.553  27.580  1.00  0.00    -0.744 OA
ENDBRANCH  66  70
ENDBRANCH  49  63
BRANCH  50  74
ATOM     74  C   UNL A   1      38.898  32.005  35.619  1.00  0.00     0.023 A 
ATOM     75  C   UNL A   1      38.320  31.320  36.699  1.00  0.00     0.031 A 
ATOM     76  C   UNL A   1      38.981  33.407  35.699  1.00  0.00     0.131 A 
ATOM     77  C   UNL A   1      37.791  32.038  37.784  1.00  0.00     0.055 A 
ATOM     78  C   UNL A   1      38.512  34.113  36.809  1.00  0.00     0.041 A 
ATOM     79  F   UNL A   1      39.527  34.114  34.697  1.00  0.00    -0.206 F 
ATOM     80  C   UNL A   1      37.896  33.429  37.852  1.00  0.00     0.022 A 
BRANCH  77  81
ATOM     81  S   UNL A   1      36.860  31.134  39.050  1.00  0.00     0.124 S 
ATOM     82  O   UNL A   1      35.653  31.944  39.165  1.00  0.00    -0.237 OA
ATOM     83  O   UNL A   1      36.699  29.823  38.428  1.00  0.00    -0.237 OA
ATOM     84  O   UNL A   1      37.747  31.165  40.211  1.00  0.00    -0.744 OA
ENDBRANCH  77  81
ENDBRANCH  50  74
BRANCH  62  85
ATOM     85  C   UNL A   1      44.640  28.356  34.089  1.00  0.00     0.023 A 
ATOM     86  C   UNL A   1      44.788  27.238  34.930  1.00  0.00     0.031 A 
ATOM     87  C   UNL A   1      45.719  29.253  33.988  1.00  0.00     0.131 A 
ATOM     88  C   UNL A   1      45.961  27.079  35.680  1.00  0.00     0.055 A 
ATOM     89  C   UNL A   1      46.910  29.053  34.687  1.00  0.00     0.041 A 
ATOM     90  F   UNL A   1      45.634  30.339  33.202  1.00  0.00    -0.206 F 
ATOM     91  C   UNL A   1      47.031  27.968  35.551  1.00  0.00     0.022 A 
BRANCH  88  92
ATOM     92  S   UNL A   1      46.035  25.744  36.906  1.00  0.00     0.124 S 
ATOM     93  O   UNL A   1      47.472  25.612  37.124  1.00  0.00    -0.237 OA
ATOM     94  O   UNL A   1      45.271  26.300  38.019  1.00  0.00    -0.237 OA
ATOM     95  O   UNL A   1      45.404  24.616  36.224  1.00  0.00    -0.744 OA
ENDBRANCH  88  92
ENDBRANCH  62  85
ENDBRANCH  36  37
ENDBRANCH  28  31
ENDBRANCH  26  27
ENDBRANCH  25  26
ENDBRANCH   1  25
TORSDOF 18
ENDMDL
MODEL 2
REMARK VINA RESULT:     -11.7      0.767      7.455
REMARK SMILES Cc1cc(Oc2ccnc(C(=O)NCCCCCCNC(=O)c3ccc(-c4c5nc(c(-c6cc(S(=O)(=O)[O-])ccc6F)c6ccc([nH]6)c(-c6cc(S(=O)(=O)[O-])ccc6F)c6nc(c(-c7cc(S(=O)(=O)[O-])ccc7F)c7ccc4[nH]7)C=C6)C=C5)cc3)c2)cc(C)c1Cl
REMARK SMILES IDX 17 1 16 2 15 3 14 4 13 5 11 6 12 7 10 9 6 10 7 11 86 12 8 13
REMARK SMILES IDX 9 14 5 15 4 16 1 17 2 18 3 19 90 20 88 21 91 22 87 23 89 24
REMARK SMILES IDX 18 25 19 26 20 27 21 28 22 30 23 31 24 32 85 33 25 34 84 35
REMARK SMILES IDX 26 36 27 37 28 38 78 39 29 40 83 41 77 42 79 43 30 44 82 45
REMARK SMILES IDX 76 46 75 47 31 49 63 50 43 51 62 52 44 53 47 54 61 55 80 56
REMARK SMILES IDX 45 57 46 58 60 60 81 61 48 62 32 63 33 64 41 65 34 66 40 67
REMARK SMILES IDX 42 68 39 69 35 70 36 71 37 72 38 73 64 74 65 75 73 76 66 77
REMARK SMILES IDX 72 78 74 79 71 80 67 81 68 82 69 83 70 84 49 85 50 86 58 87
REMARK SMILES IDX 51 88 57 89 59 90 56 91 52 92 53 93 54 94 55 95
REMARK H PARENT 13 8 20 29 79 48 47 59
REMARK Flexibility Score: inf
ROOT
ATOM      1  C   UNL A   1      32.844  27.085  26.003  1.00  0.00     0.002 C 
ENDROOT
BRANCH   1   2
ATOM      2  C   UNL A   1      33.730  27.389  24.787  1.00  0.00     0.002 C 
BRANCH   2   3
ATOM      3  C   UNL A   1      33.668  28.838  24.284  1.00  0.00     0.021 C 
BRANCH   3   4
ATOM      4  C   UNL A   1      33.611  28.949  22.761  1.00  0.00     0.116 C 
BRANCH   4   5
ATOM      5  N   UNL A   1      32.276  29.299  22.321  1.00  0.00    -0.351 N 
ATOM      6  C   UNL A   1      31.061  28.664  22.242  1.00  0.00     0.270 C 
ATOM      7  O   UNL A   1      30.152  29.355  21.767  1.00  0.00    -0.268 OA
ATOM      8  H   UNL A   1      32.228  30.227  21.995  1.00  0.00     0.163 HD
BRANCH   6   9
ATOM      9  C   UNL A   1      30.751  27.256  22.695  1.00  0.00     0.131 A 
ATOM     10  C   UNL A   1      31.083  24.906  22.939  1.00  0.00     0.131 A 
ATOM     11  C   UNL A   1      29.996  24.824  23.794  1.00  0.00     0.067 A 
ATOM     12  C   UNL A   1      31.470  26.120  22.377  1.00  0.00     0.081 A 
ATOM     13  C   UNL A   1      29.294  25.985  24.017  1.00  0.00     0.116 A 
ATOM     14  N   UNL A   1      29.648  27.180  23.498  1.00  0.00    -0.251 NA
BRANCH  10  15
ATOM     15  O   UNL A   1      31.856  23.799  22.688  1.00  0.00    -0.457 OA
BRANCH  15  16
ATOM     16  C   UNL A   1      32.906  23.534  23.542  1.00  0.00     0.128 A 
ATOM     17  C   UNL A   1      33.803  23.216  27.215  1.00  0.00     0.046 C 
ATOM     18  C   UNL A   1      33.955  23.244  25.718  1.00  0.00    -0.028 A 
ATOM     19  C   UNL A   1      32.810  23.441  24.931  1.00  0.00     0.052 A 
ATOM     20  C   UNL A   1      35.208  23.118  25.088  1.00  0.00     0.047 A 
ATOM     21  C   UNL A   1      35.311  23.167  23.685  1.00  0.00    -0.028 A 
ATOM     22  Cl  UNL A   1      36.636  22.926  26.053  1.00  0.00    -0.084 Cl
ATOM     23  C   UNL A   1      34.151  23.390  22.926  1.00  0.00     0.052 A 
ATOM     24  C   UNL A   1      36.630  23.021  22.974  1.00  0.00     0.046 C 
ENDBRANCH  15  16
ENDBRANCH  10  15
ENDBRANCH   6   9
ENDBRANCH   4   5
ENDBRANCH   3   4
ENDBRANCH   2   3
ENDBRANCH   1   2
BRANCH   1  25
ATOM     25  C   UNL A   1      31.653  28.030  26.190  1.00  0.00     0.021 C 
BRANCH  25  26
ATOM     26  C   UNL A   1      31.795  28.994  27.362  1.00  0.00     0.116 C 
BRANCH  26  27
ATOM     27  N   UNL A   1      31.847  30.375  26.912  1.00  0.00    -0.352 N 
ATOM     28  C   UNL A   1      32.750  31.359  27.230  1.00  0.00     0.251 C 
ATOM     29  H   UNL A   1      31.133  30.644  26.291  1.00  0.00     0.163 HD
ATOM     30  O   UNL A   1      32.491  32.529  26.967  1.00  0.00    -0.269 OA
BRANCH  28  31
ATOM     31  C   UNL A   1      34.019  31.003  27.899  1.00  0.00     0.039 A 
ATOM     32  C   UNL A   1      34.618  31.929  28.755  1.00  0.00     0.014 A 
ATOM     33  C   UNL A   1      34.629  29.766  27.664  1.00  0.00     0.014 A 
ATOM     34  C   UNL A   1      35.804  31.596  29.414  1.00  0.00     0.010 A 
ATOM     35  C   UNL A   1      35.770  29.408  28.378  1.00  0.00     0.010 A 
ATOM     36  C   UNL A   1      36.375  30.323  29.252  1.00  0.00    -0.014 A 
BRANCH  36  37
ATOM     37  C   UNL A   1      37.618  29.939  29.972  1.00  0.00     0.031 A 
ATOM     38  C   UNL A   1      37.836  30.397  31.389  1.00  0.00     0.074 A 
ATOM     39  C   UNL A   1      38.565  29.222  29.334  1.00  0.00     0.049 A 
ATOM     40  N   UNL A   1      38.882  30.237  32.159  1.00  0.00    -0.248 NA
ATOM     41  C   UNL A   1      36.745  31.162  32.010  1.00  0.00     0.031 C 
ATOM     42  C   UNL A   1      38.477  28.745  27.952  1.00  0.00     0.029 A 
ATOM     43  N   UNL A   1      39.791  28.775  29.760  1.00  0.00    -0.354 N 
ATOM     44  C   UNL A   1      38.577  30.885  33.352  1.00  0.00     0.074 A 
ATOM     45  C   UNL A   1      37.278  31.498  33.175  1.00  0.00     0.031 C 
ATOM     46  C   UNL A   1      39.586  28.050  27.654  1.00  0.00     0.029 A 
ATOM     47  C   UNL A   1      40.488  28.073  28.803  1.00  0.00     0.049 A 
ATOM     48  H   UNL A   1      40.139  28.940  30.666  1.00  0.00     0.167 HD
ATOM     49  C   UNL A   1      39.303  30.942  34.496  1.00  0.00     0.034 A 
ATOM     50  C   UNL A   1      41.719  27.524  28.841  1.00  0.00     0.034 A 
ATOM     51  C   UNL A   1      40.593  30.316  34.657  1.00  0.00     0.049 A 
ATOM     52  C   UNL A   1      42.524  27.638  30.113  1.00  0.00     0.074 A 
ATOM     53  C   UNL A   1      41.398  30.278  35.783  1.00  0.00     0.029 A 
ATOM     54  N   UNL A   1      41.270  29.621  33.663  1.00  0.00    -0.354 N 
ATOM     55  N   UNL A   1      42.205  28.223  31.245  1.00  0.00    -0.248 NA
ATOM     56  C   UNL A   1      43.850  27.007  30.116  1.00  0.00     0.031 C 
ATOM     57  C   UNL A   1      42.587  29.624  35.450  1.00  0.00     0.029 A 
ATOM     58  C   UNL A   1      42.493  29.177  34.142  1.00  0.00     0.049 A 
ATOM     59  H   UNL A   1      40.932  29.465  32.753  1.00  0.00     0.167 HD
ATOM     60  C   UNL A   1      43.276  27.995  32.104  1.00  0.00     0.074 A 
ATOM     61  C   UNL A   1      44.240  27.208  31.365  1.00  0.00     0.031 C 
ATOM     62  C   UNL A   1      43.447  28.395  33.390  1.00  0.00     0.034 A 
BRANCH  49  63
ATOM     63  C   UNL A   1      38.723  31.724  35.650  1.00  0.00     0.023 A 
ATOM     64  C   UNL A   1      38.179  31.083  36.778  1.00  0.00     0.031 A 
ATOM     65  C   UNL A   1      38.698  33.129  35.620  1.00  0.00     0.131 A 
ATOM     66  C   UNL A   1      37.571  31.840  37.790  1.00  0.00     0.055 A 
ATOM     67  C   UNL A   1      38.167  33.881  36.671  1.00  0.00     0.041 A 
ATOM     68  F   UNL A   1      39.182  33.799  34.561  1.00  0.00    -0.206 F 
ATOM     69  C   UNL A   1      37.586  33.235  37.758  1.00  0.00     0.022 A 
BRANCH  66  70
ATOM     70  S   UNL A   1      36.639  30.969  39.079  1.00  0.00     0.124 S 
ATOM     71  O   UNL A   1      35.469  31.831  39.228  1.00  0.00    -0.237 OA
ATOM     72  O   UNL A   1      36.400  29.665  38.472  1.00  0.00    -0.237 OA
ATOM     73  O   UNL A   1      37.552  30.968  40.221  1.00  0.00    -0.744 OA
ENDBRANCH  66  70
ENDBRANCH  49  63
BRANCH  50  74
ATOM     74  C   UNL A   1      42.280  26.828  27.647  1.00  0.00     0.023 A 
ATOM     75  C   UNL A   1      42.169  25.436  27.505  1.00  0.00     0.031 A 
ATOM     76  C   UNL A   1      42.993  27.534  26.661  1.00  0.00     0.131 A 
ATOM     77  C   UNL A   1      42.813  24.785  26.441  1.00  0.00     0.055 A 
ATOM     78  C   UNL A   1      43.577  26.891  25.568  1.00  0.00     0.041 A 
ATOM     79  F   UNL A   1      43.129  28.868  26.744  1.00  0.00    -0.206 F 
ATOM     80  C   UNL A   1      43.504  25.505  25.463  1.00  0.00     0.022 A 
BRANCH  77  81
ATOM     81  S   UNL A   1      42.829  22.973  26.416  1.00  0.00     0.124 S 
ATOM     82  O   UNL A   1      44.136  22.681  26.995  1.00  0.00    -0.237 OA
ATOM     83  O   UNL A   1      41.672  22.649  27.244  1.00  0.00    -0.237 OA
ATOM     84  O   UNL A   1      42.689  22.651  24.997  1.00  0.00    -0.744 OA
ENDBRANCH  77  81
ENDBRANCH  50  74
BRANCH  62  85
ATOM     85  C   UNL A   1      44.702  27.935  34.093  1.00  0.00     0.023 A 
ATOM     86  C   UNL A   1      44.751  26.729  34.814  1.00  0.00     0.031 A 
ATOM     87  C   UNL A   1      45.866  28.724  34.046  1.00  0.00     0.131 A 
ATOM     88  C   UNL A   1      45.918  26.377  35.507  1.00  0.00     0.055 A 
ATOM     89  C   UNL A   1      47.044  28.337  34.683  1.00  0.00     0.041 A 
ATOM     90  F   UNL A   1      45.876  29.888  33.374  1.00  0.00    -0.206 F 
ATOM     91  C   UNL A   1      47.071  27.163  35.431  1.00  0.00     0.022 A 
BRANCH  88  92
ATOM     92  S   UNL A   1      45.880  24.925  36.593  1.00  0.00     0.124 S 
ATOM     93  O   UNL A   1      44.542  25.010  37.167  1.00  0.00    -0.237 OA
ATOM     94  O   UNL A   1      46.103  23.829  35.655  1.00  0.00    -0.237 OA
ATOM     95  O   UNL A   1      46.975  25.168  37.531  1.00  0.00    -0.744 OA
ENDBRANCH  88  92
ENDBRANCH  62  85
ENDBRANCH  36  37
ENDBRANCH  28  31
ENDBRANCH  26  27
ENDBRANCH  25  26
ENDBRANCH   1  25
TORSDOF 18
ENDMDL
MODEL 3
REMARK VINA RESULT:     -11.7      5.230      7.953
REMARK SMILES Cc1cc(Oc2ccnc(C(=O)NCCCCCCNC(=O)c3ccc(-c4c5nc(c(-c6cc(S(=O)(=O)[O-])ccc6F)c6ccc([nH]6)c(-c6cc(S(=O)(=O)[O-])ccc6F)c6nc(c(-c7cc(S(=O)(=O)[O-])ccc7F)c7ccc4[nH]7)C=C6)C=C5)cc3)c2)cc(C)c1Cl
REMARK SMILES IDX 17 1 16 2 15 3 14 4 13 5 11 6 12 7 10 9 6 10 7 11 86 12 8 13
REMARK SMILES IDX 9 14 5 15 4 16 1 17 2 18 3 19 90 20 88 21 91 22 87 23 89 24
REMARK SMILES IDX 18 25 19 26 20 27 21 28 22 30 23 31 24 32 85 33 25 34 84 35
REMARK SMILES IDX 26 36 27 37 28 38 78 39 29 40 83 41 77 42 79 43 30 44 82 45
REMARK SMILES IDX 76 46 75 47 31 49 63 50 43 51 62 52 44 53 47 54 61 55 80 56
REMARK SMILES IDX 45 57 46 58 60 60 81 61 48 62 32 63 33 64 41 65 34 66 40 67
REMARK SMILES IDX 42 68 39 69 35 70 36 71 37 72 38 73 64 74 65 75 73 76 66 77
REMARK SMILES IDX 72 78 74 79 71 80 67 81 68 82 69 83 70 84 49 85 50 86 58 87
REMARK SMILES IDX 51 88 57 89 59 90 56 91 52 92 53 93 54 94 55 95
REMARK H PARENT 13 8 20 29 79 48 47 59
REMARK Flexibility Score: inf
ROOT
ATOM      1  C   UNL A   1      35.283  21.504  25.058  1.00  0.00     0.002 C 
ENDROOT
BRANCH   1   2
ATOM      2  C   UNL A   1      35.520  22.806  25.837  1.00  0.00     0.002 C 
BRANCH   2   3
ATOM      3  C   UNL A   1      34.933  22.829  27.255  1.00  0.00     0.021 C 
BRANCH   3   4
ATOM      4  C   UNL A   1      33.882  21.746  27.495  1.00  0.00     0.116 C 
BRANCH   4   5
ATOM      5  N   UNL A   1      32.562  22.329  27.618  1.00  0.00    -0.351 N 
ATOM      6  C   UNL A   1      31.721  23.056  26.811  1.00  0.00     0.270 C 
ATOM      7  O   UNL A   1      30.653  23.379  27.343  1.00  0.00    -0.268 OA
ATOM      8  H   UNL A   1      32.167  22.163  28.504  1.00  0.00     0.163 HD
BRANCH   6   9
ATOM      9  C   UNL A   1      31.974  23.454  25.376  1.00  0.00     0.131 A 
ATOM     10  C   UNL A   1      32.680  24.856  23.578  1.00  0.00     0.131 A 
ATOM     11  C   UNL A   1      32.461  23.833  22.672  1.00  0.00     0.067 A 
ATOM     12  C   UNL A   1      32.436  24.681  24.939  1.00  0.00     0.081 A 
ATOM     13  C   UNL A   1      31.946  22.660  23.172  1.00  0.00     0.116 A 
ATOM     14  N   UNL A   1      31.708  22.452  24.484  1.00  0.00    -0.251 NA
BRANCH  10  15
ATOM     15  O   UNL A   1      33.223  26.048  23.166  1.00  0.00    -0.457 OA
BRANCH  15  16
ATOM     16  C   UNL A   1      32.991  27.168  23.937  1.00  0.00     0.128 A 
ATOM     17  C   UNL A   1      34.244  29.047  26.984  1.00  0.00     0.046 C 
ATOM     18  C   UNL A   1      33.404  28.691  25.789  1.00  0.00    -0.028 A 
ATOM     19  C   UNL A   1      33.770  27.576  25.019  1.00  0.00     0.052 A 
ATOM     20  C   UNL A   1      32.245  29.413  25.442  1.00  0.00     0.047 A 
ATOM     21  C   UNL A   1      31.475  29.037  24.326  1.00  0.00    -0.028 A 
ATOM     22  Cl  UNL A   1      31.754  30.761  26.416  1.00  0.00    -0.084 Cl
ATOM     23  C   UNL A   1      31.854  27.902  23.590  1.00  0.00     0.052 A 
ATOM     24  C   UNL A   1      30.240  29.793  23.915  1.00  0.00     0.046 C 
ENDBRANCH  15  16
ENDBRANCH  10  15
ENDBRANCH   6   9
ENDBRANCH   4   5
ENDBRANCH   3   4
ENDBRANCH   2   3
ENDBRANCH   1   2
BRANCH   1  25
ATOM     25  C   UNL A   1      36.488  20.559  24.994  1.00  0.00     0.021 C 
BRANCH  25  26
ATOM     26  C   UNL A   1      37.822  21.221  25.316  1.00  0.00     0.116 C 
BRANCH  26  27
ATOM     27  N   UNL A   1      38.753  20.279  25.912  1.00  0.00    -0.352 N 
ATOM     28  C   UNL A   1      39.988  20.510  26.467  1.00  0.00     0.251 C 
ATOM     29  H   UNL A   1      38.458  19.340  25.921  1.00  0.00     0.163 HD
ATOM     30  O   UNL A   1      40.743  19.568  26.683  1.00  0.00    -0.269 OA
BRANCH  28  31
ATOM     31  C   UNL A   1      40.403  21.893  26.785  1.00  0.00     0.039 A 
ATOM     32  C   UNL A   1      41.363  22.101  27.778  1.00  0.00     0.014 A 
ATOM     33  C   UNL A   1      39.830  22.983  26.121  1.00  0.00     0.014 A 
ATOM     34  C   UNL A   1      41.783  23.401  28.071  1.00  0.00     0.010 A 
ATOM     35  C   UNL A   1      40.304  24.270  26.362  1.00  0.00     0.010 A 
ATOM     36  C   UNL A   1      41.277  24.493  27.347  1.00  0.00    -0.014 A 
BRANCH  36  37
ATOM     37  C   UNL A   1      41.738  25.880  27.621  1.00  0.00     0.031 A 
ATOM     38  C   UNL A   1      43.093  26.328  27.143  1.00  0.00     0.074 A 
ATOM     39  C   UNL A   1      40.960  26.714  28.340  1.00  0.00     0.049 A 
ATOM     40  N   UNL A   1      43.709  27.464  27.347  1.00  0.00    -0.248 NA
ATOM     41  C   UNL A   1      43.869  25.358  26.355  1.00  0.00     0.031 C 
ATOM     42  C   UNL A   1      39.639  26.382  28.879  1.00  0.00     0.029 A 
ATOM     43  N   UNL A   1      41.166  28.008  28.746  1.00  0.00    -0.354 N 
ATOM     44  C   UNL A   1      44.945  27.344  26.720  1.00  0.00     0.074 A 
ATOM     45  C   UNL A   1      45.016  25.999  26.189  1.00  0.00     0.031 C 
ATOM     46  C   UNL A   1      39.143  27.453  29.520  1.00  0.00     0.029 A 
ATOM     47  C   UNL A   1      40.128  28.530  29.484  1.00  0.00     0.049 A 
ATOM     48  H   UNL A   1      41.981  28.516  28.529  1.00  0.00     0.167 HD
ATOM     49  C   UNL A   1      45.920  28.276  26.579  1.00  0.00     0.034 A 
ATOM     50  C   UNL A   1      39.992  29.734  30.076  1.00  0.00     0.034 A 
ATOM     51  C   UNL A   1      45.828  29.616  27.107  1.00  0.00     0.049 A 
ATOM     52  C   UNL A   1      41.110  30.739  29.940  1.00  0.00     0.074 A 
ATOM     53  C   UNL A   1      46.739  30.652  26.991  1.00  0.00     0.029 A 
ATOM     54  N   UNL A   1      44.765  30.105  27.856  1.00  0.00    -0.354 N 
ATOM     55  N   UNL A   1      42.257  30.621  29.311  1.00  0.00    -0.248 NA
ATOM     56  C   UNL A   1      40.909  32.044  30.583  1.00  0.00     0.031 C 
ATOM     57  C   UNL A   1      46.260  31.741  27.725  1.00  0.00     0.029 A 
ATOM     58  C   UNL A   1      45.012  31.416  28.231  1.00  0.00     0.049 A 
ATOM     59  H   UNL A   1      43.956  29.596  28.086  1.00  0.00     0.167 HD
ATOM     60  C   UNL A   1      42.894  31.851  29.452  1.00  0.00     0.074 A 
ATOM     61  C   UNL A   1      41.999  32.697  30.211  1.00  0.00     0.031 C 
ATOM     62  C   UNL A   1      44.108  32.248  28.992  1.00  0.00     0.034 A 
BRANCH  49  63
ATOM     63  C   UNL A   1      47.173  27.868  25.841  1.00  0.00     0.023 A 
ATOM     64  C   UNL A   1      47.315  28.071  24.457  1.00  0.00     0.031 A 
ATOM     65  C   UNL A   1      48.236  27.252  26.526  1.00  0.00     0.131 A 
ATOM     66  C   UNL A   1      48.456  27.600  23.792  1.00  0.00     0.055 A 
ATOM     67  C   UNL A   1      49.406  26.862  25.871  1.00  0.00     0.041 A 
ATOM     68  F   UNL A   1      48.152  27.010  27.844  1.00  0.00    -0.206 F 
ATOM     69  C   UNL A   1      49.515  27.023  24.493  1.00  0.00     0.022 A 
BRANCH  66  70
ATOM     70  S   UNL A   1      48.474  27.630  21.979  1.00  0.00     0.124 S 
ATOM     71  O   UNL A   1      49.612  28.506  21.710  1.00  0.00    -0.237 OA
ATOM     72  O   UNL A   1      48.656  26.223  21.641  1.00  0.00    -0.237 OA
ATOM     73  O   UNL A   1      47.169  28.191  21.632  1.00  0.00    -0.744 OA
ENDBRANCH  66  70
ENDBRANCH  49  63
BRANCH  50  74
ATOM     74  C   UNL A   1      38.767  30.062  30.861  1.00  0.00     0.023 A 
ATOM     75  C   UNL A   1      37.722  30.805  30.289  1.00  0.00     0.031 A 
ATOM     76  C   UNL A   1      38.649  29.696  32.214  1.00  0.00     0.131 A 
ATOM     77  C   UNL A   1      36.635  31.212  31.080  1.00  0.00     0.055 A 
ATOM     78  C   UNL A   1      37.536  30.048  32.980  1.00  0.00     0.041 A 
ATOM     79  F   UNL A   1      39.617  28.984  32.812  1.00  0.00    -0.206 F 
ATOM     80  C   UNL A   1      36.529  30.826  32.418  1.00  0.00     0.022 A 
BRANCH  77  81
ATOM     81  S   UNL A   1      35.420  32.350  30.363  1.00  0.00     0.124 S 
ATOM     82  O   UNL A   1      36.211  33.564  30.201  1.00  0.00    -0.237 OA
ATOM     83  O   UNL A   1      35.046  31.657  29.134  1.00  0.00    -0.237 OA
ATOM     84  O   UNL A   1      34.374  32.417  31.381  1.00  0.00    -0.744 OA
ENDBRANCH  77  81
ENDBRANCH  50  74
BRANCH  62  85
ATOM     85  C   UNL A   1      44.508  33.681  29.252  1.00  0.00     0.023 A 
ATOM     86  C   UNL A   1      44.106  34.730  28.407  1.00  0.00     0.031 A 
ATOM     87  C   UNL A   1      45.313  33.998  30.361  1.00  0.00     0.131 A 
ATOM     88  C   UNL A   1      44.558  36.035  28.650  1.00  0.00     0.055 A 
ATOM     89  C   UNL A   1      45.706  35.308  30.635  1.00  0.00     0.041 A 
ATOM     90  F   UNL A   1      45.729  33.036  31.202  1.00  0.00    -0.206 F 
ATOM     91  C   UNL A   1      45.340  36.334  29.769  1.00  0.00     0.022 A 
BRANCH  88  92
ATOM     92  S   UNL A   1      44.192  37.324  27.427  1.00  0.00     0.124 S 
ATOM     93  O   UNL A   1      43.139  36.700  26.634  1.00  0.00    -0.237 OA
ATOM     94  O   UNL A   1      43.779  38.443  28.269  1.00  0.00    -0.237 OA
ATOM     95  O   UNL A   1      45.465  37.510  26.733  1.00  0.00    -0.744 OA
ENDBRANCH  88  92
ENDBRANCH  62  85
ENDBRANCH  36  37
ENDBRANCH  28  31
ENDBRANCH  26  27
ENDBRANCH  25  26
ENDBRANCH   1  25
TORSDOF 18
ENDMDL
