MODEL 1
REMARK VINA RESULT:     -11.7      0.000      0.000
REMARK SMILES CC1(C)CCC[C@@H]1NC(=O)CC1(C(=O)NCCCCCCNC(=O)c2ccc(-c3c4nc(c(-c5cc(S(=O)(=O)[O-])ccc5F)c5ccc([nH]5)c(-c5cc(S(=O)(=O)[O-])ccc5F)c5nc(c(-c6cc(S(=O)(=O)[O-])ccc6F)c6ccc3[nH]6)C=C5)C=C4)cc2)CCCCC1
REMARK SMILES IDX 18 1 17 2 16 3 15 4 13 5 14 6 12 8 88 9 92 10 89 11 91 12
REMARK SMILES IDX 90 13 11 14 9 15 8 16 10 18 7 19 1 20 2 21 3 22 4 23 5 24
REMARK SMILES IDX 6 25 19 26 20 27 21 28 22 29 23 30 24 32 25 33 26 34 87 35
REMARK SMILES IDX 27 36 86 37 28 38 29 39 30 40 80 41 31 42 85 43 79 44 81 45
REMARK SMILES IDX 32 46 84 47 78 48 77 49 33 51 65 52 45 53 64 54 46 55 49 56
REMARK SMILES IDX 63 57 82 58 47 59 48 60 62 62 83 63 50 64 34 65 35 66 43 67
REMARK SMILES IDX 36 68 42 69 44 70 41 71 37 72 38 73 39 74 40 75 66 76 67 77
REMARK SMILES IDX 75 78 68 79 74 80 76 81 73 82 69 83 70 84 71 85 72 86 51 87
REMARK SMILES IDX 52 88 60 89 53 90 59 91 61 92 58 93 54 94 55 95 56 96 57 97
REMARK H PARENT 15 7 8 17 22 31 81 50 49 61
REMARK Flexibility Score: inf
ROOT
ATOM      1  C   UNL A   1      31.130  27.551  23.906  1.00  0.00     0.002 C 
ENDROOT
BRANCH   1   2
ATOM      2  C   UNL A   1      31.697  26.705  22.763  1.00  0.00     0.021 C 
BRANCH   2   3
ATOM      3  C   UNL A   1      33.186  26.403  22.909  1.00  0.00     0.116 C 
BRANCH   3   4
ATOM      4  N   UNL A   1      33.484  25.075  22.450  1.00  0.00    -0.356 N 
ATOM      5  C   UNL A   1      33.893  23.923  23.011  1.00  0.00     0.226 C 
ATOM      6  O   UNL A   1      34.173  23.088  22.135  1.00  0.00    -0.274 OA
ATOM      7  H   UNL A   1      33.356  24.985  21.478  1.00  0.00     0.163 HD
BRANCH   5   8
ATOM      8  C   UNL A   1      33.972  23.550  24.534  1.00  0.00     0.058 C 
ATOM      9  C   UNL A   1      32.574  23.060  25.018  1.00  0.00     0.017 C 
ATOM     10  C   UNL A   1      34.481  24.544  25.602  1.00  0.00     0.017 C 
ATOM     11  C   UNL A   1      31.600  24.140  25.510  1.00  0.00     0.001 C 
ATOM     12  C   UNL A   1      33.595  25.692  26.019  1.00  0.00     0.001 C 
ATOM     13  C   UNL A   1      32.204  25.223  26.407  1.00  0.00     0.000 C 
BRANCH   8  14
ATOM     14  C   UNL A   1      34.974  22.313  24.552  1.00  0.00     0.117 C 
BRANCH  14  15
ATOM     15  C   UNL A   1      34.788  21.259  25.636  1.00  0.00     0.221 C 
ATOM     16  N   UNL A   1      34.619  19.933  25.421  1.00  0.00    -0.353 N 
ATOM     17  H   UNL A   1      34.639  19.417  26.259  1.00  0.00     0.163 HD
ATOM     18  O   UNL A   1      34.791  21.617  26.823  1.00  0.00    -0.275 OA
BRANCH  16  19
ATOM     19  C   UNL A   1      34.413  19.074  24.251  1.00  0.00     0.087 C 
ATOM     20  C   UNL A   1      32.155  19.960  23.408  1.00  0.00     0.013 C 
ATOM     21  C   UNL A   1      32.902  18.767  24.003  1.00  0.00    -0.015 C 
ATOM     22  C   UNL A   1      32.156  18.290  25.273  1.00  0.00     0.013 C 
ATOM     23  C   UNL A   1      32.981  17.610  22.990  1.00  0.00     0.008 C 
ATOM     24  C   UNL A   1      34.154  16.756  23.447  1.00  0.00     0.003 C 
ATOM     25  C   UNL A   1      34.986  17.651  24.362  1.00  0.00     0.025 C 
ENDBRANCH  16  19
ENDBRANCH  14  15
ENDBRANCH   8  14
ENDBRANCH   5   8
ENDBRANCH   3   4
ENDBRANCH   2   3
ENDBRANCH   1   2
BRANCH   1  26
ATOM     26  C   UNL A   1      31.582  29.017  23.912  1.00  0.00     0.002 C 
BRANCH  26  27
ATOM     27  C   UNL A   1      32.793  29.324  24.799  1.00  0.00     0.021 C 
BRANCH  27  28
ATOM     28  C   UNL A   1      32.448  29.707  26.236  1.00  0.00     0.116 C 
BRANCH  28  29
ATOM     29  N   UNL A   1      32.347  31.145  26.397  1.00  0.00    -0.352 N 
ATOM     30  C   UNL A   1      33.056  31.984  27.218  1.00  0.00     0.251 C 
ATOM     31  H   UNL A   1      31.669  31.585  25.834  1.00  0.00     0.163 HD
ATOM     32  O   UNL A   1      32.659  33.130  27.402  1.00  0.00    -0.269 OA
BRANCH  30  33
ATOM     33  C   UNL A   1      34.285  31.501  27.885  1.00  0.00     0.039 A 
ATOM     34  C   UNL A   1      35.351  32.388  28.054  1.00  0.00     0.014 A 
ATOM     35  C   UNL A   1      34.398  30.175  28.312  1.00  0.00     0.014 A 
ATOM     36  C   UNL A   1      36.515  31.954  28.692  1.00  0.00     0.010 A 
ATOM     37  C   UNL A   1      35.532  29.764  29.009  1.00  0.00     0.010 A 
ATOM     38  C   UNL A   1      36.605  30.647  29.197  1.00  0.00    -0.014 A 
BRANCH  38  39
ATOM     39  C   UNL A   1      37.822  30.189  29.916  1.00  0.00     0.031 A 
ATOM     40  C   UNL A   1      38.099  30.668  31.315  1.00  0.00     0.074 A 
ATOM     41  C   UNL A   1      38.699  29.381  29.286  1.00  0.00     0.049 A 
ATOM     42  N   UNL A   1      39.126  30.421  32.086  1.00  0.00    -0.248 NA
ATOM     43  C   UNL A   1      37.101  31.569  31.912  1.00  0.00     0.031 C 
ATOM     44  C   UNL A   1      38.556  28.888  27.915  1.00  0.00     0.029 A 
ATOM     45  N   UNL A   1      39.884  28.839  29.711  1.00  0.00    -0.354 N 
ATOM     46  C   UNL A   1      38.906  31.143  33.255  1.00  0.00     0.074 A 
ATOM     47  C   UNL A   1      37.677  31.884  33.063  1.00  0.00     0.031 C 
ATOM     48  C   UNL A   1      39.599  28.096  27.621  1.00  0.00     0.029 A 
ATOM     49  C   UNL A   1      40.506  28.058  28.763  1.00  0.00     0.049 A 
ATOM     50  H   UNL A   1      40.255  28.991  30.610  1.00  0.00     0.167 HD
ATOM     51  C   UNL A   1      39.648  31.166  34.390  1.00  0.00     0.034 A 
ATOM     52  C   UNL A   1      41.679  27.397  28.808  1.00  0.00     0.034 A 
ATOM     53  C   UNL A   1      40.864  30.409  34.566  1.00  0.00     0.049 A 
ATOM     54  C   UNL A   1      42.494  27.449  30.075  1.00  0.00     0.074 A 
ATOM     55  C   UNL A   1      41.663  30.309  35.691  1.00  0.00     0.029 A 
ATOM     56  N   UNL A   1      41.464  29.628  33.585  1.00  0.00    -0.354 N 
ATOM     57  N   UNL A   1      42.242  28.088  31.194  1.00  0.00    -0.248 NA
ATOM     58  C   UNL A   1      43.743  26.679  30.090  1.00  0.00     0.031 C 
ATOM     59  C   UNL A   1      42.779  29.527  35.371  1.00  0.00     0.029 A 
ATOM     60  C   UNL A   1      42.639  29.072  34.070  1.00  0.00     0.049 A 
ATOM     61  H   UNL A   1      41.108  29.489  32.679  1.00  0.00     0.167 HD
ATOM     62  C   UNL A   1      43.289  27.773  32.055  1.00  0.00     0.074 A 
ATOM     63  C   UNL A   1      44.162  26.872  31.330  1.00  0.00     0.031 C 
ATOM     64  C   UNL A   1      43.509  28.188  33.329  1.00  0.00     0.034 A 
BRANCH  51  65
ATOM     65  C   UNL A   1      39.174  32.058  35.514  1.00  0.00     0.023 A 
ATOM     66  C   UNL A   1      39.575  33.402  35.612  1.00  0.00     0.031 A 
ATOM     67  C   UNL A   1      38.329  31.551  36.518  1.00  0.00     0.131 A 
ATOM     68  C   UNL A   1      39.196  34.169  36.725  1.00  0.00     0.055 A 
ATOM     69  C   UNL A   1      37.887  32.344  37.579  1.00  0.00     0.041 A 
ATOM     70  F   UNL A   1      37.929  30.270  36.492  1.00  0.00    -0.206 F 
ATOM     71  C   UNL A   1      38.334  33.657  37.696  1.00  0.00     0.022 A 
BRANCH  68  72
ATOM     72  S   UNL A   1      39.965  35.795  36.958  1.00  0.00     0.124 S 
ATOM     73  O   UNL A   1      39.650  36.454  35.692  1.00  0.00    -0.237 OA
ATOM     74  O   UNL A   1      39.272  36.306  38.134  1.00  0.00    -0.237 OA
ATOM     75  O   UNL A   1      41.379  35.481  37.152  1.00  0.00    -0.744 OA
ENDBRANCH  68  72
ENDBRANCH  51  65
BRANCH  52  76
ATOM     76  C   UNL A   1      42.161  26.635  27.620  1.00  0.00     0.023 A 
ATOM     77  C   UNL A   1      41.917  25.258  27.495  1.00  0.00     0.031 A 
ATOM     78  C   UNL A   1      42.909  27.267  26.609  1.00  0.00     0.131 A 
ATOM     79  C   UNL A   1      42.454  24.549  26.410  1.00  0.00     0.055 A 
ATOM     80  C   UNL A   1      43.397  26.566  25.506  1.00  0.00     0.041 A 
ATOM     81  F   UNL A   1      43.166  28.583  26.677  1.00  0.00    -0.206 F 
ATOM     82  C   UNL A   1      43.182  25.194  25.408  1.00  0.00     0.022 A 
BRANCH  79  83
ATOM     83  S   UNL A   1      42.263  22.746  26.373  1.00  0.00     0.124 S 
ATOM     84  O   UNL A   1      40.848  22.589  26.691  1.00  0.00    -0.237 OA
ATOM     85  O   UNL A   1      42.651  22.429  25.003  1.00  0.00    -0.237 OA
ATOM     86  O   UNL A   1      43.190  22.283  27.404  1.00  0.00    -0.744 OA
ENDBRANCH  79  83
ENDBRANCH  52  76
BRANCH  64  87
ATOM     87  C   UNL A   1      44.727  27.632  34.026  1.00  0.00     0.023 A 
ATOM     88  C   UNL A   1      44.679  26.431  34.753  1.00  0.00     0.031 A 
ATOM     89  C   UNL A   1      45.949  28.327  33.976  1.00  0.00     0.131 A 
ATOM     90  C   UNL A   1      45.812  25.993  35.455  1.00  0.00     0.055 A 
ATOM     91  C   UNL A   1      47.090  27.854  34.624  1.00  0.00     0.041 A 
ATOM     92  F   UNL A   1      46.052  29.481  33.298  1.00  0.00    -0.206 F 
ATOM     93  C   UNL A   1      47.023  26.687  35.380  1.00  0.00     0.022 A 
BRANCH  90  94
ATOM     94  S   UNL A   1      45.656  24.555  36.550  1.00  0.00     0.124 S 
ATOM     95  O   UNL A   1      46.306  25.029  37.768  1.00  0.00    -0.237 OA
ATOM     96  O   UNL A   1      44.209  24.378  36.626  1.00  0.00    -0.237 OA
ATOM     97  O   UNL A   1      46.372  23.500  35.835  1.00  0.00    -0.744 OA
ENDBRANCH  90  94
ENDBRANCH  64  87
ENDBRANCH  38  39
ENDBRANCH  30  33
ENDBRANCH  28  29
ENDBRANCH  27  28
ENDBRANCH  26  27
ENDBRANCH   1  26
TORSDOF 19
ENDMDL
MODEL 2
REMARK VINA RESULT:     -11.6      1.553      7.522
REMARK SMILES CC1(C)CCC[C@@H]1NC(=O)CC1(C(=O)NCCCCCCNC(=O)c2ccc(-c3c4nc(c(-c5cc(S(=O)(=O)[O-])ccc5F)c5ccc([nH]5)c(-c5cc(S(=O)(=O)[O-])ccc5F)c5nc(c(-c6cc(S(=O)(=O)[O-])ccc6F)c6ccc3[nH]6)C=C5)C=C4)cc2)CCCCC1
REMARK SMILES IDX 18 1 17 2 16 3 15 4 13 5 14 6 12 8 88 9 92 10 89 11 91 12
REMARK SMILES IDX 90 13 11 14 9 15 8 16 10 18 7 19 1 20 2 21 3 22 4 23 5 24
REMARK SMILES IDX 6 25 19 26 20 27 21 28 22 29 23 30 24 32 25 33 26 34 87 35
REMARK SMILES IDX 27 36 86 37 28 38 29 39 30 40 80 41 31 42 85 43 79 44 81 45
REMARK SMILES IDX 32 46 84 47 78 48 77 49 33 51 65 52 45 53 64 54 46 55 49 56
REMARK SMILES IDX 63 57 82 58 47 59 48 60 62 62 83 63 50 64 34 65 35 66 43 67
REMARK SMILES IDX 36 68 42 69 44 70 41 71 37 72 38 73 39 74 40 75 66 76 67 77
REMARK SMILES IDX 75 78 68 79 74 80 76 81 73 82 69 83 70 84 71 85 72 86 51 87
REMARK SMILES IDX 52 88 60 89 53 90 59 91 61 92 58 93 54 94 55 95 56 96 57 97
REMARK H PARENT 15 7 8 17 22 31 81 50 49 61
REMARK Flexibility Score: inf
ROOT
ATOM      1  C   UNL A   1      31.032  27.536  23.562  1.00  0.00     0.002 C 
ENDROOT
BRANCH   1   2
ATOM      2  C   UNL A   1      31.308  26.546  22.428  1.00  0.00     0.021 C 
BRANCH   2   3
ATOM      3  C   UNL A   1      32.761  26.084  22.362  1.00  0.00     0.116 C 
BRANCH   3   4
ATOM      4  N   UNL A   1      32.836  24.671  22.112  1.00  0.00    -0.356 N 
ATOM      5  C   UNL A   1      33.367  23.602  22.731  1.00  0.00     0.226 C 
ATOM      6  O   UNL A   1      33.302  22.600  22.000  1.00  0.00    -0.274 OA
ATOM      7  H   UNL A   1      32.383  24.422  21.274  1.00  0.00     0.163 HD
BRANCH   5   8
ATOM      8  C   UNL A   1      33.944  23.503  24.188  1.00  0.00     0.058 C 
ATOM      9  C   UNL A   1      32.795  23.129  25.172  1.00  0.00     0.017 C 
ATOM     10  C   UNL A   1      34.726  24.660  24.848  1.00  0.00     0.017 C 
ATOM     11  C   UNL A   1      31.986  24.294  25.758  1.00  0.00     0.001 C 
ATOM     12  C   UNL A   1      33.973  25.878  25.324  1.00  0.00     0.001 C 
ATOM     13  C   UNL A   1      32.800  25.507  26.213  1.00  0.00     0.000 C 
BRANCH   8  14
ATOM     14  C   UNL A   1      34.950  22.272  24.095  1.00  0.00     0.117 C 
BRANCH  14  15
ATOM     15  C   UNL A   1      35.055  21.344  25.298  1.00  0.00     0.221 C 
ATOM     16  N   UNL A   1      34.931  19.995  25.263  1.00  0.00    -0.353 N 
ATOM     17  H   UNL A   1      35.154  19.581  26.128  1.00  0.00     0.163 HD
ATOM     18  O   UNL A   1      35.275  21.836  26.414  1.00  0.00    -0.275 OA
BRANCH  16  19
ATOM     19  C   UNL A   1      34.548  18.999  24.259  1.00  0.00     0.087 C 
ATOM     20  C   UNL A   1      32.153  19.760  23.730  1.00  0.00     0.013 C 
ATOM     21  C   UNL A   1      33.027  18.654  24.321  1.00  0.00    -0.015 C 
ATOM     22  C   UNL A   1      32.528  18.330  25.751  1.00  0.00     0.013 C 
ATOM     23  C   UNL A   1      32.960  17.382  23.454  1.00  0.00     0.008 C 
ATOM     24  C   UNL A   1      34.219  16.599  23.795  1.00  0.00     0.003 C 
ATOM     25  C   UNL A   1      35.172  17.604  24.435  1.00  0.00     0.025 C 
ENDBRANCH  16  19
ENDBRANCH  14  15
ENDBRANCH   8  14
ENDBRANCH   5   8
ENDBRANCH   3   4
ENDBRANCH   2   3
ENDBRANCH   1   2
BRANCH   1  26
ATOM     26  C   UNL A   1      31.587  28.948  23.338  1.00  0.00     0.002 C 
BRANCH  26  27
ATOM     27  C   UNL A   1      32.950  29.225  23.980  1.00  0.00     0.021 C 
BRANCH  27  28
ATOM     28  C   UNL A   1      32.918  29.386  25.498  1.00  0.00     0.116 C 
BRANCH  28  29
ATOM     29  N   UNL A   1      32.497  30.719  25.886  1.00  0.00    -0.352 N 
ATOM     30  C   UNL A   1      32.922  31.500  26.930  1.00  0.00     0.251 C 
ATOM     31  H   UNL A   1      31.803  31.123  25.315  1.00  0.00     0.163 HD
ATOM     32  O   UNL A   1      32.273  32.491  27.248  1.00  0.00    -0.269 OA
BRANCH  30  33
ATOM     33  C   UNL A   1      34.150  31.138  27.671  1.00  0.00     0.039 A 
ATOM     34  C   UNL A   1      35.092  32.134  27.938  1.00  0.00     0.014 A 
ATOM     35  C   UNL A   1      34.386  29.820  28.074  1.00  0.00     0.014 A 
ATOM     36  C   UNL A   1      36.251  31.815  28.648  1.00  0.00     0.010 A 
ATOM     37  C   UNL A   1      35.508  29.519  28.841  1.00  0.00     0.010 A 
ATOM     38  C   UNL A   1      36.457  30.511  29.126  1.00  0.00    -0.014 A 
BRANCH  38  39
ATOM     39  C   UNL A   1      37.666  30.172  29.920  1.00  0.00     0.031 A 
ATOM     40  C   UNL A   1      38.724  29.273  29.339  1.00  0.00     0.074 A 
ATOM     41  C   UNL A   1      37.783  30.636  31.181  1.00  0.00     0.049 A 
ATOM     42  N   UNL A   1      39.822  28.825  29.890  1.00  0.00    -0.248 NA
ATOM     43  C   UNL A   1      38.499  28.792  27.968  1.00  0.00     0.031 C 
ATOM     44  C   UNL A   1      36.800  31.480  31.863  1.00  0.00     0.029 A 
ATOM     45  N   UNL A   1      38.773  30.460  32.114  1.00  0.00    -0.354 N 
ATOM     46  C   UNL A   1      40.415  28.001  28.939  1.00  0.00     0.074 A 
ATOM     47  C   UNL A   1      39.521  27.966  27.801  1.00  0.00     0.031 C 
ATOM     48  C   UNL A   1      37.247  31.768  33.095  1.00  0.00     0.029 A 
ATOM     49  C   UNL A   1      38.525  31.097  33.308  1.00  0.00     0.049 A 
ATOM     50  H   UNL A   1      39.584  29.929  31.944  1.00  0.00     0.167 HD
ATOM     51  C   UNL A   1      41.605  27.354  29.001  1.00  0.00     0.034 A 
ATOM     52  C   UNL A   1      39.243  31.128  34.448  1.00  0.00     0.034 A 
ATOM     53  C   UNL A   1      42.489  27.412  30.141  1.00  0.00     0.049 A 
ATOM     54  C   UNL A   1      40.555  30.389  34.499  1.00  0.00     0.074 A 
ATOM     55  C   UNL A   1      43.744  26.847  30.290  1.00  0.00     0.029 A 
ATOM     56  N   UNL A   1      42.207  28.068  31.333  1.00  0.00    -0.354 N 
ATOM     57  N   UNL A   1      41.132  29.662  33.568  1.00  0.00    -0.248 NA
ATOM     58  C   UNL A   1      41.321  30.486  35.747  1.00  0.00     0.031 C 
ATOM     59  C   UNL A   1      44.188  27.101  31.593  1.00  0.00     0.029 A 
ATOM     60  C   UNL A   1      43.249  27.892  32.233  1.00  0.00     0.049 A 
ATOM     61  H   UNL A   1      41.388  28.582  31.514  1.00  0.00     0.167 HD
ATOM     62  C   UNL A   1      42.341  29.239  34.112  1.00  0.00     0.074 A 
ATOM     63  C   UNL A   1      42.418  29.810  35.442  1.00  0.00     0.031 C 
ATOM     64  C   UNL A   1      43.303  28.454  33.563  1.00  0.00     0.034 A 
BRANCH  51  65
ATOM     65  C   UNL A   1      42.002  26.508  27.813  1.00  0.00     0.023 A 
ATOM     66  C   UNL A   1      41.639  25.153  27.714  1.00  0.00     0.031 A 
ATOM     67  C   UNL A   1      42.775  27.058  26.774  1.00  0.00     0.131 A 
ATOM     68  C   UNL A   1      42.112  24.376  26.645  1.00  0.00     0.055 A 
ATOM     69  C   UNL A   1      43.173  26.300  25.671  1.00  0.00     0.041 A 
ATOM     70  F   UNL A   1      43.171  28.340  26.821  1.00  0.00    -0.206 F 
ATOM     71  C   UNL A   1      42.856  24.946  25.609  1.00  0.00     0.022 A 
BRANCH  68  72
ATOM     72  S   UNL A   1      41.866  22.580  26.705  1.00  0.00     0.124 S 
ATOM     73  O   UNL A   1      42.766  22.196  27.790  1.00  0.00    -0.237 OA
ATOM     74  O   UNL A   1      40.441  22.466  26.986  1.00  0.00    -0.237 OA
ATOM     75  O   UNL A   1      42.280  22.133  25.376  1.00  0.00    -0.744 OA
ENDBRANCH  68  72
ENDBRANCH  51  65
BRANCH  52  76
ATOM     76  C   UNL A   1      38.740  31.874  35.637  1.00  0.00     0.023 A 
ATOM     77  C   UNL A   1      38.170  31.198  36.728  1.00  0.00     0.031 A 
ATOM     78  C   UNL A   1      38.785  33.279  35.683  1.00  0.00     0.131 A 
ATOM     79  C   UNL A   1      37.627  31.927  37.796  1.00  0.00     0.055 A 
ATOM     80  C   UNL A   1      38.290  33.998  36.772  1.00  0.00     0.041 A 
ATOM     81  F   UNL A   1      39.325  33.974  34.669  1.00  0.00    -0.206 F 
ATOM     82  C   UNL A   1      37.693  33.322  37.832  1.00  0.00     0.022 A 
BRANCH  79  83
ATOM     83  S   UNL A   1      36.748  31.027  39.103  1.00  0.00     0.124 S 
ATOM     84  O   UNL A   1      35.537  31.827  39.254  1.00  0.00    -0.237 OA
ATOM     85  O   UNL A   1      36.576  29.710  38.499  1.00  0.00    -0.237 OA
ATOM     86  O   UNL A   1      37.675  31.076  40.232  1.00  0.00    -0.744 OA
ENDBRANCH  79  83
ENDBRANCH  52  76
BRANCH  64  87
ATOM     87  C   UNL A   1      44.536  28.203  34.396  1.00  0.00     0.023 A 
ATOM     88  C   UNL A   1      44.539  27.276  35.452  1.00  0.00     0.031 A 
ATOM     89  C   UNL A   1      45.720  28.919  34.141  1.00  0.00     0.131 A 
ATOM     90  C   UNL A   1      45.682  27.134  36.254  1.00  0.00     0.055 A 
ATOM     91  C   UNL A   1      46.873  28.727  34.902  1.00  0.00     0.041 A 
ATOM     92  F   UNL A   1      45.774  29.819  33.146  1.00  0.00    -0.206 F 
ATOM     93  C   UNL A   1      46.855  27.841  35.975  1.00  0.00     0.022 A 
BRANCH  90  94
ATOM     94  S   UNL A   1      45.583  26.087  37.732  1.00  0.00     0.124 S 
ATOM     95  O   UNL A   1      45.096  24.827  37.179  1.00  0.00    -0.237 OA
ATOM     96  O   UNL A   1      46.964  26.085  38.206  1.00  0.00    -0.237 OA
ATOM     97  O   UNL A   1      44.635  26.794  38.591  1.00  0.00    -0.744 OA
ENDBRANCH  90  94
ENDBRANCH  64  87
ENDBRANCH  38  39
ENDBRANCH  30  33
ENDBRANCH  28  29
ENDBRANCH  27  28
ENDBRANCH  26  27
ENDBRANCH   1  26
TORSDOF 19
ENDMDL
MODEL 3
REMARK VINA RESULT:     -11.5      2.282      8.021
REMARK SMILES CC1(C)CCC[C@@H]1NC(=O)CC1(C(=O)NCCCCCCNC(=O)c2ccc(-c3c4nc(c(-c5cc(S(=O)(=O)[O-])ccc5F)c5ccc([nH]5)c(-c5cc(S(=O)(=O)[O-])ccc5F)c5nc(c(-c6cc(S(=O)(=O)[O-])ccc6F)c6ccc3[nH]6)C=C5)C=C4)cc2)CCCCC1
REMARK SMILES IDX 18 1 17 2 16 3 15 4 13 5 14 6 12 8 88 9 92 10 89 11 91 12
REMARK SMILES IDX 90 13 11 14 9 15 8 16 10 18 7 19 1 20 2 21 3 22 4 23 5 24
REMARK SMILES IDX 6 25 19 26 20 27 21 28 22 29 23 30 24 32 25 33 26 34 87 35
REMARK SMILES IDX 27 36 86 37 28 38 29 39 30 40 80 41 31 42 85 43 79 44 81 45
REMARK SMILES IDX 32 46 84 47 78 48 77 49 33 51 65 52 45 53 64 54 46 55 49 56
REMARK SMILES IDX 63 57 82 58 47 59 48 60 62 62 83 63 50 64 34 65 35 66 43 67
REMARK SMILES IDX 36 68 42 69 44 70 41 71 37 72 38 73 39 74 40 75 66 76 67 77
REMARK SMILES IDX 75 78 68 79 74 80 76 81 73 82 69 83 70 84 71 85 72 86 51 87
REMARK SMILES IDX 52 88 60 89 53 90 59 91 61 92 58 93 54 94 55 95 56 96 57 97
REMARK H PARENT 15 7 8 17 22 31 81 50 49 61
REMARK Flexibility Score: inf
ROOT
ATOM      1  C   UNL A   1      32.495  29.983  26.030  1.00  0.00     0.002 C 
ENDROOT
BRANCH   1   2
ATOM      2  C   UNL A   1      32.535  29.046  24.820  1.00  0.00     0.021 C 
BRANCH   2   3
ATOM      3  C   UNL A   1      33.549  27.915  24.959  1.00  0.00     0.116 C 
BRANCH   3   4
ATOM      4  N   UNL A   1      33.738  27.242  23.704  1.00  0.00    -0.356 N 
ATOM      5  C   UNL A   1      33.348  26.077  23.158  1.00  0.00     0.226 C 
ATOM      6  O   UNL A   1      33.933  25.884  22.079  1.00  0.00    -0.274 OA
ATOM      7  H   UNL A   1      34.294  27.769  23.085  1.00  0.00     0.163 HD
BRANCH   5   8
ATOM      8  C   UNL A   1      32.266  25.066  23.680  1.00  0.00     0.058 C 
ATOM      9  C   UNL A   1      30.856  25.529  23.206  1.00  0.00     0.017 C 
ATOM     10  C   UNL A   1      32.128  24.704  25.176  1.00  0.00     0.017 C 
ATOM     11  C   UNL A   1      30.117  26.522  24.114  1.00  0.00     0.001 C 
ATOM     12  C   UNL A   1      31.517  25.710  26.122  1.00  0.00     0.001 C 
ATOM     13  C   UNL A   1      30.183  26.227  25.614  1.00  0.00     0.000 C 
BRANCH   8  14
ATOM     14  C   UNL A   1      32.636  23.716  22.921  1.00  0.00     0.117 C 
BRANCH  14  15
ATOM     15  C   UNL A   1      33.038  22.511  23.762  1.00  0.00     0.221 C 
ATOM     16  N   UNL A   1      34.115  22.449  24.581  1.00  0.00    -0.353 N 
ATOM     17  H   UNL A   1      34.122  21.625  25.120  1.00  0.00     0.163 HD
ATOM     18  O   UNL A   1      32.337  21.490  23.714  1.00  0.00    -0.275 OA
BRANCH  16  19
ATOM     19  C   UNL A   1      35.273  23.301  24.864  1.00  0.00     0.087 C 
ATOM     20  C   UNL A   1      36.719  22.833  22.794  1.00  0.00     0.013 C 
ATOM     21  C   UNL A   1      36.601  22.694  24.312  1.00  0.00    -0.015 C 
ATOM     22  C   UNL A   1      36.805  21.208  24.697  1.00  0.00     0.013 C 
ATOM     23  C   UNL A   1      37.659  23.558  25.024  1.00  0.00     0.008 C 
ATOM     24  C   UNL A   1      37.119  23.773  26.431  1.00  0.00     0.003 C 
ATOM     25  C   UNL A   1      35.626  23.471  26.352  1.00  0.00     0.025 C 
ENDBRANCH  16  19
ENDBRANCH  14  15
ENDBRANCH   8  14
ENDBRANCH   5   8
ENDBRANCH   3   4
ENDBRANCH   2   3
ENDBRANCH   1   2
BRANCH   1  26
ATOM     26  C   UNL A   1      31.192  30.776  26.193  1.00  0.00     0.002 C 
BRANCH  26  27
ATOM     27  C   UNL A   1      31.367  32.278  26.440  1.00  0.00     0.021 C 
BRANCH  27  28
ATOM     28  C   UNL A   1      32.611  32.650  27.241  1.00  0.00     0.116 C 
BRANCH  28  29
ATOM     29  N   UNL A   1      32.607  34.051  27.616  1.00  0.00    -0.352 N 
ATOM     30  C   UNL A   1      33.297  34.691  28.614  1.00  0.00     0.251 C 
ATOM     31  H   UNL A   1      32.023  34.630  27.073  1.00  0.00     0.163 HD
ATOM     32  O   UNL A   1      32.974  35.828  28.940  1.00  0.00    -0.269 OA
BRANCH  30  33
ATOM     33  C   UNL A   1      34.414  34.004  29.297  1.00  0.00     0.039 A 
ATOM     34  C   UNL A   1      35.724  34.328  28.935  1.00  0.00     0.014 A 
ATOM     35  C   UNL A   1      34.173  33.025  30.266  1.00  0.00     0.014 A 
ATOM     36  C   UNL A   1      36.793  33.700  29.578  1.00  0.00     0.010 A 
ATOM     37  C   UNL A   1      35.239  32.451  30.953  1.00  0.00     0.010 A 
ATOM     38  C   UNL A   1      36.560  32.775  30.609  1.00  0.00    -0.014 A 
BRANCH  38  39
ATOM     39  C   UNL A   1      37.690  32.134  31.328  1.00  0.00     0.031 A 
ATOM     40  C   UNL A   1      38.457  31.011  30.684  1.00  0.00     0.074 A 
ATOM     41  C   UNL A   1      37.991  32.534  32.580  1.00  0.00     0.049 A 
ATOM     42  N   UNL A   1      39.439  30.295  31.168  1.00  0.00    -0.248 NA
ATOM     43  C   UNL A   1      38.041  30.623  29.327  1.00  0.00     0.031 C 
ATOM     44  C   UNL A   1      37.289  33.584  33.321  1.00  0.00     0.029 A 
ATOM     45  N   UNL A   1      38.958  32.103  33.452  1.00  0.00    -0.354 N 
ATOM     46  C   UNL A   1      39.753  29.366  30.181  1.00  0.00     0.074 A 
ATOM     47  C   UNL A   1      38.814  29.572  29.099  1.00  0.00     0.031 C 
ATOM     48  C   UNL A   1      37.864  33.732  34.525  1.00  0.00     0.029 A 
ATOM     49  C   UNL A   1      38.945  32.762  34.660  1.00  0.00     0.049 A 
ATOM     50  H   UNL A   1      39.601  31.391  33.234  1.00  0.00     0.167 HD
ATOM     51  C   UNL A   1      40.747  28.443  30.172  1.00  0.00     0.034 A 
ATOM     52  C   UNL A   1      39.713  32.596  35.755  1.00  0.00     0.034 A 
ATOM     53  C   UNL A   1      41.681  28.262  31.257  1.00  0.00     0.049 A 
ATOM     54  C   UNL A   1      40.801  31.554  35.726  1.00  0.00     0.074 A 
ATOM     55  C   UNL A   1      42.763  27.401  31.330  1.00  0.00     0.029 A 
ATOM     56  N   UNL A   1      41.640  28.948  32.465  1.00  0.00    -0.354 N 
ATOM     57  N   UNL A   1      41.124  30.722  34.762  1.00  0.00    -0.248 NA
ATOM     58  C   UNL A   1      41.637  31.438  36.927  1.00  0.00     0.031 C 
ATOM     59  C   UNL A   1      43.331  27.516  32.604  1.00  0.00     0.029 A 
ATOM     60  C   UNL A   1      42.655  28.505  33.300  1.00  0.00     0.049 A 
ATOM     61  H   UNL A   1      40.986  29.646  32.694  1.00  0.00     0.167 HD
ATOM     62  C   UNL A   1      42.220  30.004  35.232  1.00  0.00     0.074 A 
ATOM     63  C   UNL A   1      42.512  30.516  36.556  1.00  0.00     0.031 C 
ATOM     64  C   UNL A   1      42.923  29.014  34.626  1.00  0.00     0.034 A 
BRANCH  51  65
ATOM     65  C   UNL A   1      40.852  27.545  28.960  1.00  0.00     0.023 A 
ATOM     66  C   UNL A   1      41.820  27.758  27.962  1.00  0.00     0.031 A 
ATOM     67  C   UNL A   1      39.957  26.474  28.787  1.00  0.00     0.131 A 
ATOM     68  C   UNL A   1      41.821  26.965  26.804  1.00  0.00     0.055 A 
ATOM     69  C   UNL A   1      40.016  25.637  27.671  1.00  0.00     0.041 A 
ATOM     70  F   UNL A   1      38.997  26.232  29.694  1.00  0.00    -0.206 F 
ATOM     71  C   UNL A   1      40.942  25.890  26.663  1.00  0.00     0.022 A 
BRANCH  68  72
ATOM     72  S   UNL A   1      42.889  27.453  25.422  1.00  0.00     0.124 S 
ATOM     73  O   UNL A   1      44.063  27.967  26.124  1.00  0.00    -0.237 OA
ATOM     74  O   UNL A   1      43.072  26.197  24.705  1.00  0.00    -0.237 OA
ATOM     75  O   UNL A   1      42.102  28.465  24.720  1.00  0.00    -0.744 OA
ENDBRANCH  68  72
ENDBRANCH  51  65
BRANCH  52  76
ATOM     76  C   UNL A   1      39.479  33.424  36.973  1.00  0.00     0.023 A 
ATOM     77  C   UNL A   1      40.194  34.613  37.188  1.00  0.00     0.031 A 
ATOM     78  C   UNL A   1      38.564  33.017  37.961  1.00  0.00     0.131 A 
ATOM     79  C   UNL A   1      40.018  35.329  38.381  1.00  0.00     0.055 A 
ATOM     80  C   UNL A   1      38.355  33.761  39.124  1.00  0.00     0.041 A 
ATOM     81  F   UNL A   1      37.851  31.891  37.803  1.00  0.00    -0.206 F 
ATOM     82  C   UNL A   1      39.095  34.918  39.345  1.00  0.00     0.022 A 
BRANCH  79  83
ATOM     83  S   UNL A   1      41.082  36.763  38.697  1.00  0.00     0.124 S 
ATOM     84  O   UNL A   1      41.760  36.920  37.416  1.00  0.00    -0.237 OA
ATOM     85  O   UNL A   1      40.107  37.794  39.037  1.00  0.00    -0.237 OA
ATOM     86  O   UNL A   1      41.929  36.322  39.804  1.00  0.00    -0.744 OA
ENDBRANCH  79  83
ENDBRANCH  52  76
BRANCH  64  87
ATOM     87  C   UNL A   1      44.102  28.452  35.383  1.00  0.00     0.023 A 
ATOM     88  C   UNL A   1      43.950  27.427  36.332  1.00  0.00     0.031 A 
ATOM     89  C   UNL A   1      45.393  28.966  35.165  1.00  0.00     0.131 A 
ATOM     90  C   UNL A   1      45.059  26.991  37.074  1.00  0.00     0.055 A 
ATOM     91  C   UNL A   1      46.503  28.484  35.861  1.00  0.00     0.041 A 
ATOM     92  F   UNL A   1      45.597  29.947  34.272  1.00  0.00    -0.206 F 
ATOM     93  C   UNL A   1      46.337  27.501  36.832  1.00  0.00     0.022 A 
BRANCH  90  94
ATOM     94  S   UNL A   1      44.790  25.819  38.433  1.00  0.00     0.124 S 
ATOM     95  O   UNL A   1      44.118  24.716  37.754  1.00  0.00    -0.237 OA
ATOM     96  O   UNL A   1      46.151  25.553  38.888  1.00  0.00    -0.237 OA
ATOM     97  O   UNL A   1      43.958  26.568  39.372  1.00  0.00    -0.744 OA
ENDBRANCH  90  94
ENDBRANCH  64  87
ENDBRANCH  38  39
ENDBRANCH  30  33
ENDBRANCH  28  29
ENDBRANCH  27  28
ENDBRANCH  26  27
ENDBRANCH   1  26
TORSDOF 19
ENDMDL
