MODEL 1
REMARK VINA RESULT:      -9.7      0.000      0.000
REMARK SMILES C=CCN(CC(=O)NCCCCCCNC(=O)c1ccc(-c2c3nc(c(-c4cc(S(=O)(=O)[O-])ccc4F)c4ccc([nH]4)c(-c4cc(S(=O)(=O)[O-])ccc4F)c4nc(c(-c5cc(S(=O)(=O)[O-])ccc5F)c5ccc2[nH]5)C=C4)C=C3)cc1)C(=O)NC(C)(C)CC
REMARK SMILES IDX 11 1 10 2 9 3 8 4 6 5 7 6 5 8 4 9 3 10 2 11 1 12 81 13 82 14
REMARK SMILES IDX 83 15 84 17 85 18 86 19 87 20 88 21 12 22 13 23 14 24 15 25
REMARK SMILES IDX 16 26 17 28 18 29 19 30 80 31 20 32 79 33 21 34 22 35 23 36
REMARK SMILES IDX 73 37 24 38 78 39 72 40 74 41 25 42 77 43 71 44 70 45 26 47
REMARK SMILES IDX 58 48 38 49 57 50 39 51 42 52 56 53 75 54 40 55 41 56 55 58
REMARK SMILES IDX 76 59 43 60 27 61 28 62 36 63 29 64 35 65 37 66 34 67 30 68
REMARK SMILES IDX 31 69 32 70 33 71 59 72 60 73 68 74 61 75 67 76 69 77 66 78
REMARK SMILES IDX 62 79 63 80 64 81 65 82 44 83 45 84 53 85 46 86 52 87 54 88
REMARK SMILES IDX 51 89 47 90 48 91 49 92 50 93
REMARK H PARENT 8 7 83 16 15 27 74 46 42 57
REMARK Flexibility Score: inf
ROOT
ATOM      1  C   UNL A   1      31.395  28.592  24.757  1.00  0.00     0.002 C 
ENDROOT
BRANCH   1   2
ATOM      2  C   UNL A   1      30.196  27.879  24.122  1.00  0.00     0.021 C 
BRANCH   2   3
ATOM      3  C   UNL A   1      30.554  26.940  22.978  1.00  0.00     0.116 C 
BRANCH   3   4
ATOM      4  N   UNL A   1      31.918  27.091  22.536  1.00  0.00    -0.355 N 
ATOM      5  C   UNL A   1      32.876  26.127  22.428  1.00  0.00     0.239 C 
ATOM      6  O   UNL A   1      33.799  26.340  21.637  1.00  0.00    -0.273 OA
ATOM      7  H   UNL A   1      32.192  28.001  22.280  1.00  0.00     0.163 HD
BRANCH   5   8
ATOM      8  C   UNL A   1      32.709  24.765  23.119  1.00  0.00     0.221 C 
BRANCH   8   9
ATOM      9  N   UNL A   1      33.058  24.707  24.537  1.00  0.00    -0.312 N 
BRANCH   9  10
ATOM     10  C   UNL A   1      31.930  24.629  25.474  1.00  0.00     0.149 C 
BRANCH  10  11
ATOM     11  C   UNL A   1      31.010  23.502  25.098  1.00  0.00    -0.013 C 
ATOM     12  C   UNL A   1      30.946  22.351  25.781  1.00  0.00     0.006 C 
ENDBRANCH  10  11
ENDBRANCH   9  10
BRANCH   9  13
ATOM     13  C   UNL A   1      34.293  24.689  25.099  1.00  0.00     0.318 C 
ATOM     14  O   UNL A   1      34.875  25.750  25.372  1.00  0.00    -0.249 OA
ATOM     15  N   UNL A   1      34.999  23.619  25.461  1.00  0.00    -0.333 N 
ATOM     16  H   UNL A   1      35.784  23.960  25.947  1.00  0.00     0.165 HD
BRANCH  15  17
ATOM     17  C   UNL A   1      35.127  22.139  25.456  1.00  0.00     0.036 C 
ATOM     18  C   UNL A   1      34.468  21.592  26.735  1.00  0.00     0.034 C 
ATOM     19  C   UNL A   1      34.269  21.633  24.263  1.00  0.00     0.034 C 
BRANCH  17  20
ATOM     20  C   UNL A   1      36.533  21.535  25.263  1.00  0.00     0.024 C 
ATOM     21  C   UNL A   1      36.572  20.043  24.956  1.00  0.00     0.006 C 
ENDBRANCH  17  20
ENDBRANCH  15  17
ENDBRANCH   9  13
ENDBRANCH   8   9
ENDBRANCH   5   8
ENDBRANCH   3   4
ENDBRANCH   2   3
ENDBRANCH   1   2
BRANCH   1  22
ATOM     22  C   UNL A   1      31.556  28.401  26.270  1.00  0.00     0.002 C 
BRANCH  22  23
ATOM     23  C   UNL A   1      32.981  28.127  26.761  1.00  0.00     0.021 C 
BRANCH  23  24
ATOM     24  C   UNL A   1      34.031  29.112  26.272  1.00  0.00     0.116 C 
BRANCH  24  25
ATOM     25  N   UNL A   1      33.823  30.438  26.821  1.00  0.00    -0.352 N 
ATOM     26  C   UNL A   1      34.501  31.070  27.828  1.00  0.00     0.251 C 
ATOM     27  H   UNL A   1      33.093  30.955  26.411  1.00  0.00     0.163 HD
ATOM     28  O   UNL A   1      34.035  32.103  28.313  1.00  0.00    -0.269 OA
BRANCH  26  29
ATOM     29  C   UNL A   1      35.768  30.509  28.343  1.00  0.00     0.039 A 
ATOM     30  C   UNL A   1      36.959  30.833  27.690  1.00  0.00     0.014 A 
ATOM     31  C   UNL A   1      35.787  29.649  29.449  1.00  0.00     0.014 A 
ATOM     32  C   UNL A   1      38.168  30.320  28.161  1.00  0.00     0.010 A 
ATOM     33  C   UNL A   1      37.001  29.202  29.963  1.00  0.00     0.010 A 
ATOM     34  C   UNL A   1      38.202  29.514  29.311  1.00  0.00    -0.014 A 
BRANCH  34  35
ATOM     35  C   UNL A   1      39.494  28.987  29.816  1.00  0.00     0.031 A 
ATOM     36  C   UNL A   1      40.146  29.595  31.028  1.00  0.00     0.074 A 
ATOM     37  C   UNL A   1      40.092  27.973  29.163  1.00  0.00     0.049 A 
ATOM     38  N   UNL A   1      41.240  29.235  31.650  1.00  0.00    -0.248 NA
ATOM     39  C   UNL A   1      39.501  30.789  31.594  1.00  0.00     0.031 C 
ATOM     40  C   UNL A   1      39.598  27.362  27.926  1.00  0.00     0.029 A 
ATOM     41  N   UNL A   1      41.238  27.276  29.443  1.00  0.00    -0.354 N 
ATOM     42  C   UNL A   1      41.419  30.160  32.673  1.00  0.00     0.074 A 
ATOM     43  C   UNL A   1      40.361  31.139  32.536  1.00  0.00     0.031 C 
ATOM     44  C   UNL A   1      40.422  26.363  27.571  1.00  0.00     0.029 A 
ATOM     45  C   UNL A   1      41.509  26.276  28.540  1.00  0.00     0.049 A 
ATOM     46  H   UNL A   1      41.813  27.472  30.218  1.00  0.00     0.167 HD
ATOM     47  C   UNL A   1      42.360  30.176  33.650  1.00  0.00     0.034 A 
ATOM     48  C   UNL A   1      42.517  25.383  28.501  1.00  0.00     0.034 A 
ATOM     49  C   UNL A   1      43.404  29.183  33.766  1.00  0.00     0.049 A 
ATOM     50  C   UNL A   1      43.523  25.381  29.620  1.00  0.00     0.074 A 
ATOM     51  C   UNL A   1      44.366  29.049  34.750  1.00  0.00     0.029 A 
ATOM     52  N   UNL A   1      43.629  28.158  32.853  1.00  0.00    -0.354 N 
ATOM     53  N   UNL A   1      43.624  26.201  30.642  1.00  0.00    -0.248 NA
ATOM     54  C   UNL A   1      44.529  24.315  29.597  1.00  0.00     0.031 C 
ATOM     55  C   UNL A   1      45.213  27.991  34.399  1.00  0.00     0.029 A 
ATOM     56  C   UNL A   1      44.735  27.410  33.234  1.00  0.00     0.049 A 
ATOM     57  H   UNL A   1      43.085  27.988  32.051  1.00  0.00     0.167 HD
ATOM     58  C   UNL A   1      44.701  25.738  31.393  1.00  0.00     0.074 A 
ATOM     59  C   UNL A   1      45.190  24.551  30.720  1.00  0.00     0.031 C 
ATOM     60  C   UNL A   1      45.236  26.248  32.534  1.00  0.00     0.034 A 
BRANCH  47  61
ATOM     61  C   UNL A   1      42.312  31.321  34.640  1.00  0.00     0.023 A 
ATOM     62  C   UNL A   1      41.333  31.386  35.648  1.00  0.00     0.031 A 
ATOM     63  C   UNL A   1      43.218  32.390  34.540  1.00  0.00     0.131 A 
ATOM     64  C   UNL A   1      41.219  32.537  36.446  1.00  0.00     0.055 A 
ATOM     65  C   UNL A   1      43.157  33.492  35.397  1.00  0.00     0.041 A 
ATOM     66  F   UNL A   1      44.164  32.399  33.588  1.00  0.00    -0.206 F 
ATOM     67  C   UNL A   1      42.141  33.580  36.344  1.00  0.00     0.022 A 
BRANCH  64  68
ATOM     68  S   UNL A   1      39.745  32.726  37.487  1.00  0.00     0.124 S 
ATOM     69  O   UNL A   1      38.961  31.553  37.107  1.00  0.00    -0.237 OA
ATOM     70  O   UNL A   1      40.306  32.712  38.832  1.00  0.00    -0.237 OA
ATOM     71  O   UNL A   1      39.183  34.005  37.056  1.00  0.00    -0.744 OA
ENDBRANCH  64  68
ENDBRANCH  47  61
BRANCH  48  72
ATOM     72  C   UNL A   1      42.609  24.416  27.372  1.00  0.00     0.023 A 
ATOM     73  C   UNL A   1      41.966  23.169  27.420  1.00  0.00     0.031 A 
ATOM     74  C   UNL A   1      43.344  24.737  26.217  1.00  0.00     0.131 A 
ATOM     75  C   UNL A   1      42.097  22.275  26.346  1.00  0.00     0.055 A 
ATOM     76  C   UNL A   1      43.436  23.862  25.134  1.00  0.00     0.041 A 
ATOM     77  F   UNL A   1      43.964  25.924  26.116  1.00  0.00    -0.206 F 
ATOM     78  C   UNL A   1      42.817  22.618  25.199  1.00  0.00     0.022 A 
BRANCH  75  79
ATOM     79  S   UNL A   1      41.345  20.630  26.486  1.00  0.00     0.124 S 
ATOM     80  O   UNL A   1      39.959  20.903  26.124  1.00  0.00    -0.237 OA
ATOM     81  O   UNL A   1      42.121  19.859  25.520  1.00  0.00    -0.237 OA
ATOM     82  O   UNL A   1      41.568  20.272  27.886  1.00  0.00    -0.744 OA
ENDBRANCH  75  79
ENDBRANCH  48  72
BRANCH  60  83
ATOM     83  C   UNL A   1      46.408  25.499  33.122  1.00  0.00     0.023 A 
ATOM     84  C   UNL A   1      47.711  25.655  32.615  1.00  0.00     0.031 A 
ATOM     85  C   UNL A   1      46.214  24.582  34.170  1.00  0.00     0.131 A 
ATOM     86  C   UNL A   1      48.752  24.849  33.098  1.00  0.00     0.055 A 
ATOM     87  C   UNL A   1      47.268  23.833  34.696  1.00  0.00     0.041 A 
ATOM     88  F   UNL A   1      44.992  24.389  34.693  1.00  0.00    -0.206 F 
ATOM     89  C   UNL A   1      48.542  23.950  34.148  1.00  0.00     0.022 A 
BRANCH  86  90
ATOM     90  S   UNL A   1      50.352  24.891  32.245  1.00  0.00     0.124 S 
ATOM     91  O   UNL A   1      49.980  25.401  30.929  1.00  0.00    -0.237 OA
ATOM     92  O   UNL A   1      51.128  25.797  33.085  1.00  0.00    -0.237 OA
ATOM     93  O   UNL A   1      50.789  23.496  32.267  1.00  0.00    -0.744 OA
ENDBRANCH  86  90
ENDBRANCH  60  83
ENDBRANCH  34  35
ENDBRANCH  26  29
ENDBRANCH  24  25
ENDBRANCH  23  24
ENDBRANCH  22  23
ENDBRANCH   1  22
TORSDOF 22
ENDMDL
MODEL 2
REMARK VINA RESULT:      -9.7      1.612      2.165
REMARK SMILES C=CCN(CC(=O)NCCCCCCNC(=O)c1ccc(-c2c3nc(c(-c4cc(S(=O)(=O)[O-])ccc4F)c4ccc([nH]4)c(-c4cc(S(=O)(=O)[O-])ccc4F)c4nc(c(-c5cc(S(=O)(=O)[O-])ccc5F)c5ccc2[nH]5)C=C4)C=C3)cc1)C(=O)NC(C)(C)CC
REMARK SMILES IDX 11 1 10 2 9 3 8 4 6 5 7 6 5 8 4 9 3 10 2 11 1 12 81 13 82 14
REMARK SMILES IDX 83 15 84 17 85 18 86 19 87 20 88 21 12 22 13 23 14 24 15 25
REMARK SMILES IDX 16 26 17 28 18 29 19 30 80 31 20 32 79 33 21 34 22 35 23 36
REMARK SMILES IDX 73 37 24 38 78 39 72 40 74 41 25 42 77 43 71 44 70 45 26 47
REMARK SMILES IDX 58 48 38 49 57 50 39 51 42 52 56 53 75 54 40 55 41 56 55 58
REMARK SMILES IDX 76 59 43 60 27 61 28 62 36 63 29 64 35 65 37 66 34 67 30 68
REMARK SMILES IDX 31 69 32 70 33 71 59 72 60 73 68 74 61 75 67 76 69 77 66 78
REMARK SMILES IDX 62 79 63 80 64 81 65 82 44 83 45 84 53 85 46 86 52 87 54 88
REMARK SMILES IDX 51 89 47 90 48 91 49 92 50 93
REMARK H PARENT 8 7 83 16 15 27 74 46 42 57
REMARK Flexibility Score: inf
ROOT
ATOM      1  C   UNL A   1      31.352  28.498  24.949  1.00  0.00     0.002 C 
ENDROOT
BRANCH   1   2
ATOM      2  C   UNL A   1      30.326  27.522  24.360  1.00  0.00     0.021 C 
BRANCH   2   3
ATOM      3  C   UNL A   1      30.821  26.736  23.155  1.00  0.00     0.116 C 
BRANCH   3   4
ATOM      4  N   UNL A   1      32.201  27.007  22.838  1.00  0.00    -0.355 N 
ATOM      5  C   UNL A   1      33.075  26.217  22.153  1.00  0.00     0.239 C 
ATOM      6  O   UNL A   1      34.029  26.779  21.605  1.00  0.00    -0.273 OA
ATOM      7  H   UNL A   1      32.556  27.869  23.155  1.00  0.00     0.163 HD
BRANCH   5   8
ATOM      8  C   UNL A   1      32.780  24.728  21.919  1.00  0.00     0.221 C 
BRANCH   8   9
ATOM      9  N   UNL A   1      33.086  23.822  23.025  1.00  0.00    -0.312 N 
BRANCH   9  10
ATOM     10  C   UNL A   1      34.378  24.033  23.690  1.00  0.00     0.149 C 
BRANCH  10  11
ATOM     11  C   UNL A   1      35.292  22.865  23.449  1.00  0.00    -0.013 C 
ATOM     12  C   UNL A   1      36.619  22.990  23.315  1.00  0.00     0.006 C 
ENDBRANCH  10  11
ENDBRANCH   9  10
BRANCH   9  13
ATOM     13  C   UNL A   1      32.318  22.824  23.532  1.00  0.00     0.318 C 
ATOM     14  O   UNL A   1      31.896  21.919  22.798  1.00  0.00    -0.249 OA
ATOM     15  N   UNL A   1      31.963  22.649  24.805  1.00  0.00    -0.333 N 
ATOM     16  H   UNL A   1      31.520  21.770  24.847  1.00  0.00     0.165 HD
BRANCH  15  17
ATOM     17  C   UNL A   1      31.941  23.189  26.188  1.00  0.00     0.036 C 
ATOM     18  C   UNL A   1      31.912  24.726  26.107  1.00  0.00     0.034 C 
ATOM     19  C   UNL A   1      30.582  22.751  26.803  1.00  0.00     0.034 C 
BRANCH  17  20
ATOM     20  C   UNL A   1      33.032  22.712  27.168  1.00  0.00     0.024 C 
ATOM     21  C   UNL A   1      33.792  21.461  26.748  1.00  0.00     0.006 C 
ENDBRANCH  17  20
ENDBRANCH  15  17
ENDBRANCH   9  13
ENDBRANCH   8   9
ENDBRANCH   5   8
ENDBRANCH   3   4
ENDBRANCH   2   3
ENDBRANCH   1   2
BRANCH   1  22
ATOM     22  C   UNL A   1      31.597  28.373  26.457  1.00  0.00     0.002 C 
BRANCH  22  23
ATOM     23  C   UNL A   1      33.054  28.171  26.884  1.00  0.00     0.021 C 
BRANCH  23  24
ATOM     24  C   UNL A   1      34.045  29.150  26.272  1.00  0.00     0.116 C 
BRANCH  24  25
ATOM     25  N   UNL A   1      33.868  30.491  26.793  1.00  0.00    -0.352 N 
ATOM     26  C   UNL A   1      34.563  31.129  27.785  1.00  0.00     0.251 C 
ATOM     27  H   UNL A   1      33.149  31.016  26.374  1.00  0.00     0.163 HD
ATOM     28  O   UNL A   1      34.122  32.182  28.249  1.00  0.00    -0.269 OA
BRANCH  26  29
ATOM     29  C   UNL A   1      35.819  30.551  28.309  1.00  0.00     0.039 A 
ATOM     30  C   UNL A   1      37.015  30.835  27.647  1.00  0.00     0.014 A 
ATOM     31  C   UNL A   1      35.821  29.714  29.432  1.00  0.00     0.014 A 
ATOM     32  C   UNL A   1      38.213  30.305  28.125  1.00  0.00     0.010 A 
ATOM     33  C   UNL A   1      37.027  29.250  29.952  1.00  0.00     0.010 A 
ATOM     34  C   UNL A   1      38.233  29.523  29.292  1.00  0.00    -0.014 A 
BRANCH  34  35
ATOM     35  C   UNL A   1      39.515  28.978  29.805  1.00  0.00     0.031 A 
ATOM     36  C   UNL A   1      40.183  29.596  31.002  1.00  0.00     0.074 A 
ATOM     37  C   UNL A   1      40.087  27.936  29.171  1.00  0.00     0.049 A 
ATOM     38  N   UNL A   1      41.270  29.225  31.628  1.00  0.00    -0.248 NA
ATOM     39  C   UNL A   1      39.567  30.816  31.543  1.00  0.00     0.031 C 
ATOM     40  C   UNL A   1      39.576  27.311  27.949  1.00  0.00     0.029 A 
ATOM     41  N   UNL A   1      41.218  27.220  29.464  1.00  0.00    -0.354 N 
ATOM     42  C   UNL A   1      41.473  30.167  32.631  1.00  0.00     0.074 A 
ATOM     43  C   UNL A   1      40.437  31.167  32.476  1.00  0.00     0.031 C 
ATOM     44  C   UNL A   1      40.377  26.286  27.614  1.00  0.00     0.029 A 
ATOM     45  C   UNL A   1      41.465  26.196  28.581  1.00  0.00     0.049 A 
ATOM     46  H   UNL A   1      41.800  27.420  30.233  1.00  0.00     0.167 HD
ATOM     47  C   UNL A   1      42.417  30.183  33.605  1.00  0.00     0.034 A 
ATOM     48  C   UNL A   1      42.452  25.279  28.559  1.00  0.00     0.034 A 
ATOM     49  C   UNL A   1      43.439  29.170  33.740  1.00  0.00     0.049 A 
ATOM     50  C   UNL A   1      43.461  25.279  29.676  1.00  0.00     0.074 A 
ATOM     51  C   UNL A   1      44.401  29.035  34.724  1.00  0.00     0.029 A 
ATOM     52  N   UNL A   1      43.639  28.121  32.848  1.00  0.00    -0.354 N 
ATOM     53  N   UNL A   1      43.583  26.117  30.680  1.00  0.00    -0.248 NA
ATOM     54  C   UNL A   1      44.443  24.190  29.672  1.00  0.00     0.031 C 
ATOM     55  C   UNL A   1      45.223  27.951  34.393  1.00  0.00     0.029 A 
ATOM     56  C   UNL A   1      44.728  27.356  33.242  1.00  0.00     0.049 A 
ATOM     57  H   UNL A   1      43.089  27.946  32.052  1.00  0.00     0.167 HD
ATOM     58  C   UNL A   1      44.652  25.647  31.437  1.00  0.00     0.074 A 
ATOM     59  C   UNL A   1      45.113  24.435  30.789  1.00  0.00     0.031 C 
ATOM     60  C   UNL A   1      45.201  26.168  32.565  1.00  0.00     0.034 A 
BRANCH  47  61
ATOM     61  C   UNL A   1      42.397  31.349  34.571  1.00  0.00     0.023 A 
ATOM     62  C   UNL A   1      43.125  32.527  34.324  1.00  0.00     0.031 A 
ATOM     63  C   UNL A   1      41.689  31.261  35.782  1.00  0.00     0.131 A 
ATOM     64  C   UNL A   1      43.213  33.521  35.313  1.00  0.00     0.055 A 
ATOM     65  C   UNL A   1      41.705  32.294  36.724  1.00  0.00     0.041 A 
ATOM     66  F   UNL A   1      40.991  30.156  36.088  1.00  0.00    -0.206 F 
ATOM     67  C   UNL A   1      42.486  33.423  36.501  1.00  0.00     0.022 A 
BRANCH  64  68
ATOM     68  S   UNL A   1      44.428  34.851  35.098  1.00  0.00     0.124 S 
ATOM     69  O   UNL A   1      44.786  35.152  36.482  1.00  0.00    -0.237 OA
ATOM     70  O   UNL A   1      45.462  34.207  34.296  1.00  0.00    -0.237 OA
ATOM     71  O   UNL A   1      43.672  35.901  34.417  1.00  0.00    -0.744 OA
ENDBRANCH  64  68
ENDBRANCH  47  61
BRANCH  48  72
ATOM     72  C   UNL A   1      42.519  24.287  27.450  1.00  0.00     0.023 A 
ATOM     73  C   UNL A   1      41.713  23.138  27.445  1.00  0.00     0.031 A 
ATOM     74  C   UNL A   1      43.396  24.485  26.369  1.00  0.00     0.131 A 
ATOM     75  C   UNL A   1      41.823  22.214  26.394  1.00  0.00     0.055 A 
ATOM     76  C   UNL A   1      43.471  23.585  25.306  1.00  0.00     0.041 A 
ATOM     77  F   UNL A   1      44.177  25.577  26.320  1.00  0.00    -0.206 F 
ATOM     78  C   UNL A   1      42.687  22.436  25.319  1.00  0.00     0.022 A 
BRANCH  75  79
ATOM     79  S   UNL A   1      40.848  20.687  26.472  1.00  0.00     0.124 S 
ATOM     80  O   UNL A   1      39.566  21.122  25.929  1.00  0.00    -0.237 OA
ATOM     81  O   UNL A   1      41.628  19.785  25.632  1.00  0.00    -0.237 OA
ATOM     82  O   UNL A   1      40.843  20.358  27.897  1.00  0.00    -0.744 OA
ENDBRANCH  75  79
ENDBRANCH  48  72
BRANCH  60  83
ATOM     83  C   UNL A   1      46.359  25.407  33.167  1.00  0.00     0.023 A 
ATOM     84  C   UNL A   1      47.675  25.580  32.702  1.00  0.00     0.031 A 
ATOM     85  C   UNL A   1      46.137  24.459  34.183  1.00  0.00     0.131 A 
ATOM     86  C   UNL A   1      48.704  24.763  33.193  1.00  0.00     0.055 A 
ATOM     87  C   UNL A   1      47.178  23.699  34.718  1.00  0.00     0.041 A 
ATOM     88  F   UNL A   1      44.901  24.249  34.664  1.00  0.00    -0.206 F 
ATOM     89  C   UNL A   1      48.467  23.834  34.211  1.00  0.00     0.022 A 
BRANCH  86  90
ATOM     90  S   UNL A   1      50.328  24.833  32.389  1.00  0.00     0.124 S 
ATOM     91  O   UNL A   1      49.994  25.383  31.079  1.00  0.00    -0.237 OA
ATOM     92  O   UNL A   1      51.078  25.714  33.278  1.00  0.00    -0.237 OA
ATOM     93  O   UNL A   1      50.768  23.439  32.381  1.00  0.00    -0.744 OA
ENDBRANCH  86  90
ENDBRANCH  60  83
ENDBRANCH  34  35
ENDBRANCH  26  29
ENDBRANCH  24  25
ENDBRANCH  23  24
ENDBRANCH  22  23
ENDBRANCH   1  22
TORSDOF 22
ENDMDL
MODEL 3
REMARK VINA RESULT:      -9.4      2.128      2.596
REMARK SMILES C=CCN(CC(=O)NCCCCCCNC(=O)c1ccc(-c2c3nc(c(-c4cc(S(=O)(=O)[O-])ccc4F)c4ccc([nH]4)c(-c4cc(S(=O)(=O)[O-])ccc4F)c4nc(c(-c5cc(S(=O)(=O)[O-])ccc5F)c5ccc2[nH]5)C=C4)C=C3)cc1)C(=O)NC(C)(C)CC
REMARK SMILES IDX 11 1 10 2 9 3 8 4 6 5 7 6 5 8 4 9 3 10 2 11 1 12 81 13 82 14
REMARK SMILES IDX 83 15 84 17 85 18 86 19 87 20 88 21 12 22 13 23 14 24 15 25
REMARK SMILES IDX 16 26 17 28 18 29 19 30 80 31 20 32 79 33 21 34 22 35 23 36
REMARK SMILES IDX 73 37 24 38 78 39 72 40 74 41 25 42 77 43 71 44 70 45 26 47
REMARK SMILES IDX 58 48 38 49 57 50 39 51 42 52 56 53 75 54 40 55 41 56 55 58
REMARK SMILES IDX 76 59 43 60 27 61 28 62 36 63 29 64 35 65 37 66 34 67 30 68
REMARK SMILES IDX 31 69 32 70 33 71 59 72 60 73 68 74 61 75 67 76 69 77 66 78
REMARK SMILES IDX 62 79 63 80 64 81 65 82 44 83 45 84 53 85 46 86 52 87 54 88
REMARK SMILES IDX 51 89 47 90 48 91 49 92 50 93
REMARK H PARENT 8 7 83 16 15 27 74 46 42 57
REMARK Flexibility Score: inf
ROOT
ATOM      1  C   UNL A   1      31.441  28.900  23.960  1.00  0.00     0.002 C 
ENDROOT
BRANCH   1   2
ATOM      2  C   UNL A   1      30.353  27.913  23.518  1.00  0.00     0.021 C 
BRANCH   2   3
ATOM      3  C   UNL A   1      30.799  26.458  23.481  1.00  0.00     0.116 C 
BRANCH   3   4
ATOM      4  N   UNL A   1      30.157  25.650  24.487  1.00  0.00    -0.355 N 
ATOM      5  C   UNL A   1      30.745  24.935  25.487  1.00  0.00     0.239 C 
ATOM      6  O   UNL A   1      30.055  24.690  26.482  1.00  0.00    -0.273 OA
ATOM      7  H   UNL A   1      29.175  25.610  24.449  1.00  0.00     0.163 HD
BRANCH   5   8
ATOM      8  C   UNL A   1      32.247  24.614  25.454  1.00  0.00     0.221 C 
BRANCH   8   9
ATOM      9  N   UNL A   1      32.720  23.823  24.319  1.00  0.00    -0.312 N 
BRANCH   9  10
ATOM     10  C   UNL A   1      31.821  22.756  23.860  1.00  0.00     0.149 C 
BRANCH  10  11
ATOM     11  C   UNL A   1      32.030  21.508  24.669  1.00  0.00    -0.013 C 
ATOM     12  C   UNL A   1      32.573  20.392  24.165  1.00  0.00     0.006 C 
ENDBRANCH  10  11
ENDBRANCH   9  10
BRANCH   9  13
ATOM     13  C   UNL A   1      33.873  23.965  23.617  1.00  0.00     0.318 C 
ATOM     14  O   UNL A   1      33.878  24.562  22.530  1.00  0.00    -0.249 OA
ATOM     15  N   UNL A   1      35.090  23.561  23.977  1.00  0.00    -0.333 N 
ATOM     16  H   UNL A   1      35.711  23.931  23.308  1.00  0.00     0.165 HD
BRANCH  15  17
ATOM     17  C   UNL A   1      35.926  22.800  24.941  1.00  0.00     0.036 C 
ATOM     18  C   UNL A   1      36.880  21.894  24.143  1.00  0.00     0.034 C 
ATOM     19  C   UNL A   1      36.813  23.849  25.667  1.00  0.00     0.034 C 
BRANCH  17  20
ATOM     20  C   UNL A   1      35.208  22.002  26.048  1.00  0.00     0.024 C 
ATOM     21  C   UNL A   1      34.609  22.833  27.176  1.00  0.00     0.006 C 
ENDBRANCH  17  20
ENDBRANCH  15  17
ENDBRANCH   9  13
ENDBRANCH   8   9
ENDBRANCH   5   8
ENDBRANCH   3   4
ENDBRANCH   2   3
ENDBRANCH   1   2
BRANCH   1  22
ATOM     22  C   UNL A   1      31.626  29.049  25.475  1.00  0.00     0.002 C 
BRANCH  22  23
ATOM     23  C   UNL A   1      32.765  28.232  26.093  1.00  0.00     0.021 C 
BRANCH  23  24
ATOM     24  C   UNL A   1      34.072  28.988  26.279  1.00  0.00     0.116 C 
BRANCH  24  25
ATOM     25  N   UNL A   1      33.851  30.332  26.775  1.00  0.00    -0.352 N 
ATOM     26  C   UNL A   1      34.538  31.018  27.740  1.00  0.00     0.251 C 
ATOM     27  H   UNL A   1      33.102  30.818  26.360  1.00  0.00     0.163 HD
ATOM     28  O   UNL A   1      34.063  32.062  28.191  1.00  0.00    -0.269 OA
BRANCH  26  29
ATOM     29  C   UNL A   1      35.826  30.502  28.250  1.00  0.00     0.039 A 
ATOM     30  C   UNL A   1      35.824  29.720  29.407  1.00  0.00     0.014 A 
ATOM     31  C   UNL A   1      37.035  30.805  27.612  1.00  0.00     0.014 A 
ATOM     32  C   UNL A   1      37.026  29.218  29.905  1.00  0.00     0.010 A 
ATOM     33  C   UNL A   1      38.224  30.239  28.066  1.00  0.00     0.010 A 
ATOM     34  C   UNL A   1      38.234  29.458  29.230  1.00  0.00    -0.014 A 
BRANCH  34  35
ATOM     35  C   UNL A   1      39.507  28.906  29.757  1.00  0.00     0.031 A 
ATOM     36  C   UNL A   1      40.167  29.522  30.960  1.00  0.00     0.074 A 
ATOM     37  C   UNL A   1      40.079  27.860  29.131  1.00  0.00     0.049 A 
ATOM     38  N   UNL A   1      41.246  29.145  31.598  1.00  0.00    -0.248 NA
ATOM     39  C   UNL A   1      39.554  30.747  31.494  1.00  0.00     0.031 C 
ATOM     40  C   UNL A   1      39.577  27.236  27.904  1.00  0.00     0.029 A 
ATOM     41  N   UNL A   1      41.203  27.137  29.436  1.00  0.00    -0.354 N 
ATOM     42  C   UNL A   1      41.444  30.087  32.602  1.00  0.00     0.074 A 
ATOM     43  C   UNL A   1      40.416  31.092  32.435  1.00  0.00     0.031 C 
ATOM     44  C   UNL A   1      40.374  26.205  27.579  1.00  0.00     0.029 A 
ATOM     45  C   UNL A   1      41.452  26.109  28.557  1.00  0.00     0.049 A 
ATOM     46  H   UNL A   1      41.777  27.334  30.211  1.00  0.00     0.167 HD
ATOM     47  C   UNL A   1      42.379  30.098  33.585  1.00  0.00     0.034 A 
ATOM     48  C   UNL A   1      42.433  25.187  28.546  1.00  0.00     0.034 A 
ATOM     49  C   UNL A   1      43.392  29.078  33.731  1.00  0.00     0.049 A 
ATOM     50  C   UNL A   1      43.430  25.181  29.673  1.00  0.00     0.074 A 
ATOM     51  C   UNL A   1      44.343  28.939  34.726  1.00  0.00     0.029 A 
ATOM     52  N   UNL A   1      43.595  28.026  32.843  1.00  0.00    -0.354 N 
ATOM     53  N   UNL A   1      43.548  26.020  30.678  1.00  0.00    -0.248 NA
ATOM     54  C   UNL A   1      44.406  24.086  29.681  1.00  0.00     0.031 C 
ATOM     55  C   UNL A   1      45.161  27.849  34.405  1.00  0.00     0.029 A 
ATOM     56  C   UNL A   1      44.675  27.255  33.250  1.00  0.00     0.049 A 
ATOM     57  H   UNL A   1      43.051  27.854  32.042  1.00  0.00     0.167 HD
ATOM     58  C   UNL A   1      44.605  25.544  31.447  1.00  0.00     0.074 A 
ATOM     59  C   UNL A   1      45.065  24.328  30.805  1.00  0.00     0.031 C 
ATOM     60  C   UNL A   1      45.147  26.064  32.580  1.00  0.00     0.034 A 
BRANCH  47  61
ATOM     61  C   UNL A   1      42.356  31.265  34.549  1.00  0.00     0.023 A 
ATOM     62  C   UNL A   1      43.134  32.418  34.334  1.00  0.00     0.031 A 
ATOM     63  C   UNL A   1      41.593  31.203  35.728  1.00  0.00     0.131 A 
ATOM     64  C   UNL A   1      43.212  33.409  35.325  1.00  0.00     0.055 A 
ATOM     65  C   UNL A   1      41.604  32.236  36.669  1.00  0.00     0.041 A 
ATOM     66  F   UNL A   1      40.845  30.124  36.003  1.00  0.00    -0.206 F 
ATOM     67  C   UNL A   1      42.432  33.339  36.481  1.00  0.00     0.022 A 
BRANCH  64  68
ATOM     68  S   UNL A   1      44.481  34.697  35.164  1.00  0.00     0.124 S 
ATOM     69  O   UNL A   1      44.111  35.320  33.895  1.00  0.00    -0.237 OA
ATOM     70  O   UNL A   1      44.265  35.503  36.359  1.00  0.00    -0.237 OA
ATOM     71  O   UNL A   1      45.733  33.943  35.135  1.00  0.00    -0.744 OA
ENDBRANCH  64  68
ENDBRANCH  47  61
BRANCH  48  72
ATOM     72  C   UNL A   1      42.505  24.192  27.440  1.00  0.00     0.023 A 
ATOM     73  C   UNL A   1      41.752  23.008  27.468  1.00  0.00     0.031 A 
ATOM     74  C   UNL A   1      43.333  24.423  26.327  1.00  0.00     0.131 A 
ATOM     75  C   UNL A   1      41.866  22.084  26.418  1.00  0.00     0.055 A 
ATOM     76  C   UNL A   1      43.410  23.522  25.265  1.00  0.00     0.041 A 
ATOM     77  F   UNL A   1      44.061  25.549  26.245  1.00  0.00    -0.206 F 
ATOM     78  C   UNL A   1      42.679  22.339  25.311  1.00  0.00     0.022 A 
BRANCH  75  79
ATOM     79  S   UNL A   1      40.964  20.515  26.537  1.00  0.00     0.124 S 
ATOM     80  O   UNL A   1      39.710  20.838  25.865  1.00  0.00    -0.237 OA
ATOM     81  O   UNL A   1      41.853  19.599  25.830  1.00  0.00    -0.237 OA
ATOM     82  O   UNL A   1      40.861  20.290  27.978  1.00  0.00    -0.744 OA
ENDBRANCH  75  79
ENDBRANCH  48  72
BRANCH  60  83
ATOM     83  C   UNL A   1      46.293  25.295  33.194  1.00  0.00     0.023 A 
ATOM     84  C   UNL A   1      46.073  24.246  34.105  1.00  0.00     0.031 A 
ATOM     85  C   UNL A   1      47.624  25.649  32.904  1.00  0.00     0.131 A 
ATOM     86  C   UNL A   1      47.160  23.642  34.753  1.00  0.00     0.055 A 
ATOM     87  C   UNL A   1      48.704  24.996  33.500  1.00  0.00     0.041 A 
ATOM     88  F   UNL A   1      47.895  26.644  32.044  1.00  0.00    -0.206 F 
ATOM     89  C   UNL A   1      48.475  23.999  34.444  1.00  0.00     0.022 A 
BRANCH  86  90
ATOM     90  S   UNL A   1      46.828  22.481  36.106  1.00  0.00     0.124 S 
ATOM     91  O   UNL A   1      47.503  21.273  35.642  1.00  0.00    -0.237 OA
ATOM     92  O   UNL A   1      47.438  23.153  37.249  1.00  0.00    -0.237 OA
ATOM     93  O   UNL A   1      45.369  22.401  36.140  1.00  0.00    -0.744 OA
ENDBRANCH  86  90
ENDBRANCH  60  83
ENDBRANCH  34  35
ENDBRANCH  26  29
ENDBRANCH  24  25
ENDBRANCH  23  24
ENDBRANCH  22  23
ENDBRANCH   1  22
TORSDOF 22
ENDMDL
