MODEL 1
REMARK VINA RESULT:     -11.0      0.000      0.000
REMARK SMILES Cc1noc(C)c1CNc1cnc(C(=O)NCCCCCCNC(=O)c2ccc(-c3c4nc(c(-c5cc(S(=O)(=O)[O-])ccc5F)c5ccc([nH]5)c(-c5cc(S(=O)(=O)[O-])ccc5F)c5nc(c(-c6cc(S(=O)(=O)[O-])ccc6F)c6ccc3[nH]6)C=C5)C=C4)cc2)cn1
REMARK SMILES IDX 19 1 18 2 17 3 16 4 14 5 15 6 13 8 10 9 11 10 90 11 12 12
REMARK SMILES IDX 89 13 9 14 8 16 7 17 1 18 2 19 3 20 4 21 5 22 6 23 20 24
REMARK SMILES IDX 21 25 22 26 23 27 24 28 25 30 26 31 27 32 88 33 28 34 87 35
REMARK SMILES IDX 29 36 30 37 31 38 81 39 32 40 86 41 80 42 82 43 33 44 85 45
REMARK SMILES IDX 79 46 78 47 34 49 66 50 46 51 65 52 47 53 50 54 64 55 83 56
REMARK SMILES IDX 48 57 49 58 63 60 84 61 51 62 35 63 36 64 44 65 37 66 43 67
REMARK SMILES IDX 45 68 42 69 38 70 39 71 40 72 41 73 67 74 68 75 76 76 69 77
REMARK SMILES IDX 75 78 77 79 74 80 70 81 71 82 72 83 73 84 52 85 53 86 61 87
REMARK SMILES IDX 54 88 60 89 62 90 59 91 55 92 56 93 57 94 58 95
REMARK H PARENT 16 7 9 15 23 29 82 48 50 59
REMARK Flexibility Score: inf
ROOT
ATOM      1  C   UNL A   1      32.913  25.226  26.489  1.00  0.00     0.002 C 
ENDROOT
BRANCH   1   2
ATOM      2  C   UNL A   1      33.832  24.185  25.841  1.00  0.00     0.021 C 
BRANCH   2   3
ATOM      3  C   UNL A   1      34.677  24.746  24.700  1.00  0.00     0.116 C 
BRANCH   3   4
ATOM      4  N   UNL A   1      34.327  24.122  23.433  1.00  0.00    -0.351 N 
ATOM      5  C   UNL A   1      33.504  24.534  22.409  1.00  0.00     0.271 C 
ATOM      6  O   UNL A   1      33.350  23.776  21.450  1.00  0.00    -0.267 OA
ATOM      7  H   UNL A   1      34.757  23.250  23.279  1.00  0.00     0.163 HD
BRANCH   5   8
ATOM      8  C   UNL A   1      32.818  25.858  22.401  1.00  0.00     0.146 A 
ATOM      9  C   UNL A   1      31.689  28.323  22.568  1.00  0.00     0.144 A 
ATOM     10  C   UNL A   1      30.937  27.153  22.580  1.00  0.00     0.158 A 
ATOM     11  N   UNL A   1      33.027  28.265  22.416  1.00  0.00    -0.235 NA
ATOM     12  N   UNL A   1      31.474  25.916  22.505  1.00  0.00    -0.246 NA
ATOM     13  C   UNL A   1      33.575  27.018  22.341  1.00  0.00     0.147 A 
BRANCH   9  14
ATOM     14  N   UNL A   1      31.154  29.575  22.746  1.00  0.00    -0.365 N 
ATOM     15  H   UNL A   1      31.506  30.161  23.455  1.00  0.00     0.162 HD
BRANCH  14  16
ATOM     16  C   UNL A   1      30.073  30.043  21.898  1.00  0.00     0.156 C 
BRANCH  16  17
ATOM     17  C   UNL A   1      28.847  30.452  22.632  1.00  0.00     0.037 A 
ATOM     18  C   UNL A   1      29.158  33.047  22.765  1.00  0.00     0.071 C 
ATOM     19  C   UNL A   1      28.450  31.765  23.008  1.00  0.00     0.086 A 
ATOM     20  N   UNL A   1      27.281  31.753  23.659  1.00  0.00    -0.085 NA
ATOM     21  O   UNL A   1      26.903  30.426  23.731  1.00  0.00    -0.361 OA
ATOM     22  C   UNL A   1      27.840  29.653  23.123  1.00  0.00     0.138 A 
ATOM     23  C   UNL A   1      27.601  28.197  23.126  1.00  0.00     0.091 C 
ENDBRANCH  16  17
ENDBRANCH  14  16
ENDBRANCH   9  14
ENDBRANCH   5   8
ENDBRANCH   3   4
ENDBRANCH   2   3
ENDBRANCH   1   2
BRANCH   1  24
ATOM     24  C   UNL A   1      32.876  26.585  25.779  1.00  0.00     0.002 C 
BRANCH  24  25
ATOM     25  C   UNL A   1      33.239  27.787  26.656  1.00  0.00     0.021 C 
BRANCH  25  26
ATOM     26  C   UNL A   1      34.066  28.857  25.949  1.00  0.00     0.116 C 
BRANCH  26  27
ATOM     27  N   UNL A   1      33.762  30.188  26.450  1.00  0.00    -0.352 N 
ATOM     28  C   UNL A   1      34.343  30.883  27.478  1.00  0.00     0.251 C 
ATOM     29  H   UNL A   1      33.035  30.658  25.981  1.00  0.00     0.163 HD
ATOM     30  O   UNL A   1      33.799  31.901  27.907  1.00  0.00    -0.269 OA
BRANCH  28  31
ATOM     31  C   UNL A   1      35.605  30.402  28.080  1.00  0.00     0.039 A 
ATOM     32  C   UNL A   1      35.555  29.706  29.290  1.00  0.00     0.014 A 
ATOM     33  C   UNL A   1      36.835  30.647  27.462  1.00  0.00     0.014 A 
ATOM     34  C   UNL A   1      36.733  29.207  29.850  1.00  0.00     0.010 A 
ATOM     35  C   UNL A   1      37.999  30.087  27.985  1.00  0.00     0.010 A 
ATOM     36  C   UNL A   1      37.962  29.363  29.186  1.00  0.00    -0.014 A 
BRANCH  36  37
ATOM     37  C   UNL A   1      39.212  28.774  29.735  1.00  0.00     0.031 A 
ATOM     38  C   UNL A   1      39.851  29.367  30.965  1.00  0.00     0.074 A 
ATOM     39  C   UNL A   1      39.803  27.745  29.092  1.00  0.00     0.049 A 
ATOM     40  N   UNL A   1      40.973  29.038  31.551  1.00  0.00    -0.248 NA
ATOM     41  C   UNL A   1      39.149  30.492  31.604  1.00  0.00     0.031 C 
ATOM     42  C   UNL A   1      39.298  27.114  27.869  1.00  0.00     0.029 A 
ATOM     43  N   UNL A   1      40.960  27.057  29.363  1.00  0.00    -0.354 N 
ATOM     44  C   UNL A   1      41.124  29.927  32.612  1.00  0.00     0.074 A 
ATOM     45  C   UNL A   1      39.998  30.834  32.562  1.00  0.00     0.031 C 
ATOM     46  C   UNL A   1      40.127  26.120  27.511  1.00  0.00     0.029 A 
ATOM     47  C   UNL A   1      41.252  26.076  28.440  1.00  0.00     0.049 A 
ATOM     48  H   UNL A   1      41.527  27.245  30.145  1.00  0.00     0.167 HD
ATOM     49  C   UNL A   1      42.105  29.971  33.545  1.00  0.00     0.034 A 
ATOM     50  C   UNL A   1      42.314  25.250  28.342  1.00  0.00     0.034 A 
ATOM     51  C   UNL A   1      43.205  29.039  33.597  1.00  0.00     0.049 A 
ATOM     52  C   UNL A   1      43.397  25.333  29.392  1.00  0.00     0.074 A 
ATOM     53  C   UNL A   1      44.201  28.942  34.553  1.00  0.00     0.029 A 
ATOM     54  N   UNL A   1      43.464  28.055  32.653  1.00  0.00    -0.354 N 
ATOM     55  N   UNL A   1      43.478  26.129  30.434  1.00  0.00    -0.248 NA
ATOM     56  C   UNL A   1      44.522  24.399  29.262  1.00  0.00     0.031 C 
ATOM     57  C   UNL A   1      45.107  27.960  34.143  1.00  0.00     0.029 A 
ATOM     58  C   UNL A   1      44.629  27.378  32.980  1.00  0.00     0.049 A 
ATOM     59  H   UNL A   1      42.902  27.864  31.866  1.00  0.00     0.167 HD
ATOM     60  C   UNL A   1      44.644  25.761  31.101  1.00  0.00     0.074 A 
ATOM     61  C   UNL A   1      45.219  24.660  30.357  1.00  0.00     0.031 C 
ATOM     62  C   UNL A   1      45.190  26.281  32.230  1.00  0.00     0.034 A 
BRANCH  49  63
ATOM     63  C   UNL A   1      42.063  31.077  34.571  1.00  0.00     0.023 A 
ATOM     64  C   UNL A   1      42.698  32.313  34.364  1.00  0.00     0.031 A 
ATOM     65  C   UNL A   1      41.342  30.898  35.765  1.00  0.00     0.131 A 
ATOM     66  C   UNL A   1      42.635  33.306  35.355  1.00  0.00     0.055 A 
ATOM     67  C   UNL A   1      41.221  31.915  36.714  1.00  0.00     0.041 A 
ATOM     68  F   UNL A   1      40.734  29.729  36.028  1.00  0.00    -0.206 F 
ATOM     69  C   UNL A   1      41.877  33.126  36.515  1.00  0.00     0.022 A 
BRANCH  66  70
ATOM     70  S   UNL A   1      43.638  34.803  35.153  1.00  0.00     0.124 S 
ATOM     71  O   UNL A   1      42.763  35.824  35.723  1.00  0.00    -0.237 OA
ATOM     72  O   UNL A   1      44.837  34.487  35.920  1.00  0.00    -0.237 OA
ATOM     73  O   UNL A   1      43.830  34.894  33.706  1.00  0.00    -0.744 OA
ENDBRANCH  66  70
ENDBRANCH  49  63
BRANCH  50  74
ATOM     74  C   UNL A   1      42.440  24.293  27.201  1.00  0.00     0.023 A 
ATOM     75  C   UNL A   1      41.905  22.997  27.280  1.00  0.00     0.031 A 
ATOM     76  C   UNL A   1      43.181  24.627  26.052  1.00  0.00     0.131 A 
ATOM     77  C   UNL A   1      42.185  22.061  26.272  1.00  0.00     0.055 A 
ATOM     78  C   UNL A   1      43.393  23.714  25.017  1.00  0.00     0.041 A 
ATOM     79  F   UNL A   1      43.718  25.850  25.921  1.00  0.00    -0.206 F 
ATOM     80  C   UNL A   1      42.912  22.415  25.134  1.00  0.00     0.022 A 
BRANCH  77  81
ATOM     81  S   UNL A   1      41.710  20.330  26.544  1.00  0.00     0.124 S 
ATOM     82  O   UNL A   1      40.404  20.278  25.899  1.00  0.00    -0.237 OA
ATOM     83  O   UNL A   1      42.789  19.613  25.871  1.00  0.00    -0.237 OA
ATOM     84  O   UNL A   1      41.693  20.207  28.000  1.00  0.00    -0.744 OA
ENDBRANCH  77  81
ENDBRANCH  50  74
BRANCH  62  85
ATOM     85  C   UNL A   1      46.443  25.624  32.757  1.00  0.00     0.023 A 
ATOM     86  C   UNL A   1      47.713  25.907  32.222  1.00  0.00     0.031 A 
ATOM     87  C   UNL A   1      46.363  24.692  33.806  1.00  0.00     0.131 A 
ATOM     88  C   UNL A   1      48.840  25.221  32.698  1.00  0.00     0.055 A 
ATOM     89  C   UNL A   1      47.497  24.065  34.323  1.00  0.00     0.041 A 
ATOM     90  F   UNL A   1      45.176  24.380  34.354  1.00  0.00    -0.206 F 
ATOM     91  C   UNL A   1      48.742  24.316  33.758  1.00  0.00     0.022 A 
BRANCH  88  92
ATOM     92  S   UNL A   1      50.424  25.451  31.844  1.00  0.00     0.124 S 
ATOM     93  O   UNL A   1      51.265  24.449  32.491  1.00  0.00    -0.237 OA
ATOM     94  O   UNL A   1      50.071  25.185  30.453  1.00  0.00    -0.237 OA
ATOM     95  O   UNL A   1      50.774  26.839  32.139  1.00  0.00    -0.744 OA
ENDBRANCH  88  92
ENDBRANCH  62  85
ENDBRANCH  36  37
ENDBRANCH  28  31
ENDBRANCH  26  27
ENDBRANCH  25  26
ENDBRANCH  24  25
ENDBRANCH   1  24
TORSDOF 19
ENDMDL
MODEL 2
REMARK VINA RESULT:     -10.7      2.389      4.423
REMARK SMILES Cc1noc(C)c1CNc1cnc(C(=O)NCCCCCCNC(=O)c2ccc(-c3c4nc(c(-c5cc(S(=O)(=O)[O-])ccc5F)c5ccc([nH]5)c(-c5cc(S(=O)(=O)[O-])ccc5F)c5nc(c(-c6cc(S(=O)(=O)[O-])ccc6F)c6ccc3[nH]6)C=C5)C=C4)cc2)cn1
REMARK SMILES IDX 19 1 18 2 17 3 16 4 14 5 15 6 13 8 10 9 11 10 90 11 12 12
REMARK SMILES IDX 89 13 9 14 8 16 7 17 1 18 2 19 3 20 4 21 5 22 6 23 20 24
REMARK SMILES IDX 21 25 22 26 23 27 24 28 25 30 26 31 27 32 88 33 28 34 87 35
REMARK SMILES IDX 29 36 30 37 31 38 81 39 32 40 86 41 80 42 82 43 33 44 85 45
REMARK SMILES IDX 79 46 78 47 34 49 66 50 46 51 65 52 47 53 50 54 64 55 83 56
REMARK SMILES IDX 48 57 49 58 63 60 84 61 51 62 35 63 36 64 44 65 37 66 43 67
REMARK SMILES IDX 45 68 42 69 38 70 39 71 40 72 41 73 67 74 68 75 76 76 69 77
REMARK SMILES IDX 75 78 77 79 74 80 70 81 71 82 72 83 73 84 52 85 53 86 61 87
REMARK SMILES IDX 54 88 60 89 62 90 59 91 55 92 56 93 57 94 58 95
REMARK H PARENT 16 7 9 15 23 29 82 48 50 59
REMARK Flexibility Score: inf
ROOT
ATOM      1  C   UNL A   1      32.053  28.830  24.519  1.00  0.00     0.002 C 
ENDROOT
BRANCH   1   2
ATOM      2  C   UNL A   1      31.687  28.964  23.037  1.00  0.00     0.021 C 
BRANCH   2   3
ATOM      3  C   UNL A   1      30.977  27.736  22.471  1.00  0.00     0.116 C 
BRANCH   3   4
ATOM      4  N   UNL A   1      31.881  26.933  21.662  1.00  0.00    -0.351 N 
ATOM      5  C   UNL A   1      32.524  25.744  21.921  1.00  0.00     0.271 C 
ATOM      6  O   UNL A   1      33.282  25.298  21.058  1.00  0.00    -0.267 OA
ATOM      7  H   UNL A   1      32.064  27.307  20.770  1.00  0.00     0.163 HD
BRANCH   5   8
ATOM      8  C   UNL A   1      32.323  24.969  23.178  1.00  0.00     0.146 A 
ATOM      9  C   UNL A   1      32.174  23.506  25.462  1.00  0.00     0.144 A 
ATOM     10  C   UNL A   1      31.385  23.237  24.348  1.00  0.00     0.158 A 
ATOM     11  N   UNL A   1      33.016  24.558  25.456  1.00  0.00    -0.235 NA
ATOM     12  N   UNL A   1      31.444  23.945  23.200  1.00  0.00    -0.246 NA
ATOM     13  C   UNL A   1      33.081  25.275  24.298  1.00  0.00     0.147 A 
BRANCH   9  14
ATOM     14  N   UNL A   1      32.188  22.726  26.593  1.00  0.00    -0.365 N 
ATOM     15  H   UNL A   1      31.339  22.477  27.024  1.00  0.00     0.162 HD
BRANCH  14  16
ATOM     16  C   UNL A   1      33.443  22.267  27.158  1.00  0.00     0.156 C 
BRANCH  16  17
ATOM     17  C   UNL A   1      34.335  21.571  26.194  1.00  0.00     0.037 A 
ATOM     18  C   UNL A   1      36.361  23.221  26.067  1.00  0.00     0.071 C 
ATOM     19  C   UNL A   1      35.609  21.990  25.720  1.00  0.00     0.086 A 
ATOM     20  N   UNL A   1      36.123  21.105  24.857  1.00  0.00    -0.085 NA
ATOM     21  O   UNL A   1      35.181  20.100  24.742  1.00  0.00    -0.361 OA
ATOM     22  C   UNL A   1      34.115  20.382  25.535  1.00  0.00     0.138 A 
ATOM     23  C   UNL A   1      33.002  19.414  25.517  1.00  0.00     0.091 C 
ENDBRANCH  16  17
ENDBRANCH  14  16
ENDBRANCH   9  14
ENDBRANCH   5   8
ENDBRANCH   3   4
ENDBRANCH   2   3
ENDBRANCH   1   2
BRANCH   1  24
ATOM     24  C   UNL A   1      33.546  28.995  24.831  1.00  0.00     0.002 C 
BRANCH  24  25
ATOM     25  C   UNL A   1      34.020  28.313  26.118  1.00  0.00     0.021 C 
BRANCH  25  26
ATOM     26  C   UNL A   1      33.430  28.900  27.397  1.00  0.00     0.116 C 
BRANCH  26  27
ATOM     27  N   UNL A   1      33.422  30.354  27.367  1.00  0.00    -0.352 N 
ATOM     28  C   UNL A   1      34.303  31.239  27.931  1.00  0.00     0.251 C 
ATOM     29  H   UNL A   1      32.677  30.761  26.869  1.00  0.00     0.163 HD
ATOM     30  O   UNL A   1      34.005  32.432  27.998  1.00  0.00    -0.269 OA
BRANCH  28  31
ATOM     31  C   UNL A   1      35.593  30.761  28.472  1.00  0.00     0.039 A 
ATOM     32  C   UNL A   1      35.586  29.835  29.517  1.00  0.00     0.014 A 
ATOM     33  C   UNL A   1      36.806  31.233  27.960  1.00  0.00     0.014 A 
ATOM     34  C   UNL A   1      36.796  29.340  30.011  1.00  0.00     0.010 A 
ATOM     35  C   UNL A   1      38.007  30.684  28.405  1.00  0.00     0.010 A 
ATOM     36  C   UNL A   1      38.016  29.733  29.436  1.00  0.00    -0.014 A 
BRANCH  36  37
ATOM     37  C   UNL A   1      39.307  29.160  29.903  1.00  0.00     0.031 A 
ATOM     38  C   UNL A   1      40.048  29.800  31.049  1.00  0.00     0.074 A 
ATOM     39  C   UNL A   1      39.837  28.100  29.258  1.00  0.00     0.049 A 
ATOM     40  N   UNL A   1      41.215  29.488  31.553  1.00  0.00    -0.248 NA
ATOM     41  C   UNL A   1      39.407  30.956  31.695  1.00  0.00     0.031 C 
ATOM     42  C   UNL A   1      39.229  27.420  28.111  1.00  0.00     0.029 A 
ATOM     43  N   UNL A   1      41.010  27.415  29.461  1.00  0.00    -0.354 N 
ATOM     44  C   UNL A   1      41.457  30.420  32.557  1.00  0.00     0.074 A 
ATOM     45  C   UNL A   1      40.335  31.333  32.563  1.00  0.00     0.031 C 
ATOM     46  C   UNL A   1      40.022  26.406  27.727  1.00  0.00     0.029 A 
ATOM     47  C   UNL A   1      41.220  26.393  28.560  1.00  0.00     0.049 A 
ATOM     48  H   UNL A   1      41.641  27.632  30.184  1.00  0.00     0.167 HD
ATOM     49  C   UNL A   1      42.513  30.497  33.403  1.00  0.00     0.034 A 
ATOM     50  C   UNL A   1      42.267  25.557  28.409  1.00  0.00     0.034 A 
ATOM     51  C   UNL A   1      43.610  29.560  33.402  1.00  0.00     0.049 A 
ATOM     52  C   UNL A   1      43.434  25.676  29.361  1.00  0.00     0.074 A 
ATOM     53  C   UNL A   1      44.683  29.497  34.275  1.00  0.00     0.029 A 
ATOM     54  N   UNL A   1      43.785  28.535  32.484  1.00  0.00    -0.354 N 
ATOM     55  N   UNL A   1      43.606  26.516  30.356  1.00  0.00    -0.248 NA
ATOM     56  C   UNL A   1      44.542  24.730  29.177  1.00  0.00     0.031 C 
ATOM     57  C   UNL A   1      45.548  28.492  33.833  1.00  0.00     0.029 A 
ATOM     58  C   UNL A   1      44.971  27.864  32.741  1.00  0.00     0.049 A 
ATOM     59  H   UNL A   1      43.159  28.315  31.755  1.00  0.00     0.167 HD
ATOM     60  C   UNL A   1      44.823  26.167  30.939  1.00  0.00     0.074 A 
ATOM     61  C   UNL A   1      45.329  25.032  30.198  1.00  0.00     0.031 C 
ATOM     62  C   UNL A   1      45.463  26.732  31.994  1.00  0.00     0.034 A 
BRANCH  49  63
ATOM     63  C   UNL A   1      42.562  31.647  34.380  1.00  0.00     0.023 A 
ATOM     64  C   UNL A   1      41.952  31.581  35.643  1.00  0.00     0.031 A 
ATOM     65  C   UNL A   1      43.267  32.818  34.048  1.00  0.00     0.131 A 
ATOM     66  C   UNL A   1      42.021  32.682  36.511  1.00  0.00     0.055 A 
ATOM     67  C   UNL A   1      43.394  33.881  34.944  1.00  0.00     0.041 A 
ATOM     68  F   UNL A   1      43.851  32.947  32.846  1.00  0.00    -0.206 F 
ATOM     69  C   UNL A   1      42.761  33.820  36.182  1.00  0.00     0.022 A 
BRANCH  66  70
ATOM     70  S   UNL A   1      41.046  32.647  38.040  1.00  0.00     0.124 S 
ATOM     71  O   UNL A   1      39.807  32.020  37.586  1.00  0.00    -0.237 OA
ATOM     72  O   UNL A   1      41.880  31.847  38.929  1.00  0.00    -0.237 OA
ATOM     73  O   UNL A   1      40.926  34.059  38.401  1.00  0.00    -0.744 OA
ENDBRANCH  66  70
ENDBRANCH  49  63
BRANCH  50  74
ATOM     74  C   UNL A   1      42.293  24.550  27.304  1.00  0.00     0.023 A 
ATOM     75  C   UNL A   1      41.465  23.418  27.336  1.00  0.00     0.031 A 
ATOM     76  C   UNL A   1      43.217  24.657  26.248  1.00  0.00     0.131 A 
ATOM     77  C   UNL A   1      41.629  22.402  26.381  1.00  0.00     0.055 A 
ATOM     78  C   UNL A   1      43.325  23.679  25.258  1.00  0.00     0.041 A 
ATOM     79  F   UNL A   1      44.036  25.717  26.165  1.00  0.00    -0.206 F 
ATOM     80  C   UNL A   1      42.543  22.532  25.334  1.00  0.00     0.022 A 
BRANCH  77  81
ATOM     81  S   UNL A   1      40.735  20.840  26.617  1.00  0.00     0.124 S 
ATOM     82  O   UNL A   1      39.398  21.194  26.158  1.00  0.00    -0.237 OA
ATOM     83  O   UNL A   1      41.489  19.930  25.761  1.00  0.00    -0.237 OA
ATOM     84  O   UNL A   1      40.858  20.592  28.052  1.00  0.00    -0.744 OA
ENDBRANCH  77  81
ENDBRANCH  50  74
BRANCH  62  85
ATOM     85  C   UNL A   1      46.754  26.089  32.442  1.00  0.00     0.023 A 
ATOM     86  C   UNL A   1      46.780  25.069  33.409  1.00  0.00     0.031 A 
ATOM     87  C   UNL A   1      47.979  26.513  31.898  1.00  0.00     0.131 A 
ATOM     88  C   UNL A   1      48.009  24.550  33.844  1.00  0.00     0.055 A 
ATOM     89  C   UNL A   1      49.193  25.944  32.284  1.00  0.00     0.041 A 
ATOM     90  F   UNL A   1      48.016  27.487  30.973  1.00  0.00    -0.206 F 
ATOM     91  C   UNL A   1      49.214  24.967  33.273  1.00  0.00     0.022 A 
BRANCH  88  92
ATOM     92  S   UNL A   1      48.019  23.392  35.240  1.00  0.00     0.124 S 
ATOM     93  O   UNL A   1      48.733  22.248  34.680  1.00  0.00    -0.237 OA
ATOM     94  O   UNL A   1      48.731  24.146  36.267  1.00  0.00    -0.237 OA
ATOM     95  O   UNL A   1      46.601  23.166  35.509  1.00  0.00    -0.744 OA
ENDBRANCH  88  92
ENDBRANCH  62  85
ENDBRANCH  36  37
ENDBRANCH  28  31
ENDBRANCH  26  27
ENDBRANCH  25  26
ENDBRANCH  24  25
ENDBRANCH   1  24
TORSDOF 19
ENDMDL
MODEL 3
REMARK VINA RESULT:     -10.7      4.024      9.255
REMARK SMILES Cc1noc(C)c1CNc1cnc(C(=O)NCCCCCCNC(=O)c2ccc(-c3c4nc(c(-c5cc(S(=O)(=O)[O-])ccc5F)c5ccc([nH]5)c(-c5cc(S(=O)(=O)[O-])ccc5F)c5nc(c(-c6cc(S(=O)(=O)[O-])ccc6F)c6ccc3[nH]6)C=C5)C=C4)cc2)cn1
REMARK SMILES IDX 19 1 18 2 17 3 16 4 14 5 15 6 13 8 10 9 11 10 90 11 12 12
REMARK SMILES IDX 89 13 9 14 8 16 7 17 1 18 2 19 3 20 4 21 5 22 6 23 20 24
REMARK SMILES IDX 21 25 22 26 23 27 24 28 25 30 26 31 27 32 88 33 28 34 87 35
REMARK SMILES IDX 29 36 30 37 31 38 81 39 32 40 86 41 80 42 82 43 33 44 85 45
REMARK SMILES IDX 79 46 78 47 34 49 66 50 46 51 65 52 47 53 50 54 64 55 83 56
REMARK SMILES IDX 48 57 49 58 63 60 84 61 51 62 35 63 36 64 44 65 37 66 43 67
REMARK SMILES IDX 45 68 42 69 38 70 39 71 40 72 41 73 67 74 68 75 76 76 69 77
REMARK SMILES IDX 75 78 77 79 74 80 70 81 71 82 72 83 73 84 52 85 53 86 61 87
REMARK SMILES IDX 54 88 60 89 62 90 59 91 55 92 56 93 57 94 58 95
REMARK H PARENT 16 7 9 15 23 29 82 48 50 59
REMARK Flexibility Score: inf
ROOT
ATOM      1  C   UNL A   1      33.220  30.029  26.348  1.00  0.00     0.002 C 
ENDROOT
BRANCH   1   2
ATOM      2  C   UNL A   1      32.836  29.226  25.101  1.00  0.00     0.021 C 
BRANCH   2   3
ATOM      3  C   UNL A   1      31.408  28.688  25.139  1.00  0.00     0.116 C 
BRANCH   3   4
ATOM      4  N   UNL A   1      30.787  28.753  23.825  1.00  0.00    -0.351 N 
ATOM      5  C   UNL A   1      30.858  27.909  22.739  1.00  0.00     0.271 C 
ATOM      6  O   UNL A   1      30.254  28.233  21.715  1.00  0.00    -0.267 OA
ATOM      7  H   UNL A   1      30.213  29.541  23.687  1.00  0.00     0.163 HD
BRANCH   5   8
ATOM      8  C   UNL A   1      31.606  26.620  22.761  1.00  0.00     0.146 A 
ATOM      9  C   UNL A   1      33.014  24.303  22.585  1.00  0.00     0.144 A 
ATOM     10  C   UNL A   1      31.689  24.344  23.009  1.00  0.00     0.158 A 
ATOM     11  N   UNL A   1      33.666  25.446  22.295  1.00  0.00    -0.235 NA
ATOM     12  N   UNL A   1      30.965  25.480  23.099  1.00  0.00    -0.246 NA
ATOM     13  C   UNL A   1      32.939  26.597  22.383  1.00  0.00     0.147 A 
BRANCH   9  14
ATOM     14  N   UNL A   1      33.718  23.139  22.396  1.00  0.00    -0.365 N 
ATOM     15  H   UNL A   1      33.379  22.459  21.770  1.00  0.00     0.162 HD
BRANCH  14  16
ATOM     16  C   UNL A   1      34.959  22.903  23.112  1.00  0.00     0.156 C 
BRANCH  16  17
ATOM     17  C   UNL A   1      34.792  22.247  24.435  1.00  0.00     0.037 A 
ATOM     18  C   UNL A   1      36.594  23.490  25.867  1.00  0.00     0.071 C 
ATOM     19  C   UNL A   1      35.507  22.506  25.637  1.00  0.00     0.086 A 
ATOM     20  N   UNL A   1      35.085  21.720  26.634  1.00  0.00    -0.085 NA
ATOM     21  O   UNL A   1      34.095  20.922  26.092  1.00  0.00    -0.361 OA
ATOM     22  C   UNL A   1      33.926  21.235  24.781  1.00  0.00     0.138 A 
ATOM     23  C   UNL A   1      32.913  20.458  24.041  1.00  0.00     0.091 C 
ENDBRANCH  16  17
ENDBRANCH  14  16
ENDBRANCH   9  14
ENDBRANCH   5   8
ENDBRANCH   3   4
ENDBRANCH   2   3
ENDBRANCH   1   2
BRANCH   1  24
ATOM     24  C   UNL A   1      32.035  30.586  27.146  1.00  0.00     0.002 C 
BRANCH  24  25
ATOM     25  C   UNL A   1      31.798  32.091  26.992  1.00  0.00     0.021 C 
BRANCH  25  26
ATOM     26  C   UNL A   1      33.038  32.952  27.217  1.00  0.00     0.116 C 
BRANCH  26  27
ATOM     27  N   UNL A   1      32.695  34.254  27.765  1.00  0.00    -0.352 N 
ATOM     28  C   UNL A   1      33.158  34.869  28.899  1.00  0.00     0.251 C 
ATOM     29  H   UNL A   1      32.037  34.769  27.246  1.00  0.00     0.163 HD
ATOM     30  O   UNL A   1      32.581  35.869  29.326  1.00  0.00    -0.269 OA
BRANCH  28  31
ATOM     31  C   UNL A   1      34.331  34.323  29.614  1.00  0.00     0.039 A 
ATOM     32  C   UNL A   1      34.124  33.500  30.723  1.00  0.00     0.014 A 
ATOM     33  C   UNL A   1      35.632  34.630  29.201  1.00  0.00     0.014 A 
ATOM     34  C   UNL A   1      35.221  32.940  31.384  1.00  0.00     0.010 A 
ATOM     35  C   UNL A   1      36.719  34.013  29.817  1.00  0.00     0.010 A 
ATOM     36  C   UNL A   1      36.527  33.164  30.916  1.00  0.00    -0.014 A 
BRANCH  36  37
ATOM     37  C   UNL A   1      37.698  32.516  31.566  1.00  0.00     0.031 A 
ATOM     38  C   UNL A   1      38.422  31.392  30.870  1.00  0.00     0.074 A 
ATOM     39  C   UNL A   1      38.070  32.902  32.804  1.00  0.00     0.049 A 
ATOM     40  N   UNL A   1      39.416  30.660  31.303  1.00  0.00    -0.248 NA
ATOM     41  C   UNL A   1      37.950  31.026  29.525  1.00  0.00     0.031 C 
ATOM     42  C   UNL A   1      37.420  33.953  33.592  1.00  0.00     0.029 A 
ATOM     43  N   UNL A   1      39.074  32.450  33.626  1.00  0.00    -0.354 N 
ATOM     44  C   UNL A   1      39.674  29.735  30.295  1.00  0.00     0.074 A 
ATOM     45  C   UNL A   1      38.704  29.972  29.248  1.00  0.00     0.031 C 
ATOM     46  C   UNL A   1      38.054  34.078  34.769  1.00  0.00     0.029 A 
ATOM     47  C   UNL A   1      39.118  33.082  34.849  1.00  0.00     0.049 A 
ATOM     48  H   UNL A   1      39.704  31.740  33.364  1.00  0.00     0.167 HD
ATOM     49  C   UNL A   1      40.639  28.785  30.246  1.00  0.00     0.034 A 
ATOM     50  C   UNL A   1      39.911  32.871  35.919  1.00  0.00     0.034 A 
ATOM     51  C   UNL A   1      41.618  28.582  31.287  1.00  0.00     0.049 A 
ATOM     52  C   UNL A   1      40.970  31.796  35.837  1.00  0.00     0.074 A 
ATOM     53  C   UNL A   1      42.691  27.708  31.294  1.00  0.00     0.029 A 
ATOM     54  N   UNL A   1      41.638  29.246  32.505  1.00  0.00    -0.354 N 
ATOM     55  N   UNL A   1      41.249  30.986  34.841  1.00  0.00    -0.248 NA
ATOM     56  C   UNL A   1      41.828  31.616  37.015  1.00  0.00     0.031 C 
ATOM     57  C   UNL A   1      43.306  27.781  32.548  1.00  0.00     0.029 A 
ATOM     58  C   UNL A   1      42.676  28.768  33.289  1.00  0.00     0.049 A 
ATOM     59  H   UNL A   1      41.007  29.953  32.775  1.00  0.00     0.167 HD
ATOM     60  C   UNL A   1      42.340  30.229  35.263  1.00  0.00     0.074 A 
ATOM     61  C   UNL A   1      42.679  30.695  36.591  1.00  0.00     0.031 C 
ATOM     62  C   UNL A   1      43.005  29.242  34.612  1.00  0.00     0.034 A 
BRANCH  49  63
ATOM     63  C   UNL A   1      40.675  27.866  29.049  1.00  0.00     0.023 A 
ATOM     64  C   UNL A   1      41.599  28.033  28.006  1.00  0.00     0.031 A 
ATOM     65  C   UNL A   1      39.785  26.779  28.975  1.00  0.00     0.131 A 
ATOM     66  C   UNL A   1      41.585  27.153  26.912  1.00  0.00     0.055 A 
ATOM     67  C   UNL A   1      39.823  25.866  27.921  1.00  0.00     0.041 A 
ATOM     68  F   UNL A   1      38.863  26.584  29.932  1.00  0.00    -0.206 F 
ATOM     69  C   UNL A   1      40.722  26.055  26.876  1.00  0.00     0.022 A 
BRANCH  66  70
ATOM     70  S   UNL A   1      42.642  27.520  25.485  1.00  0.00     0.124 S 
ATOM     71  O   UNL A   1      43.950  27.673  26.119  1.00  0.00    -0.237 OA
ATOM     72  O   UNL A   1      42.471  26.336  24.651  1.00  0.00    -0.237 OA
ATOM     73  O   UNL A   1      42.072  28.752  24.944  1.00  0.00    -0.744 OA
ENDBRANCH  66  70
ENDBRANCH  49  63
BRANCH  50  74
ATOM     74  C   UNL A   1      39.731  33.658  37.177  1.00  0.00     0.023 A 
ATOM     75  C   UNL A   1      39.180  33.070  38.326  1.00  0.00     0.031 A 
ATOM     76  C   UNL A   1      40.018  35.035  37.219  1.00  0.00     0.131 A 
ATOM     77  C   UNL A   1      38.860  33.867  39.437  1.00  0.00     0.055 A 
ATOM     78  C   UNL A   1      39.767  35.809  38.353  1.00  0.00     0.041 A 
ATOM     79  F   UNL A   1      40.545  35.653  36.150  1.00  0.00    -0.206 F 
ATOM     80  C   UNL A   1      39.163  35.229  39.464  1.00  0.00     0.022 A 
BRANCH  77  81
ATOM     81  S   UNL A   1      37.901  33.124  40.788  1.00  0.00     0.124 S 
ATOM     82  O   UNL A   1      38.186  34.037  41.887  1.00  0.00    -0.237 OA
ATOM     83  O   UNL A   1      36.545  33.164  40.252  1.00  0.00    -0.237 OA
ATOM     84  O   UNL A   1      38.480  31.788  40.919  1.00  0.00    -0.744 OA
ENDBRANCH  77  81
ENDBRANCH  50  74
BRANCH  62  85
ATOM     85  C   UNL A   1      44.203  28.642  35.307  1.00  0.00     0.023 A 
ATOM     86  C   UNL A   1      44.094  27.510  36.134  1.00  0.00     0.031 A 
ATOM     87  C   UNL A   1      45.475  29.220  35.146  1.00  0.00     0.131 A 
ATOM     88  C   UNL A   1      45.223  27.029  36.814  1.00  0.00     0.055 A 
ATOM     89  C   UNL A   1      46.608  28.695  35.770  1.00  0.00     0.041 A 
ATOM     90  F   UNL A   1      45.639  30.305  34.371  1.00  0.00    -0.206 F 
ATOM     91  C   UNL A   1      46.483  27.603  36.621  1.00  0.00     0.022 A 
BRANCH  88  92
ATOM     92  S   UNL A   1      45.007  25.705  38.034  1.00  0.00     0.124 S 
ATOM     93  O   UNL A   1      44.733  26.458  39.254  1.00  0.00    -0.237 OA
ATOM     94  O   UNL A   1      43.883  24.953  37.484  1.00  0.00    -0.237 OA
ATOM     95  O   UNL A   1      46.289  25.005  38.012  1.00  0.00    -0.744 OA
ENDBRANCH  88  92
ENDBRANCH  62  85
ENDBRANCH  36  37
ENDBRANCH  28  31
ENDBRANCH  26  27
ENDBRANCH  25  26
ENDBRANCH  24  25
ENDBRANCH   1  24
TORSDOF 19
ENDMDL
