MODEL 1
REMARK VINA RESULT:     -12.5      0.000      0.000
REMARK SMILES CC(C)(C)c1cc2c(cc1Cl)C=C(C(=O)NCCCCCCNC(=O)c1ccc(-c3c4nc(c(-c5cc(S(=O)(=O)[O-])ccc5F)c5ccc([nH]5)c(-c5cc(S(=O)(=O)[O-])ccc5F)c5nc(c(-c6cc(S(=O)(=O)[O-])ccc6F)c6ccc3[nH]6)C=C5)C=C4)cc1)[C@@H](C(F)(F)F)O2
REMARK SMILES IDX 20 1 19 2 18 3 17 4 16 5 14 6 15 7 13 9 5 10 6 11 10 12 7 13
REMARK SMILES IDX 9 14 11 15 8 16 94 17 12 18 89 19 2 20 1 21 3 22 4 23 90 24
REMARK SMILES IDX 91 25 92 26 93 27 21 28 22 29 23 30 24 31 25 33 26 34 27 35
REMARK SMILES IDX 88 36 28 37 87 38 29 39 30 40 31 41 81 42 32 43 86 44 80 45
REMARK SMILES IDX 82 46 33 47 85 48 79 49 78 50 34 52 66 53 46 54 65 55 47 56
REMARK SMILES IDX 50 57 64 58 83 59 48 60 49 61 63 63 84 64 51 65 35 66 36 67
REMARK SMILES IDX 44 68 37 69 43 70 45 71 42 72 38 73 39 74 40 75 41 76 67 77
REMARK SMILES IDX 68 78 76 79 69 80 75 81 77 82 74 83 70 84 71 85 72 86 73 87
REMARK SMILES IDX 52 88 53 89 61 90 54 91 60 92 62 93 59 94 55 95 56 96 57 97
REMARK SMILES IDX 58 98
REMARK H PARENT 16 8 23 32 82 51 50 62
REMARK Flexibility Score: inf
ROOT
ATOM      1  C   UNL A   1      30.965  29.234  24.215  1.00  0.00     0.002 C 
ENDROOT
BRANCH   1   2
ATOM      2  C   UNL A   1      30.966  27.769  23.757  1.00  0.00     0.002 C 
BRANCH   2   3
ATOM      3  C   UNL A   1      29.962  26.852  24.463  1.00  0.00     0.021 C 
BRANCH   3   4
ATOM      4  C   UNL A   1      30.526  26.119  25.677  1.00  0.00     0.116 C 
BRANCH   4   5
ATOM      5  N   UNL A   1      31.976  26.182  25.720  1.00  0.00    -0.352 N 
ATOM      6  C   UNL A   1      33.013  25.323  25.584  1.00  0.00     0.251 C 
ATOM      7  O   UNL A   1      34.134  25.837  25.681  1.00  0.00    -0.270 OA
ATOM      8  H   UNL A   1      32.291  27.098  25.895  1.00  0.00     0.163 HD
BRANCH   6   9
ATOM      9  C   UNL A   1      32.899  23.855  25.332  1.00  0.00     0.067 C 
ATOM     10  C   UNL A   1      33.895  18.898  24.725  1.00  0.00    -0.020 A 
ATOM     11  C   UNL A   1      32.738  19.704  24.791  1.00  0.00     0.053 A 
ATOM     12  C   UNL A   1      35.124  19.568  24.942  1.00  0.00     0.045 A 
ATOM     13  C   UNL A   1      32.798  21.077  25.032  1.00  0.00     0.128 A 
ATOM     14  C   UNL A   1      35.172  20.951  25.212  1.00  0.00     0.032 A 
ATOM     15  Cl  UNL A   1      36.673  18.798  24.887  1.00  0.00    -0.084 Cl
ATOM     16  C   UNL A   1      34.009  21.712  25.250  1.00  0.00     0.019 A 
ATOM     17  O   UNL A   1      31.604  21.735  25.070  1.00  0.00    -0.475 OA
ATOM     18  C   UNL A   1      34.026  23.142  25.528  1.00  0.00     0.025 C 
ATOM     19  C   UNL A   1      31.655  23.169  24.837  1.00  0.00     0.314 C 
BRANCH  10  20
ATOM     20  C   UNL A   1      33.749  17.391  24.397  1.00  0.00    -0.012 C 
ATOM     21  C   UNL A   1      32.597  16.693  25.179  1.00  0.00     0.016 C 
ATOM     22  C   UNL A   1      35.021  16.598  24.765  1.00  0.00     0.016 C 
ATOM     23  C   UNL A   1      33.407  17.208  22.903  1.00  0.00     0.016 C 
ENDBRANCH  10  20
BRANCH  19  24
ATOM     24  C   UNL A   1      31.378  23.448  23.348  1.00  0.00     0.429 C 
ATOM     25  F   UNL A   1      30.080  23.781  23.155  1.00  0.00    -0.167 F 
ATOM     26  F   UNL A   1      32.115  24.479  22.870  1.00  0.00    -0.167 F 
ATOM     27  F   UNL A   1      31.646  22.379  22.564  1.00  0.00    -0.167 F 
ENDBRANCH  19  24
ENDBRANCH   6   9
ENDBRANCH   4   5
ENDBRANCH   3   4
ENDBRANCH   2   3
ENDBRANCH   1   2
BRANCH   1  28
ATOM     28  C   UNL A   1      31.331  29.474  25.681  1.00  0.00     0.021 C 
BRANCH  28  29
ATOM     29  C   UNL A   1      32.571  30.330  25.906  1.00  0.00     0.116 C 
BRANCH  29  30
ATOM     30  N   UNL A   1      32.253  31.670  26.369  1.00  0.00    -0.352 N 
ATOM     31  C   UNL A   1      32.940  32.460  27.261  1.00  0.00     0.251 C 
ATOM     32  H   UNL A   1      31.433  32.066  25.994  1.00  0.00     0.163 HD
ATOM     33  O   UNL A   1      32.448  33.515  27.652  1.00  0.00    -0.269 OA
BRANCH  31  34
ATOM     34  C   UNL A   1      34.254  32.009  27.772  1.00  0.00     0.039 A 
ATOM     35  C   UNL A   1      34.466  30.666  28.093  1.00  0.00     0.014 A 
ATOM     36  C   UNL A   1      35.273  32.946  27.965  1.00  0.00     0.014 A 
ATOM     37  C   UNL A   1      35.630  30.293  28.755  1.00  0.00     0.010 A 
ATOM     38  C   UNL A   1      36.478  32.551  28.554  1.00  0.00     0.010 A 
ATOM     39  C   UNL A   1      36.649  31.231  28.998  1.00  0.00    -0.014 A 
BRANCH  39  40
ATOM     40  C   UNL A   1      37.882  30.792  29.704  1.00  0.00     0.031 A 
ATOM     41  C   UNL A   1      38.150  31.196  31.128  1.00  0.00     0.074 A 
ATOM     42  C   UNL A   1      38.733  29.963  29.067  1.00  0.00     0.049 A 
ATOM     43  N   UNL A   1      39.126  30.825  31.916  1.00  0.00    -0.248 NA
ATOM     44  C   UNL A   1      37.206  32.139  31.751  1.00  0.00     0.031 C 
ATOM     45  C   UNL A   1      38.577  29.516  27.683  1.00  0.00     0.029 A 
ATOM     46  N   UNL A   1      39.869  29.324  29.499  1.00  0.00    -0.354 N 
ATOM     47  C   UNL A   1      38.923  31.492  33.120  1.00  0.00     0.074 A 
ATOM     48  C   UNL A   1      37.752  32.322  32.946  1.00  0.00     0.031 C 
ATOM     49  C   UNL A   1      39.535  28.624  27.401  1.00  0.00     0.029 A 
ATOM     50  C   UNL A   1      40.418  28.483  28.557  1.00  0.00     0.049 A 
ATOM     51  H   UNL A   1      40.253  29.454  30.396  1.00  0.00     0.167 HD
ATOM     52  C   UNL A   1      39.639  31.405  34.267  1.00  0.00     0.034 A 
ATOM     53  C   UNL A   1      41.505  27.689  28.612  1.00  0.00     0.034 A 
ATOM     54  C   UNL A   1      40.795  30.560  34.431  1.00  0.00     0.049 A 
ATOM     55  C   UNL A   1      42.294  27.626  29.893  1.00  0.00     0.074 A 
ATOM     56  C   UNL A   1      41.564  30.376  35.567  1.00  0.00     0.029 A 
ATOM     57  N   UNL A   1      41.350  29.760  33.442  1.00  0.00    -0.354 N 
ATOM     58  N   UNL A   1      42.053  28.217  31.039  1.00  0.00    -0.248 NA
ATOM     59  C   UNL A   1      43.502  26.790  29.893  1.00  0.00     0.031 C 
ATOM     60  C   UNL A   1      42.614  29.513  35.250  1.00  0.00     0.029 A 
ATOM     61  C   UNL A   1      42.469  29.104  33.934  1.00  0.00     0.049 A 
ATOM     62  H   UNL A   1      41.002  29.673  32.525  1.00  0.00     0.167 HD
ATOM     63  C   UNL A   1      43.075  27.825  31.897  1.00  0.00     0.074 A 
ATOM     64  C   UNL A   1      43.915  26.912  31.149  1.00  0.00     0.031 C 
ATOM     65  C   UNL A   1      43.303  28.198  33.182  1.00  0.00     0.034 A 
BRANCH  52  66
ATOM     66  C   UNL A   1      39.199  32.222  35.457  1.00  0.00     0.023 A 
ATOM     67  C   UNL A   1      39.653  33.546  35.612  1.00  0.00     0.031 A 
ATOM     68  C   UNL A   1      38.441  31.654  36.496  1.00  0.00     0.131 A 
ATOM     69  C   UNL A   1      39.369  34.246  36.791  1.00  0.00     0.055 A 
ATOM     70  C   UNL A   1      38.130  32.367  37.653  1.00  0.00     0.041 A 
ATOM     71  F   UNL A   1      37.986  30.393  36.395  1.00  0.00    -0.206 F 
ATOM     72  C   UNL A   1      38.605  33.667  37.809  1.00  0.00     0.022 A 
BRANCH  69  73
ATOM     73  S   UNL A   1      40.026  35.912  37.078  1.00  0.00     0.124 S 
ATOM     74  O   UNL A   1      39.279  36.327  38.263  1.00  0.00    -0.237 OA
ATOM     75  O   UNL A   1      41.445  35.648  37.296  1.00  0.00    -0.237 OA
ATOM     76  O   UNL A   1      39.699  36.635  35.854  1.00  0.00    -0.744 OA
ENDBRANCH  69  73
ENDBRANCH  52  66
BRANCH  53  77
ATOM     77  C   UNL A   1      41.859  26.861  27.422  1.00  0.00     0.023 A 
ATOM     78  C   UNL A   1      41.520  25.496  27.366  1.00  0.00     0.031 A 
ATOM     79  C   UNL A   1      42.645  27.389  26.385  1.00  0.00     0.131 A 
ATOM     80  C   UNL A   1      42.037  24.691  26.344  1.00  0.00     0.055 A 
ATOM     81  C   UNL A   1      43.093  26.599  25.325  1.00  0.00     0.041 A 
ATOM     82  F   UNL A   1      43.003  28.682  26.400  1.00  0.00    -0.206 F 
ATOM     83  C   UNL A   1      42.807  25.237  25.313  1.00  0.00     0.022 A 
BRANCH  80  84
ATOM     84  S   UNL A   1      41.856  22.886  26.405  1.00  0.00     0.124 S 
ATOM     85  O   UNL A   1      42.439  22.478  25.131  1.00  0.00    -0.237 OA
ATOM     86  O   UNL A   1      42.635  22.548  27.594  1.00  0.00    -0.237 OA
ATOM     87  O   UNL A   1      40.416  22.689  26.534  1.00  0.00    -0.744 OA
ENDBRANCH  80  84
ENDBRANCH  53  77
BRANCH  65  88
ATOM     88  C   UNL A   1      44.523  27.648  33.880  1.00  0.00     0.023 A 
ATOM     89  C   UNL A   1      44.438  26.458  34.627  1.00  0.00     0.031 A 
ATOM     90  C   UNL A   1      45.725  28.377  33.923  1.00  0.00     0.131 A 
ATOM     91  C   UNL A   1      45.523  26.051  35.414  1.00  0.00     0.055 A 
ATOM     92  C   UNL A   1      46.818  27.943  34.673  1.00  0.00     0.041 A 
ATOM     93  F   UNL A   1      45.851  29.523  33.235  1.00  0.00    -0.206 F 
ATOM     94  C   UNL A   1      46.715  26.782  35.434  1.00  0.00     0.022 A 
BRANCH  91  95
ATOM     95  S   UNL A   1      45.398  24.607  36.506  1.00  0.00     0.124 S 
ATOM     96  O   UNL A   1      44.663  23.660  35.670  1.00  0.00    -0.237 OA
ATOM     97  O   UNL A   1      46.800  24.273  36.738  1.00  0.00    -0.237 OA
ATOM     98  O   UNL A   1      44.671  25.104  37.668  1.00  0.00    -0.744 OA
ENDBRANCH  91  95
ENDBRANCH  65  88
ENDBRANCH  39  40
ENDBRANCH  31  34
ENDBRANCH  29  30
ENDBRANCH  28  29
ENDBRANCH   1  28
TORSDOF 18
ENDMDL
MODEL 2
REMARK VINA RESULT:     -12.5      2.378      2.998
REMARK SMILES CC(C)(C)c1cc2c(cc1Cl)C=C(C(=O)NCCCCCCNC(=O)c1ccc(-c3c4nc(c(-c5cc(S(=O)(=O)[O-])ccc5F)c5ccc([nH]5)c(-c5cc(S(=O)(=O)[O-])ccc5F)c5nc(c(-c6cc(S(=O)(=O)[O-])ccc6F)c6ccc3[nH]6)C=C5)C=C4)cc1)[C@@H](C(F)(F)F)O2
REMARK SMILES IDX 20 1 19 2 18 3 17 4 16 5 14 6 15 7 13 9 5 10 6 11 10 12 7 13
REMARK SMILES IDX 9 14 11 15 8 16 94 17 12 18 89 19 2 20 1 21 3 22 4 23 90 24
REMARK SMILES IDX 91 25 92 26 93 27 21 28 22 29 23 30 24 31 25 33 26 34 27 35
REMARK SMILES IDX 88 36 28 37 87 38 29 39 30 40 31 41 81 42 32 43 86 44 80 45
REMARK SMILES IDX 82 46 33 47 85 48 79 49 78 50 34 52 66 53 46 54 65 55 47 56
REMARK SMILES IDX 50 57 64 58 83 59 48 60 49 61 63 63 84 64 51 65 35 66 36 67
REMARK SMILES IDX 44 68 37 69 43 70 45 71 42 72 38 73 39 74 40 75 41 76 67 77
REMARK SMILES IDX 68 78 76 79 69 80 75 81 77 82 74 83 70 84 71 85 72 86 73 87
REMARK SMILES IDX 52 88 53 89 61 90 54 91 60 92 62 93 59 94 55 95 56 96 57 97
REMARK SMILES IDX 58 98
REMARK H PARENT 16 8 23 32 82 51 50 62
REMARK Flexibility Score: inf
ROOT
ATOM      1  C   UNL A   1      32.071  29.618  26.745  1.00  0.00     0.002 C 
ENDROOT
BRANCH   1   2
ATOM      2  C   UNL A   1      32.426  28.928  25.421  1.00  0.00     0.002 C 
BRANCH   2   3
ATOM      3  C   UNL A   1      33.515  27.852  25.504  1.00  0.00     0.021 C 
BRANCH   3   4
ATOM      4  C   UNL A   1      33.525  26.877  24.331  1.00  0.00     0.116 C 
BRANCH   4   5
ATOM      5  N   UNL A   1      32.190  26.407  24.007  1.00  0.00    -0.352 N 
ATOM      6  C   UNL A   1      31.540  25.222  23.947  1.00  0.00     0.251 C 
ATOM      7  O   UNL A   1      30.347  25.296  23.629  1.00  0.00    -0.270 OA
ATOM      8  H   UNL A   1      31.596  27.154  23.764  1.00  0.00     0.163 HD
BRANCH   6   9
ATOM      9  C   UNL A   1      32.141  23.885  24.231  1.00  0.00     0.067 C 
ATOM     10  C   UNL A   1      33.503  18.982  24.021  1.00  0.00    -0.020 A 
ATOM     11  C   UNL A   1      33.858  20.106  24.799  1.00  0.00     0.053 A 
ATOM     12  C   UNL A   1      32.587  19.228  22.969  1.00  0.00     0.045 A 
ATOM     13  C   UNL A   1      33.326  21.375  24.564  1.00  0.00     0.128 A 
ATOM     14  C   UNL A   1      32.077  20.518  22.722  1.00  0.00     0.032 A 
ATOM     15  Cl  UNL A   1      31.987  18.007  21.899  1.00  0.00    -0.084 Cl
ATOM     16  C   UNL A   1      32.439  21.595  23.523  1.00  0.00     0.019 A 
ATOM     17  O   UNL A   1      33.755  22.371  25.389  1.00  0.00    -0.475 OA
ATOM     18  C   UNL A   1      31.930  22.941  23.292  1.00  0.00     0.025 C 
ATOM     19  C   UNL A   1      32.895  23.539  25.486  1.00  0.00     0.314 C 
BRANCH  10  20
ATOM     20  C   UNL A   1      34.094  17.597  24.382  1.00  0.00    -0.012 C 
ATOM     21  C   UNL A   1      33.304  16.855  25.500  1.00  0.00     0.016 C 
ATOM     22  C   UNL A   1      35.537  17.711  24.920  1.00  0.00     0.016 C 
ATOM     23  C   UNL A   1      34.045  16.666  23.152  1.00  0.00     0.016 C 
ENDBRANCH  10  20
BRANCH  19  24
ATOM     24  C   UNL A   1      31.969  23.383  26.707  1.00  0.00     0.429 C 
ATOM     25  F   UNL A   1      32.632  22.811  27.741  1.00  0.00    -0.167 F 
ATOM     26  F   UNL A   1      31.505  24.573  27.159  1.00  0.00    -0.167 F 
ATOM     27  F   UNL A   1      30.888  22.616  26.442  1.00  0.00    -0.167 F 
ENDBRANCH  19  24
ENDBRANCH   6   9
ENDBRANCH   4   5
ENDBRANCH   3   4
ENDBRANCH   2   3
ENDBRANCH   1   2
BRANCH   1  28
ATOM     28  C   UNL A   1      31.947  31.142  26.690  1.00  0.00     0.021 C 
BRANCH  28  29
ATOM     29  C   UNL A   1      33.074  31.907  27.372  1.00  0.00     0.116 C 
BRANCH  29  30
ATOM     30  N   UNL A   1      32.740  33.299  27.618  1.00  0.00    -0.352 N 
ATOM     31  C   UNL A   1      33.286  34.169  28.532  1.00  0.00     0.251 C 
ATOM     32  H   UNL A   1      32.025  33.671  27.052  1.00  0.00     0.163 HD
ATOM     33  O   UNL A   1      32.781  35.275  28.706  1.00  0.00    -0.269 OA
BRANCH  31  34
ATOM     34  C   UNL A   1      34.458  33.745  29.331  1.00  0.00     0.039 A 
ATOM     35  C   UNL A   1      35.734  34.226  29.025  1.00  0.00     0.014 A 
ATOM     36  C   UNL A   1      34.284  32.831  30.373  1.00  0.00     0.014 A 
ATOM     37  C   UNL A   1      36.845  33.671  29.649  1.00  0.00     0.010 A 
ATOM     38  C   UNL A   1      35.399  32.337  31.058  1.00  0.00     0.010 A 
ATOM     39  C   UNL A   1      36.692  32.716  30.670  1.00  0.00    -0.014 A 
BRANCH  39  40
ATOM     40  C   UNL A   1      37.906  32.150  31.318  1.00  0.00     0.031 A 
ATOM     41  C   UNL A   1      38.327  32.584  32.696  1.00  0.00     0.074 A 
ATOM     42  C   UNL A   1      38.592  31.184  30.676  1.00  0.00     0.049 A 
ATOM     43  N   UNL A   1      39.301  32.125  33.439  1.00  0.00    -0.248 NA
ATOM     44  C   UNL A   1      37.562  33.675  33.322  1.00  0.00     0.031 C 
ATOM     45  C   UNL A   1      38.279  30.694  29.334  1.00  0.00     0.029 A 
ATOM     46  N   UNL A   1      39.663  30.420  31.070  1.00  0.00    -0.354 N 
ATOM     47  C   UNL A   1      39.275  32.872  34.611  1.00  0.00     0.074 A 
ATOM     48  C   UNL A   1      38.213  33.842  34.466  1.00  0.00     0.031 C 
ATOM     49  C   UNL A   1      39.090  29.670  29.042  1.00  0.00     0.029 A 
ATOM     50  C   UNL A   1      40.028  29.469  30.145  1.00  0.00     0.049 A 
ATOM     51  H   UNL A   1      40.126  30.542  31.930  1.00  0.00     0.167 HD
ATOM     52  C   UNL A   1      40.055  32.746  35.713  1.00  0.00     0.034 A 
ATOM     53  C   UNL A   1      41.004  28.539  30.174  1.00  0.00     0.034 A 
ATOM     54  C   UNL A   1      41.100  31.763  35.849  1.00  0.00     0.049 A 
ATOM     55  C   UNL A   1      41.868  28.433  31.402  1.00  0.00     0.074 A 
ATOM     56  C   UNL A   1      41.919  31.533  36.941  1.00  0.00     0.029 A 
ATOM     57  N   UNL A   1      41.472  30.848  34.874  1.00  0.00    -0.354 N 
ATOM     58  N   UNL A   1      41.790  29.108  32.525  1.00  0.00    -0.248 NA
ATOM     59  C   UNL A   1      42.954  27.444  31.372  1.00  0.00     0.031 C 
ATOM     60  C   UNL A   1      42.821  30.522  36.607  1.00  0.00     0.029 A 
ATOM     61  C   UNL A   1      42.528  30.073  35.329  1.00  0.00     0.049 A 
ATOM     62  H   UNL A   1      41.050  30.763  33.989  1.00  0.00     0.167 HD
ATOM     63  C   UNL A   1      42.813  28.624  33.336  1.00  0.00     0.074 A 
ATOM     64  C   UNL A   1      43.470  27.571  32.589  1.00  0.00     0.031 C 
ATOM     65  C   UNL A   1      43.180  29.026  34.579  1.00  0.00     0.034 A 
BRANCH  52  66
ATOM     66  C   UNL A   1      39.813  33.673  36.879  1.00  0.00     0.023 A 
ATOM     67  C   UNL A   1      39.179  33.195  38.042  1.00  0.00     0.031 A 
ATOM     68  C   UNL A   1      40.094  35.048  36.792  1.00  0.00     0.131 A 
ATOM     69  C   UNL A   1      38.819  34.090  39.056  1.00  0.00     0.055 A 
ATOM     70  C   UNL A   1      39.766  35.931  37.821  1.00  0.00     0.041 A 
ATOM     71  F   UNL A   1      40.698  35.552  35.702  1.00  0.00    -0.206 F 
ATOM     72  C   UNL A   1      39.114  35.454  38.955  1.00  0.00     0.022 A 
BRANCH  69  73
ATOM     73  S   UNL A   1      37.903  33.535  40.520  1.00  0.00     0.124 S 
ATOM     74  O   UNL A   1      38.708  32.399  40.963  1.00  0.00    -0.237 OA
ATOM     75  O   UNL A   1      37.959  34.713  41.380  1.00  0.00    -0.237 OA
ATOM     76  O   UNL A   1      36.583  33.195  40.000  1.00  0.00    -0.744 OA
ENDBRANCH  69  73
ENDBRANCH  52  66
BRANCH  53  77
ATOM     77  C   UNL A   1      41.158  27.613  29.014  1.00  0.00     0.023 A 
ATOM     78  C   UNL A   1      42.166  27.821  28.054  1.00  0.00     0.031 A 
ATOM     79  C   UNL A   1      40.228  26.587  28.783  1.00  0.00     0.131 A 
ATOM     80  C   UNL A   1      42.167  27.073  26.871  1.00  0.00     0.055 A 
ATOM     81  C   UNL A   1      40.280  25.790  27.638  1.00  0.00     0.041 A 
ATOM     82  F   UNL A   1      39.242  26.357  29.664  1.00  0.00    -0.206 F 
ATOM     83  C   UNL A   1      41.241  26.046  26.664  1.00  0.00     0.022 A 
BRANCH  80  84
ATOM     84  S   UNL A   1      43.271  27.510  25.498  1.00  0.00     0.124 S 
ATOM     85  O   UNL A   1      44.180  28.461  26.130  1.00  0.00    -0.237 OA
ATOM     86  O   UNL A   1      43.850  26.213  25.156  1.00  0.00    -0.237 OA
ATOM     87  O   UNL A   1      42.368  28.067  24.495  1.00  0.00    -0.744 OA
ENDBRANCH  80  84
ENDBRANCH  53  77
BRANCH  65  88
ATOM     88  C   UNL A   1      44.365  28.353  35.227  1.00  0.00     0.023 A 
ATOM     89  C   UNL A   1      44.171  27.383  36.228  1.00  0.00     0.031 A 
ATOM     90  C   UNL A   1      45.679  28.776  34.954  1.00  0.00     0.131 A 
ATOM     91  C   UNL A   1      45.270  26.894  36.946  1.00  0.00     0.055 A 
ATOM     92  C   UNL A   1      46.774  28.252  35.641  1.00  0.00     0.041 A 
ATOM     93  F   UNL A   1      45.913  29.705  34.014  1.00  0.00    -0.206 F 
ATOM     94  C   UNL A   1      46.571  27.317  36.652  1.00  0.00     0.022 A 
BRANCH  91  95
ATOM     95  S   UNL A   1      45.046  25.758  38.343  1.00  0.00     0.124 S 
ATOM     96  O   UNL A   1      46.378  25.754  38.944  1.00  0.00    -0.237 OA
ATOM     97  O   UNL A   1      44.012  26.430  39.124  1.00  0.00    -0.237 OA
ATOM     98  O   UNL A   1      44.643  24.503  37.717  1.00  0.00    -0.744 OA
ENDBRANCH  91  95
ENDBRANCH  65  88
ENDBRANCH  39  40
ENDBRANCH  31  34
ENDBRANCH  29  30
ENDBRANCH  28  29
ENDBRANCH   1  28
TORSDOF 18
ENDMDL
MODEL 3
REMARK VINA RESULT:     -12.5      2.816      8.733
REMARK SMILES CC(C)(C)c1cc2c(cc1Cl)C=C(C(=O)NCCCCCCNC(=O)c1ccc(-c3c4nc(c(-c5cc(S(=O)(=O)[O-])ccc5F)c5ccc([nH]5)c(-c5cc(S(=O)(=O)[O-])ccc5F)c5nc(c(-c6cc(S(=O)(=O)[O-])ccc6F)c6ccc3[nH]6)C=C5)C=C4)cc1)[C@@H](C(F)(F)F)O2
REMARK SMILES IDX 20 1 19 2 18 3 17 4 16 5 14 6 15 7 13 9 5 10 6 11 10 12 7 13
REMARK SMILES IDX 9 14 11 15 8 16 94 17 12 18 89 19 2 20 1 21 3 22 4 23 90 24
REMARK SMILES IDX 91 25 92 26 93 27 21 28 22 29 23 30 24 31 25 33 26 34 27 35
REMARK SMILES IDX 88 36 28 37 87 38 29 39 30 40 31 41 81 42 32 43 86 44 80 45
REMARK SMILES IDX 82 46 33 47 85 48 79 49 78 50 34 52 66 53 46 54 65 55 47 56
REMARK SMILES IDX 50 57 64 58 83 59 48 60 49 61 63 63 84 64 51 65 35 66 36 67
REMARK SMILES IDX 44 68 37 69 43 70 45 71 42 72 38 73 39 74 40 75 41 76 67 77
REMARK SMILES IDX 68 78 76 79 69 80 75 81 77 82 74 83 70 84 71 85 72 86 73 87
REMARK SMILES IDX 52 88 53 89 61 90 54 91 60 92 62 93 59 94 55 95 56 96 57 97
REMARK SMILES IDX 58 98
REMARK H PARENT 16 8 23 32 82 51 50 62
REMARK Flexibility Score: inf
ROOT
ATOM      1  C   UNL A   1      32.254  26.692  26.740  1.00  0.00     0.002 C 
ENDROOT
BRANCH   1   2
ATOM      2  C   UNL A   1      33.440  26.084  25.979  1.00  0.00     0.002 C 
BRANCH   2   3
ATOM      3  C   UNL A   1      33.670  24.585  26.198  1.00  0.00     0.021 C 
BRANCH   3   4
ATOM      4  C   UNL A   1      34.331  23.873  25.020  1.00  0.00     0.116 C 
BRANCH   4   5
ATOM      5  N   UNL A   1      33.358  23.186  24.189  1.00  0.00    -0.352 N 
ATOM      6  C   UNL A   1      32.315  23.522  23.396  1.00  0.00     0.251 C 
ATOM      7  O   UNL A   1      31.754  22.570  22.839  1.00  0.00    -0.270 OA
ATOM      8  H   UNL A   1      33.494  22.211  24.208  1.00  0.00     0.163 HD
BRANCH   6   9
ATOM      9  C   UNL A   1      31.818  24.909  23.154  1.00  0.00     0.067 C 
ATOM     10  C   UNL A   1      28.951  29.111  22.903  1.00  0.00    -0.020 A 
ATOM     11  C   UNL A   1      30.305  28.787  22.675  1.00  0.00     0.053 A 
ATOM     12  C   UNL A   1      28.141  28.056  23.392  1.00  0.00     0.045 A 
ATOM     13  C   UNL A   1      30.814  27.506  22.895  1.00  0.00     0.128 A 
ATOM     14  C   UNL A   1      28.670  26.773  23.638  1.00  0.00     0.032 A 
ATOM     15  Cl  UNL A   1      26.448  28.205  23.723  1.00  0.00    -0.084 Cl
ATOM     16  C   UNL A   1      30.008  26.492  23.383  1.00  0.00     0.019 A 
ATOM     17  O   UNL A   1      32.141  27.331  22.635  1.00  0.00    -0.475 OA
ATOM     18  C   UNL A   1      30.584  25.176  23.627  1.00  0.00     0.025 C 
ATOM     19  C   UNL A   1      32.572  25.964  22.391  1.00  0.00     0.314 C 
BRANCH  10  20
ATOM     20  C   UNL A   1      28.451  30.541  22.581  1.00  0.00    -0.012 C 
ATOM     21  C   UNL A   1      29.544  31.636  22.755  1.00  0.00     0.016 C 
ATOM     22  C   UNL A   1      27.301  30.971  23.517  1.00  0.00     0.016 C 
ATOM     23  C   UNL A   1      28.010  30.625  21.104  1.00  0.00     0.016 C 
ENDBRANCH  10  20
BRANCH  19  24
ATOM     24  C   UNL A   1      32.584  25.703  20.874  1.00  0.00     0.429 C 
ATOM     25  F   UNL A   1      33.393  26.586  20.241  1.00  0.00    -0.167 F 
ATOM     26  F   UNL A   1      33.048  24.468  20.566  1.00  0.00    -0.167 F 
ATOM     27  F   UNL A   1      31.354  25.808  20.322  1.00  0.00    -0.167 F 
ENDBRANCH  19  24
ENDBRANCH   6   9
ENDBRANCH   4   5
ENDBRANCH   3   4
ENDBRANCH   2   3
ENDBRANCH   1   2
BRANCH   1  28
ATOM     28  C   UNL A   1      31.787  28.068  26.259  1.00  0.00     0.021 C 
BRANCH  28  29
ATOM     29  C   UNL A   1      32.903  29.026  25.859  1.00  0.00     0.116 C 
BRANCH  29  30
ATOM     30  N   UNL A   1      32.614  30.404  26.216  1.00  0.00    -0.352 N 
ATOM     31  C   UNL A   1      33.305  31.238  27.064  1.00  0.00     0.251 C 
ATOM     32  H   UNL A   1      31.816  30.795  25.793  1.00  0.00     0.163 HD
ATOM     33  O   UNL A   1      32.837  32.333  27.365  1.00  0.00    -0.269 OA
BRANCH  31  34
ATOM     34  C   UNL A   1      34.594  30.789  27.638  1.00  0.00     0.039 A 
ATOM     35  C   UNL A   1      34.774  29.457  28.018  1.00  0.00     0.014 A 
ATOM     36  C   UNL A   1      35.619  31.719  27.831  1.00  0.00     0.014 A 
ATOM     37  C   UNL A   1      35.909  29.095  28.734  1.00  0.00     0.010 A 
ATOM     38  C   UNL A   1      36.797  31.331  28.477  1.00  0.00     0.010 A 
ATOM     39  C   UNL A   1      36.933  30.028  28.977  1.00  0.00    -0.014 A 
BRANCH  39  40
ATOM     40  C   UNL A   1      38.134  29.600  29.743  1.00  0.00     0.031 A 
ATOM     41  C   UNL A   1      39.140  28.653  29.147  1.00  0.00     0.074 A 
ATOM     42  C   UNL A   1      38.346  30.128  30.964  1.00  0.00     0.049 A 
ATOM     43  N   UNL A   1      40.284  28.254  29.641  1.00  0.00    -0.248 NA
ATOM     44  C   UNL A   1      38.826  28.077  27.829  1.00  0.00     0.031 C 
ATOM     45  C   UNL A   1      37.432  31.047  31.643  1.00  0.00     0.029 A 
ATOM     46  N   UNL A   1      39.401  30.003  31.834  1.00  0.00    -0.354 N 
ATOM     47  C   UNL A   1      40.821  27.375  28.706  1.00  0.00     0.074 A 
ATOM     48  C   UNL A   1      39.859  27.269  27.631  1.00  0.00     0.031 C 
ATOM     49  C   UNL A   1      37.993  31.456  32.787  1.00  0.00     0.029 A 
ATOM     50  C   UNL A   1      39.277  30.781  32.963  1.00  0.00     0.049 A 
ATOM     51  H   UNL A   1      40.172  29.414  31.666  1.00  0.00     0.167 HD
ATOM     52  C   UNL A   1      42.013  26.732  28.735  1.00  0.00     0.034 A 
ATOM     53  C   UNL A   1      40.098  30.936  34.021  1.00  0.00     0.034 A 
ATOM     54  C   UNL A   1      42.969  26.861  29.806  1.00  0.00     0.049 A 
ATOM     55  C   UNL A   1      41.408  30.195  34.038  1.00  0.00     0.074 A 
ATOM     56  C   UNL A   1      44.220  26.279  29.909  1.00  0.00     0.029 A 
ATOM     57  N   UNL A   1      42.789  27.619  30.955  1.00  0.00    -0.354 N 
ATOM     58  N   UNL A   1      41.926  29.416  33.118  1.00  0.00    -0.248 NA
ATOM     59  C   UNL A   1      42.248  30.349  35.233  1.00  0.00     0.031 C 
ATOM     60  C   UNL A   1      44.771  26.636  31.141  1.00  0.00     0.029 A 
ATOM     61  C   UNL A   1      43.893  27.495  31.784  1.00  0.00     0.049 A 
ATOM     62  H   UNL A   1      41.993  28.163  31.153  1.00  0.00     0.167 HD
ATOM     63  C   UNL A   1      43.151  28.989  33.620  1.00  0.00     0.074 A 
ATOM     64  C   UNL A   1      43.316  29.630  34.908  1.00  0.00     0.031 C 
ATOM     65  C   UNL A   1      44.050  28.135  33.069  1.00  0.00     0.034 A 
BRANCH  52  66
ATOM     66  C   UNL A   1      42.382  25.839  27.576  1.00  0.00     0.023 A 
ATOM     67  C   UNL A   1      41.942  24.503  27.546  1.00  0.00     0.031 A 
ATOM     68  C   UNL A   1      43.268  26.271  26.573  1.00  0.00     0.131 A 
ATOM     69  C   UNL A   1      42.413  23.637  26.551  1.00  0.00     0.055 A 
ATOM     70  C   UNL A   1      43.707  25.414  25.563  1.00  0.00     0.041 A 
ATOM     71  F   UNL A   1      43.717  27.537  26.559  1.00  0.00    -0.206 F 
ATOM     72  C   UNL A   1      43.287  24.087  25.556  1.00  0.00     0.022 A 
BRANCH  69  73
ATOM     73  S   UNL A   1      41.959  21.881  26.539  1.00  0.00     0.124 S 
ATOM     74  O   UNL A   1      42.502  21.424  27.816  1.00  0.00    -0.237 OA
ATOM     75  O   UNL A   1      40.502  21.942  26.467  1.00  0.00    -0.237 OA
ATOM     76  O   UNL A   1      42.628  21.353  25.355  1.00  0.00    -0.744 OA
ENDBRANCH  69  73
ENDBRANCH  52  66
BRANCH  53  77
ATOM     77  C   UNL A   1      39.705  31.876  35.111  1.00  0.00     0.023 A 
ATOM     78  C   UNL A   1      39.014  31.416  36.247  1.00  0.00     0.031 A 
ATOM     79  C   UNL A   1      39.903  33.260  34.975  1.00  0.00     0.131 A 
ATOM     80  C   UNL A   1      38.474  32.334  37.156  1.00  0.00     0.055 A 
ATOM     81  C   UNL A   1      39.430  34.168  35.924  1.00  0.00     0.041 A 
ATOM     82  F   UNL A   1      40.546  33.748  33.903  1.00  0.00    -0.206 F 
ATOM     83  C   UNL A   1      38.693  33.707  37.010  1.00  0.00     0.022 A 
BRANCH  80  84
ATOM     84  S   UNL A   1      37.341  31.788  38.464  1.00  0.00     0.124 S 
ATOM     85  O   UNL A   1      38.157  31.955  39.662  1.00  0.00    -0.237 OA
ATOM     86  O   UNL A   1      36.236  32.732  38.315  1.00  0.00    -0.237 OA
ATOM     87  O   UNL A   1      37.030  30.411  38.096  1.00  0.00    -0.744 OA
ENDBRANCH  80  84
ENDBRANCH  53  77
BRANCH  65  88
ATOM     88  C   UNL A   1      45.297  27.806  33.852  1.00  0.00     0.023 A 
ATOM     89  C   UNL A   1      45.295  26.746  34.778  1.00  0.00     0.031 A 
ATOM     90  C   UNL A   1      46.435  28.629  33.784  1.00  0.00     0.131 A 
ATOM     91  C   UNL A   1      46.396  26.559  35.625  1.00  0.00     0.055 A 
ATOM     92  C   UNL A   1      47.547  28.411  34.598  1.00  0.00     0.041 A 
ATOM     93  F   UNL A   1      46.481  29.658  32.922  1.00  0.00    -0.206 F 
ATOM     94  C   UNL A   1      47.524  27.381  35.534  1.00  0.00     0.022 A 
BRANCH  91  95
ATOM     95  S   UNL A   1      46.369  25.301  36.932  1.00  0.00     0.124 S 
ATOM     96  O   UNL A   1      47.629  25.560  37.625  1.00  0.00    -0.237 OA
ATOM     97  O   UNL A   1      45.164  25.655  37.677  1.00  0.00    -0.237 OA
ATOM     98  O   UNL A   1      46.309  24.038  36.205  1.00  0.00    -0.744 OA
ENDBRANCH  91  95
ENDBRANCH  65  88
ENDBRANCH  39  40
ENDBRANCH  31  34
ENDBRANCH  29  30
ENDBRANCH  28  29
ENDBRANCH   1  28
TORSDOF 18
ENDMDL
