MODEL 1
REMARK VINA RESULT:     -12.0      0.000      0.000
REMARK SMILES Cc1ccccc1-c1nc(CC(=O)NCCCCCCNC(=O)c2ccc(-c3c4nc(c(-c5cc(S(=O)(=O)[O-])ccc5F)c5ccc([nH]5)c(-c5cc(S(=O)(=O)[O-])ccc5F)c5nc(c(-c6cc(S(=O)(=O)[O-])ccc6F)c6ccc3[nH]6)C=C5)C=C4)cc2)cs1
REMARK SMILES IDX 18 1 17 2 16 3 15 4 14 5 12 6 13 7 11 9 10 10 8 11 9 12
REMARK SMILES IDX 88 13 87 14 7 15 1 16 2 17 3 18 4 19 6 20 5 21 19 22 20 23
REMARK SMILES IDX 21 24 22 25 23 27 24 28 25 29 86 30 26 31 85 32 27 33 28 34
REMARK SMILES IDX 29 35 79 36 30 37 84 38 78 39 80 40 31 41 83 42 77 43 76 44
REMARK SMILES IDX 32 46 64 47 44 48 63 49 45 50 48 51 62 52 81 53 46 54 47 55
REMARK SMILES IDX 61 57 82 58 49 59 33 60 34 61 42 62 35 63 41 64 43 65 40 66
REMARK SMILES IDX 36 67 37 68 38 69 39 70 65 71 66 72 74 73 67 74 73 75 75 76
REMARK SMILES IDX 72 77 68 78 69 79 70 80 71 81 50 82 51 83 59 84 52 85 58 86
REMARK SMILES IDX 60 87 57 88 53 89 54 90 55 91 56 92
REMARK H PARENT 14 8 21 26 80 45 48 56
REMARK Flexibility Score: inf
ROOT
ATOM      1  C   UNL A   1      34.479  28.852  26.966  1.00  0.00     0.002 C 
ENDROOT
BRANCH   1   2
ATOM      2  C   UNL A   1      33.549  28.199  25.931  1.00  0.00     0.002 C 
BRANCH   2   3
ATOM      3  C   UNL A   1      33.024  29.102  24.805  1.00  0.00     0.021 C 
BRANCH   3   4
ATOM      4  C   UNL A   1      31.540  29.464  24.894  1.00  0.00     0.116 C 
BRANCH   4   5
ATOM      5  N   UNL A   1      30.951  29.696  23.587  1.00  0.00    -0.356 N 
ATOM      6  C   UNL A   1      30.247  28.833  22.796  1.00  0.00     0.226 C 
ATOM      7  O   UNL A   1      29.832  29.232  21.705  1.00  0.00    -0.275 OA
ATOM      8  H   UNL A   1      31.075  30.601  23.220  1.00  0.00     0.163 HD
BRANCH   6   9
ATOM      9  C   UNL A   1      29.930  27.433  23.283  1.00  0.00     0.157 C 
BRANCH   9  10
ATOM     10  C   UNL A   1      31.031  26.464  23.010  1.00  0.00     0.061 A 
ATOM     11  C   UNL A   1      32.610  25.055  23.689  1.00  0.00     0.123 A 
ATOM     12  N   UNL A   1      31.615  25.820  24.092  1.00  0.00    -0.241 NA
ATOM     13  S   UNL A   1      32.836  24.996  21.984  1.00  0.00    -0.122 S 
ATOM     14  C   UNL A   1      31.556  26.115  21.781  1.00  0.00     0.091 A 
BRANCH  11  15
ATOM     15  C   UNL A   1      33.477  24.278  24.585  1.00  0.00     0.013 A 
ATOM     16  C   UNL A   1      31.703  22.448  24.895  1.00  0.00     0.045 C 
ATOM     17  C   UNL A   1      33.050  23.062  25.165  1.00  0.00    -0.041 A 
ATOM     18  C   UNL A   1      33.904  22.395  26.064  1.00  0.00     0.004 A 
ATOM     19  C   UNL A   1      35.165  22.906  26.372  1.00  0.00     0.000 A 
ATOM     20  C   UNL A   1      34.751  24.778  24.911  1.00  0.00     0.011 A 
ATOM     21  C   UNL A   1      35.590  24.095  25.793  1.00  0.00     0.001 A 
ENDBRANCH  11  15
ENDBRANCH   9  10
ENDBRANCH   6   9
ENDBRANCH   4   5
ENDBRANCH   3   4
ENDBRANCH   2   3
ENDBRANCH   1   2
BRANCH   1  22
ATOM     22  C   UNL A   1      33.944  30.109  27.653  1.00  0.00     0.021 C 
BRANCH  22  23
ATOM     23  C   UNL A   1      34.843  31.333  27.504  1.00  0.00     0.116 C 
BRANCH  23  24
ATOM     24  N   UNL A   1      35.287  31.896  28.776  1.00  0.00    -0.352 N 
ATOM     25  C   UNL A   1      36.210  31.389  29.679  1.00  0.00     0.251 C 
ATOM     26  H   UNL A   1      34.877  32.754  29.026  1.00  0.00     0.163 HD
ATOM     27  O   UNL A   1      36.432  31.945  30.740  1.00  0.00    -0.269 OA
BRANCH  25  28
ATOM     28  C   UNL A   1      37.008  30.205  29.284  1.00  0.00     0.039 A 
ATOM     29  C   UNL A   1      37.089  29.146  30.196  1.00  0.00     0.014 A 
ATOM     30  C   UNL A   1      37.825  30.234  28.157  1.00  0.00     0.014 A 
ATOM     31  C   UNL A   1      38.145  28.244  30.101  1.00  0.00     0.010 A 
ATOM     32  C   UNL A   1      38.923  29.397  28.113  1.00  0.00     0.010 A 
ATOM     33  C   UNL A   1      39.120  28.449  29.125  1.00  0.00    -0.014 A 
BRANCH  33  34
ATOM     34  C   UNL A   1      40.448  27.849  29.191  1.00  0.00     0.031 A 
ATOM     35  C   UNL A   1      40.680  26.446  28.799  1.00  0.00     0.074 A 
ATOM     36  C   UNL A   1      41.501  28.618  29.549  1.00  0.00     0.049 A 
ATOM     37  N   UNL A   1      41.710  25.754  29.156  1.00  0.00    -0.248 NA
ATOM     38  C   UNL A   1      39.711  25.669  28.035  1.00  0.00     0.031 C 
ATOM     39  C   UNL A   1      42.919  28.315  29.390  1.00  0.00     0.029 A 
ATOM     40  N   UNL A   1      41.475  29.732  30.383  1.00  0.00    -0.354 N 
ATOM     41  C   UNL A   1      41.714  24.597  28.414  1.00  0.00     0.074 A 
ATOM     42  C   UNL A   1      40.382  24.526  27.867  1.00  0.00     0.031 C 
ATOM     43  C   UNL A   1      43.620  29.035  30.280  1.00  0.00     0.029 A 
ATOM     44  C   UNL A   1      42.663  29.713  31.134  1.00  0.00     0.049 A 
ATOM     45  H   UNL A   1      40.761  30.407  30.436  1.00  0.00     0.167 HD
ATOM     46  C   UNL A   1      42.897  23.941  28.229  1.00  0.00     0.034 A 
ATOM     47  C   UNL A   1      42.633  29.636  32.496  1.00  0.00     0.034 A 
ATOM     48  C   UNL A   1      43.935  24.451  29.138  1.00  0.00     0.049 A 
ATOM     49  C   UNL A   1      43.334  28.417  33.052  1.00  0.00     0.074 A 
ATOM     50  C   UNL A   1      45.081  25.209  28.954  1.00  0.00     0.029 A 
ATOM     51  N   UNL A   1      43.733  24.387  30.516  1.00  0.00    -0.354 N 
ATOM     52  N   UNL A   1      43.667  27.374  32.343  1.00  0.00    -0.248 NA
ATOM     53  C   UNL A   1      43.702  28.272  34.457  1.00  0.00     0.031 C 
ATOM     54  C   UNL A   1      45.529  25.651  30.230  1.00  0.00     0.029 A 
ATOM     55  C   UNL A   1      44.678  25.136  31.193  1.00  0.00     0.049 A 
ATOM     56  H   UNL A   1      43.013  23.875  30.951  1.00  0.00     0.167 HD
ATOM     57  C   UNL A   1      44.256  26.430  33.148  1.00  0.00     0.074 A 
ATOM     58  C   UNL A   1      44.275  27.055  34.460  1.00  0.00     0.031 C 
ATOM     59  C   UNL A   1      44.662  25.219  32.653  1.00  0.00     0.034 A 
BRANCH  46  60
ATOM     60  C   UNL A   1      43.220  23.030  27.044  1.00  0.00     0.023 A 
ATOM     61  C   UNL A   1      42.713  21.708  27.044  1.00  0.00     0.031 A 
ATOM     62  C   UNL A   1      44.085  23.320  25.964  1.00  0.00     0.131 A 
ATOM     63  C   UNL A   1      43.117  20.753  26.085  1.00  0.00     0.055 A 
ATOM     64  C   UNL A   1      44.476  22.376  25.005  1.00  0.00     0.041 A 
ATOM     65  F   UNL A   1      44.614  24.527  25.758  1.00  0.00    -0.206 F 
ATOM     66  C   UNL A   1      44.005  21.080  25.068  1.00  0.00     0.022 A 
BRANCH  63  67
ATOM     67  S   UNL A   1      42.505  19.049  26.207  1.00  0.00     0.124 S 
ATOM     68  O   UNL A   1      43.510  18.308  25.454  1.00  0.00    -0.237 OA
ATOM     69  O   UNL A   1      42.481  18.831  27.649  1.00  0.00    -0.237 OA
ATOM     70  O   UNL A   1      41.188  19.117  25.574  1.00  0.00    -0.744 OA
ENDBRANCH  63  67
ENDBRANCH  46  60
BRANCH  47  71
ATOM     71  C   UNL A   1      41.450  30.318  33.095  1.00  0.00     0.023 A 
ATOM     72  C   UNL A   1      41.482  31.729  33.135  1.00  0.00     0.031 A 
ATOM     73  C   UNL A   1      40.207  29.687  33.224  1.00  0.00     0.131 A 
ATOM     74  C   UNL A   1      40.290  32.466  33.121  1.00  0.00     0.055 A 
ATOM     75  C   UNL A   1      39.020  30.430  33.288  1.00  0.00     0.041 A 
ATOM     76  F   UNL A   1      40.107  28.351  33.159  1.00  0.00    -0.206 F 
ATOM     77  C   UNL A   1      39.053  31.822  33.191  1.00  0.00     0.022 A 
BRANCH  74  78
ATOM     78  S   UNL A   1      40.383  34.238  32.720  1.00  0.00     0.124 S 
ATOM     79  O   UNL A   1      41.435  34.697  33.619  1.00  0.00    -0.237 OA
ATOM     80  O   UNL A   1      40.720  34.223  31.296  1.00  0.00    -0.237 OA
ATOM     81  O   UNL A   1      39.040  34.728  33.015  1.00  0.00    -0.744 OA
ENDBRANCH  74  78
ENDBRANCH  47  71
BRANCH  59  82
ATOM     82  C   UNL A   1      45.154  24.027  33.461  1.00  0.00     0.023 A 
ATOM     83  C   UNL A   1      46.446  23.918  34.000  1.00  0.00     0.031 A 
ATOM     84  C   UNL A   1      44.282  22.952  33.775  1.00  0.00     0.131 A 
ATOM     85  C   UNL A   1      46.848  22.779  34.728  1.00  0.00     0.055 A 
ATOM     86  C   UNL A   1      44.661  21.854  34.555  1.00  0.00     0.041 A 
ATOM     87  F   UNL A   1      43.011  22.922  33.349  1.00  0.00    -0.206 F 
ATOM     88  C   UNL A   1      45.958  21.753  35.026  1.00  0.00     0.022 A 
BRANCH  85  89
ATOM     89  S   UNL A   1      48.586  22.648  35.233  1.00  0.00     0.124 S 
ATOM     90  O   UNL A   1      48.723  23.787  36.138  1.00  0.00    -0.237 OA
ATOM     91  O   UNL A   1      48.629  21.331  35.863  1.00  0.00    -0.237 OA
ATOM     92  O   UNL A   1      49.322  22.761  33.976  1.00  0.00    -0.744 OA
ENDBRANCH  85  89
ENDBRANCH  59  82
ENDBRANCH  33  34
ENDBRANCH  25  28
ENDBRANCH  23  24
ENDBRANCH  22  23
ENDBRANCH   1  22
TORSDOF 18
ENDMDL
MODEL 2
REMARK VINA RESULT:     -11.8      1.363      1.999
REMARK SMILES Cc1ccccc1-c1nc(CC(=O)NCCCCCCNC(=O)c2ccc(-c3c4nc(c(-c5cc(S(=O)(=O)[O-])ccc5F)c5ccc([nH]5)c(-c5cc(S(=O)(=O)[O-])ccc5F)c5nc(c(-c6cc(S(=O)(=O)[O-])ccc6F)c6ccc3[nH]6)C=C5)C=C4)cc2)cs1
REMARK SMILES IDX 18 1 17 2 16 3 15 4 14 5 12 6 13 7 11 9 10 10 8 11 9 12
REMARK SMILES IDX 88 13 87 14 7 15 1 16 2 17 3 18 4 19 6 20 5 21 19 22 20 23
REMARK SMILES IDX 21 24 22 25 23 27 24 28 25 29 86 30 26 31 85 32 27 33 28 34
REMARK SMILES IDX 29 35 79 36 30 37 84 38 78 39 80 40 31 41 83 42 77 43 76 44
REMARK SMILES IDX 32 46 64 47 44 48 63 49 45 50 48 51 62 52 81 53 46 54 47 55
REMARK SMILES IDX 61 57 82 58 49 59 33 60 34 61 42 62 35 63 41 64 43 65 40 66
REMARK SMILES IDX 36 67 37 68 38 69 39 70 65 71 66 72 74 73 67 74 73 75 75 76
REMARK SMILES IDX 72 77 68 78 69 79 70 80 71 81 50 82 51 83 59 84 52 85 58 86
REMARK SMILES IDX 60 87 57 88 53 89 54 90 55 91 56 92
REMARK H PARENT 14 8 21 26 80 45 48 56
REMARK Flexibility Score: inf
ROOT
ATOM      1  C   UNL A   1      32.474  29.275  26.146  1.00  0.00     0.002 C 
ENDROOT
BRANCH   1   2
ATOM      2  C   UNL A   1      32.177  29.365  24.640  1.00  0.00     0.002 C 
BRANCH   2   3
ATOM      3  C   UNL A   1      30.824  28.813  24.168  1.00  0.00     0.021 C 
BRANCH   3   4
ATOM      4  C   UNL A   1      30.806  27.321  23.832  1.00  0.00     0.116 C 
BRANCH   4   5
ATOM      5  N   UNL A   1      30.225  26.524  24.898  1.00  0.00    -0.356 N 
ATOM      6  C   UNL A   1      30.849  25.714  25.803  1.00  0.00     0.226 C 
ATOM      7  O   UNL A   1      30.163  25.113  26.635  1.00  0.00    -0.275 OA
ATOM      8  H   UNL A   1      29.245  26.575  24.980  1.00  0.00     0.163 HD
BRANCH   6   9
ATOM      9  C   UNL A   1      32.361  25.607  25.821  1.00  0.00     0.157 C 
BRANCH   9  10
ATOM     10  C   UNL A   1      32.882  24.616  24.836  1.00  0.00     0.061 A 
ATOM     11  C   UNL A   1      33.335  22.532  24.211  1.00  0.00     0.123 A 
ATOM     12  N   UNL A   1      32.769  23.268  25.147  1.00  0.00    -0.241 NA
ATOM     13  S   UNL A   1      33.948  23.413  22.865  1.00  0.00    -0.122 S 
ATOM     14  C   UNL A   1      33.477  24.878  23.617  1.00  0.00     0.091 A 
BRANCH  11  15
ATOM     15  C   UNL A   1      33.443  21.067  24.256  1.00  0.00     0.013 A 
ATOM     16  C   UNL A   1      35.732  21.161  25.414  1.00  0.00     0.045 C 
ATOM     17  C   UNL A   1      34.572  20.420  24.806  1.00  0.00    -0.041 A 
ATOM     18  C   UNL A   1      34.644  19.015  24.766  1.00  0.00     0.004 A 
ATOM     19  C   UNL A   1      33.612  18.258  24.210  1.00  0.00     0.000 A 
ATOM     20  C   UNL A   1      32.415  20.286  23.698  1.00  0.00     0.011 A 
ATOM     21  C   UNL A   1      32.496  18.892  23.679  1.00  0.00     0.001 A 
ENDBRANCH  11  15
ENDBRANCH   9  10
ENDBRANCH   6   9
ENDBRANCH   4   5
ENDBRANCH   3   4
ENDBRANCH   2   3
ENDBRANCH   1   2
BRANCH   1  22
ATOM     22  C   UNL A   1      33.197  30.474  26.762  1.00  0.00     0.021 C 
BRANCH  22  23
ATOM     23  C   UNL A   1      34.058  30.128  27.973  1.00  0.00     0.116 C 
BRANCH  23  24
ATOM     24  N   UNL A   1      34.875  31.240  28.451  1.00  0.00    -0.352 N 
ATOM     25  C   UNL A   1      36.192  31.231  28.885  1.00  0.00     0.251 C 
ATOM     26  H   UNL A   1      34.429  32.117  28.467  1.00  0.00     0.163 HD
ATOM     27  O   UNL A   1      36.724  32.237  29.320  1.00  0.00    -0.269 OA
BRANCH  25  28
ATOM     28  C   UNL A   1      36.985  29.992  28.710  1.00  0.00     0.039 A 
ATOM     29  C   UNL A   1      37.135  29.158  29.824  1.00  0.00     0.014 A 
ATOM     30  C   UNL A   1      37.736  29.777  27.558  1.00  0.00     0.014 A 
ATOM     31  C   UNL A   1      38.198  28.260  29.865  1.00  0.00     0.010 A 
ATOM     32  C   UNL A   1      38.843  28.954  27.631  1.00  0.00     0.010 A 
ATOM     33  C   UNL A   1      39.112  28.250  28.811  1.00  0.00    -0.014 A 
BRANCH  33  34
ATOM     34  C   UNL A   1      40.452  27.684  28.927  1.00  0.00     0.031 A 
ATOM     35  C   UNL A   1      40.725  26.276  28.580  1.00  0.00     0.074 A 
ATOM     36  C   UNL A   1      41.477  28.486  29.291  1.00  0.00     0.049 A 
ATOM     37  N   UNL A   1      41.761  25.618  28.982  1.00  0.00    -0.248 NA
ATOM     38  C   UNL A   1      39.794  25.457  27.813  1.00  0.00     0.031 C 
ATOM     39  C   UNL A   1      42.906  28.211  29.176  1.00  0.00     0.029 A 
ATOM     40  N   UNL A   1      41.405  29.621  30.094  1.00  0.00    -0.354 N 
ATOM     41  C   UNL A   1      41.810  24.441  28.272  1.00  0.00     0.074 A 
ATOM     42  C   UNL A   1      40.495  24.325  27.694  1.00  0.00     0.031 C 
ATOM     43  C   UNL A   1      43.567  28.971  30.063  1.00  0.00     0.029 A 
ATOM     44  C   UNL A   1      42.573  29.649  30.874  1.00  0.00     0.049 A 
ATOM     45  H   UNL A   1      40.675  30.280  30.110  1.00  0.00     0.167 HD
ATOM     46  C   UNL A   1      43.012  23.808  28.134  1.00  0.00     0.034 A 
ATOM     47  C   UNL A   1      42.510  29.608  32.236  1.00  0.00     0.034 A 
ATOM     48  C   UNL A   1      44.014  24.367  29.055  1.00  0.00     0.049 A 
ATOM     49  C   UNL A   1      43.224  28.421  32.843  1.00  0.00     0.074 A 
ATOM     50  C   UNL A   1      45.147  25.146  28.880  1.00  0.00     0.029 A 
ATOM     51  N   UNL A   1      43.778  24.335  30.429  1.00  0.00    -0.354 N 
ATOM     52  N   UNL A   1      43.598  27.367  32.171  1.00  0.00    -0.248 NA
ATOM     53  C   UNL A   1      43.558  28.322  34.260  1.00  0.00     0.031 C 
ATOM     54  C   UNL A   1      45.552  25.632  30.154  1.00  0.00     0.029 A 
ATOM     55  C   UNL A   1      44.688  25.123  31.109  1.00  0.00     0.049 A 
ATOM     56  H   UNL A   1      43.059  23.818  30.859  1.00  0.00     0.167 HD
ATOM     57  C   UNL A   1      44.187  26.459  33.017  1.00  0.00     0.074 A 
ATOM     58  C   UNL A   1      44.158  27.120  34.311  1.00  0.00     0.031 C 
ATOM     59  C   UNL A   1      44.632  25.245  32.565  1.00  0.00     0.034 A 
BRANCH  46  60
ATOM     60  C   UNL A   1      43.386  22.874  26.983  1.00  0.00     0.023 A 
ATOM     61  C   UNL A   1      42.806  21.583  26.939  1.00  0.00     0.031 A 
ATOM     62  C   UNL A   1      44.357  23.108  25.984  1.00  0.00     0.131 A 
ATOM     63  C   UNL A   1      43.238  20.601  26.020  1.00  0.00     0.055 A 
ATOM     64  C   UNL A   1      44.777  22.138  25.064  1.00  0.00     0.041 A 
ATOM     65  F   UNL A   1      44.970  24.282  25.824  1.00  0.00    -0.206 F 
ATOM     66  C   UNL A   1      44.229  20.871  25.086  1.00  0.00     0.022 A 
BRANCH  63  67
ATOM     67  S   UNL A   1      42.522  18.935  26.090  1.00  0.00     0.124 S 
ATOM     68  O   UNL A   1      41.161  19.166  25.621  1.00  0.00    -0.237 OA
ATOM     69  O   UNL A   1      43.398  18.184  25.199  1.00  0.00    -0.237 OA
ATOM     70  O   UNL A   1      42.633  18.579  27.505  1.00  0.00    -0.744 OA
ENDBRANCH  63  67
ENDBRANCH  46  60
BRANCH  47  71
ATOM     71  C   UNL A   1      41.297  30.279  32.786  1.00  0.00     0.023 A 
ATOM     72  C   UNL A   1      41.313  31.690  32.829  1.00  0.00     0.031 A 
ATOM     73  C   UNL A   1      40.055  29.635  32.864  1.00  0.00     0.131 A 
ATOM     74  C   UNL A   1      40.116  32.415  32.766  1.00  0.00     0.055 A 
ATOM     75  C   UNL A   1      38.860  30.367  32.880  1.00  0.00     0.041 A 
ATOM     76  F   UNL A   1      39.971  28.298  32.794  1.00  0.00    -0.206 F 
ATOM     77  C   UNL A   1      38.884  31.760  32.784  1.00  0.00     0.022 A 
BRANCH  74  78
ATOM     78  S   UNL A   1      40.209  34.188  32.370  1.00  0.00     0.124 S 
ATOM     79  O   UNL A   1      40.623  34.164  30.972  1.00  0.00    -0.237 OA
ATOM     80  O   UNL A   1      38.843  34.642  32.625  1.00  0.00    -0.237 OA
ATOM     81  O   UNL A   1      41.200  34.699  33.312  1.00  0.00    -0.744 OA
ENDBRANCH  74  78
ENDBRANCH  47  71
BRANCH  59  82
ATOM     82  C   UNL A   1      45.131  24.086  33.417  1.00  0.00     0.023 A 
ATOM     83  C   UNL A   1      46.425  24.000  33.953  1.00  0.00     0.031 A 
ATOM     84  C   UNL A   1      44.261  23.024  33.779  1.00  0.00     0.131 A 
ATOM     85  C   UNL A   1      46.833  22.891  34.724  1.00  0.00     0.055 A 
ATOM     86  C   UNL A   1      44.646  21.959  34.601  1.00  0.00     0.041 A 
ATOM     87  F   UNL A   1      42.988  22.976  33.362  1.00  0.00    -0.206 F 
ATOM     88  C   UNL A   1      45.946  21.878  35.068  1.00  0.00     0.022 A 
BRANCH  85  89
ATOM     89  S   UNL A   1      48.573  22.783  35.225  1.00  0.00     0.124 S 
ATOM     90  O   UNL A   1      48.487  23.007  36.666  1.00  0.00    -0.237 OA
ATOM     91  O   UNL A   1      48.931  21.427  34.817  1.00  0.00    -0.237 OA
ATOM     92  O   UNL A   1      49.219  23.852  34.467  1.00  0.00    -0.744 OA
ENDBRANCH  85  89
ENDBRANCH  59  82
ENDBRANCH  33  34
ENDBRANCH  25  28
ENDBRANCH  23  24
ENDBRANCH  22  23
ENDBRANCH   1  22
TORSDOF 18
ENDMDL
MODEL 3
REMARK VINA RESULT:     -11.6      4.238     10.790
REMARK SMILES Cc1ccccc1-c1nc(CC(=O)NCCCCCCNC(=O)c2ccc(-c3c4nc(c(-c5cc(S(=O)(=O)[O-])ccc5F)c5ccc([nH]5)c(-c5cc(S(=O)(=O)[O-])ccc5F)c5nc(c(-c6cc(S(=O)(=O)[O-])ccc6F)c6ccc3[nH]6)C=C5)C=C4)cc2)cs1
REMARK SMILES IDX 18 1 17 2 16 3 15 4 14 5 12 6 13 7 11 9 10 10 8 11 9 12
REMARK SMILES IDX 88 13 87 14 7 15 1 16 2 17 3 18 4 19 6 20 5 21 19 22 20 23
REMARK SMILES IDX 21 24 22 25 23 27 24 28 25 29 86 30 26 31 85 32 27 33 28 34
REMARK SMILES IDX 29 35 79 36 30 37 84 38 78 39 80 40 31 41 83 42 77 43 76 44
REMARK SMILES IDX 32 46 64 47 44 48 63 49 45 50 48 51 62 52 81 53 46 54 47 55
REMARK SMILES IDX 61 57 82 58 49 59 33 60 34 61 42 62 35 63 41 64 43 65 40 66
REMARK SMILES IDX 36 67 37 68 38 69 39 70 65 71 66 72 74 73 67 74 73 75 75 76
REMARK SMILES IDX 72 77 68 78 69 79 70 80 71 81 50 82 51 83 59 84 52 85 58 86
REMARK SMILES IDX 60 87 57 88 53 89 54 90 55 91 56 92
REMARK H PARENT 14 8 21 26 80 45 48 56
REMARK Flexibility Score: inf
ROOT
ATOM      1  C   UNL A   1      37.182  21.728  24.402  1.00  0.00     0.002 C 
ENDROOT
BRANCH   1   2
ATOM      2  C   UNL A   1      35.671  21.861  24.650  1.00  0.00     0.002 C 
BRANCH   2   3
ATOM      3  C   UNL A   1      34.966  20.660  25.298  1.00  0.00     0.021 C 
BRANCH   3   4
ATOM      4  C   UNL A   1      33.669  20.217  24.619  1.00  0.00     0.116 C 
BRANCH   4   5
ATOM      5  N   UNL A   1      32.492  20.593  25.382  1.00  0.00    -0.356 N 
ATOM      6  C   UNL A   1      31.751  21.739  25.312  1.00  0.00     0.226 C 
ATOM      7  O   UNL A   1      30.779  21.864  26.063  1.00  0.00    -0.275 OA
ATOM      8  H   UNL A   1      32.184  19.930  26.041  1.00  0.00     0.163 HD
BRANCH   6   9
ATOM      9  C   UNL A   1      32.085  22.805  24.288  1.00  0.00     0.157 C 
BRANCH   9  10
ATOM     10  C   UNL A   1      31.727  24.178  24.746  1.00  0.00     0.061 A 
ATOM     11  C   UNL A   1      30.964  26.231  24.366  1.00  0.00     0.123 A 
ATOM     12  N   UNL A   1      31.156  25.044  23.824  1.00  0.00    -0.241 NA
ATOM     13  S   UNL A   1      31.373  26.342  26.034  1.00  0.00    -0.122 S 
ATOM     14  C   UNL A   1      31.894  24.712  26.010  1.00  0.00     0.091 A 
BRANCH  11  15
ATOM     15  C   UNL A   1      30.429  27.396  23.648  1.00  0.00     0.013 A 
ATOM     16  C   UNL A   1      28.001  26.689  24.084  1.00  0.00     0.045 C 
ATOM     17  C   UNL A   1      29.040  27.607  23.501  1.00  0.00    -0.041 A 
ATOM     18  C   UNL A   1      28.590  28.709  22.750  1.00  0.00     0.004 A 
ATOM     19  C   UNL A   1      29.493  29.601  22.169  1.00  0.00     0.000 A 
ATOM     20  C   UNL A   1      31.323  28.304  23.052  1.00  0.00     0.011 A 
ATOM     21  C   UNL A   1      30.859  29.401  22.323  1.00  0.00     0.001 A 
ENDBRANCH  11  15
ENDBRANCH   9  10
ENDBRANCH   6   9
ENDBRANCH   4   5
ENDBRANCH   3   4
ENDBRANCH   2   3
ENDBRANCH   1   2
BRANCH   1  22
ATOM     22  C   UNL A   1      38.068  21.693  25.648  1.00  0.00     0.021 C 
BRANCH  22  23
ATOM     23  C   UNL A   1      38.617  23.056  26.061  1.00  0.00     0.116 C 
BRANCH  23  24
ATOM     24  N   UNL A   1      39.993  23.013  26.547  1.00  0.00    -0.352 N 
ATOM     25  C   UNL A   1      40.776  24.045  27.043  1.00  0.00     0.251 C 
ATOM     26  H   UNL A   1      40.424  22.129  26.521  1.00  0.00     0.163 HD
ATOM     27  O   UNL A   1      41.940  23.867  27.354  1.00  0.00    -0.269 OA
BRANCH  25  28
ATOM     28  C   UNL A   1      40.137  25.359  27.291  1.00  0.00     0.039 A 
ATOM     29  C   UNL A   1      40.552  26.439  26.504  1.00  0.00     0.014 A 
ATOM     30  C   UNL A   1      39.327  25.564  28.405  1.00  0.00     0.014 A 
ATOM     31  C   UNL A   1      40.349  27.737  26.965  1.00  0.00     0.010 A 
ATOM     32  C   UNL A   1      39.205  26.844  28.910  1.00  0.00     0.010 A 
ATOM     33  C   UNL A   1      39.778  27.922  28.224  1.00  0.00    -0.014 A 
BRANCH  33  34
ATOM     34  C   UNL A   1      39.900  29.167  28.976  1.00  0.00     0.031 A 
ATOM     35  C   UNL A   1      38.870  30.220  28.892  1.00  0.00     0.074 A 
ATOM     36  C   UNL A   1      40.941  29.326  29.823  1.00  0.00     0.049 A 
ATOM     37  N   UNL A   1      39.065  31.453  29.223  1.00  0.00    -0.248 NA
ATOM     38  C   UNL A   1      37.543  29.985  28.336  1.00  0.00     0.031 C 
ATOM     39  C   UNL A   1      41.090  30.330  30.871  1.00  0.00     0.029 A 
ATOM     40  N   UNL A   1      42.204  28.751  29.711  1.00  0.00    -0.354 N 
ATOM     41  C   UNL A   1      37.841  32.077  29.253  1.00  0.00     0.074 A 
ATOM     42  C   UNL A   1      36.970  31.174  28.543  1.00  0.00     0.031 C 
ATOM     43  C   UNL A   1      42.395  30.491  31.136  1.00  0.00     0.029 A 
ATOM     44  C   UNL A   1      43.132  29.702  30.167  1.00  0.00     0.049 A 
ATOM     45  H   UNL A   1      42.408  27.848  29.377  1.00  0.00     0.167 HD
ATOM     46  C   UNL A   1      37.694  33.197  30.019  1.00  0.00     0.034 A 
ATOM     47  C   UNL A   1      44.109  30.181  29.345  1.00  0.00     0.034 A 
ATOM     48  C   UNL A   1      39.000  33.718  30.454  1.00  0.00     0.049 A 
ATOM     49  C   UNL A   1      44.051  31.677  29.136  1.00  0.00     0.074 A 
ATOM     50  C   UNL A   1      39.654  33.765  31.675  1.00  0.00     0.029 A 
ATOM     51  N   UNL A   1      39.943  34.092  29.498  1.00  0.00    -0.354 N 
ATOM     52  N   UNL A   1      43.019  32.420  29.432  1.00  0.00    -0.248 NA
ATOM     53  C   UNL A   1      45.145  32.454  28.563  1.00  0.00     0.031 C 
ATOM     54  C   UNL A   1      41.013  34.110  31.437  1.00  0.00     0.029 A 
ATOM     55  C   UNL A   1      41.180  34.306  30.076  1.00  0.00     0.049 A 
ATOM     56  H   UNL A   1      39.753  34.192  28.536  1.00  0.00     0.167 HD
ATOM     57  C   UNL A   1      43.271  33.726  29.092  1.00  0.00     0.074 A 
ATOM     58  C   UNL A   1      44.629  33.696  28.574  1.00  0.00     0.031 C 
ATOM     59  C   UNL A   1      42.328  34.705  29.263  1.00  0.00     0.034 A 
BRANCH  46  60
ATOM     60  C   UNL A   1      36.375  33.681  30.623  1.00  0.00     0.023 A 
ATOM     61  C   UNL A   1      35.414  34.276  29.770  1.00  0.00     0.031 A 
ATOM     62  C   UNL A   1      36.032  33.711  31.993  1.00  0.00     0.131 A 
ATOM     63  C   UNL A   1      34.259  34.913  30.275  1.00  0.00     0.055 A 
ATOM     64  C   UNL A   1      34.879  34.331  32.494  1.00  0.00     0.041 A 
ATOM     65  F   UNL A   1      36.779  33.148  32.944  1.00  0.00    -0.206 F 
ATOM     66  C   UNL A   1      33.991  34.951  31.637  1.00  0.00     0.022 A 
BRANCH  63  67
ATOM     67  S   UNL A   1      33.123  35.744  29.130  1.00  0.00     0.124 S 
ATOM     68  O   UNL A   1      34.025  36.604  28.373  1.00  0.00    -0.237 OA
ATOM     69  O   UNL A   1      32.535  34.622  28.407  1.00  0.00    -0.237 OA
ATOM     70  O   UNL A   1      32.203  36.451  30.021  1.00  0.00    -0.744 OA
ENDBRANCH  63  67
ENDBRANCH  46  60
BRANCH  47  71
ATOM     71  C   UNL A   1      44.585  29.174  28.352  1.00  0.00     0.023 A 
ATOM     72  C   UNL A   1      45.420  28.146  28.838  1.00  0.00     0.031 A 
ATOM     73  C   UNL A   1      43.941  28.971  27.124  1.00  0.00     0.131 A 
ATOM     74  C   UNL A   1      45.453  26.898  28.201  1.00  0.00     0.055 A 
ATOM     75  C   UNL A   1      44.040  27.747  26.449  1.00  0.00     0.041 A 
ATOM     76  F   UNL A   1      43.109  29.896  26.625  1.00  0.00    -0.206 F 
ATOM     77  C   UNL A   1      44.760  26.689  27.008  1.00  0.00     0.022 A 
BRANCH  74  78
ATOM     78  S   UNL A   1      46.172  25.493  29.106  1.00  0.00     0.124 S 
ATOM     79  O   UNL A   1      45.463  24.362  28.520  1.00  0.00    -0.237 OA
ATOM     80  O   UNL A   1      47.593  25.597  28.776  1.00  0.00    -0.237 OA
ATOM     81  O   UNL A   1      45.855  25.784  30.501  1.00  0.00    -0.744 OA
ENDBRANCH  74  78
ENDBRANCH  47  71
BRANCH  59  82
ATOM     82  C   UNL A   1      42.410  36.142  28.765  1.00  0.00     0.023 A 
ATOM     83  C   UNL A   1      43.022  37.188  29.471  1.00  0.00     0.031 A 
ATOM     84  C   UNL A   1      41.907  36.497  27.485  1.00  0.00     0.131 A 
ATOM     85  C   UNL A   1      43.051  38.504  28.963  1.00  0.00     0.055 A 
ATOM     86  C   UNL A   1      41.998  37.787  26.952  1.00  0.00     0.041 A 
ATOM     87  F   UNL A   1      41.313  35.601  26.683  1.00  0.00    -0.206 F 
ATOM     88  C   UNL A   1      42.560  38.807  27.698  1.00  0.00     0.022 A 
BRANCH  85  89
ATOM     89  S   UNL A   1      43.705  39.823  30.022  1.00  0.00     0.124 S 
ATOM     90  O   UNL A   1      44.977  40.130  29.371  1.00  0.00    -0.237 OA
ATOM     91  O   UNL A   1      42.675  40.851  29.913  1.00  0.00    -0.237 OA
ATOM     92  O   UNL A   1      43.817  39.191  31.335  1.00  0.00    -0.744 OA
ENDBRANCH  85  89
ENDBRANCH  59  82
ENDBRANCH  33  34
ENDBRANCH  25  28
ENDBRANCH  23  24
ENDBRANCH  22  23
ENDBRANCH   1  22
TORSDOF 18
ENDMDL
