MODEL 1
REMARK VINA RESULT:     -12.4      0.000      0.000
REMARK SMILES Cc1ccccc1NC(=O)C[NH+]1CCC(CC(=O)NCCCCCCNC(=O)c2ccc(-c3c4nc(c(-c5cc(S(=O)(=O)[O-])ccc5F)c5ccc([nH]5)c(-c5cc(S(=O)(=O)[O-])ccc5F)c5nc(c(-c6cc(S(=O)(=O)[O-])ccc6F)c6ccc3[nH]6)C=C5)C=C4)cc2)CC1
REMARK SMILES IDX 22 1 21 2 20 3 19 4 17 5 18 6 16 8 15 9 12 10 13 11 93 12
REMARK SMILES IDX 14 14 92 15 11 16 9 17 8 18 10 20 7 21 1 22 2 23 3 24 4 25
REMARK SMILES IDX 6 26 5 27 23 28 24 29 25 30 26 31 27 32 28 34 29 35 30 36
REMARK SMILES IDX 91 37 31 38 90 39 32 40 33 41 34 42 84 43 35 44 89 45 83 46
REMARK SMILES IDX 85 47 36 48 88 49 82 50 81 51 37 53 69 54 49 55 68 56 50 57
REMARK SMILES IDX 53 58 67 59 86 60 51 61 52 62 66 64 87 65 54 66 38 67 39 68
REMARK SMILES IDX 47 69 40 70 46 71 48 72 45 73 41 74 42 75 43 76 44 77 70 78
REMARK SMILES IDX 71 79 79 80 72 81 78 82 80 83 77 84 73 85 74 86 75 87 76 88
REMARK SMILES IDX 55 89 56 90 64 91 57 92 63 93 65 94 62 95 58 96 59 97 60 98
REMARK SMILES IDX 61 99
REMARK H PARENT 19 7 12 13 8 19 26 33 85 52 53 63
REMARK Flexibility Score: inf
ROOT
ATOM      1  C   UNL A   1      35.955  20.588  24.865  1.00  0.00     0.002 C 
ENDROOT
BRANCH   1   2
ATOM      2  C   UNL A   1      34.824  21.609  24.713  1.00  0.00     0.021 C 
BRANCH   2   3
ATOM      3  C   UNL A   1      33.430  21.099  25.094  1.00  0.00     0.116 C 
BRANCH   3   4
ATOM      4  N   UNL A   1      33.120  21.363  26.491  1.00  0.00    -0.356 N 
ATOM      5  C   UNL A   1      33.081  22.545  27.171  1.00  0.00     0.220 C 
ATOM      6  O   UNL A   1      32.819  22.536  28.375  1.00  0.00    -0.275 OA
ATOM      7  H   UNL A   1      32.905  20.566  27.027  1.00  0.00     0.163 HD
BRANCH   5   8
ATOM      8  C   UNL A   1      33.344  23.851  26.447  1.00  0.00     0.104 C 
BRANCH   8   9
ATOM      9  C   UNL A   1      32.124  24.416  25.703  1.00  0.00     0.009 C 
ATOM     10  N   UNL A   1      30.848  26.645  24.269  1.00  0.00    -0.327 N 
ATOM     11  C   UNL A   1      30.361  26.270  25.599  1.00  0.00     0.262 C 
ATOM     12  C   UNL A   1      31.376  25.491  23.550  1.00  0.00     0.262 C 
ATOM     13  H   UNL A   1      31.637  27.278  24.399  1.00  0.00     0.348 HD
ATOM     14  C   UNL A   1      31.472  25.607  26.410  1.00  0.00     0.066 C 
ATOM     15  C   UNL A   1      32.541  24.841  24.290  1.00  0.00     0.066 C 
BRANCH  10  16
ATOM     16  C   UNL A   1      29.855  27.435  23.499  1.00  0.00     0.363 C 
BRANCH  16  17
ATOM     17  C   UNL A   1      30.371  28.729  22.850  1.00  0.00     0.279 C 
ATOM     18  N   UNL A   1      31.378  29.491  23.373  1.00  0.00    -0.321 N 
ATOM     19  H   UNL A   1      31.612  30.284  22.838  1.00  0.00     0.170 HD
ATOM     20  O   UNL A   1      29.923  29.076  21.750  1.00  0.00    -0.268 OA
BRANCH  18  21
ATOM     21  C   UNL A   1      32.131  29.331  24.542  1.00  0.00     0.044 A 
ATOM     22  C   UNL A   1      34.027  28.230  23.195  1.00  0.00     0.046 C 
ATOM     23  C   UNL A   1      33.371  28.666  24.479  1.00  0.00    -0.027 A 
ATOM     24  C   UNL A   1      34.029  28.346  25.682  1.00  0.00     0.005 A 
ATOM     25  C   UNL A   1      33.484  28.702  26.915  1.00  0.00     0.000 A 
ATOM     26  C   UNL A   1      31.645  29.768  25.779  1.00  0.00     0.026 A 
ATOM     27  C   UNL A   1      32.306  29.438  26.963  1.00  0.00     0.002 A 
ENDBRANCH  18  21
ENDBRANCH  16  17
ENDBRANCH  10  16
ENDBRANCH   8   9
ENDBRANCH   5   8
ENDBRANCH   3   4
ENDBRANCH   2   3
ENDBRANCH   1   2
BRANCH   1  28
ATOM     28  C   UNL A   1      37.343  21.157  25.185  1.00  0.00     0.002 C 
BRANCH  28  29
ATOM     29  C   UNL A   1      37.507  22.665  24.990  1.00  0.00     0.021 C 
BRANCH  29  30
ATOM     30  C   UNL A   1      37.825  23.427  26.270  1.00  0.00     0.116 C 
BRANCH  30  31
ATOM     31  N   UNL A   1      39.175  23.183  26.770  1.00  0.00    -0.352 N 
ATOM     32  C   UNL A   1      40.110  24.062  27.279  1.00  0.00     0.251 C 
ATOM     33  H   UNL A   1      39.464  22.242  26.738  1.00  0.00     0.163 HD
ATOM     34  O   UNL A   1      41.242  23.708  27.502  1.00  0.00    -0.269 OA
BRANCH  32  35
ATOM     35  C   UNL A   1      39.669  25.428  27.679  1.00  0.00     0.039 A 
ATOM     36  C   UNL A   1      40.024  26.484  26.827  1.00  0.00     0.014 A 
ATOM     37  C   UNL A   1      39.121  25.687  28.931  1.00  0.00     0.014 A 
ATOM     38  C   UNL A   1      40.044  27.785  27.320  1.00  0.00     0.010 A 
ATOM     39  C   UNL A   1      39.227  26.960  29.450  1.00  0.00     0.010 A 
ATOM     40  C   UNL A   1      39.749  27.993  28.665  1.00  0.00    -0.014 A 
BRANCH  40  41
ATOM     41  C   UNL A   1      40.063  29.224  29.377  1.00  0.00     0.031 A 
ATOM     42  C   UNL A   1      39.049  30.279  29.534  1.00  0.00     0.074 A 
ATOM     43  C   UNL A   1      41.256  29.331  30.000  1.00  0.00     0.049 A 
ATOM     44  N   UNL A   1      39.308  31.503  29.843  1.00  0.00    -0.248 NA
ATOM     45  C   UNL A   1      37.634  30.037  29.290  1.00  0.00     0.031 C 
ATOM     46  C   UNL A   1      41.645  30.304  31.015  1.00  0.00     0.029 A 
ATOM     47  N   UNL A   1      42.447  28.714  29.628  1.00  0.00    -0.354 N 
ATOM     48  C   UNL A   1      38.116  32.116  30.156  1.00  0.00     0.074 A 
ATOM     49  C   UNL A   1      37.104  31.193  29.699  1.00  0.00     0.031 C 
ATOM     50  C   UNL A   1      42.982  30.418  31.011  1.00  0.00     0.029 A 
ATOM     51  C   UNL A   1      43.474  29.640  29.889  1.00  0.00     0.049 A 
ATOM     52  H   UNL A   1      42.552  27.808  29.256  1.00  0.00     0.167 HD
ATOM     53  C   UNL A   1      38.139  33.259  30.901  1.00  0.00     0.034 A 
ATOM     54  C   UNL A   1      44.235  30.136  28.872  1.00  0.00     0.034 A 
ATOM     55  C   UNL A   1      39.513  33.746  31.090  1.00  0.00     0.049 A 
ATOM     56  C   UNL A   1      44.146  31.638  28.717  1.00  0.00     0.074 A 
ATOM     57  C   UNL A   1      40.394  33.730  32.159  1.00  0.00     0.029 A 
ATOM     58  N   UNL A   1      40.268  34.106  29.976  1.00  0.00    -0.354 N 
ATOM     59  N   UNL A   1      43.219  32.391  29.243  1.00  0.00    -0.248 NA
ATOM     60  C   UNL A   1      45.106  32.405  27.937  1.00  0.00     0.031 C 
ATOM     61  C   UNL A   1      41.691  34.055  31.669  1.00  0.00     0.029 A 
ATOM     62  C   UNL A   1      41.597  34.292  30.309  1.00  0.00     0.049 A 
ATOM     63  H   UNL A   1      39.902  34.213  29.067  1.00  0.00     0.167 HD
ATOM     64  C   UNL A   1      43.423  33.705  28.890  1.00  0.00     0.074 A 
ATOM     65  C   UNL A   1      44.631  33.653  28.080  1.00  0.00     0.031 C 
ATOM     66  C   UNL A   1      42.567  34.701  29.292  1.00  0.00     0.034 A 
BRANCH  53  67
ATOM     67  C   UNL A   1      36.955  33.770  31.711  1.00  0.00     0.023 A 
ATOM     68  C   UNL A   1      35.806  34.240  31.036  1.00  0.00     0.031 A 
ATOM     69  C   UNL A   1      36.904  33.887  33.114  1.00  0.00     0.131 A 
ATOM     70  C   UNL A   1      34.754  34.882  31.721  1.00  0.00     0.055 A 
ATOM     71  C   UNL A   1      35.889  34.577  33.792  1.00  0.00     0.041 A 
ATOM     72  F   UNL A   1      37.793  33.284  33.910  1.00  0.00    -0.206 F 
ATOM     73  C   UNL A   1      34.811  35.092  33.095  1.00  0.00     0.022 A 
BRANCH  70  74
ATOM     74  S   UNL A   1      33.290  35.431  30.799  1.00  0.00     0.124 S 
ATOM     75  O   UNL A   1      33.649  36.796  30.426  1.00  0.00    -0.237 OA
ATOM     76  O   UNL A   1      33.226  34.459  29.714  1.00  0.00    -0.237 OA
ATOM     77  O   UNL A   1      32.211  35.326  31.781  1.00  0.00    -0.744 OA
ENDBRANCH  70  74
ENDBRANCH  53  67
BRANCH  54  78
ATOM     78  C   UNL A   1      44.452  29.150  27.773  1.00  0.00     0.023 A 
ATOM     79  C   UNL A   1      45.361  28.098  28.023  1.00  0.00     0.031 A 
ATOM     80  C   UNL A   1      43.532  28.986  26.729  1.00  0.00     0.131 A 
ATOM     81  C   UNL A   1      45.225  26.871  27.359  1.00  0.00     0.055 A 
ATOM     82  C   UNL A   1      43.442  27.778  26.023  1.00  0.00     0.041 A 
ATOM     83  F   UNL A   1      42.622  29.934  26.464  1.00  0.00    -0.206 F 
ATOM     84  C   UNL A   1      44.259  26.699  26.368  1.00  0.00     0.022 A 
BRANCH  81  85
ATOM     85  S   UNL A   1      46.139  25.432  27.997  1.00  0.00     0.124 S 
ATOM     86  O   UNL A   1      45.602  24.347  27.184  1.00  0.00    -0.237 OA
ATOM     87  O   UNL A   1      47.532  25.792  27.739  1.00  0.00    -0.237 OA
ATOM     88  O   UNL A   1      45.779  25.397  29.412  1.00  0.00    -0.744 OA
ENDBRANCH  81  85
ENDBRANCH  54  78
BRANCH  66  89
ATOM     89  C   UNL A   1      42.570  36.164  28.843  1.00  0.00     0.023 A 
ATOM     90  C   UNL A   1      43.221  37.203  29.523  1.00  0.00     0.031 A 
ATOM     91  C   UNL A   1      41.907  36.566  27.652  1.00  0.00     0.131 A 
ATOM     92  C   UNL A   1      43.187  38.535  29.061  1.00  0.00     0.055 A 
ATOM     93  C   UNL A   1      41.901  37.883  27.174  1.00  0.00     0.041 A 
ATOM     94  F   UNL A   1      41.241  35.700  26.876  1.00  0.00    -0.206 F 
ATOM     95  C   UNL A   1      42.540  38.883  27.882  1.00  0.00     0.022 A 
BRANCH  92  96
ATOM     96  S   UNL A   1      43.994  39.809  30.069  1.00  0.00     0.124 S 
ATOM     97  O   UNL A   1      45.401  39.437  29.960  1.00  0.00    -0.237 OA
ATOM     98  O   UNL A   1      43.609  41.038  29.380  1.00  0.00    -0.237 OA
ATOM     99  O   UNL A   1      43.403  39.628  31.394  1.00  0.00    -0.744 OA
ENDBRANCH  92  96
ENDBRANCH  66  89
ENDBRANCH  40  41
ENDBRANCH  32  35
ENDBRANCH  30  31
ENDBRANCH  29  30
ENDBRANCH  28  29
ENDBRANCH   1  28
TORSDOF 20
ENDMDL
MODEL 2
REMARK VINA RESULT:     -11.8      2.210      2.780
REMARK SMILES Cc1ccccc1NC(=O)C[NH+]1CCC(CC(=O)NCCCCCCNC(=O)c2ccc(-c3c4nc(c(-c5cc(S(=O)(=O)[O-])ccc5F)c5ccc([nH]5)c(-c5cc(S(=O)(=O)[O-])ccc5F)c5nc(c(-c6cc(S(=O)(=O)[O-])ccc6F)c6ccc3[nH]6)C=C5)C=C4)cc2)CC1
REMARK SMILES IDX 22 1 21 2 20 3 19 4 17 5 18 6 16 8 15 9 12 10 13 11 93 12
REMARK SMILES IDX 14 14 92 15 11 16 9 17 8 18 10 20 7 21 1 22 2 23 3 24 4 25
REMARK SMILES IDX 6 26 5 27 23 28 24 29 25 30 26 31 27 32 28 34 29 35 30 36
REMARK SMILES IDX 91 37 31 38 90 39 32 40 33 41 34 42 84 43 35 44 89 45 83 46
REMARK SMILES IDX 85 47 36 48 88 49 82 50 81 51 37 53 69 54 49 55 68 56 50 57
REMARK SMILES IDX 53 58 67 59 86 60 51 61 52 62 66 64 87 65 54 66 38 67 39 68
REMARK SMILES IDX 47 69 40 70 46 71 48 72 45 73 41 74 42 75 43 76 44 77 70 78
REMARK SMILES IDX 71 79 79 80 72 81 78 82 80 83 77 84 73 85 74 86 75 87 76 88
REMARK SMILES IDX 55 89 56 90 64 91 57 92 63 93 65 94 62 95 58 96 59 97 60 98
REMARK SMILES IDX 61 99
REMARK H PARENT 19 7 12 13 8 19 26 33 85 52 53 63
REMARK Flexibility Score: inf
ROOT
ATOM      1  C   UNL A   1      36.051  20.381  25.026  1.00  0.00     0.002 C 
ENDROOT
BRANCH   1   2
ATOM      2  C   UNL A   1      34.728  21.041  25.424  1.00  0.00     0.021 C 
BRANCH   2   3
ATOM      3  C   UNL A   1      33.495  20.540  24.666  1.00  0.00     0.116 C 
BRANCH   3   4
ATOM      4  N   UNL A   1      32.268  20.780  25.410  1.00  0.00    -0.356 N 
ATOM      5  C   UNL A   1      31.506  21.909  25.503  1.00  0.00     0.220 C 
ATOM      6  O   UNL A   1      30.506  21.901  26.223  1.00  0.00    -0.275 OA
ATOM      7  H   UNL A   1      31.935  20.010  25.925  1.00  0.00     0.163 HD
BRANCH   5   8
ATOM      8  C   UNL A   1      31.884  23.149  24.717  1.00  0.00     0.104 C 
BRANCH   8   9
ATOM      9  C   UNL A   1      32.088  24.404  25.580  1.00  0.00     0.009 C 
ATOM     10  N   UNL A   1      32.249  27.334  25.782  1.00  0.00    -0.327 N 
ATOM     11  C   UNL A   1      33.461  26.532  25.960  1.00  0.00     0.262 C 
ATOM     12  C   UNL A   1      31.062  26.613  26.229  1.00  0.00     0.262 C 
ATOM     13  H   UNL A   1      32.125  27.485  24.781  1.00  0.00     0.348 HD
ATOM     14  C   UNL A   1      33.340  25.205  25.214  1.00  0.00     0.066 C 
ATOM     15  C   UNL A   1      30.859  25.314  25.455  1.00  0.00     0.066 C 
BRANCH  10  16
ATOM     16  C   UNL A   1      32.378  28.698  26.353  1.00  0.00     0.363 C 
BRANCH  16  17
ATOM     17  C   UNL A   1      31.871  29.854  25.477  1.00  0.00     0.279 C 
ATOM     18  N   UNL A   1      31.750  29.779  24.117  1.00  0.00    -0.321 N 
ATOM     19  H   UNL A   1      31.396  30.593  23.691  1.00  0.00     0.170 HD
ATOM     20  O   UNL A   1      31.465  30.892  26.016  1.00  0.00    -0.268 OA
BRANCH  18  21
ATOM     21  C   UNL A   1      32.046  28.736  23.231  1.00  0.00     0.044 A 
ATOM     22  C   UNL A   1      29.550  28.125  23.086  1.00  0.00     0.046 C 
ATOM     23  C   UNL A   1      31.008  27.895  22.784  1.00  0.00    -0.027 A 
ATOM     24  C   UNL A   1      31.341  26.743  22.047  1.00  0.00     0.005 A 
ATOM     25  C   UNL A   1      32.668  26.448  21.737  1.00  0.00     0.000 A 
ATOM     26  C   UNL A   1      33.361  28.481  22.829  1.00  0.00     0.026 A 
ATOM     27  C   UNL A   1      33.675  27.332  22.103  1.00  0.00     0.002 A 
ENDBRANCH  18  21
ENDBRANCH  16  17
ENDBRANCH  10  16
ENDBRANCH   8   9
ENDBRANCH   5   8
ENDBRANCH   3   4
ENDBRANCH   2   3
ENDBRANCH   1   2
BRANCH   1  28
ATOM     28  C   UNL A   1      37.241  21.326  24.810  1.00  0.00     0.002 C 
BRANCH  28  29
ATOM     29  C   UNL A   1      36.902  22.813  24.714  1.00  0.00     0.021 C 
BRANCH  29  30
ATOM     30  C   UNL A   1      37.403  23.641  25.891  1.00  0.00     0.116 C 
BRANCH  30  31
ATOM     31  N   UNL A   1      38.601  23.092  26.520  1.00  0.00    -0.352 N 
ATOM     32  C   UNL A   1      39.617  23.724  27.209  1.00  0.00     0.251 C 
ATOM     33  H   UNL A   1      38.700  22.116  26.438  1.00  0.00     0.163 HD
ATOM     34  O   UNL A   1      40.617  23.130  27.529  1.00  0.00    -0.269 OA
BRANCH  32  35
ATOM     35  C   UNL A   1      39.406  25.124  27.675  1.00  0.00     0.039 A 
ATOM     36  C   UNL A   1      39.826  26.148  26.815  1.00  0.00     0.014 A 
ATOM     37  C   UNL A   1      39.013  25.414  28.977  1.00  0.00     0.014 A 
ATOM     38  C   UNL A   1      40.069  27.418  27.329  1.00  0.00     0.010 A 
ATOM     39  C   UNL A   1      39.340  26.644  29.509  1.00  0.00     0.010 A 
ATOM     40  C   UNL A   1      39.927  27.621  28.699  1.00  0.00    -0.014 A 
BRANCH  40  41
ATOM     41  C   UNL A   1      40.470  28.774  29.403  1.00  0.00     0.031 A 
ATOM     42  C   UNL A   1      39.578  29.821  29.927  1.00  0.00     0.074 A 
ATOM     43  C   UNL A   1      41.791  28.807  29.679  1.00  0.00     0.049 A 
ATOM     44  N   UNL A   1      39.959  31.007  30.260  1.00  0.00    -0.248 NA
ATOM     45  C   UNL A   1      38.143  29.621  30.063  1.00  0.00     0.031 C 
ATOM     46  C   UNL A   1      42.481  29.674  30.630  1.00  0.00     0.029 A 
ATOM     47  N   UNL A   1      42.812  28.214  28.940  1.00  0.00    -0.354 N 
ATOM     48  C   UNL A   1      38.922  31.601  30.943  1.00  0.00     0.074 A 
ATOM     49  C   UNL A   1      37.790  30.739  30.703  1.00  0.00     0.031 C 
ATOM     50  C   UNL A   1      43.768  29.772  30.266  1.00  0.00     0.029 A 
ATOM     51  C   UNL A   1      43.904  29.099  28.988  1.00  0.00     0.049 A 
ATOM     52  H   UNL A   1      42.776  27.346  28.475  1.00  0.00     0.167 HD
ATOM     53  C   UNL A   1      39.191  32.668  31.750  1.00  0.00     0.034 A 
ATOM     54  C   UNL A   1      44.376  29.681  27.848  1.00  0.00     0.034 A 
ATOM     55  C   UNL A   1      40.582  33.118  31.595  1.00  0.00     0.049 A 
ATOM     56  C   UNL A   1      44.305  31.191  27.857  1.00  0.00     0.074 A 
ATOM     57  C   UNL A   1      41.721  32.989  32.374  1.00  0.00     0.029 A 
ATOM     58  N   UNL A   1      41.016  33.574  30.352  1.00  0.00    -0.354 N 
ATOM     59  N   UNL A   1      43.587  31.901  28.684  1.00  0.00    -0.248 NA
ATOM     60  C   UNL A   1      45.044  32.017  26.914  1.00  0.00     0.031 C 
ATOM     61  C   UNL A   1      42.846  33.344  31.575  1.00  0.00     0.029 A 
ATOM     62  C   UNL A   1      42.391  33.712  30.320  1.00  0.00     0.049 A 
ATOM     63  H   UNL A   1      40.420  33.772  29.594  1.00  0.00     0.167 HD
ATOM     64  C   UNL A   1      43.736  33.241  28.406  1.00  0.00     0.074 A 
ATOM     65  C   UNL A   1      44.673  33.252  27.293  1.00  0.00     0.031 C 
ATOM     66  C   UNL A   1      43.061  34.204  29.116  1.00  0.00     0.034 A 
BRANCH  53  67
ATOM     67  C   UNL A   1      38.295  33.113  32.898  1.00  0.00     0.023 A 
ATOM     68  C   UNL A   1      38.547  32.628  34.201  1.00  0.00     0.031 A 
ATOM     69  C   UNL A   1      37.157  33.937  32.786  1.00  0.00     0.131 A 
ATOM     70  C   UNL A   1      37.654  32.864  35.266  1.00  0.00     0.055 A 
ATOM     71  C   UNL A   1      36.237  34.124  33.826  1.00  0.00     0.041 A 
ATOM     72  F   UNL A   1      36.911  34.662  31.690  1.00  0.00    -0.206 F 
ATOM     73  C   UNL A   1      36.474  33.575  35.074  1.00  0.00     0.022 A 
BRANCH  70  74
ATOM     74  S   UNL A   1      38.056  32.242  36.923  1.00  0.00     0.124 S 
ATOM     75  O   UNL A   1      39.261  32.993  37.257  1.00  0.00    -0.237 OA
ATOM     76  O   UNL A   1      36.855  32.576  37.679  1.00  0.00    -0.237 OA
ATOM     77  O   UNL A   1      38.265  30.810  36.707  1.00  0.00    -0.744 OA
ENDBRANCH  70  74
ENDBRANCH  53  67
BRANCH  54  78
ATOM     78  C   UNL A   1      44.247  28.802  26.649  1.00  0.00     0.023 A 
ATOM     79  C   UNL A   1      45.199  27.768  26.504  1.00  0.00     0.031 A 
ATOM     80  C   UNL A   1      43.047  28.691  25.934  1.00  0.00     0.131 A 
ATOM     81  C   UNL A   1      44.874  26.598  25.804  1.00  0.00     0.055 A 
ATOM     82  C   UNL A   1      42.751  27.546  25.182  1.00  0.00     0.041 A 
ATOM     83  F   UNL A   1      42.089  29.623  26.057  1.00  0.00    -0.206 F 
ATOM     84  C   UNL A   1      43.646  26.474  25.152  1.00  0.00     0.022 A 
BRANCH  81  85
ATOM     85  S   UNL A   1      45.956  25.147  25.986  1.00  0.00     0.124 S 
ATOM     86  O   UNL A   1      46.883  25.588  27.023  1.00  0.00    -0.237 OA
ATOM     87  O   UNL A   1      45.022  24.091  26.374  1.00  0.00    -0.237 OA
ATOM     88  O   UNL A   1      46.533  24.979  24.654  1.00  0.00    -0.744 OA
ENDBRANCH  81  85
ENDBRANCH  54  78
BRANCH  66  89
ATOM     89  C   UNL A   1      42.997  35.703  28.815  1.00  0.00     0.023 A 
ATOM     90  C   UNL A   1      43.673  36.690  29.544  1.00  0.00     0.031 A 
ATOM     91  C   UNL A   1      42.235  36.199  27.721  1.00  0.00     0.131 A 
ATOM     92  C   UNL A   1      43.574  38.059  29.220  1.00  0.00     0.055 A 
ATOM     93  C   UNL A   1      42.162  37.555  27.378  1.00  0.00     0.041 A 
ATOM     94  F   UNL A   1      41.531  35.392  26.915  1.00  0.00    -0.206 F 
ATOM     95  C   UNL A   1      42.831  38.500  28.133  1.00  0.00     0.022 A 
BRANCH  92  96
ATOM     96  S   UNL A   1      44.426  39.253  30.287  1.00  0.00     0.124 S 
ATOM     97  O   UNL A   1      45.698  38.583  30.539  1.00  0.00    -0.237 OA
ATOM     98  O   UNL A   1      44.493  40.437  29.434  1.00  0.00    -0.237 OA
ATOM     99  O   UNL A   1      43.545  39.372  31.447  1.00  0.00    -0.744 OA
ENDBRANCH  92  96
ENDBRANCH  66  89
ENDBRANCH  40  41
ENDBRANCH  32  35
ENDBRANCH  30  31
ENDBRANCH  29  30
ENDBRANCH  28  29
ENDBRANCH   1  28
TORSDOF 20
ENDMDL
MODEL 3
REMARK VINA RESULT:     -11.3      1.385      2.239
REMARK SMILES Cc1ccccc1NC(=O)C[NH+]1CCC(CC(=O)NCCCCCCNC(=O)c2ccc(-c3c4nc(c(-c5cc(S(=O)(=O)[O-])ccc5F)c5ccc([nH]5)c(-c5cc(S(=O)(=O)[O-])ccc5F)c5nc(c(-c6cc(S(=O)(=O)[O-])ccc6F)c6ccc3[nH]6)C=C5)C=C4)cc2)CC1
REMARK SMILES IDX 22 1 21 2 20 3 19 4 17 5 18 6 16 8 15 9 12 10 13 11 93 12
REMARK SMILES IDX 14 14 92 15 11 16 9 17 8 18 10 20 7 21 1 22 2 23 3 24 4 25
REMARK SMILES IDX 6 26 5 27 23 28 24 29 25 30 26 31 27 32 28 34 29 35 30 36
REMARK SMILES IDX 91 37 31 38 90 39 32 40 33 41 34 42 84 43 35 44 89 45 83 46
REMARK SMILES IDX 85 47 36 48 88 49 82 50 81 51 37 53 69 54 49 55 68 56 50 57
REMARK SMILES IDX 53 58 67 59 86 60 51 61 52 62 66 64 87 65 54 66 38 67 39 68
REMARK SMILES IDX 47 69 40 70 46 71 48 72 45 73 41 74 42 75 43 76 44 77 70 78
REMARK SMILES IDX 71 79 79 80 72 81 78 82 80 83 77 84 73 85 74 86 75 87 76 88
REMARK SMILES IDX 55 89 56 90 64 91 57 92 63 93 65 94 62 95 58 96 59 97 60 98
REMARK SMILES IDX 61 99
REMARK H PARENT 19 7 12 13 8 19 26 33 85 52 53 63
REMARK Flexibility Score: inf
ROOT
ATOM      1  C   UNL A   1      36.020  20.439  25.113  1.00  0.00     0.002 C 
ENDROOT
BRANCH   1   2
ATOM      2  C   UNL A   1      34.740  21.259  25.296  1.00  0.00     0.021 C 
BRANCH   2   3
ATOM      3  C   UNL A   1      33.509  20.720  24.561  1.00  0.00     0.116 C 
BRANCH   3   4
ATOM      4  N   UNL A   1      32.396  21.656  24.611  1.00  0.00    -0.356 N 
ATOM      5  C   UNL A   1      32.114  22.725  23.810  1.00  0.00     0.220 C 
ATOM      6  O   UNL A   1      31.119  23.409  24.051  1.00  0.00    -0.275 OA
ATOM      7  H   UNL A   1      31.746  21.493  25.331  1.00  0.00     0.163 HD
BRANCH   5   8
ATOM      8  C   UNL A   1      33.011  23.052  22.632  1.00  0.00     0.104 C 
BRANCH   8   9
ATOM      9  C   UNL A   1      33.438  24.526  22.557  1.00  0.00     0.009 C 
ATOM     10  N   UNL A   1      32.878  27.353  23.146  1.00  0.00    -0.327 N 
ATOM     11  C   UNL A   1      32.834  26.884  21.759  1.00  0.00     0.262 C 
ATOM     12  C   UNL A   1      33.844  26.597  23.935  1.00  0.00     0.262 C 
ATOM     13  H   UNL A   1      31.966  27.163  23.562  1.00  0.00     0.348 HD
ATOM     14  C   UNL A   1      32.505  25.394  21.707  1.00  0.00     0.066 C 
ATOM     15  C   UNL A   1      33.509  25.109  23.974  1.00  0.00     0.066 C 
BRANCH  10  16
ATOM     16  C   UNL A   1      33.036  28.826  23.245  1.00  0.00     0.363 C 
BRANCH  16  17
ATOM     17  C   UNL A   1      32.532  29.478  24.542  1.00  0.00     0.279 C 
ATOM     18  N   UNL A   1      31.218  29.770  24.785  1.00  0.00    -0.321 N 
ATOM     19  H   UNL A   1      31.043  30.171  25.667  1.00  0.00     0.170 HD
ATOM     20  O   UNL A   1      33.328  29.685  25.467  1.00  0.00    -0.268 OA
BRANCH  18  21
ATOM     21  C   UNL A   1      30.081  29.590  23.988  1.00  0.00     0.044 A 
ATOM     22  C   UNL A   1      29.600  32.117  24.069  1.00  0.00     0.046 C 
ATOM     23  C   UNL A   1      29.260  30.697  23.696  1.00  0.00    -0.027 A 
ATOM     24  C   UNL A   1      28.027  30.474  23.056  1.00  0.00     0.005 A 
ATOM     25  C   UNL A   1      27.630  29.189  22.689  1.00  0.00     0.000 A 
ATOM     26  C   UNL A   1      29.716  28.321  23.527  1.00  0.00     0.026 A 
ATOM     27  C   UNL A   1      28.488  28.116  22.898  1.00  0.00     0.002 A 
ENDBRANCH  18  21
ENDBRANCH  16  17
ENDBRANCH  10  16
ENDBRANCH   8   9
ENDBRANCH   5   8
ENDBRANCH   3   4
ENDBRANCH   2   3
ENDBRANCH   1   2
BRANCH   1  28
ATOM     28  C   UNL A   1      37.301  21.236  24.835  1.00  0.00     0.002 C 
BRANCH  28  29
ATOM     29  C   UNL A   1      37.103  22.696  24.428  1.00  0.00     0.021 C 
BRANCH  29  30
ATOM     30  C   UNL A   1      37.723  23.700  25.392  1.00  0.00     0.116 C 
BRANCH  30  31
ATOM     31  N   UNL A   1      38.880  23.176  26.111  1.00  0.00    -0.352 N 
ATOM     32  C   UNL A   1      39.789  23.818  26.928  1.00  0.00     0.251 C 
ATOM     33  H   UNL A   1      39.037  22.211  25.994  1.00  0.00     0.163 HD
ATOM     34  O   UNL A   1      40.783  23.256  27.319  1.00  0.00    -0.269 OA
BRANCH  32  35
ATOM     35  C   UNL A   1      39.460  25.180  27.436  1.00  0.00     0.039 A 
ATOM     36  C   UNL A   1      39.817  26.264  26.621  1.00  0.00     0.014 A 
ATOM     37  C   UNL A   1      39.019  25.394  28.738  1.00  0.00     0.014 A 
ATOM     38  C   UNL A   1      39.951  27.529  27.183  1.00  0.00     0.010 A 
ATOM     39  C   UNL A   1      39.239  26.625  29.318  1.00  0.00     0.010 A 
ATOM     40  C   UNL A   1      39.765  27.673  28.556  1.00  0.00    -0.014 A 
BRANCH  40  41
ATOM     41  C   UNL A   1      40.203  28.838  29.310  1.00  0.00     0.031 A 
ATOM     42  C   UNL A   1      39.248  29.897  29.675  1.00  0.00     0.074 A 
ATOM     43  C   UNL A   1      41.468  28.875  29.780  1.00  0.00     0.049 A 
ATOM     44  N   UNL A   1      39.579  31.088  30.039  1.00  0.00    -0.248 NA
ATOM     45  C   UNL A   1      37.807  29.702  29.599  1.00  0.00     0.031 C 
ATOM     46  C   UNL A   1      42.012  29.758  30.806  1.00  0.00     0.029 A 
ATOM     47  N   UNL A   1      42.584  28.265  29.213  1.00  0.00    -0.354 N 
ATOM     48  C   UNL A   1      38.455  31.698  30.548  1.00  0.00     0.074 A 
ATOM     49  C   UNL A   1      37.367  30.833  30.157  1.00  0.00     0.031 C 
ATOM     50  C   UNL A   1      43.340  29.847  30.637  1.00  0.00     0.029 A 
ATOM     51  C   UNL A   1      43.662  29.149  29.407  1.00  0.00     0.049 A 
ATOM     52  H   UNL A   1      42.615  27.389  28.764  1.00  0.00     0.167 HD
ATOM     53  C   UNL A   1      38.606  32.780  31.365  1.00  0.00     0.034 A 
ATOM     54  C   UNL A   1      44.301  29.707  28.339  1.00  0.00     0.034 A 
ATOM     55  C   UNL A   1      40.006  33.224  31.411  1.00  0.00     0.049 A 
ATOM     56  C   UNL A   1      44.237  31.217  28.309  1.00  0.00     0.074 A 
ATOM     57  C   UNL A   1      41.016  33.109  32.353  1.00  0.00     0.029 A 
ATOM     58  N   UNL A   1      40.623  33.655  30.238  1.00  0.00    -0.354 N 
ATOM     59  N   UNL A   1      43.406  31.945  29.005  1.00  0.00    -0.248 NA
ATOM     60  C   UNL A   1      45.111  32.024  27.471  1.00  0.00     0.031 C 
ATOM     61  C   UNL A   1      42.249  33.446  31.725  1.00  0.00     0.029 A 
ATOM     62  C   UNL A   1      41.988  33.789  30.410  1.00  0.00     0.049 A 
ATOM     63  H   UNL A   1      40.148  33.839  29.395  1.00  0.00     0.167 HD
ATOM     64  C   UNL A   1      43.601  33.279  28.727  1.00  0.00     0.074 A 
ATOM     65  C   UNL A   1      44.694  33.267  27.766  1.00  0.00     0.031 C 
ATOM     66  C   UNL A   1      42.833  34.257  29.309  1.00  0.00     0.034 A 
BRANCH  53  67
ATOM     67  C   UNL A   1      37.550  33.249  32.357  1.00  0.00     0.023 A 
ATOM     68  C   UNL A   1      36.405  33.926  31.881  1.00  0.00     0.031 A 
ATOM     69  C   UNL A   1      37.625  33.132  33.760  1.00  0.00     0.131 A 
ATOM     70  C   UNL A   1      35.483  34.533  32.759  1.00  0.00     0.055 A 
ATOM     71  C   UNL A   1      36.745  33.784  34.635  1.00  0.00     0.041 A 
ATOM     72  F   UNL A   1      38.509  32.327  34.359  1.00  0.00    -0.206 F 
ATOM     73  C   UNL A   1      35.673  34.502  34.136  1.00  0.00     0.022 A 
BRANCH  70  74
ATOM     74  S   UNL A   1      34.014  35.356  32.082  1.00  0.00     0.124 S 
ATOM     75  O   UNL A   1      32.923  34.600  32.687  1.00  0.00    -0.237 OA
ATOM     76  O   UNL A   1      34.187  36.727  32.546  1.00  0.00    -0.237 OA
ATOM     77  O   UNL A   1      34.159  35.176  30.637  1.00  0.00    -0.744 OA
ENDBRANCH  70  74
ENDBRANCH  53  67
BRANCH  54  78
ATOM     78  C   UNL A   1      44.348  28.805  27.151  1.00  0.00     0.023 A 
ATOM     79  C   UNL A   1      45.278  27.742  27.187  1.00  0.00     0.031 A 
ATOM     80  C   UNL A   1      43.283  28.712  26.246  1.00  0.00     0.131 A 
ATOM     81  C   UNL A   1      45.039  26.566  26.463  1.00  0.00     0.055 A 
ATOM     82  C   UNL A   1      43.083  27.558  25.475  1.00  0.00     0.041 A 
ATOM     83  F   UNL A   1      42.348  29.673  26.188  1.00  0.00    -0.206 F 
ATOM     84  C   UNL A   1      43.935  26.462  25.615  1.00  0.00     0.022 A 
BRANCH  81  85
ATOM     85  S   UNL A   1      46.029  25.089  26.852  1.00  0.00     0.124 S 
ATOM     86  O   UNL A   1      47.343  25.461  26.339  1.00  0.00    -0.237 OA
ATOM     87  O   UNL A   1      45.917  24.997  28.307  1.00  0.00    -0.237 OA
ATOM     88  O   UNL A   1      45.349  24.019  26.127  1.00  0.00    -0.744 OA
ENDBRANCH  81  85
ENDBRANCH  54  78
BRANCH  66  89
ATOM     89  C   UNL A   1      42.821  35.750  28.973  1.00  0.00     0.023 A 
ATOM     90  C   UNL A   1      43.456  36.741  29.734  1.00  0.00     0.031 A 
ATOM     91  C   UNL A   1      42.158  36.235  27.812  1.00  0.00     0.131 A 
ATOM     92  C   UNL A   1      43.409  38.104  29.375  1.00  0.00     0.055 A 
ATOM     93  C   UNL A   1      42.139  37.584  27.437  1.00  0.00     0.041 A 
ATOM     94  F   UNL A   1      41.506  35.423  26.969  1.00  0.00    -0.206 F 
ATOM     95  C   UNL A   1      42.763  38.534  28.223  1.00  0.00     0.022 A 
BRANCH  92  96
ATOM     96  S   UNL A   1      44.196  39.306  30.481  1.00  0.00     0.124 S 
ATOM     97  O   UNL A   1      45.613  39.099  30.197  1.00  0.00    -0.237 OA
ATOM     98  O   UNL A   1      43.635  40.571  30.014  1.00  0.00    -0.237 OA
ATOM     99  O   UNL A   1      43.761  38.889  31.813  1.00  0.00    -0.744 OA
ENDBRANCH  92  96
ENDBRANCH  66  89
ENDBRANCH  40  41
ENDBRANCH  32  35
ENDBRANCH  30  31
ENDBRANCH  29  30
ENDBRANCH  28  29
ENDBRANCH   1  28
TORSDOF 20
ENDMDL
