MODEL 1
REMARK VINA RESULT:      -7.0      0.000      0.000
REMARK SMILES CCN1C(=O)N/C(=C/c2cc(Cl)c(OCc3cccc(C(=O)NCCCCCCNC(=O)c4ccc(-c5c6nc(c(-c7cc(S(=O)(=O)[O-])ccc7F)c7ccc([nH]7)c(-c7cc(S(=O)(=O)[O-])ccc7F)c7nc(c(-c8cc(S(=O)(=O)[O-])ccc8F)c8ccc5[nH]8)C=C7)C=C6)cc4)c3)c(OC)c2)C1=O
REMARK SMILES IDX 25 1 24 2 23 3 21 4 22 5 20 7 16 8 17 9 96 10 18 11 19 12
REMARK SMILES IDX 15 13 14 14 13 15 9 16 10 17 100 18 11 19 97 20 12 21 8 22
REMARK SMILES IDX 3 23 4 24 101 25 5 26 6 27 7 28 102 29 2 31 1 32 98 33 99 34
REMARK SMILES IDX 26 35 27 36 28 37 29 38 30 39 31 40 32 42 33 43 34 44 95 45
REMARK SMILES IDX 35 46 94 47 36 48 37 49 38 50 88 51 39 52 93 53 87 54 89 55
REMARK SMILES IDX 40 56 92 57 86 58 85 59 41 61 73 62 53 63 72 64 54 65 57 66
REMARK SMILES IDX 71 67 90 68 55 69 56 70 70 72 91 73 58 74 42 75 43 76 51 77
REMARK SMILES IDX 44 78 50 79 52 80 49 81 45 82 46 83 47 84 48 85 74 86 75 87
REMARK SMILES IDX 83 88 76 89 82 90 84 91 81 92 77 93 78 94 79 95 80 96 59 97
REMARK SMILES IDX 60 98 68 99 61 100 67 101 69 102 66 103 62 104 63 105 64 106
REMARK SMILES IDX 65 107
REMARK H PARENT 23 6 6 30 30 41 89 60 57 71
REMARK Flexibility Score: inf
ROOT
ATOM      1  C   UNL A   1      38.754  33.833  30.894  1.00  0.00     0.021 C 
ENDROOT
BRANCH   1   2
ATOM      2  C   UNL A   1      38.607  32.358  30.545  1.00  0.00     0.116 C 
BRANCH   2   3
ATOM      3  N   UNL A   1      37.401  31.728  31.059  1.00  0.00    -0.352 N 
ATOM      4  C   UNL A   1      37.067  30.399  31.221  1.00  0.00     0.251 C 
ATOM      5  O   UNL A   1      35.962  30.121  31.682  1.00  0.00    -0.269 OA
ATOM      6  H   UNL A   1      36.701  32.360  31.339  1.00  0.00     0.163 HD
BRANCH   4   7
ATOM      7  C   UNL A   1      37.970  29.303  30.774  1.00  0.00     0.040 A 
ATOM      8  C   UNL A   1      40.084  28.099  30.971  1.00  0.00    -0.010 A 
ATOM      9  C   UNL A   1      39.898  27.611  29.674  1.00  0.00     0.007 A 
ATOM     10  C   UNL A   1      39.045  28.853  31.541  1.00  0.00     0.021 A 
ATOM     11  C   UNL A   1      38.720  27.883  28.970  1.00  0.00     0.001 A 
ATOM     12  C   UNL A   1      37.773  28.756  29.504  1.00  0.00     0.014 A 
BRANCH   8  13
ATOM     13  C   UNL A   1      41.362  27.987  31.792  1.00  0.00     0.265 C 
BRANCH  13  14
ATOM     14  O   UNL A   1      42.535  28.702  31.426  1.00  0.00    -0.483 OA
BRANCH  14  15
ATOM     15  C   UNL A   1      43.190  28.444  30.255  1.00  0.00     0.180 A 
ATOM     16  C   UNL A   1      44.948  27.893  28.145  1.00  0.00    -0.018 A 
ATOM     17  C   UNL A   1      43.962  28.872  28.006  1.00  0.00     0.033 A 
ATOM     18  C   UNL A   1      44.986  27.103  29.293  1.00  0.00     0.058 A 
ATOM     19  C   UNL A   1      43.075  29.144  29.048  1.00  0.00     0.087 A 
ATOM     20  C   UNL A   1      44.104  27.365  30.345  1.00  0.00     0.162 A 
ATOM     21  Cl  UNL A   1      41.875  30.340  28.706  1.00  0.00    -0.080 Cl
BRANCH  16  22
ATOM     22  C   UNL A   1      45.976  27.751  27.115  1.00  0.00     0.040 C 
ATOM     23  N   UNL A   1      45.527  24.808  25.108  1.00  0.00    -0.259 N 
ATOM     24  C   UNL A   1      46.714  25.337  24.639  1.00  0.00     0.328 C 
ATOM     25  C   UNL A   1      44.982  25.618  26.076  1.00  0.00     0.278 C 
ATOM     26  O   UNL A   1      47.448  24.871  23.783  1.00  0.00    -0.248 OA
ATOM     27  N   UNL A   1      46.962  26.512  25.326  1.00  0.00    -0.303 N 
ATOM     28  C   UNL A   1      45.979  26.737  26.242  1.00  0.00     0.109 C 
ATOM     29  O   UNL A   1      43.927  25.503  26.663  1.00  0.00    -0.267 OA
ATOM     30  H   UNL A   1      47.737  27.100  25.175  1.00  0.00     0.172 HD
BRANCH  23  31
ATOM     31  C   UNL A   1      45.015  23.538  24.623  1.00  0.00     0.127 C 
ATOM     32  C   UNL A   1      45.909  22.323  24.801  1.00  0.00     0.028 C 
ENDBRANCH  23  31
ENDBRANCH  16  22
BRANCH  20  33
ATOM     33  O   UNL A   1      44.110  26.673  31.534  1.00  0.00    -0.493 OA
ATOM     34  C   UNL A   1      44.507  25.308  31.496  1.00  0.00     0.278 C 
ENDBRANCH  20  33
ENDBRANCH  14  15
ENDBRANCH  13  14
ENDBRANCH   8  13
ENDBRANCH   4   7
ENDBRANCH   2   3
ENDBRANCH   1   2
BRANCH   1  35
ATOM     35  C   UNL A   1      38.091  34.287  32.191  1.00  0.00     0.002 C 
BRANCH  35  36
ATOM     36  C   UNL A   1      36.694  34.895  32.050  1.00  0.00     0.002 C 
BRANCH  36  37
ATOM     37  C   UNL A   1      35.835  34.910  33.317  1.00  0.00     0.021 C 
BRANCH  37  38
ATOM     38  C   UNL A   1      35.756  33.589  34.073  1.00  0.00     0.116 C 
BRANCH  38  39
ATOM     39  N   UNL A   1      35.915  33.765  35.505  1.00  0.00    -0.352 N 
ATOM     40  C   UNL A   1      36.940  33.368  36.326  1.00  0.00     0.251 C 
ATOM     41  H   UNL A   1      35.179  34.240  35.954  1.00  0.00     0.163 HD
ATOM     42  O   UNL A   1      36.792  33.426  37.543  1.00  0.00    -0.269 OA
BRANCH  40  43
ATOM     43  C   UNL A   1      38.205  32.857  35.751  1.00  0.00     0.039 A 
ATOM     44  C   UNL A   1      38.158  31.741  34.911  1.00  0.00     0.014 A 
ATOM     45  C   UNL A   1      39.435  33.447  36.058  1.00  0.00     0.014 A 
ATOM     46  C   UNL A   1      39.337  31.244  34.351  1.00  0.00     0.010 A 
ATOM     47  C   UNL A   1      40.598  33.002  35.432  1.00  0.00     0.010 A 
ATOM     48  C   UNL A   1      40.566  31.884  34.585  1.00  0.00    -0.014 A 
BRANCH  48  49
ATOM     49  C   UNL A   1      41.821  31.371  33.975  1.00  0.00     0.031 A 
ATOM     50  C   UNL A   1      42.537  30.196  34.589  1.00  0.00     0.074 A 
ATOM     51  C   UNL A   1      42.328  31.976  32.883  1.00  0.00     0.049 A 
ATOM     52  N   UNL A   1      43.648  29.615  34.215  1.00  0.00    -0.248 NA
ATOM     53  C   UNL A   1      41.939  29.617  35.802  1.00  0.00     0.031 C 
ATOM     54  C   UNL A   1      41.747  33.146  32.221  1.00  0.00     0.029 A 
ATOM     55  N   UNL A   1      43.443  31.693  32.133  1.00  0.00    -0.354 N 
ATOM     56  C   UNL A   1      43.885  28.610  35.146  1.00  0.00     0.074 A 
ATOM     57  C   UNL A   1      42.840  28.710  36.143  1.00  0.00     0.031 C 
ATOM     58  C   UNL A   1      42.486  33.455  31.143  1.00  0.00     0.029 A 
ATOM     59  C   UNL A   1      43.621  32.542  31.064  1.00  0.00     0.049 A 
ATOM     60  H   UNL A   1      44.058  30.953  32.341  1.00  0.00     0.167 HD
ATOM     61  C   UNL A   1      44.864  27.672  35.155  1.00  0.00     0.034 A 
ATOM     62  C   UNL A   1      44.592  32.584  30.130  1.00  0.00     0.034 A 
ATOM     63  C   UNL A   1      45.895  27.584  34.149  1.00  0.00     0.049 A 
ATOM     64  C   UNL A   1      45.691  31.551  30.178  1.00  0.00     0.074 A 
ATOM     65  C   UNL A   1      46.909  26.648  34.033  1.00  0.00     0.029 A 
ATOM     66  N   UNL A   1      46.053  28.469  33.089  1.00  0.00    -0.354 N 
ATOM     67  N   UNL A   1      45.869  30.573  31.037  1.00  0.00    -0.248 NA
ATOM     68  C   UNL A   1      46.709  31.619  29.124  1.00  0.00     0.031 C 
ATOM     69  C   UNL A   1      47.724  27.014  32.957  1.00  0.00     0.029 A 
ATOM     70  C   UNL A   1      47.167  28.122  32.339  1.00  0.00     0.049 A 
ATOM     71  H   UNL A   1      45.460  29.231  32.900  1.00  0.00     0.167 HD
ATOM     72  C   UNL A   1      47.001  29.888  30.602  1.00  0.00     0.074 A 
ATOM     73  C   UNL A   1      47.448  30.556  29.396  1.00  0.00     0.031 C 
ATOM     74  C   UNL A   1      47.613  28.803  31.145  1.00  0.00     0.034 A 
BRANCH  61  75
ATOM     75  C   UNL A   1      44.881  26.689  36.306  1.00  0.00     0.023 A 
ATOM     76  C   UNL A   1      45.573  26.959  37.501  1.00  0.00     0.031 A 
ATOM     77  C   UNL A   1      44.220  25.452  36.198  1.00  0.00     0.131 A 
ATOM     78  C   UNL A   1      45.655  25.980  38.502  1.00  0.00     0.055 A 
ATOM     79  C   UNL A   1      44.230  24.518  37.235  1.00  0.00     0.041 A 
ATOM     80  F   UNL A   1      43.564  25.125  35.074  1.00  0.00    -0.206 F 
ATOM     81  C   UNL A   1      44.964  24.771  38.389  1.00  0.00     0.022 A 
BRANCH  78  82
ATOM     82  S   UNL A   1      46.807  26.242  39.878  1.00  0.00     0.124 S 
ATOM     83  O   UNL A   1      45.896  26.609  40.959  1.00  0.00    -0.237 OA
ATOM     84  O   UNL A   1      47.454  24.941  40.000  1.00  0.00    -0.237 OA
ATOM     85  O   UNL A   1      47.667  27.325  39.403  1.00  0.00    -0.744 OA
ENDBRANCH  78  82
ENDBRANCH  61  75
BRANCH  62  86
ATOM     86  C   UNL A   1      44.582  33.638  29.073  1.00  0.00     0.023 A 
ATOM     87  C   UNL A   1      44.297  33.324  27.735  1.00  0.00     0.031 A 
ATOM     88  C   UNL A   1      44.905  34.973  29.380  1.00  0.00     0.131 A 
ATOM     89  C   UNL A   1      44.392  34.316  26.747  1.00  0.00     0.055 A 
ATOM     90  C   UNL A   1      44.937  35.969  28.403  1.00  0.00     0.041 A 
ATOM     91  F   UNL A   1      45.186  35.331  30.644  1.00  0.00    -0.206 F 
ATOM     92  C   UNL A   1      44.693  35.639  27.074  1.00  0.00     0.022 A 
BRANCH  89  93
ATOM     93  S   UNL A   1      44.213  33.830  25.008  1.00  0.00     0.124 S 
ATOM     94  O   UNL A   1      44.180  32.375  25.108  1.00  0.00    -0.237 OA
ATOM     95  O   UNL A   1      42.958  34.478  24.640  1.00  0.00    -0.237 OA
ATOM     96  O   UNL A   1      45.408  34.387  24.375  1.00  0.00    -0.744 OA
ENDBRANCH  89  93
ENDBRANCH  62  86
BRANCH  74  97
ATOM     97  C   UNL A   1      48.804  28.243  30.403  1.00  0.00     0.023 A 
ATOM     98  C   UNL A   1      48.659  27.324  29.349  1.00  0.00     0.031 A 
ATOM     99  C   UNL A   1      50.108  28.621  30.772  1.00  0.00     0.131 A 
ATOM    100  C   UNL A   1      49.797  26.760  28.751  1.00  0.00     0.055 A 
ATOM    101  C   UNL A   1      51.234  28.114  30.122  1.00  0.00     0.041 A 
ATOM    102  F   UNL A   1      50.310  29.491  31.774  1.00  0.00    -0.206 F 
ATOM    103  C   UNL A   1      51.082  27.165  29.117  1.00  0.00     0.022 A 
BRANCH 100 104
ATOM    104  S   UNL A   1      49.575  25.399  27.572  1.00  0.00     0.124 S 
ATOM    105  O   UNL A   1      48.216  24.958  27.871  1.00  0.00    -0.237 OA
ATOM    106  O   UNL A   1      49.761  26.065  26.287  1.00  0.00    -0.237 OA
ATOM    107  O   UNL A   1      50.628  24.454  27.938  1.00  0.00    -0.744 OA
ENDBRANCH 100 104
ENDBRANCH  74  97
ENDBRANCH  48  49
ENDBRANCH  40  43
ENDBRANCH  38  39
ENDBRANCH  37  38
ENDBRANCH  36  37
ENDBRANCH  35  36
ENDBRANCH   1  35
TORSDOF 22
ENDMDL
MODEL 2
REMARK VINA RESULT:      -6.9      5.157     10.325
REMARK SMILES CCN1C(=O)N/C(=C/c2cc(Cl)c(OCc3cccc(C(=O)NCCCCCCNC(=O)c4ccc(-c5c6nc(c(-c7cc(S(=O)(=O)[O-])ccc7F)c7ccc([nH]7)c(-c7cc(S(=O)(=O)[O-])ccc7F)c7nc(c(-c8cc(S(=O)(=O)[O-])ccc8F)c8ccc5[nH]8)C=C7)C=C6)cc4)c3)c(OC)c2)C1=O
REMARK SMILES IDX 25 1 24 2 23 3 21 4 22 5 20 7 16 8 17 9 96 10 18 11 19 12
REMARK SMILES IDX 15 13 14 14 13 15 9 16 10 17 100 18 11 19 97 20 12 21 8 22
REMARK SMILES IDX 3 23 4 24 101 25 5 26 6 27 7 28 102 29 2 31 1 32 98 33 99 34
REMARK SMILES IDX 26 35 27 36 28 37 29 38 30 39 31 40 32 42 33 43 34 44 95 45
REMARK SMILES IDX 35 46 94 47 36 48 37 49 38 50 88 51 39 52 93 53 87 54 89 55
REMARK SMILES IDX 40 56 92 57 86 58 85 59 41 61 73 62 53 63 72 64 54 65 57 66
REMARK SMILES IDX 71 67 90 68 55 69 56 70 70 72 91 73 58 74 42 75 43 76 51 77
REMARK SMILES IDX 44 78 50 79 52 80 49 81 45 82 46 83 47 84 48 85 74 86 75 87
REMARK SMILES IDX 83 88 76 89 82 90 84 91 81 92 77 93 78 94 79 95 80 96 59 97
REMARK SMILES IDX 60 98 68 99 61 100 67 101 69 102 66 103 62 104 63 105 64 106
REMARK SMILES IDX 65 107
REMARK H PARENT 23 6 6 30 30 41 89 60 57 71
REMARK Flexibility Score: inf
ROOT
ATOM      1  C   UNL A   1      46.974  38.310  30.382  1.00  0.00     0.021 C 
ENDROOT
BRANCH   1   2
ATOM      2  C   UNL A   1      47.900  37.985  29.218  1.00  0.00     0.116 C 
BRANCH   2   3
ATOM      3  N   UNL A   1      49.013  38.906  29.050  1.00  0.00    -0.352 N 
ATOM      4  C   UNL A   1      49.235  39.907  28.128  1.00  0.00     0.251 C 
ATOM      5  O   UNL A   1      50.279  40.554  28.199  1.00  0.00    -0.269 OA
ATOM      6  H   UNL A   1      49.735  38.794  29.710  1.00  0.00     0.163 HD
BRANCH   4   7
ATOM      7  C   UNL A   1      48.290  40.165  27.007  1.00  0.00     0.040 A 
ATOM      8  C   UNL A   1      46.481  41.482  26.032  1.00  0.00    -0.010 A 
ATOM      9  C   UNL A   1      46.182  40.405  25.193  1.00  0.00     0.007 A 
ATOM     10  C   UNL A   1      47.617  41.377  26.852  1.00  0.00     0.021 A 
ATOM     11  C   UNL A   1      46.985  39.259  25.188  1.00  0.00     0.001 A 
ATOM     12  C   UNL A   1      48.015  39.123  26.117  1.00  0.00     0.014 A 
BRANCH   8  13
ATOM     13  C   UNL A   1      45.624  42.725  26.229  1.00  0.00     0.265 C 
BRANCH  13  14
ATOM     14  O   UNL A   1      44.496  42.709  27.095  1.00  0.00    -0.483 OA
BRANCH  14  15
ATOM     15  C   UNL A   1      43.718  41.594  27.231  1.00  0.00     0.180 A 
ATOM     16  C   UNL A   1      42.535  39.104  27.724  1.00  0.00    -0.018 A 
ATOM     17  C   UNL A   1      42.350  39.744  26.496  1.00  0.00     0.033 A 
ATOM     18  C   UNL A   1      43.213  39.756  28.752  1.00  0.00     0.058 A 
ATOM     19  C   UNL A   1      42.926  40.990  26.247  1.00  0.00     0.087 A 
ATOM     20  C   UNL A   1      43.795  41.004  28.517  1.00  0.00     0.162 A 
ATOM     21  Cl  UNL A   1      42.561  41.681  24.706  1.00  0.00    -0.080 Cl
BRANCH  16  22
ATOM     22  C   UNL A   1      42.077  37.726  27.896  1.00  0.00     0.040 C 
ATOM     23  N   UNL A   1      44.666  35.319  27.267  1.00  0.00    -0.259 N 
ATOM     24  C   UNL A   1      43.551  34.537  27.497  1.00  0.00     0.328 C 
ATOM     25  C   UNL A   1      44.366  36.652  27.423  1.00  0.00     0.278 C 
ATOM     26  O   UNL A   1      43.473  33.320  27.442  1.00  0.00    -0.248 OA
ATOM     27  N   UNL A   1      42.492  35.375  27.794  1.00  0.00    -0.303 N 
ATOM     28  C   UNL A   1      42.891  36.676  27.736  1.00  0.00     0.109 C 
ATOM     29  O   UNL A   1      45.103  37.614  27.358  1.00  0.00    -0.267 OA
ATOM     30  H   UNL A   1      41.581  35.074  28.017  1.00  0.00     0.172 HD
BRANCH  23  31
ATOM     31  C   UNL A   1      45.937  34.737  26.872  1.00  0.00     0.127 C 
ATOM     32  C   UNL A   1      46.222  34.650  25.383  1.00  0.00     0.028 C 
ENDBRANCH  23  31
ENDBRANCH  16  22
BRANCH  20  33
ATOM     33  O   UNL A   1      44.529  41.691  29.457  1.00  0.00    -0.493 OA
ATOM     34  C   UNL A   1      43.844  42.656  30.245  1.00  0.00     0.278 C 
ENDBRANCH  20  33
ENDBRANCH  14  15
ENDBRANCH  13  14
ENDBRANCH   8  13
ENDBRANCH   4   7
ENDBRANCH   2   3
ENDBRANCH   1   2
BRANCH   1  35
ATOM     35  C   UNL A   1      47.460  37.889  31.766  1.00  0.00     0.002 C 
BRANCH  35  36
ATOM     36  C   UNL A   1      47.959  39.018  32.670  1.00  0.00     0.002 C 
BRANCH  36  37
ATOM     37  C   UNL A   1      46.890  39.970  33.213  1.00  0.00     0.021 C 
BRANCH  37  38
ATOM     38  C   UNL A   1      46.156  39.490  34.460  1.00  0.00     0.116 C 
BRANCH  38  39
ATOM     39  N   UNL A   1      44.809  40.025  34.544  1.00  0.00    -0.352 N 
ATOM     40  C   UNL A   1      43.658  39.589  33.937  1.00  0.00     0.251 C 
ATOM     41  H   UNL A   1      44.706  40.815  35.121  1.00  0.00     0.163 HD
ATOM     42  O   UNL A   1      42.657  40.300  33.967  1.00  0.00    -0.269 OA
BRANCH  40  43
ATOM     43  C   UNL A   1      43.626  38.285  33.237  1.00  0.00     0.039 A 
ATOM     44  C   UNL A   1      43.511  37.118  33.997  1.00  0.00     0.014 A 
ATOM     45  C   UNL A   1      43.738  38.203  31.846  1.00  0.00     0.014 A 
ATOM     46  C   UNL A   1      43.472  35.877  33.360  1.00  0.00     0.010 A 
ATOM     47  C   UNL A   1      43.613  36.970  31.207  1.00  0.00     0.010 A 
ATOM     48  C   UNL A   1      43.497  35.791  31.957  1.00  0.00    -0.014 A 
BRANCH  48  49
ATOM     49  C   UNL A   1      43.434  34.472  31.273  1.00  0.00     0.031 A 
ATOM     50  C   UNL A   1      42.117  33.754  31.131  1.00  0.00     0.074 A 
ATOM     51  C   UNL A   1      44.565  33.909  30.802  1.00  0.00     0.049 A 
ATOM     52  N   UNL A   1      41.860  32.594  30.583  1.00  0.00    -0.248 NA
ATOM     53  C   UNL A   1      40.937  34.418  31.706  1.00  0.00     0.031 C 
ATOM     54  C   UNL A   1      45.905  34.489  30.915  1.00  0.00     0.029 A 
ATOM     55  N   UNL A   1      44.771  32.729  30.131  1.00  0.00    -0.354 N 
ATOM     56  C   UNL A   1      40.496  32.386  30.753  1.00  0.00     0.074 A 
ATOM     57  C   UNL A   1      39.995  33.506  31.520  1.00  0.00     0.031 C 
ATOM     58  C   UNL A   1      46.786  33.684  30.300  1.00  0.00     0.029 A 
ATOM     59  C   UNL A   1      46.087  32.507  29.794  1.00  0.00     0.049 A 
ATOM     60  H   UNL A   1      44.046  32.101  29.912  1.00  0.00     0.167 HD
ATOM     61  C   UNL A   1      39.726  31.370  30.289  1.00  0.00     0.034 A 
ATOM     62  C   UNL A   1      46.666  31.471  29.156  1.00  0.00     0.034 A 
ATOM     63  C   UNL A   1      40.243  30.263  29.521  1.00  0.00     0.049 A 
ATOM     64  C   UNL A   1      45.795  30.336  28.677  1.00  0.00     0.074 A 
ATOM     65  C   UNL A   1      39.548  29.204  28.961  1.00  0.00     0.029 A 
ATOM     66  N   UNL A   1      41.583  30.063  29.211  1.00  0.00    -0.354 N 
ATOM     67  N   UNL A   1      44.496  30.181  28.800  1.00  0.00    -0.248 NA
ATOM     68  C   UNL A   1      46.466  29.244  27.962  1.00  0.00     0.031 C 
ATOM     69  C   UNL A   1      40.473  28.326  28.388  1.00  0.00     0.029 A 
ATOM     70  C   UNL A   1      41.738  28.881  28.502  1.00  0.00     0.049 A 
ATOM     71  H   UNL A   1      42.315  30.672  29.460  1.00  0.00     0.167 HD
ATOM     72  C   UNL A   1      44.193  28.991  28.144  1.00  0.00     0.074 A 
ATOM     73  C   UNL A   1      45.441  28.482  27.614  1.00  0.00     0.031 C 
ATOM     74  C   UNL A   1      42.991  28.376  27.989  1.00  0.00     0.034 A 
BRANCH  61  75
ATOM     75  C   UNL A   1      38.252  31.398  30.629  1.00  0.00     0.023 A 
ATOM     76  C   UNL A   1      37.298  31.938  29.746  1.00  0.00     0.031 A 
ATOM     77  C   UNL A   1      37.795  30.906  31.865  1.00  0.00     0.131 A 
ATOM     78  C   UNL A   1      35.957  32.044  30.141  1.00  0.00     0.055 A 
ATOM     79  C   UNL A   1      36.443  30.933  32.214  1.00  0.00     0.041 A 
ATOM     80  F   UNL A   1      38.657  30.402  32.761  1.00  0.00    -0.206 F 
ATOM     81  C   UNL A   1      35.517  31.520  31.358  1.00  0.00     0.022 A 
BRANCH  78  82
ATOM     82  S   UNL A   1      34.827  33.022  29.113  1.00  0.00     0.124 S 
ATOM     83  O   UNL A   1      34.112  31.978  28.384  1.00  0.00    -0.237 OA
ATOM     84  O   UNL A   1      34.050  33.755  30.106  1.00  0.00    -0.237 OA
ATOM     85  O   UNL A   1      35.725  33.838  28.296  1.00  0.00    -0.744 OA
ENDBRANCH  78  82
ENDBRANCH  61  75
BRANCH  62  86
ATOM     86  C   UNL A   1      48.142  31.447  28.934  1.00  0.00     0.023 A 
ATOM     87  C   UNL A   1      48.727  32.132  27.858  1.00  0.00     0.031 A 
ATOM     88  C   UNL A   1      48.986  30.695  29.771  1.00  0.00     0.131 A 
ATOM     89  C   UNL A   1      50.104  32.010  27.615  1.00  0.00     0.055 A 
ATOM     90  C   UNL A   1      50.365  30.627  29.562  1.00  0.00     0.041 A 
ATOM     91  F   UNL A   1      48.481  30.019  30.816  1.00  0.00    -0.206 F 
ATOM     92  C   UNL A   1      50.929  31.277  28.470  1.00  0.00     0.022 A 
BRANCH  89  93
ATOM     93  S   UNL A   1      50.789  32.745  26.104  1.00  0.00     0.124 S 
ATOM     94  O   UNL A   1      51.844  33.597  26.641  1.00  0.00    -0.237 OA
ATOM     95  O   UNL A   1      51.228  31.566  25.366  1.00  0.00    -0.237 OA
ATOM     96  O   UNL A   1      49.649  33.452  25.523  1.00  0.00    -0.744 OA
ENDBRANCH  89  93
ENDBRANCH  62  86
BRANCH  74  97
ATOM     97  C   UNL A   1      42.969  27.108  27.166  1.00  0.00     0.023 A 
ATOM     98  C   UNL A   1      43.330  25.863  27.708  1.00  0.00     0.031 A 
ATOM     99  C   UNL A   1      42.598  27.153  25.810  1.00  0.00     0.131 A 
ATOM    100  C   UNL A   1      43.383  24.729  26.883  1.00  0.00     0.055 A 
ATOM    101  C   UNL A   1      42.580  26.008  25.012  1.00  0.00     0.041 A 
ATOM    102  F   UNL A   1      42.247  28.315  25.235  1.00  0.00    -0.206 F 
ATOM    103  C   UNL A   1      42.991  24.791  25.544  1.00  0.00     0.022 A 
BRANCH 100 104
ATOM    104  S   UNL A   1      44.090  23.199  27.552  1.00  0.00     0.124 S 
ATOM    105  O   UNL A   1      44.150  22.348  26.368  1.00  0.00    -0.237 OA
ATOM    106  O   UNL A   1      45.375  23.651  28.076  1.00  0.00    -0.237 OA
ATOM    107  O   UNL A   1      43.119  22.786  28.564  1.00  0.00    -0.744 OA
ENDBRANCH 100 104
ENDBRANCH  74  97
ENDBRANCH  48  49
ENDBRANCH  40  43
ENDBRANCH  38  39
ENDBRANCH  37  38
ENDBRANCH  36  37
ENDBRANCH  35  36
ENDBRANCH   1  35
TORSDOF 22
ENDMDL
MODEL 3
REMARK VINA RESULT:      -6.8      7.666     14.267
REMARK SMILES CCN1C(=O)N/C(=C/c2cc(Cl)c(OCc3cccc(C(=O)NCCCCCCNC(=O)c4ccc(-c5c6nc(c(-c7cc(S(=O)(=O)[O-])ccc7F)c7ccc([nH]7)c(-c7cc(S(=O)(=O)[O-])ccc7F)c7nc(c(-c8cc(S(=O)(=O)[O-])ccc8F)c8ccc5[nH]8)C=C7)C=C6)cc4)c3)c(OC)c2)C1=O
REMARK SMILES IDX 25 1 24 2 23 3 21 4 22 5 20 7 16 8 17 9 96 10 18 11 19 12
REMARK SMILES IDX 15 13 14 14 13 15 9 16 10 17 100 18 11 19 97 20 12 21 8 22
REMARK SMILES IDX 3 23 4 24 101 25 5 26 6 27 7 28 102 29 2 31 1 32 98 33 99 34
REMARK SMILES IDX 26 35 27 36 28 37 29 38 30 39 31 40 32 42 33 43 34 44 95 45
REMARK SMILES IDX 35 46 94 47 36 48 37 49 38 50 88 51 39 52 93 53 87 54 89 55
REMARK SMILES IDX 40 56 92 57 86 58 85 59 41 61 73 62 53 63 72 64 54 65 57 66
REMARK SMILES IDX 71 67 90 68 55 69 56 70 70 72 91 73 58 74 42 75 43 76 51 77
REMARK SMILES IDX 44 78 50 79 52 80 49 81 45 82 46 83 47 84 48 85 74 86 75 87
REMARK SMILES IDX 83 88 76 89 82 90 84 91 81 92 77 93 78 94 79 95 80 96 59 97
REMARK SMILES IDX 60 98 68 99 61 100 67 101 69 102 66 103 62 104 63 105 64 106
REMARK SMILES IDX 65 107
REMARK H PARENT 23 6 6 30 30 41 89 60 57 71
REMARK Flexibility Score: inf
ROOT
ATOM      1  C   UNL A   1      47.016  38.649  29.542  1.00  0.00     0.021 C 
ENDROOT
BRANCH   1   2
ATOM      2  C   UNL A   1      47.152  40.150  29.326  1.00  0.00     0.116 C 
BRANCH   2   3
ATOM      3  N   UNL A   1      46.158  40.957  30.016  1.00  0.00    -0.352 N 
ATOM      4  C   UNL A   1      44.843  41.239  29.708  1.00  0.00     0.251 C 
ATOM      5  O   UNL A   1      44.204  41.966  30.467  1.00  0.00    -0.269 OA
ATOM      6  H   UNL A   1      46.480  41.375  30.846  1.00  0.00     0.163 HD
BRANCH   4   7
ATOM      7  C   UNL A   1      44.212  40.761  28.448  1.00  0.00     0.040 A 
ATOM      8  C   UNL A   1      43.557  41.164  26.131  1.00  0.00    -0.010 A 
ATOM      9  C   UNL A   1      42.625  40.128  26.240  1.00  0.00     0.007 A 
ATOM     10  C   UNL A   1      44.421  41.385  27.217  1.00  0.00     0.021 A 
ATOM     11  C   UNL A   1      42.552  39.352  27.403  1.00  0.00     0.001 A 
ATOM     12  C   UNL A   1      43.318  39.690  28.518  1.00  0.00     0.014 A 
BRANCH   8  13
ATOM     13  C   UNL A   1      43.654  42.161  24.983  1.00  0.00     0.265 C 
BRANCH  13  14
ATOM     14  O   UNL A   1      44.588  41.974  23.927  1.00  0.00    -0.483 OA
BRANCH  14  15
ATOM     15  C   UNL A   1      44.766  42.922  22.959  1.00  0.00     0.180 A 
ATOM     16  C   UNL A   1      45.185  45.187  21.365  1.00  0.00    -0.018 A 
ATOM     17  C   UNL A   1      44.178  44.273  21.044  1.00  0.00     0.033 A 
ATOM     18  C   UNL A   1      46.062  44.915  22.413  1.00  0.00     0.058 A 
ATOM     19  C   UNL A   1      43.971  43.137  21.826  1.00  0.00     0.087 A 
ATOM     20  C   UNL A   1      45.866  43.781  23.205  1.00  0.00     0.162 A 
ATOM     21  Cl  UNL A   1      42.729  42.071  21.272  1.00  0.00    -0.080 Cl
BRANCH  16  22
ATOM     22  C   UNL A   1      45.264  46.456  20.643  1.00  0.00     0.040 C 
ATOM     23  N   UNL A   1      47.379  46.268  17.746  1.00  0.00    -0.259 N 
ATOM     24  C   UNL A   1      47.017  47.600  17.793  1.00  0.00     0.328 C 
ATOM     25  C   UNL A   1      46.761  45.561  18.751  1.00  0.00     0.278 C 
ATOM     26  O   UNL A   1      47.384  48.495  17.049  1.00  0.00    -0.248 OA
ATOM     27  N   UNL A   1      46.158  47.776  18.863  1.00  0.00    -0.303 N 
ATOM     28  C   UNL A   1      45.978  46.596  19.519  1.00  0.00     0.109 C 
ATOM     29  O   UNL A   1      46.796  44.370  18.981  1.00  0.00    -0.267 OA
ATOM     30  H   UNL A   1      45.737  48.630  19.112  1.00  0.00     0.172 HD
BRANCH  23  31
ATOM     31  C   UNL A   1      48.324  45.768  16.763  1.00  0.00     0.127 C 
ATOM     32  C   UNL A   1      49.723  45.445  17.256  1.00  0.00     0.028 C 
ENDBRANCH  23  31
ENDBRANCH  16  22
BRANCH  20  33
ATOM     33  O   UNL A   1      46.650  43.467  24.292  1.00  0.00    -0.493 OA
ATOM     34  C   UNL A   1      47.960  44.018  24.337  1.00  0.00     0.278 C 
ENDBRANCH  20  33
ENDBRANCH  14  15
ENDBRANCH  13  14
ENDBRANCH   8  13
ENDBRANCH   4   7
ENDBRANCH   2   3
ENDBRANCH   1   2
BRANCH   1  35
ATOM     35  C   UNL A   1      46.630  37.826  28.317  1.00  0.00     0.002 C 
BRANCH  35  36
ATOM     36  C   UNL A   1      46.881  38.488  26.960  1.00  0.00     0.002 C 
BRANCH  36  37
ATOM     37  C   UNL A   1      46.538  37.649  25.726  1.00  0.00     0.021 C 
BRANCH  37  38
ATOM     38  C   UNL A   1      46.864  36.164  25.831  1.00  0.00     0.116 C 
BRANCH  38  39
ATOM     39  N   UNL A   1      45.981  35.349  25.016  1.00  0.00    -0.352 N 
ATOM     40  C   UNL A   1      44.930  34.553  25.396  1.00  0.00     0.251 C 
ATOM     41  H   UNL A   1      46.162  35.372  24.049  1.00  0.00     0.163 HD
ATOM     42  O   UNL A   1      44.437  33.779  24.579  1.00  0.00    -0.269 OA
BRANCH  40  43
ATOM     43  C   UNL A   1      44.406  34.611  26.779  1.00  0.00     0.039 A 
ATOM     44  C   UNL A   1      43.704  35.750  27.183  1.00  0.00     0.014 A 
ATOM     45  C   UNL A   1      44.627  33.570  27.686  1.00  0.00     0.014 A 
ATOM     46  C   UNL A   1      43.194  35.826  28.481  1.00  0.00     0.010 A 
ATOM     47  C   UNL A   1      44.046  33.611  28.952  1.00  0.00     0.010 A 
ATOM     48  C   UNL A   1      43.337  34.747  29.371  1.00  0.00    -0.014 A 
BRANCH  48  49
ATOM     49  C   UNL A   1      42.778  34.815  30.747  1.00  0.00     0.031 A 
ATOM     50  C   UNL A   1      41.331  34.474  30.994  1.00  0.00     0.074 A 
ATOM     51  C   UNL A   1      43.564  35.206  31.769  1.00  0.00     0.049 A 
ATOM     52  N   UNL A   1      40.656  34.488  32.115  1.00  0.00    -0.248 NA
ATOM     53  C   UNL A   1      40.531  34.095  29.820  1.00  0.00     0.031 C 
ATOM     54  C   UNL A   1      44.970  35.599  31.649  1.00  0.00     0.029 A 
ATOM     55  N   UNL A   1      43.300  35.335  33.110  1.00  0.00    -0.354 N 
ATOM     56  C   UNL A   1      39.355  34.128  31.781  1.00  0.00     0.074 A 
ATOM     57  C   UNL A   1      39.321  33.974  30.343  1.00  0.00     0.031 C 
ATOM     58  C   UNL A   1      45.454  35.885  32.868  1.00  0.00     0.029 A 
ATOM     59  C   UNL A   1      44.384  35.748  33.851  1.00  0.00     0.049 A 
ATOM     60  H   UNL A   1      42.417  35.149  33.505  1.00  0.00     0.167 HD
ATOM     61  C   UNL A   1      38.294  33.917  32.599  1.00  0.00     0.034 A 
ATOM     62  C   UNL A   1      44.501  35.995  35.171  1.00  0.00     0.034 A 
ATOM     63  C   UNL A   1      38.349  34.071  34.033  1.00  0.00     0.049 A 
ATOM     64  C   UNL A   1      43.299  35.786  36.058  1.00  0.00     0.074 A 
ATOM     65  C   UNL A   1      37.350  33.839  34.964  1.00  0.00     0.029 A 
ATOM     66  N   UNL A   1      39.459  34.505  34.748  1.00  0.00    -0.354 N 
ATOM     67  N   UNL A   1      42.089  35.392  35.732  1.00  0.00    -0.248 NA
ATOM     68  C   UNL A   1      43.483  36.040  37.492  1.00  0.00     0.031 C 
ATOM     69  C   UNL A   1      37.828  34.211  36.224  1.00  0.00     0.029 A 
ATOM     70  C   UNL A   1      39.156  34.584  36.099  1.00  0.00     0.049 A 
ATOM     71  H   UNL A   1      40.332  34.726  34.351  1.00  0.00     0.167 HD
ATOM     72  C   UNL A   1      41.380  35.316  36.928  1.00  0.00     0.074 A 
ATOM     73  C   UNL A   1      42.304  35.688  37.979  1.00  0.00     0.031 C 
ATOM     74  C   UNL A   1      40.083  34.968  37.139  1.00  0.00     0.034 A 
BRANCH  61  75
ATOM     75  C   UNL A   1      36.981  33.528  31.956  1.00  0.00     0.023 A 
ATOM     76  C   UNL A   1      35.954  34.466  31.744  1.00  0.00     0.031 A 
ATOM     77  C   UNL A   1      36.741  32.197  31.573  1.00  0.00     0.131 A 
ATOM     78  C   UNL A   1      34.712  34.046  31.244  1.00  0.00     0.055 A 
ATOM     79  C   UNL A   1      35.534  31.803  30.992  1.00  0.00     0.041 A 
ATOM     80  F   UNL A   1      37.671  31.250  31.772  1.00  0.00    -0.206 F 
ATOM     81  C   UNL A   1      34.505  32.726  30.840  1.00  0.00     0.022 A 
BRANCH  78  82
ATOM     82  S   UNL A   1      33.324  35.213  31.281  1.00  0.00     0.124 S 
ATOM     83  O   UNL A   1      32.658  34.920  30.015  1.00  0.00    -0.237 OA
ATOM     84  O   UNL A   1      32.608  34.814  32.487  1.00  0.00    -0.237 OA
ATOM     85  O   UNL A   1      33.977  36.520  31.346  1.00  0.00    -0.744 OA
ENDBRANCH  78  82
ENDBRANCH  61  75
BRANCH  62  86
ATOM     86  C   UNL A   1      45.796  36.474  35.740  1.00  0.00     0.023 A 
ATOM     87  C   UNL A   1      46.119  37.839  35.763  1.00  0.00     0.031 A 
ATOM     88  C   UNL A   1      46.751  35.563  36.227  1.00  0.00     0.131 A 
ATOM     89  C   UNL A   1      47.384  38.252  36.212  1.00  0.00     0.055 A 
ATOM     90  C   UNL A   1      47.983  35.984  36.731  1.00  0.00     0.041 A 
ATOM     91  F   UNL A   1      46.495  34.245  36.230  1.00  0.00    -0.206 F 
ATOM     92  C   UNL A   1      48.311  37.335  36.712  1.00  0.00     0.022 A 
BRANCH  89  93
ATOM     93  S   UNL A   1      47.839  39.999  36.040  1.00  0.00     0.124 S 
ATOM     94  O   UNL A   1      48.713  40.192  37.192  1.00  0.00    -0.237 OA
ATOM     95  O   UNL A   1      48.487  40.017  34.733  1.00  0.00    -0.237 OA
ATOM     96  O   UNL A   1      46.555  40.694  36.106  1.00  0.00    -0.744 OA
ENDBRANCH  89  93
ENDBRANCH  62  86
BRANCH  74  97
ATOM     97  C   UNL A   1      39.609  34.922  38.574  1.00  0.00     0.023 A 
ATOM     98  C   UNL A   1      39.495  33.713  39.282  1.00  0.00     0.031 A 
ATOM     99  C   UNL A   1      39.247  36.109  39.236  1.00  0.00     0.131 A 
ATOM    100  C   UNL A   1      38.963  33.710  40.580  1.00  0.00     0.055 A 
ATOM    101  C   UNL A   1      38.790  36.108  40.554  1.00  0.00     0.041 A 
ATOM    102  F   UNL A   1      39.330  37.294  38.610  1.00  0.00    -0.206 F 
ATOM    103  C   UNL A   1      38.629  34.902  41.228  1.00  0.00     0.022 A 
BRANCH 100 104
ATOM    104  S   UNL A   1      38.598  32.117  41.366  1.00  0.00     0.124 S 
ATOM    105  O   UNL A   1      39.935  31.603  41.646  1.00  0.00    -0.237 OA
ATOM    106  O   UNL A   1      37.811  32.514  42.529  1.00  0.00    -0.237 OA
ATOM    107  O   UNL A   1      37.857  31.389  40.337  1.00  0.00    -0.744 OA
ENDBRANCH 100 104
ENDBRANCH  74  97
ENDBRANCH  48  49
ENDBRANCH  40  43
ENDBRANCH  38  39
ENDBRANCH  37  38
ENDBRANCH  36  37
ENDBRANCH  35  36
ENDBRANCH   1  35
TORSDOF 22
ENDMDL
