MODEL 1
REMARK VINA RESULT:     -11.5      0.000      0.000
REMARK SMILES CC(=O)Oc1cc(CCC(=O)NCCCCCCNC(=O)c2ccc(-c3c4nc(c(-c5cc(S(=O)(=O)[O-])ccc5F)c5ccc([nH]5)c(-c5cc(S(=O)(=O)[O-])ccc5F)c5nc(c(-c6cc(S(=O)(=O)[O-])ccc6F)c6ccc3[nH]6)C=C5)C=C4)cc2)c(OC(C)=O)c2c1C(=O)c1ccccc1C2=O
REMARK SMILES IDX 15 1 14 2 13 3 12 4 10 5 11 6 9 8 8 9 7 10 5 11 6 12 91 13
REMARK SMILES IDX 90 14 92 15 85 16 100 17 93 18 94 19 99 20 101 21 95 22
REMARK SMILES IDX 98 23 96 24 97 25 4 26 2 27 1 28 3 29 86 30 87 31 88 32
REMARK SMILES IDX 89 33 16 34 17 35 18 36 19 37 20 38 21 40 22 41 23 42 84 43
REMARK SMILES IDX 24 44 83 45 25 46 26 47 27 48 77 49 28 50 82 51 76 52 78 53
REMARK SMILES IDX 29 54 81 55 75 56 74 57 30 59 62 60 42 61 61 62 43 63 46 64
REMARK SMILES IDX 60 65 79 66 44 67 45 68 59 70 80 71 47 72 31 73 32 74 40 75
REMARK SMILES IDX 33 76 39 77 41 78 38 79 34 80 35 81 36 82 37 83 63 84 64 85
REMARK SMILES IDX 72 86 65 87 71 88 73 89 70 90 66 91 67 92 68 93 69 94 48 95
REMARK SMILES IDX 49 96 57 97 50 98 56 99 58 100 55 101 51 102 52 103 53 104
REMARK SMILES IDX 54 105
REMARK H PARENT 12 7 19 39 78 58 46 69
REMARK Flexibility Score: inf
ROOT
ATOM      1  C   UNL A   1      33.174  29.681  27.564  1.00  0.00     0.002 C 
ENDROOT
BRANCH   1   2
ATOM      2  C   UNL A   1      31.840  29.043  27.194  1.00  0.00     0.021 C 
BRANCH   2   3
ATOM      3  C   UNL A   1      31.821  28.006  26.074  1.00  0.00     0.116 C 
BRANCH   3   4
ATOM      4  N   UNL A   1      32.739  28.389  25.008  1.00  0.00    -0.356 N 
ATOM      5  C   UNL A   1      33.614  27.641  24.283  1.00  0.00     0.220 C 
ATOM      6  O   UNL A   1      34.387  28.229  23.522  1.00  0.00    -0.275 OA
ATOM      7  H   UNL A   1      32.724  29.346  24.777  1.00  0.00     0.163 HD
BRANCH   5   8
ATOM      8  C   UNL A   1      33.614  26.124  24.353  1.00  0.00     0.105 C 
BRANCH   8   9
ATOM      9  C   UNL A   1      34.329  25.497  25.555  1.00  0.00     0.049 C 
BRANCH   9  10
ATOM     10  C   UNL A   1      34.655  24.032  25.437  1.00  0.00    -0.000 A 
ATOM     11  C   UNL A   1      36.323  22.310  25.006  1.00  0.00     0.143 A 
ATOM     12  C   UNL A   1      35.977  23.658  25.172  1.00  0.00     0.055 A 
ATOM     13  C   UNL A   1      35.364  21.286  25.093  1.00  0.00     0.080 A 
ATOM     14  C   UNL A   1      34.025  21.637  25.294  1.00  0.00     0.081 A 
ATOM     15  C   UNL A   1      35.745  19.860  24.935  1.00  0.00     0.198 C 
ATOM     16  C   UNL A   1      33.710  22.999  25.526  1.00  0.00     0.146 A 
ATOM     17  C   UNL A   1      32.977  20.608  25.064  1.00  0.00     0.198 C 
ATOM     18  O   UNL A   1      36.917  19.510  24.954  1.00  0.00    -0.288 OA
ATOM     19  C   UNL A   1      34.693  18.859  24.679  1.00  0.00     0.034 A 
ATOM     20  C   UNL A   1      33.364  19.258  24.612  1.00  0.00     0.034 A 
ATOM     21  O   UNL A   1      31.788  20.860  25.184  1.00  0.00    -0.288 OA
ATOM     22  C   UNL A   1      35.040  17.538  24.373  1.00  0.00     0.013 A 
ATOM     23  C   UNL A   1      32.399  18.380  24.099  1.00  0.00     0.013 A 
ATOM     24  C   UNL A   1      34.076  16.658  23.875  1.00  0.00     0.001 A 
ATOM     25  C   UNL A   1      32.764  17.092  23.703  1.00  0.00     0.001 A 
BRANCH  11  26
ATOM     26  O   UNL A   1      37.671  22.051  24.729  1.00  0.00    -0.426 OA
BRANCH  26  27
ATOM     27  C   UNL A   1      38.504  22.403  25.787  1.00  0.00     0.308 C 
ATOM     28  C   UNL A   1      39.583  21.369  25.935  1.00  0.00     0.139 C 
ATOM     29  O   UNL A   1      38.351  23.366  26.531  1.00  0.00    -0.252 OA
ENDBRANCH  26  27
ENDBRANCH  11  26
BRANCH  16  30
ATOM     30  O   UNL A   1      32.273  23.378  25.784  1.00  0.00    -0.426 OA
BRANCH  30  31
ATOM     31  C   UNL A   1      30.921  23.812  26.038  1.00  0.00     0.308 C 
ATOM     32  C   UNL A   1      30.397  24.659  24.923  1.00  0.00     0.139 C 
ATOM     33  O   UNL A   1      30.306  23.567  27.065  1.00  0.00    -0.252 OA
ENDBRANCH  30  31
ENDBRANCH  16  30
ENDBRANCH   9  10
ENDBRANCH   8   9
ENDBRANCH   5   8
ENDBRANCH   3   4
ENDBRANCH   2   3
ENDBRANCH   1   2
BRANCH   1  34
ATOM     34  C   UNL A   1      33.356  31.169  27.257  1.00  0.00     0.002 C 
BRANCH  34  35
ATOM     35  C   UNL A   1      34.046  32.057  28.302  1.00  0.00     0.021 C 
BRANCH  35  36
ATOM     36  C   UNL A   1      33.944  33.575  28.133  1.00  0.00     0.116 C 
BRANCH  36  37
ATOM     37  N   UNL A   1      33.316  34.250  29.258  1.00  0.00    -0.352 N 
ATOM     38  C   UNL A   1      33.685  34.401  30.575  1.00  0.00     0.251 C 
ATOM     39  H   UNL A   1      32.460  34.682  29.034  1.00  0.00     0.163 HD
ATOM     40  O   UNL A   1      32.893  34.975  31.325  1.00  0.00    -0.269 OA
BRANCH  38  41
ATOM     41  C   UNL A   1      34.970  33.899  31.136  1.00  0.00     0.039 A 
ATOM     42  C   UNL A   1      34.933  32.754  31.945  1.00  0.00     0.014 A 
ATOM     43  C   UNL A   1      36.193  34.545  30.953  1.00  0.00     0.014 A 
ATOM     44  C   UNL A   1      36.110  32.238  32.501  1.00  0.00     0.010 A 
ATOM     45  C   UNL A   1      37.378  34.021  31.487  1.00  0.00     0.010 A 
ATOM     46  C   UNL A   1      37.351  32.846  32.245  1.00  0.00    -0.014 A 
BRANCH  46  47
ATOM     47  C   UNL A   1      38.610  32.140  32.603  1.00  0.00     0.031 A 
ATOM     48  C   UNL A   1      39.373  32.428  33.864  1.00  0.00     0.074 A 
ATOM     49  C   UNL A   1      39.081  31.234  31.723  1.00  0.00     0.049 A 
ATOM     50  N   UNL A   1      40.410  31.799  34.359  1.00  0.00    -0.248 NA
ATOM     51  C   UNL A   1      38.939  33.587  34.654  1.00  0.00     0.031 C 
ATOM     52  C   UNL A   1      38.475  30.951  30.418  1.00  0.00     0.029 A 
ATOM     53  N   UNL A   1      40.148  30.378  31.784  1.00  0.00    -0.354 N 
ATOM     54  C   UNL A   1      40.750  32.474  35.528  1.00  0.00     0.074 A 
ATOM     55  C   UNL A   1      39.841  33.599  35.629  1.00  0.00     0.031 C 
ATOM     56  C   UNL A   1      39.140  29.947  29.833  1.00  0.00     0.029 A 
ATOM     57  C   UNL A   1      40.237  29.534  30.701  1.00  0.00     0.049 A 
ATOM     58  H   UNL A   1      40.790  30.366  32.531  1.00  0.00     0.167 HD
ATOM     59  C   UNL A   1      41.717  32.168  36.433  1.00  0.00     0.034 A 
ATOM     60  C   UNL A   1      41.090  28.525  30.440  1.00  0.00     0.034 A 
ATOM     61  C   UNL A   1      42.626  31.050  36.286  1.00  0.00     0.049 A 
ATOM     62  C   UNL A   1      42.129  28.182  31.473  1.00  0.00     0.074 A 
ATOM     63  C   UNL A   1      43.597  30.601  37.166  1.00  0.00     0.029 A 
ATOM     64  N   UNL A   1      42.692  30.212  35.176  1.00  0.00    -0.354 N 
ATOM     65  N   UNL A   1      42.367  28.759  32.629  1.00  0.00    -0.248 NA
ATOM     66  C   UNL A   1      42.996  27.037  31.176  1.00  0.00     0.031 C 
ATOM     67  C   UNL A   1      44.298  29.552  36.558  1.00  0.00     0.029 A 
ATOM     68  C   UNL A   1      43.709  29.280  35.334  1.00  0.00     0.049 A 
ATOM     69  H   UNL A   1      42.101  30.273  34.391  1.00  0.00     0.167 HD
ATOM     70  C   UNL A   1      43.401  28.031  33.208  1.00  0.00     0.074 A 
ATOM     71  C   UNL A   1      43.713  26.955  32.287  1.00  0.00     0.031 C 
ATOM     72  C   UNL A   1      44.037  28.233  34.392  1.00  0.00     0.034 A 
BRANCH  59  73
ATOM     73  C   UNL A   1      41.856  33.062  37.649  1.00  0.00     0.023 A 
ATOM     74  C   UNL A   1      41.257  32.737  38.879  1.00  0.00     0.031 A 
ATOM     75  C   UNL A   1      42.598  34.257  37.584  1.00  0.00     0.131 A 
ATOM     76  C   UNL A   1      41.345  33.624  39.965  1.00  0.00     0.055 A 
ATOM     77  C   UNL A   1      42.754  35.094  38.693  1.00  0.00     0.041 A 
ATOM     78  F   UNL A   1      43.184  34.638  36.438  1.00  0.00    -0.206 F 
ATOM     79  C   UNL A   1      42.112  34.787  39.889  1.00  0.00     0.022 A 
BRANCH  76  80
ATOM     80  S   UNL A   1      40.324  33.305  41.430  1.00  0.00     0.124 S 
ATOM     81  O   UNL A   1      39.701  32.029  41.085  1.00  0.00    -0.237 OA
ATOM     82  O   UNL A   1      41.313  33.264  42.501  1.00  0.00    -0.237 OA
ATOM     83  O   UNL A   1      39.410  34.445  41.467  1.00  0.00    -0.744 OA
ENDBRANCH  76  80
ENDBRANCH  59  73
BRANCH  60  84
ATOM     84  C   UNL A   1      40.966  27.751  29.172  1.00  0.00     0.023 A 
ATOM     85  C   UNL A   1      41.843  27.971  28.099  1.00  0.00     0.031 A 
ATOM     86  C   UNL A   1      39.966  26.775  29.017  1.00  0.00     0.131 A 
ATOM     87  C   UNL A   1      41.681  27.252  26.904  1.00  0.00     0.055 A 
ATOM     88  C   UNL A   1      39.844  26.022  27.847  1.00  0.00     0.041 A 
ATOM     89  F   UNL A   1      39.106  26.517  30.016  1.00  0.00    -0.206 F 
ATOM     90  C   UNL A   1      40.698  26.268  26.778  1.00  0.00     0.022 A 
BRANCH  87  91
ATOM     91  S   UNL A   1      42.727  27.677  25.485  1.00  0.00     0.124 S 
ATOM     92  O   UNL A   1      42.083  28.889  24.992  1.00  0.00    -0.237 OA
ATOM     93  O   UNL A   1      44.032  27.854  26.113  1.00  0.00    -0.237 OA
ATOM     94  O   UNL A   1      42.609  26.510  24.615  1.00  0.00    -0.744 OA
ENDBRANCH  87  91
ENDBRANCH  60  84
BRANCH  72  95
ATOM     95  C   UNL A   1      45.126  27.246  34.748  1.00  0.00     0.023 A 
ATOM     96  C   UNL A   1      44.855  26.089  35.500  1.00  0.00     0.031 A 
ATOM     97  C   UNL A   1      46.461  27.497  34.385  1.00  0.00     0.131 A 
ATOM     98  C   UNL A   1      45.909  25.275  35.940  1.00  0.00     0.055 A 
ATOM     99  C   UNL A   1      47.499  26.640  34.758  1.00  0.00     0.041 A 
ATOM    100  F   UNL A   1      46.783  28.587  33.672  1.00  0.00    -0.206 F 
ATOM    101  C   UNL A   1      47.229  25.533  35.558  1.00  0.00     0.022 A 
BRANCH  98 102
ATOM    102  S   UNL A   1      45.550  23.960  37.136  1.00  0.00     0.124 S 
ATOM    103  O   UNL A   1      45.050  22.895  36.273  1.00  0.00    -0.237 OA
ATOM    104  O   UNL A   1      46.855  23.726  37.745  1.00  0.00    -0.237 OA
ATOM    105  O   UNL A   1      44.552  24.562  38.019  1.00  0.00    -0.744 OA
ENDBRANCH  98 102
ENDBRANCH  72  95
ENDBRANCH  46  47
ENDBRANCH  38  41
ENDBRANCH  36  37
ENDBRANCH  35  36
ENDBRANCH  34  35
ENDBRANCH   1  34
TORSDOF 22
ENDMDL
MODEL 2
REMARK VINA RESULT:     -11.3      2.154      4.008
REMARK SMILES CC(=O)Oc1cc(CCC(=O)NCCCCCCNC(=O)c2ccc(-c3c4nc(c(-c5cc(S(=O)(=O)[O-])ccc5F)c5ccc([nH]5)c(-c5cc(S(=O)(=O)[O-])ccc5F)c5nc(c(-c6cc(S(=O)(=O)[O-])ccc6F)c6ccc3[nH]6)C=C5)C=C4)cc2)c(OC(C)=O)c2c1C(=O)c1ccccc1C2=O
REMARK SMILES IDX 15 1 14 2 13 3 12 4 10 5 11 6 9 8 8 9 7 10 5 11 6 12 91 13
REMARK SMILES IDX 90 14 92 15 85 16 100 17 93 18 94 19 99 20 101 21 95 22
REMARK SMILES IDX 98 23 96 24 97 25 4 26 2 27 1 28 3 29 86 30 87 31 88 32
REMARK SMILES IDX 89 33 16 34 17 35 18 36 19 37 20 38 21 40 22 41 23 42 84 43
REMARK SMILES IDX 24 44 83 45 25 46 26 47 27 48 77 49 28 50 82 51 76 52 78 53
REMARK SMILES IDX 29 54 81 55 75 56 74 57 30 59 62 60 42 61 61 62 43 63 46 64
REMARK SMILES IDX 60 65 79 66 44 67 45 68 59 70 80 71 47 72 31 73 32 74 40 75
REMARK SMILES IDX 33 76 39 77 41 78 38 79 34 80 35 81 36 82 37 83 63 84 64 85
REMARK SMILES IDX 72 86 65 87 71 88 73 89 70 90 66 91 67 92 68 93 69 94 48 95
REMARK SMILES IDX 49 96 57 97 50 98 56 99 58 100 55 101 51 102 52 103 53 104
REMARK SMILES IDX 54 105
REMARK H PARENT 12 7 19 39 78 58 46 69
REMARK Flexibility Score: inf
ROOT
ATOM      1  C   UNL A   1      30.998  26.873  26.351  1.00  0.00     0.002 C 
ENDROOT
BRANCH   1   2
ATOM      2  C   UNL A   1      30.421  26.798  24.942  1.00  0.00     0.021 C 
BRANCH   2   3
ATOM      3  C   UNL A   1      30.579  25.494  24.165  1.00  0.00     0.116 C 
BRANCH   3   4
ATOM      4  N   UNL A   1      30.720  24.368  25.080  1.00  0.00    -0.356 N 
ATOM      5  C   UNL A   1      30.821  23.033  24.833  1.00  0.00     0.220 C 
ATOM      6  O   UNL A   1      30.795  22.263  25.795  1.00  0.00    -0.275 OA
ATOM      7  H   UNL A   1      30.746  24.613  26.033  1.00  0.00     0.163 HD
BRANCH   5   8
ATOM      8  C   UNL A   1      31.019  22.497  23.425  1.00  0.00     0.105 C 
BRANCH   8   9
ATOM      9  C   UNL A   1      32.126  21.453  23.243  1.00  0.00     0.049 C 
BRANCH   9  10
ATOM     10  C   UNL A   1      33.436  21.757  23.919  1.00  0.00    -0.000 A 
ATOM     11  C   UNL A   1      35.077  23.423  24.603  1.00  0.00     0.143 A 
ATOM     12  C   UNL A   1      33.843  23.091  24.025  1.00  0.00     0.055 A 
ATOM     13  C   UNL A   1      35.951  22.437  25.092  1.00  0.00     0.080 A 
ATOM     14  C   UNL A   1      35.597  21.092  24.941  1.00  0.00     0.081 A 
ATOM     15  C   UNL A   1      37.246  22.801  25.719  1.00  0.00     0.198 C 
ATOM     16  C   UNL A   1      34.318  20.785  24.415  1.00  0.00     0.146 A 
ATOM     17  C   UNL A   1      36.639  20.054  25.151  1.00  0.00     0.198 C 
ATOM     18  O   UNL A   1      37.495  23.955  26.040  1.00  0.00    -0.288 OA
ATOM     19  C   UNL A   1      38.278  21.762  25.893  1.00  0.00     0.034 A 
ATOM     20  C   UNL A   1      38.017  20.459  25.490  1.00  0.00     0.034 A 
ATOM     21  O   UNL A   1      36.406  18.865  24.997  1.00  0.00    -0.288 OA
ATOM     22  C   UNL A   1      39.558  22.111  26.338  1.00  0.00     0.013 A 
ATOM     23  C   UNL A   1      39.070  19.537  25.391  1.00  0.00     0.013 A 
ATOM     24  C   UNL A   1      40.605  21.189  26.252  1.00  0.00     0.001 A 
ATOM     25  C   UNL A   1      40.367  19.915  25.743  1.00  0.00     0.001 A 
BRANCH  11  26
ATOM     26  O   UNL A   1      35.389  24.787  24.643  1.00  0.00    -0.426 OA
BRANCH  26  27
ATOM     27  C   UNL A   1      34.310  25.564  25.056  1.00  0.00     0.308 C 
ATOM     28  C   UNL A   1      34.036  26.621  24.025  1.00  0.00     0.139 C 
ATOM     29  O   UNL A   1      33.714  25.456  26.122  1.00  0.00    -0.252 OA
ENDBRANCH  26  27
ENDBRANCH  11  26
BRANCH  16  30
ATOM     30  O   UNL A   1      33.914  19.337  24.289  1.00  0.00    -0.426 OA
BRANCH  30  31
ATOM     31  C   UNL A   1      33.596  17.938  24.141  1.00  0.00     0.308 C 
ATOM     32  C   UNL A   1      32.990  17.649  22.805  1.00  0.00     0.139 C 
ATOM     33  O   UNL A   1      33.749  17.105  25.023  1.00  0.00    -0.252 OA
ENDBRANCH  30  31
ENDBRANCH  16  30
ENDBRANCH   9  10
ENDBRANCH   8   9
ENDBRANCH   5   8
ENDBRANCH   3   4
ENDBRANCH   2   3
ENDBRANCH   1   2
BRANCH   1  34
ATOM     34  C   UNL A   1      31.430  28.247  26.867  1.00  0.00     0.002 C 
BRANCH  34  35
ATOM     35  C   UNL A   1      32.917  28.485  27.169  1.00  0.00     0.021 C 
BRANCH  35  36
ATOM     36  C   UNL A   1      33.673  29.492  26.299  1.00  0.00     0.116 C 
BRANCH  36  37
ATOM     37  N   UNL A   1      33.637  30.853  26.810  1.00  0.00    -0.352 N 
ATOM     38  C   UNL A   1      34.450  31.541  27.681  1.00  0.00     0.251 C 
ATOM     39  H   UNL A   1      32.884  31.386  26.465  1.00  0.00     0.163 HD
ATOM     40  O   UNL A   1      34.115  32.687  27.987  1.00  0.00    -0.269 OA
BRANCH  38  41
ATOM     41  C   UNL A   1      35.690  30.972  28.278  1.00  0.00     0.039 A 
ATOM     42  C   UNL A   1      36.881  31.698  28.141  1.00  0.00     0.014 A 
ATOM     43  C   UNL A   1      35.739  29.726  28.906  1.00  0.00     0.014 A 
ATOM     44  C   UNL A   1      38.078  31.210  28.680  1.00  0.00     0.010 A 
ATOM     45  C   UNL A   1      36.928  29.243  29.468  1.00  0.00     0.010 A 
ATOM     46  C   UNL A   1      38.104  29.994  29.384  1.00  0.00    -0.014 A 
BRANCH  46  47
ATOM     47  C   UNL A   1      39.304  29.627  30.184  1.00  0.00     0.031 A 
ATOM     48  C   UNL A   1      39.582  30.203  31.543  1.00  0.00     0.074 A 
ATOM     49  C   UNL A   1      40.178  28.767  29.624  1.00  0.00     0.049 A 
ATOM     50  N   UNL A   1      40.518  29.875  32.398  1.00  0.00    -0.248 NA
ATOM     51  C   UNL A   1      38.723  31.308  31.986  1.00  0.00     0.031 C 
ATOM     52  C   UNL A   1      40.058  28.227  28.266  1.00  0.00     0.029 A 
ATOM     53  N   UNL A   1      41.316  28.182  30.114  1.00  0.00    -0.354 N 
ATOM     54  C   UNL A   1      40.358  30.722  33.491  1.00  0.00     0.074 A 
ATOM     55  C   UNL A   1      39.269  31.619  33.156  1.00  0.00     0.031 C 
ATOM     56  C   UNL A   1      41.043  27.344  28.056  1.00  0.00     0.029 A 
ATOM     57  C   UNL A   1      41.883  27.277  29.247  1.00  0.00     0.049 A 
ATOM     58  H   UNL A   1      41.692  28.389  31.000  1.00  0.00     0.167 HD
ATOM     59  C   UNL A   1      41.045  30.732  34.664  1.00  0.00     0.034 A 
ATOM     60  C   UNL A   1      42.946  26.463  29.396  1.00  0.00     0.034 A 
ATOM     61  C   UNL A   1      42.147  29.837  34.954  1.00  0.00     0.049 A 
ATOM     62  C   UNL A   1      43.669  26.466  30.716  1.00  0.00     0.074 A 
ATOM     63  C   UNL A   1      42.871  29.707  36.127  1.00  0.00     0.029 A 
ATOM     64  N   UNL A   1      42.699  28.929  34.055  1.00  0.00    -0.354 N 
ATOM     65  N   UNL A   1      43.435  27.194  31.784  1.00  0.00    -0.248 NA
ATOM     66  C   UNL A   1      44.781  25.521  30.857  1.00  0.00     0.031 C 
ATOM     67  C   UNL A   1      43.905  28.787  35.912  1.00  0.00     0.029 A 
ATOM     68  C   UNL A   1      43.774  28.269  34.634  1.00  0.00     0.049 A 
ATOM     69  H   UNL A   1      42.373  28.777  33.138  1.00  0.00     0.167 HD
ATOM     70  C   UNL A   1      44.361  26.777  32.735  1.00  0.00     0.074 A 
ATOM     71  C   UNL A   1      45.130  25.713  32.120  1.00  0.00     0.031 C 
ATOM     72  C   UNL A   1      44.560  27.233  33.999  1.00  0.00     0.034 A 
BRANCH  59  73
ATOM     73  C   UNL A   1      40.642  31.751  35.711  1.00  0.00     0.023 A 
ATOM     74  C   UNL A   1      39.473  31.600  36.479  1.00  0.00     0.031 A 
ATOM     75  C   UNL A   1      41.433  32.891  35.950  1.00  0.00     0.131 A 
ATOM     76  C   UNL A   1      39.091  32.599  37.389  1.00  0.00     0.055 A 
ATOM     77  C   UNL A   1      41.092  33.840  36.918  1.00  0.00     0.041 A 
ATOM     78  F   UNL A   1      42.553  33.108  35.242  1.00  0.00    -0.206 F 
ATOM     79  C   UNL A   1      39.906  33.705  37.634  1.00  0.00     0.022 A 
BRANCH  76  80
ATOM     80  S   UNL A   1      37.444  32.502  38.142  1.00  0.00     0.124 S 
ATOM     81  O   UNL A   1      36.605  33.082  37.095  1.00  0.00    -0.237 OA
ATOM     82  O   UNL A   1      37.284  31.071  38.369  1.00  0.00    -0.237 OA
ATOM     83  O   UNL A   1      37.570  33.316  39.349  1.00  0.00    -0.744 OA
ENDBRANCH  76  80
ENDBRANCH  59  73
BRANCH  60  84
ATOM     84  C   UNL A   1      43.357  25.559  28.285  1.00  0.00     0.023 A 
ATOM     85  C   UNL A   1      44.463  25.860  27.475  1.00  0.00     0.031 A 
ATOM     86  C   UNL A   1      42.647  24.375  28.017  1.00  0.00     0.131 A 
ATOM     87  C   UNL A   1      44.806  25.008  26.414  1.00  0.00     0.055 A 
ATOM     88  C   UNL A   1      43.026  23.501  26.996  1.00  0.00     0.041 A 
ATOM     89  F   UNL A   1      41.586  24.034  28.767  1.00  0.00    -0.206 F 
ATOM     90  C   UNL A   1      44.105  23.823  26.180  1.00  0.00     0.022 A 
BRANCH  87  91
ATOM     91  S   UNL A   1      46.138  25.511  25.290  1.00  0.00     0.124 S 
ATOM     92  O   UNL A   1      47.259  25.671  26.209  1.00  0.00    -0.237 OA
ATOM     93  O   UNL A   1      46.212  24.372  24.380  1.00  0.00    -0.237 OA
ATOM     94  O   UNL A   1      45.634  26.747  24.698  1.00  0.00    -0.744 OA
ENDBRANCH  87  91
ENDBRANCH  60  84
BRANCH  72  95
ATOM     95  C   UNL A   1      45.654  26.557  34.795  1.00  0.00     0.023 A 
ATOM     96  C   UNL A   1      45.383  25.460  35.634  1.00  0.00     0.031 A 
ATOM     97  C   UNL A   1      46.969  27.052  34.762  1.00  0.00     0.131 A 
ATOM     98  C   UNL A   1      46.389  24.953  36.470  1.00  0.00     0.055 A 
ATOM     99  C   UNL A   1      47.986  26.492  35.538  1.00  0.00     0.041 A 
ATOM    100  F   UNL A   1      47.287  28.099  33.985  1.00  0.00    -0.206 F 
ATOM    101  C   UNL A   1      47.694  25.449  36.414  1.00  0.00     0.022 A 
BRANCH  98 102
ATOM    102  S   UNL A   1      45.933  23.734  37.733  1.00  0.00     0.124 S 
ATOM    103  O   UNL A   1      45.645  22.554  36.925  1.00  0.00    -0.237 OA
ATOM    104  O   UNL A   1      47.139  23.666  38.551  1.00  0.00    -0.237 OA
ATOM    105  O   UNL A   1      44.772  24.335  38.388  1.00  0.00    -0.744 OA
ENDBRANCH  98 102
ENDBRANCH  72  95
ENDBRANCH  46  47
ENDBRANCH  38  41
ENDBRANCH  36  37
ENDBRANCH  35  36
ENDBRANCH  34  35
ENDBRANCH   1  34
TORSDOF 22
ENDMDL
MODEL 3
REMARK VINA RESULT:     -11.2      1.361      7.391
REMARK SMILES CC(=O)Oc1cc(CCC(=O)NCCCCCCNC(=O)c2ccc(-c3c4nc(c(-c5cc(S(=O)(=O)[O-])ccc5F)c5ccc([nH]5)c(-c5cc(S(=O)(=O)[O-])ccc5F)c5nc(c(-c6cc(S(=O)(=O)[O-])ccc6F)c6ccc3[nH]6)C=C5)C=C4)cc2)c(OC(C)=O)c2c1C(=O)c1ccccc1C2=O
REMARK SMILES IDX 15 1 14 2 13 3 12 4 10 5 11 6 9 8 8 9 7 10 5 11 6 12 91 13
REMARK SMILES IDX 90 14 92 15 85 16 100 17 93 18 94 19 99 20 101 21 95 22
REMARK SMILES IDX 98 23 96 24 97 25 4 26 2 27 1 28 3 29 86 30 87 31 88 32
REMARK SMILES IDX 89 33 16 34 17 35 18 36 19 37 20 38 21 40 22 41 23 42 84 43
REMARK SMILES IDX 24 44 83 45 25 46 26 47 27 48 77 49 28 50 82 51 76 52 78 53
REMARK SMILES IDX 29 54 81 55 75 56 74 57 30 59 62 60 42 61 61 62 43 63 46 64
REMARK SMILES IDX 60 65 79 66 44 67 45 68 59 70 80 71 47 72 31 73 32 74 40 75
REMARK SMILES IDX 33 76 39 77 41 78 38 79 34 80 35 81 36 82 37 83 63 84 64 85
REMARK SMILES IDX 72 86 65 87 71 88 73 89 70 90 66 91 67 92 68 93 69 94 48 95
REMARK SMILES IDX 49 96 57 97 50 98 56 99 58 100 55 101 51 102 52 103 53 104
REMARK SMILES IDX 54 105
REMARK H PARENT 12 7 19 39 78 58 46 69
REMARK Flexibility Score: inf
ROOT
ATOM      1  C   UNL A   1      33.433  29.047  27.256  1.00  0.00     0.002 C 
ENDROOT
BRANCH   1   2
ATOM      2  C   UNL A   1      32.503  27.867  26.997  1.00  0.00     0.021 C 
BRANCH   2   3
ATOM      3  C   UNL A   1      31.722  27.838  25.686  1.00  0.00     0.116 C 
BRANCH   3   4
ATOM      4  N   UNL A   1      32.571  28.249  24.576  1.00  0.00    -0.356 N 
ATOM      5  C   UNL A   1      33.473  27.541  23.841  1.00  0.00     0.220 C 
ATOM      6  O   UNL A   1      34.173  28.157  23.034  1.00  0.00    -0.275 OA
ATOM      7  H   UNL A   1      32.479  29.194  24.315  1.00  0.00     0.163 HD
BRANCH   5   8
ATOM      8  C   UNL A   1      33.584  26.031  23.958  1.00  0.00     0.105 C 
BRANCH   8   9
ATOM      9  C   UNL A   1      34.392  25.497  25.147  1.00  0.00     0.049 C 
BRANCH   9  10
ATOM     10  C   UNL A   1      34.704  24.025  25.123  1.00  0.00    -0.000 A 
ATOM     11  C   UNL A   1      36.375  22.266  24.906  1.00  0.00     0.143 A 
ATOM     12  C   UNL A   1      36.037  23.625  24.981  1.00  0.00     0.055 A 
ATOM     13  C   UNL A   1      35.398  21.258  24.964  1.00  0.00     0.080 A 
ATOM     14  C   UNL A   1      34.052  21.633  25.043  1.00  0.00     0.081 A 
ATOM     15  C   UNL A   1      35.769  19.822  24.903  1.00  0.00     0.198 C 
ATOM     16  C   UNL A   1      33.740  23.008  25.185  1.00  0.00     0.146 A 
ATOM     17  C   UNL A   1      33.011  20.606  24.778  1.00  0.00     0.198 C 
ATOM     18  O   UNL A   1      36.931  19.460  25.031  1.00  0.00    -0.288 OA
ATOM     19  C   UNL A   1      34.726  18.821  24.611  1.00  0.00     0.034 A 
ATOM     20  C   UNL A   1      33.413  19.232  24.422  1.00  0.00     0.034 A 
ATOM     21  O   UNL A   1      31.820  20.876  24.792  1.00  0.00    -0.288 OA
ATOM     22  C   UNL A   1      35.077  17.484  24.396  1.00  0.00     0.013 A 
ATOM     23  C   UNL A   1      32.477  18.341  23.875  1.00  0.00     0.013 A 
ATOM     24  C   UNL A   1      34.142  16.592  23.865  1.00  0.00     0.001 A 
ATOM     25  C   UNL A   1      32.853  17.031  23.569  1.00  0.00     0.001 A 
BRANCH  11  26
ATOM     26  O   UNL A   1      37.737  21.980  24.749  1.00  0.00    -0.426 OA
BRANCH  26  27
ATOM     27  C   UNL A   1      38.502  22.448  25.814  1.00  0.00     0.308 C 
ATOM     28  C   UNL A   1      39.534  21.419  26.174  1.00  0.00     0.139 C 
ATOM     29  O   UNL A   1      38.324  23.501  26.415  1.00  0.00    -0.252 OA
ENDBRANCH  26  27
ENDBRANCH  11  26
BRANCH  16  30
ATOM     30  O   UNL A   1      32.293  23.414  25.311  1.00  0.00    -0.426 OA
BRANCH  30  31
ATOM     31  C   UNL A   1      30.932  23.875  25.435  1.00  0.00     0.308 C 
ATOM     32  C   UNL A   1      30.333  23.477  26.745  1.00  0.00     0.139 C 
ATOM     33  O   UNL A   1      30.328  24.464  24.551  1.00  0.00    -0.252 OA
ENDBRANCH  30  31
ENDBRANCH  16  30
ENDBRANCH   9  10
ENDBRANCH   8   9
ENDBRANCH   5   8
ENDBRANCH   3   4
ENDBRANCH   2   3
ENDBRANCH   1   2
BRANCH   1  34
ATOM     34  C   UNL A   1      33.007  30.415  26.718  1.00  0.00     0.002 C 
BRANCH  34  35
ATOM     35  C   UNL A   1      33.069  31.628  27.657  1.00  0.00     0.021 C 
BRANCH  35  36
ATOM     36  C   UNL A   1      33.330  33.003  27.037  1.00  0.00     0.116 C 
BRANCH  36  37
ATOM     37  N   UNL A   1      32.859  34.113  27.851  1.00  0.00    -0.352 N 
ATOM     38  C   UNL A   1      33.279  34.624  29.057  1.00  0.00     0.251 C 
ATOM     39  H   UNL A   1      32.090  34.590  27.464  1.00  0.00     0.163 HD
ATOM     40  O   UNL A   1      32.621  35.545  29.545  1.00  0.00    -0.269 OA
BRANCH  38  41
ATOM     41  C   UNL A   1      34.465  34.118  29.802  1.00  0.00     0.039 A 
ATOM     42  C   UNL A   1      34.247  33.464  31.023  1.00  0.00     0.014 A 
ATOM     43  C   UNL A   1      35.780  34.318  29.381  1.00  0.00     0.014 A 
ATOM     44  C   UNL A   1      35.325  32.969  31.767  1.00  0.00     0.010 A 
ATOM     45  C   UNL A   1      36.862  33.805  30.108  1.00  0.00     0.010 A 
ATOM     46  C   UNL A   1      36.643  33.101  31.296  1.00  0.00    -0.014 A 
BRANCH  46  47
ATOM     47  C   UNL A   1      37.741  32.336  31.945  1.00  0.00     0.031 A 
ATOM     48  C   UNL A   1      38.496  31.244  31.243  1.00  0.00     0.074 A 
ATOM     49  C   UNL A   1      38.025  32.634  33.228  1.00  0.00     0.049 A 
ATOM     50  N   UNL A   1      39.556  30.587  31.645  1.00  0.00    -0.248 NA
ATOM     51  C   UNL A   1      37.979  30.809  29.939  1.00  0.00     0.031 C 
ATOM     52  C   UNL A   1      37.284  33.606  34.039  1.00  0.00     0.029 A 
ATOM     53  N   UNL A   1      39.004  32.178  34.071  1.00  0.00    -0.354 N 
ATOM     54  C   UNL A   1      39.846  29.669  30.641  1.00  0.00     0.074 A 
ATOM     55  C   UNL A   1      38.808  29.816  29.640  1.00  0.00     0.031 C 
ATOM     56  C   UNL A   1      37.873  33.719  35.237  1.00  0.00     0.029 A 
ATOM     57  C   UNL A   1      39.011  32.809  35.294  1.00  0.00     0.049 A 
ATOM     58  H   UNL A   1      39.641  31.468  33.826  1.00  0.00     0.167 HD
ATOM     59  C   UNL A   1      40.891  28.801  30.562  1.00  0.00     0.034 A 
ATOM     60  C   UNL A   1      39.851  32.688  36.340  1.00  0.00     0.034 A 
ATOM     61  C   UNL A   1      41.896  28.662  31.595  1.00  0.00     0.049 A 
ATOM     62  C   UNL A   1      41.020  31.749  36.215  1.00  0.00     0.074 A 
ATOM     63  C   UNL A   1      43.033  27.871  31.596  1.00  0.00     0.029 A 
ATOM     64  N   UNL A   1      41.877  29.316  32.824  1.00  0.00    -0.354 N 
ATOM     65  N   UNL A   1      41.347  30.967  35.211  1.00  0.00    -0.248 NA
ATOM     66  C   UNL A   1      41.944  31.696  37.352  1.00  0.00     0.031 C 
ATOM     67  C   UNL A   1      43.652  27.984  32.847  1.00  0.00     0.029 A 
ATOM     68  C   UNL A   1      42.956  28.916  33.600  1.00  0.00     0.049 A 
ATOM     69  H   UNL A   1      41.194  29.969  33.102  1.00  0.00     0.167 HD
ATOM     70  C   UNL A   1      42.531  30.343  35.590  1.00  0.00     0.074 A 
ATOM     71  C   UNL A   1      42.873  30.868  36.898  1.00  0.00     0.031 C 
ATOM     72  C   UNL A   1      43.268  29.419  34.920  1.00  0.00     0.034 A 
BRANCH  59  73
ATOM     73  C   UNL A   1      40.988  27.924  29.330  1.00  0.00     0.023 A 
ATOM     74  C   UNL A   1      41.953  28.153  28.332  1.00  0.00     0.031 A 
ATOM     75  C   UNL A   1      40.108  26.841  29.144  1.00  0.00     0.131 A 
ATOM     76  C   UNL A   1      41.970  27.365  27.170  1.00  0.00     0.055 A 
ATOM     77  C   UNL A   1      40.184  26.007  28.024  1.00  0.00     0.041 A 
ATOM     78  F   UNL A   1      39.151  26.574  30.047  1.00  0.00    -0.206 F 
ATOM     79  C   UNL A   1      41.109  26.276  27.021  1.00  0.00     0.022 A 
BRANCH  76  80
ATOM     80  S   UNL A   1      43.035  27.873  25.793  1.00  0.00     0.124 S 
ATOM     81  O   UNL A   1      42.051  28.245  24.778  1.00  0.00    -0.237 OA
ATOM     82  O   UNL A   1      43.799  28.972  26.373  1.00  0.00    -0.237 OA
ATOM     83  O   UNL A   1      43.804  26.668  25.490  1.00  0.00    -0.744 OA
ENDBRANCH  76  80
ENDBRANCH  59  73
BRANCH  60  84
ATOM     84  C   UNL A   1      39.637  33.506  37.568  1.00  0.00     0.023 A 
ATOM     85  C   UNL A   1      38.931  32.992  38.668  1.00  0.00     0.031 A 
ATOM     86  C   UNL A   1      40.138  34.816  37.661  1.00  0.00     0.131 A 
ATOM     87  C   UNL A   1      38.713  33.796  39.797  1.00  0.00     0.055 A 
ATOM     88  C   UNL A   1      39.968  35.592  38.809  1.00  0.00     0.041 A 
ATOM     89  F   UNL A   1      40.829  35.353  36.642  1.00  0.00    -0.206 F 
ATOM     90  C   UNL A   1      39.242  35.086  39.881  1.00  0.00     0.022 A 
BRANCH  87  91
ATOM     91  S   UNL A   1      37.661  33.159  41.129  1.00  0.00     0.124 S 
ATOM     92  O   UNL A   1      36.373  33.032  40.456  1.00  0.00    -0.237 OA
ATOM     93  O   UNL A   1      38.331  31.909  41.472  1.00  0.00    -0.237 OA
ATOM     94  O   UNL A   1      37.733  34.202  42.148  1.00  0.00    -0.744 OA
ENDBRANCH  87  91
ENDBRANCH  60  84
BRANCH  72  95
ATOM     95  C   UNL A   1      44.528  28.936  35.605  1.00  0.00     0.023 A 
ATOM     96  C   UNL A   1      44.510  27.853  36.502  1.00  0.00     0.031 A 
ATOM     97  C   UNL A   1      45.748  29.604  35.404  1.00  0.00     0.131 A 
ATOM     98  C   UNL A   1      45.663  27.527  37.231  1.00  0.00     0.055 A 
ATOM     99  C   UNL A   1      46.914  29.225  36.074  1.00  0.00     0.041 A 
ATOM    100  F   UNL A   1      45.827  30.648  34.564  1.00  0.00    -0.206 F 
ATOM    101  C   UNL A   1      46.871  28.195  37.009  1.00  0.00     0.022 A 
BRANCH  98 102
ATOM    102  S   UNL A   1      45.527  26.318  38.575  1.00  0.00     0.124 S 
ATOM    103  O   UNL A   1      46.916  26.179  38.999  1.00  0.00    -0.237 OA
ATOM    104  O   UNL A   1      44.638  26.994  39.515  1.00  0.00    -0.237 OA
ATOM    105  O   UNL A   1      44.958  25.140  37.922  1.00  0.00    -0.744 OA
ENDBRANCH  98 102
ENDBRANCH  72  95
ENDBRANCH  46  47
ENDBRANCH  38  41
ENDBRANCH  36  37
ENDBRANCH  35  36
ENDBRANCH  34  35
ENDBRANCH   1  34
TORSDOF 22
ENDMDL
