MODEL 1
REMARK VINA RESULT:     -10.4      0.000      0.000
REMARK SMILES C[C@H](C(=O)NCCCCCCNC(=O)c1ccc(-c2c3nc(c(-c4cc(S(=O)(=O)[O-])ccc4F)c4ccc([nH]4)c(-c4cc(S(=O)(=O)[O-])ccc4F)c4nc(c(-c5cc(S(=O)(=O)[O-])ccc5F)c5ccc2[nH]5)C=C4)C=C3)cc1)[NH+]1CC[NH+](C[C@H]2COc3ccccc32)CC1
REMARK SMILES IDX 8 1 7 2 6 3 5 4 3 5 4 6 2 8 1 9 78 10 79 11 93 12 80 14
REMARK SMILES IDX 92 15 81 16 82 18 83 19 84 20 91 21 85 22 86 23 90 24 87 25
REMARK SMILES IDX 89 26 88 27 9 28 10 29 11 30 12 31 13 32 14 34 15 35 16 36
REMARK SMILES IDX 77 37 17 38 76 39 18 40 19 41 20 42 70 43 21 44 75 45 69 46
REMARK SMILES IDX 71 47 22 48 74 49 68 50 67 51 23 53 55 54 35 55 54 56 36 57
REMARK SMILES IDX 39 58 53 59 72 60 37 61 38 62 52 64 73 65 40 66 24 67 25 68
REMARK SMILES IDX 33 69 26 70 32 71 34 72 31 73 27 74 28 75 29 76 30 77 56 78
REMARK SMILES IDX 57 79 65 80 58 81 64 82 66 83 63 84 59 85 60 86 61 87 62 88
REMARK SMILES IDX 41 89 42 90 50 91 43 92 49 93 51 94 48 95 44 96 45 97 46 98
REMARK SMILES IDX 47 99
REMARK H PARENT 5 7 78 13 81 17 12 33 71 52 39 63
REMARK Flexibility Score: inf
ROOT
ATOM      1  C   UNL A   1      33.416  29.686  26.678  1.00  0.00     0.002 C 
ENDROOT
BRANCH   1   2
ATOM      2  C   UNL A   1      32.169  28.952  27.192  1.00  0.00     0.021 C 
BRANCH   2   3
ATOM      3  C   UNL A   1      32.225  27.432  27.007  1.00  0.00     0.116 C 
BRANCH   3   4
ATOM      4  N   UNL A   1      31.049  26.976  26.288  1.00  0.00    -0.351 N 
ATOM      5  C   UNL A   1      30.653  25.724  25.921  1.00  0.00     0.278 C 
ATOM      6  O   UNL A   1      29.715  25.666  25.116  1.00  0.00    -0.268 OA
ATOM      7  H   UNL A   1      30.432  27.694  26.019  1.00  0.00     0.163 HD
BRANCH   5   8
ATOM      8  C   UNL A   1      31.235  24.459  26.601  1.00  0.00     0.271 C 
ATOM      9  C   UNL A   1      30.190  23.345  26.747  1.00  0.00     0.086 C 
BRANCH   8  10
ATOM     10  N   UNL A   1      32.517  24.018  26.027  1.00  0.00    -0.316 N 
ATOM     11  C   UNL A   1      33.132  22.905  26.753  1.00  0.00     0.325 C 
ATOM     12  C   UNL A   1      32.644  23.933  24.570  1.00  0.00     0.325 C 
ATOM     13  H   UNL A   1      33.095  24.840  26.199  1.00  0.00     0.349 HD
ATOM     14  C   UNL A   1      33.047  21.518  26.073  1.00  0.00     0.324 C 
ATOM     15  C   UNL A   1      32.592  22.521  23.946  1.00  0.00     0.324 C 
ATOM     16  N   UNL A   1      33.382  21.494  24.647  1.00  0.00    -0.325 N 
ATOM     17  H   UNL A   1      33.111  20.567  24.319  1.00  0.00     0.348 HD
BRANCH  16  18
ATOM     18  C   UNL A   1      34.812  21.461  24.274  1.00  0.00     0.274 C 
BRANCH  18  19
ATOM     19  C   UNL A   1      35.896  21.015  25.276  1.00  0.00     0.116 C 
ATOM     20  C   UNL A   1      36.801  19.886  24.741  1.00  0.00     0.244 C 
ATOM     21  C   UNL A   1      36.971  22.001  25.602  1.00  0.00     0.006 A 
ATOM     22  O   UNL A   1      38.136  20.030  25.261  1.00  0.00    -0.492 OA
ATOM     23  C   UNL A   1      38.197  21.347  25.622  1.00  0.00     0.123 A 
ATOM     24  C   UNL A   1      36.884  23.323  26.009  1.00  0.00     0.008 A 
ATOM     25  C   UNL A   1      39.363  21.963  26.027  1.00  0.00     0.047 A 
ATOM     26  C   UNL A   1      38.055  23.970  26.422  1.00  0.00     0.001 A 
ATOM     27  C   UNL A   1      39.288  23.294  26.431  1.00  0.00     0.004 A 
ENDBRANCH  18  19
ENDBRANCH  16  18
ENDBRANCH   8  10
ENDBRANCH   5   8
ENDBRANCH   3   4
ENDBRANCH   2   3
ENDBRANCH   1   2
BRANCH   1  28
ATOM     28  C   UNL A   1      33.899  30.832  27.572  1.00  0.00     0.002 C 
BRANCH  28  29
ATOM     29  C   UNL A   1      33.018  32.083  27.531  1.00  0.00     0.021 C 
BRANCH  29  30
ATOM     30  C   UNL A   1      33.790  33.400  27.577  1.00  0.00     0.116 C 
BRANCH  30  31
ATOM     31  N   UNL A   1      33.091  34.412  28.356  1.00  0.00    -0.352 N 
ATOM     32  C   UNL A   1      33.236  34.748  29.678  1.00  0.00     0.251 C 
ATOM     33  H   UNL A   1      32.417  34.931  27.862  1.00  0.00     0.163 HD
ATOM     34  O   UNL A   1      32.404  35.474  30.219  1.00  0.00    -0.269 OA
BRANCH  32  35
ATOM     35  C   UNL A   1      34.378  34.217  30.452  1.00  0.00     0.039 A 
ATOM     36  C   UNL A   1      34.148  33.211  31.392  1.00  0.00     0.014 A 
ATOM     37  C   UNL A   1      35.674  34.700  30.241  1.00  0.00     0.014 A 
ATOM     38  C   UNL A   1      35.228  32.630  32.060  1.00  0.00     0.010 A 
ATOM     39  C   UNL A   1      36.755  34.073  30.857  1.00  0.00     0.010 A 
ATOM     40  C   UNL A   1      36.545  33.020  31.760  1.00  0.00    -0.014 A 
BRANCH  40  41
ATOM     41  C   UNL A   1      37.709  32.295  32.337  1.00  0.00     0.031 A 
ATOM     42  C   UNL A   1      38.265  32.684  33.679  1.00  0.00     0.074 A 
ATOM     43  C   UNL A   1      38.304  31.328  31.609  1.00  0.00     0.049 A 
ATOM     44  N   UNL A   1      39.313  32.213  34.305  1.00  0.00    -0.248 NA
ATOM     45  C   UNL A   1      37.565  33.755  34.407  1.00  0.00     0.031 C 
ATOM     46  C   UNL A   1      37.877  30.892  30.275  1.00  0.00     0.029 A 
ATOM     47  N   UNL A   1      39.400  30.543  31.872  1.00  0.00    -0.354 N 
ATOM     48  C   UNL A   1      39.407  32.934  35.490  1.00  0.00     0.074 A 
ATOM     49  C   UNL A   1      38.331  33.902  35.479  1.00  0.00     0.031 C 
ATOM     50  C   UNL A   1      38.687  29.910  29.851  1.00  0.00     0.029 A 
ATOM     51  C   UNL A   1      39.728  29.684  30.846  1.00  0.00     0.049 A 
ATOM     52  H   UNL A   1      39.906  30.591  32.717  1.00  0.00     0.167 HD
ATOM     53  C   UNL A   1      40.303  32.790  36.496  1.00  0.00     0.034 A 
ATOM     54  C   UNL A   1      40.764  28.831  30.710  1.00  0.00     0.034 A 
ATOM     55  C   UNL A   1      41.361  31.808  36.497  1.00  0.00     0.049 A 
ATOM     56  C   UNL A   1      41.767  28.724  31.834  1.00  0.00     0.074 A 
ATOM     57  C   UNL A   1      42.266  31.525  37.505  1.00  0.00     0.029 A 
ATOM     58  N   UNL A   1      41.670  30.964  35.439  1.00  0.00    -0.354 N 
ATOM     59  N   UNL A   1      41.787  29.356  32.985  1.00  0.00    -0.248 NA
ATOM     60  C   UNL A   1      42.881  27.787  31.644  1.00  0.00     0.031 C 
ATOM     61  C   UNL A   1      43.175  30.578  37.025  1.00  0.00     0.029 A 
ATOM     62  C   UNL A   1      42.786  30.201  35.750  1.00  0.00     0.049 A 
ATOM     63  H   UNL A   1      41.171  30.915  34.592  1.00  0.00     0.167 HD
ATOM     64  C   UNL A   1      42.902  28.870  33.663  1.00  0.00     0.074 A 
ATOM     65  C   UNL A   1      43.508  27.873  32.807  1.00  0.00     0.031 C 
ATOM     66  C   UNL A   1      43.387  29.219  34.882  1.00  0.00     0.034 A 
BRANCH  53  67
ATOM     67  C   UNL A   1      40.211  33.729  37.672  1.00  0.00     0.023 A 
ATOM     68  C   UNL A   1      39.385  33.462  38.776  1.00  0.00     0.031 A 
ATOM     69  C   UNL A   1      41.006  34.890  37.708  1.00  0.00     0.131 A 
ATOM     70  C   UNL A   1      39.345  34.361  39.854  1.00  0.00     0.055 A 
ATOM     71  C   UNL A   1      41.013  35.744  38.812  1.00  0.00     0.041 A 
ATOM     72  F   UNL A   1      41.799  35.208  36.672  1.00  0.00    -0.206 F 
ATOM     73  C   UNL A   1      40.174  35.486  39.891  1.00  0.00     0.022 A 
BRANCH  70  74
ATOM     74  S   UNL A   1      38.127  34.091  41.170  1.00  0.00     0.124 S 
ATOM     75  O   UNL A   1      37.075  33.371  40.455  1.00  0.00    -0.237 OA
ATOM     76  O   UNL A   1      38.882  33.314  42.146  1.00  0.00    -0.237 OA
ATOM     77  O   UNL A   1      37.770  35.444  41.590  1.00  0.00    -0.744 OA
ENDBRANCH  70  74
ENDBRANCH  53  67
BRANCH  54  78
ATOM     78  C   UNL A   1      40.949  28.041  29.455  1.00  0.00     0.023 A 
ATOM     79  C   UNL A   1      41.900  28.420  28.494  1.00  0.00     0.031 A 
ATOM     80  C   UNL A   1      40.112  26.950  29.155  1.00  0.00     0.131 A 
ATOM     81  C   UNL A   1      41.939  27.768  27.253  1.00  0.00     0.055 A 
ATOM     82  C   UNL A   1      40.207  26.256  27.947  1.00  0.00     0.041 A 
ATOM     83  F   UNL A   1      39.183  26.543  30.032  1.00  0.00    -0.206 F 
ATOM     84  C   UNL A   1      41.111  26.678  26.978  1.00  0.00     0.022 A 
BRANCH  81  85
ATOM     85  S   UNL A   1      42.989  28.460  25.945  1.00  0.00     0.124 S 
ATOM     86  O   UNL A   1      42.859  29.893  26.189  1.00  0.00    -0.237 OA
ATOM     87  O   UNL A   1      44.287  27.871  26.255  1.00  0.00    -0.237 OA
ATOM     88  O   UNL A   1      42.363  27.978  24.715  1.00  0.00    -0.744 OA
ENDBRANCH  81  85
ENDBRANCH  54  78
BRANCH  66  89
ATOM     89  C   UNL A   1      44.616  28.489  35.367  1.00  0.00     0.023 A 
ATOM     90  C   UNL A   1      44.528  27.233  35.991  1.00  0.00     0.031 A 
ATOM     91  C   UNL A   1      45.890  29.063  35.214  1.00  0.00     0.131 A 
ATOM     92  C   UNL A   1      45.685  26.617  36.491  1.00  0.00     0.055 A 
ATOM     93  C   UNL A   1      47.046  28.414  35.653  1.00  0.00     0.041 A 
ATOM     94  F   UNL A   1      46.035  30.264  34.631  1.00  0.00    -0.206 F 
ATOM     95  C   UNL A   1      46.946  27.191  36.308  1.00  0.00     0.022 A 
BRANCH  92  96
ATOM     96  S   UNL A   1      45.509  25.101  37.471  1.00  0.00     0.124 S 
ATOM     97  O   UNL A   1      46.900  24.728  37.704  1.00  0.00    -0.237 OA
ATOM     98  O   UNL A   1      44.771  25.568  38.639  1.00  0.00    -0.237 OA
ATOM     99  O   UNL A   1      44.766  24.206  36.586  1.00  0.00    -0.744 OA
ENDBRANCH  92  96
ENDBRANCH  66  89
ENDBRANCH  40  41
ENDBRANCH  32  35
ENDBRANCH  30  31
ENDBRANCH  29  30
ENDBRANCH  28  29
ENDBRANCH   1  28
TORSDOF 19
ENDMDL
MODEL 2
REMARK VINA RESULT:     -10.4      1.981      2.685
REMARK SMILES C[C@H](C(=O)NCCCCCCNC(=O)c1ccc(-c2c3nc(c(-c4cc(S(=O)(=O)[O-])ccc4F)c4ccc([nH]4)c(-c4cc(S(=O)(=O)[O-])ccc4F)c4nc(c(-c5cc(S(=O)(=O)[O-])ccc5F)c5ccc2[nH]5)C=C4)C=C3)cc1)[NH+]1CC[NH+](C[C@H]2COc3ccccc32)CC1
REMARK SMILES IDX 8 1 7 2 6 3 5 4 3 5 4 6 2 8 1 9 78 10 79 11 93 12 80 14
REMARK SMILES IDX 92 15 81 16 82 18 83 19 84 20 91 21 85 22 86 23 90 24 87 25
REMARK SMILES IDX 89 26 88 27 9 28 10 29 11 30 12 31 13 32 14 34 15 35 16 36
REMARK SMILES IDX 77 37 17 38 76 39 18 40 19 41 20 42 70 43 21 44 75 45 69 46
REMARK SMILES IDX 71 47 22 48 74 49 68 50 67 51 23 53 55 54 35 55 54 56 36 57
REMARK SMILES IDX 39 58 53 59 72 60 37 61 38 62 52 64 73 65 40 66 24 67 25 68
REMARK SMILES IDX 33 69 26 70 32 71 34 72 31 73 27 74 28 75 29 76 30 77 56 78
REMARK SMILES IDX 57 79 65 80 58 81 64 82 66 83 63 84 59 85 60 86 61 87 62 88
REMARK SMILES IDX 41 89 42 90 50 91 43 92 49 93 51 94 48 95 44 96 45 97 46 98
REMARK SMILES IDX 47 99
REMARK H PARENT 5 7 78 13 81 17 12 33 71 52 39 63
REMARK Flexibility Score: inf
ROOT
ATOM      1  C   UNL A   1      31.544  29.901  25.363  1.00  0.00     0.002 C 
ENDROOT
BRANCH   1   2
ATOM      2  C   UNL A   1      31.959  28.434  25.172  1.00  0.00     0.021 C 
BRANCH   2   3
ATOM      3  C   UNL A   1      33.051  28.234  24.116  1.00  0.00     0.116 C 
BRANCH   3   4
ATOM      4  N   UNL A   1      32.489  27.606  22.934  1.00  0.00    -0.351 N 
ATOM      5  C   UNL A   1      31.739  26.477  22.789  1.00  0.00     0.278 C 
ATOM      6  O   UNL A   1      31.596  26.063  21.632  1.00  0.00    -0.268 OA
ATOM      7  H   UNL A   1      32.684  28.077  22.091  1.00  0.00     0.163 HD
BRANCH   5   8
ATOM      8  C   UNL A   1      30.981  25.851  23.987  1.00  0.00     0.271 C 
ATOM      9  C   UNL A   1      29.458  25.967  23.835  1.00  0.00     0.086 C 
BRANCH   8  10
ATOM     10  N   UNL A   1      31.454  24.504  24.347  1.00  0.00    -0.316 N 
ATOM     11  C   UNL A   1      32.913  24.373  24.334  1.00  0.00     0.325 C 
ATOM     12  C   UNL A   1      30.793  23.796  25.446  1.00  0.00     0.325 C 
ATOM     13  H   UNL A   1      31.101  23.961  23.559  1.00  0.00     0.349 HD
ATOM     14  C   UNL A   1      33.605  24.324  25.717  1.00  0.00     0.324 C 
ATOM     15  C   UNL A   1      31.546  23.743  26.794  1.00  0.00     0.324 C 
ATOM     16  N   UNL A   1      32.983  23.434  26.701  1.00  0.00    -0.325 N 
ATOM     17  H   UNL A   1      33.440  23.646  27.587  1.00  0.00     0.348 HD
BRANCH  16  18
ATOM     18  C   UNL A   1      33.295  21.991  26.621  1.00  0.00     0.274 C 
BRANCH  18  19
ATOM     19  C   UNL A   1      34.104  21.405  25.446  1.00  0.00     0.116 C 
ATOM     20  C   UNL A   1      35.597  21.194  25.772  1.00  0.00     0.244 C 
ATOM     21  C   UNL A   1      33.786  20.006  25.029  1.00  0.00     0.006 A 
ATOM     22  O   UNL A   1      36.100  20.040  25.073  1.00  0.00    -0.492 OA
ATOM     23  C   UNL A   1      34.972  19.321  24.791  1.00  0.00     0.123 A 
ATOM     24  C   UNL A   1      32.571  19.414  24.722  1.00  0.00     0.008 A 
ATOM     25  C   UNL A   1      35.003  18.049  24.259  1.00  0.00     0.047 A 
ATOM     26  C   UNL A   1      32.578  18.121  24.185  1.00  0.00     0.001 A 
ATOM     27  C   UNL A   1      33.787  17.442  23.954  1.00  0.00     0.004 A 
ENDBRANCH  18  19
ENDBRANCH  16  18
ENDBRANCH   8  10
ENDBRANCH   5   8
ENDBRANCH   3   4
ENDBRANCH   2   3
ENDBRANCH   1   2
BRANCH   1  28
ATOM     28  C   UNL A   1      31.816  30.466  26.761  1.00  0.00     0.002 C 
BRANCH  28  29
ATOM     29  C   UNL A   1      31.946  31.990  26.814  1.00  0.00     0.021 C 
BRANCH  29  30
ATOM     30  C   UNL A   1      33.153  32.492  27.604  1.00  0.00     0.116 C 
BRANCH  30  31
ATOM     31  N   UNL A   1      33.122  33.937  27.782  1.00  0.00    -0.352 N 
ATOM     32  C   UNL A   1      33.789  34.717  28.691  1.00  0.00     0.251 C 
ATOM     33  H   UNL A   1      32.537  34.424  27.159  1.00  0.00     0.163 HD
ATOM     34  O   UNL A   1      33.468  35.895  28.838  1.00  0.00    -0.269 OA
BRANCH  32  35
ATOM     35  C   UNL A   1      34.874  34.133  29.507  1.00  0.00     0.039 A 
ATOM     36  C   UNL A   1      34.549  33.218  30.510  1.00  0.00     0.014 A 
ATOM     37  C   UNL A   1      36.211  34.476  29.274  1.00  0.00     0.014 A 
ATOM     38  C   UNL A   1      35.569  32.583  31.222  1.00  0.00     0.010 A 
ATOM     39  C   UNL A   1      37.227  33.793  29.938  1.00  0.00     0.010 A 
ATOM     40  C   UNL A   1      36.917  32.826  30.907  1.00  0.00    -0.014 A 
BRANCH  40  41
ATOM     41  C   UNL A   1      38.006  32.035  31.539  1.00  0.00     0.031 A 
ATOM     42  C   UNL A   1      38.557  32.427  32.883  1.00  0.00     0.074 A 
ATOM     43  C   UNL A   1      38.543  31.000  30.860  1.00  0.00     0.049 A 
ATOM     44  N   UNL A   1      39.550  31.899  33.552  1.00  0.00    -0.248 NA
ATOM     45  C   UNL A   1      37.925  33.573  33.555  1.00  0.00     0.031 C 
ATOM     46  C   UNL A   1      38.115  30.551  29.530  1.00  0.00     0.029 A 
ATOM     47  N   UNL A   1      39.567  30.143  31.179  1.00  0.00    -0.354 N 
ATOM     48  C   UNL A   1      39.670  32.651  34.715  1.00  0.00     0.074 A 
ATOM     49  C   UNL A   1      38.674  33.697  34.643  1.00  0.00     0.031 C 
ATOM     50  C   UNL A   1      38.857  29.496  29.161  1.00  0.00     0.029 A 
ATOM     51  C   UNL A   1      39.852  29.226  30.191  1.00  0.00     0.049 A 
ATOM     52  H   UNL A   1      40.054  30.181  32.035  1.00  0.00     0.167 HD
ATOM     53  C   UNL A   1      40.528  32.474  35.749  1.00  0.00     0.034 A 
ATOM     54  C   UNL A   1      40.822  28.291  30.112  1.00  0.00     0.034 A 
ATOM     55  C   UNL A   1      41.505  31.414  35.811  1.00  0.00     0.049 A 
ATOM     56  C   UNL A   1      41.785  28.147  31.265  1.00  0.00     0.074 A 
ATOM     57  C   UNL A   1      42.361  31.097  36.853  1.00  0.00     0.029 A 
ATOM     58  N   UNL A   1      41.774  30.512  34.791  1.00  0.00    -0.354 N 
ATOM     59  N   UNL A   1      41.826  28.815  32.395  1.00  0.00    -0.248 NA
ATOM     60  C   UNL A   1      42.828  27.121  31.137  1.00  0.00     0.031 C 
ATOM     61  C   UNL A   1      43.205  30.067  36.430  1.00  0.00     0.029 A 
ATOM     62  C   UNL A   1      42.818  29.676  35.158  1.00  0.00     0.049 A 
ATOM     63  H   UNL A   1      41.294  30.472  33.932  1.00  0.00     0.167 HD
ATOM     64  C   UNL A   1      42.883  28.268  33.119  1.00  0.00     0.074 A 
ATOM     65  C   UNL A   1      43.430  27.198  32.313  1.00  0.00     0.031 C 
ATOM     66  C   UNL A   1      43.363  28.622  34.339  1.00  0.00     0.034 A 
BRANCH  53  67
ATOM     67  C   UNL A   1      40.480  33.458  36.891  1.00  0.00     0.023 A 
ATOM     68  C   UNL A   1      41.415  34.498  37.018  1.00  0.00     0.031 A 
ATOM     69  C   UNL A   1      39.447  33.379  37.843  1.00  0.00     0.131 A 
ATOM     70  C   UNL A   1      41.319  35.398  38.092  1.00  0.00     0.055 A 
ATOM     71  C   UNL A   1      39.317  34.317  38.869  1.00  0.00     0.041 A 
ATOM     72  F   UNL A   1      38.537  32.393  37.785  1.00  0.00    -0.206 F 
ATOM     73  C   UNL A   1      40.261  35.330  39.002  1.00  0.00     0.022 A 
BRANCH  70  74
ATOM     74  S   UNL A   1      42.649  36.605  38.338  1.00  0.00     0.124 S 
ATOM     75  O   UNL A   1      43.747  35.750  38.783  1.00  0.00    -0.237 OA
ATOM     76  O   UNL A   1      42.794  37.193  37.012  1.00  0.00    -0.237 OA
ATOM     77  O   UNL A   1      42.114  37.501  39.362  1.00  0.00    -0.744 OA
ENDBRANCH  70  74
ENDBRANCH  53  67
BRANCH  54  78
ATOM     78  C   UNL A   1      40.976  27.446  28.889  1.00  0.00     0.023 A 
ATOM     79  C   UNL A   1      41.982  27.711  27.946  1.00  0.00     0.031 A 
ATOM     80  C   UNL A   1      40.060  26.418  28.597  1.00  0.00     0.131 A 
ATOM     81  C   UNL A   1      42.002  27.016  26.729  1.00  0.00     0.055 A 
ATOM     82  C   UNL A   1      40.130  25.678  27.416  1.00  0.00     0.041 A 
ATOM     83  F   UNL A   1      39.074  26.120  29.458  1.00  0.00    -0.206 F 
ATOM     84  C   UNL A   1      41.093  25.990  26.463  1.00  0.00     0.022 A 
BRANCH  81  85
ATOM     85  S   UNL A   1      43.144  27.573  25.433  1.00  0.00     0.124 S 
ATOM     86  O   UNL A   1      44.074  28.399  26.194  1.00  0.00    -0.237 OA
ATOM     87  O   UNL A   1      43.671  26.309  24.930  1.00  0.00    -0.237 OA
ATOM     88  O   UNL A   1      42.278  28.300  24.507  1.00  0.00    -0.744 OA
ENDBRANCH  81  85
ENDBRANCH  54  78
BRANCH  66  89
ATOM     89  C   UNL A   1      44.519  27.817  34.881  1.00  0.00     0.023 A 
ATOM     90  C   UNL A   1      44.321  26.575  35.510  1.00  0.00     0.031 A 
ATOM     91  C   UNL A   1      45.834  28.303  34.779  1.00  0.00     0.131 A 
ATOM     92  C   UNL A   1      45.412  25.889  36.063  1.00  0.00     0.055 A 
ATOM     93  C   UNL A   1      46.924  27.584  35.271  1.00  0.00     0.041 A 
ATOM     94  F   UNL A   1      46.083  29.486  34.194  1.00  0.00    -0.206 F 
ATOM     95  C   UNL A   1      46.715  26.376  35.930  1.00  0.00     0.022 A 
BRANCH  92  96
ATOM     96  S   UNL A   1      45.095  24.398  37.045  1.00  0.00     0.124 S 
ATOM     97  O   UNL A   1      46.447  23.942  37.348  1.00  0.00    -0.237 OA
ATOM     98  O   UNL A   1      44.332  24.923  38.173  1.00  0.00    -0.237 OA
ATOM     99  O   UNL A   1      44.340  23.541  36.133  1.00  0.00    -0.744 OA
ENDBRANCH  92  96
ENDBRANCH  66  89
ENDBRANCH  40  41
ENDBRANCH  32  35
ENDBRANCH  30  31
ENDBRANCH  29  30
ENDBRANCH  28  29
ENDBRANCH   1  28
TORSDOF 19
ENDMDL
MODEL 3
REMARK VINA RESULT:     -10.2      3.851      8.946
REMARK SMILES C[C@H](C(=O)NCCCCCCNC(=O)c1ccc(-c2c3nc(c(-c4cc(S(=O)(=O)[O-])ccc4F)c4ccc([nH]4)c(-c4cc(S(=O)(=O)[O-])ccc4F)c4nc(c(-c5cc(S(=O)(=O)[O-])ccc5F)c5ccc2[nH]5)C=C4)C=C3)cc1)[NH+]1CC[NH+](C[C@H]2COc3ccccc32)CC1
REMARK SMILES IDX 8 1 7 2 6 3 5 4 3 5 4 6 2 8 1 9 78 10 79 11 93 12 80 14
REMARK SMILES IDX 92 15 81 16 82 18 83 19 84 20 91 21 85 22 86 23 90 24 87 25
REMARK SMILES IDX 89 26 88 27 9 28 10 29 11 30 12 31 13 32 14 34 15 35 16 36
REMARK SMILES IDX 77 37 17 38 76 39 18 40 19 41 20 42 70 43 21 44 75 45 69 46
REMARK SMILES IDX 71 47 22 48 74 49 68 50 67 51 23 53 55 54 35 55 54 56 36 57
REMARK SMILES IDX 39 58 53 59 72 60 37 61 38 62 52 64 73 65 40 66 24 67 25 68
REMARK SMILES IDX 33 69 26 70 32 71 34 72 31 73 27 74 28 75 29 76 30 77 56 78
REMARK SMILES IDX 57 79 65 80 58 81 64 82 66 83 63 84 59 85 60 86 61 87 62 88
REMARK SMILES IDX 41 89 42 90 50 91 43 92 49 93 51 94 48 95 44 96 45 97 46 98
REMARK SMILES IDX 47 99
REMARK H PARENT 5 7 78 13 81 17 12 33 71 52 39 63
REMARK Flexibility Score: inf
ROOT
ATOM      1  C   UNL A   1      32.725  28.682  27.369  1.00  0.00     0.002 C 
ENDROOT
BRANCH   1   2
ATOM      2  C   UNL A   1      31.627  29.113  26.385  1.00  0.00     0.021 C 
BRANCH   2   3
ATOM      3  C   UNL A   1      32.147  29.431  24.978  1.00  0.00     0.116 C 
BRANCH   3   4
ATOM      4  N   UNL A   1      31.237  28.897  23.981  1.00  0.00    -0.351 N 
ATOM      5  C   UNL A   1      31.472  28.338  22.760  1.00  0.00     0.278 C 
ATOM      6  O   UNL A   1      30.484  28.182  22.034  1.00  0.00    -0.268 OA
ATOM      7  H   UNL A   1      30.285  28.948  24.230  1.00  0.00     0.163 HD
BRANCH   5   8
ATOM      8  C   UNL A   1      32.869  27.784  22.380  1.00  0.00     0.271 C 
ATOM      9  C   UNL A   1      34.001  28.739  22.780  1.00  0.00     0.086 C 
BRANCH   8  10
ATOM     10  N   UNL A   1      33.080  26.386  22.790  1.00  0.00    -0.316 N 
ATOM     11  C   UNL A   1      33.349  26.228  24.221  1.00  0.00     0.325 C 
ATOM     12  C   UNL A   1      32.219  25.347  22.219  1.00  0.00     0.325 C 
ATOM     13  H   UNL A   1      33.949  26.174  22.300  1.00  0.00     0.349 HD
ATOM     14  C   UNL A   1      32.189  25.665  25.075  1.00  0.00     0.324 C 
ATOM     15  C   UNL A   1      31.101  24.791  23.128  1.00  0.00     0.324 C 
ATOM     16  N   UNL A   1      31.504  24.497  24.514  1.00  0.00    -0.325 N 
ATOM     17  H   UNL A   1      30.675  24.363  25.093  1.00  0.00     0.348 HD
BRANCH  16  18
ATOM     18  C   UNL A   1      32.133  23.172  24.701  1.00  0.00     0.274 C 
BRANCH  18  19
ATOM     19  C   UNL A   1      33.386  22.992  25.581  1.00  0.00     0.116 C 
ATOM     20  C   UNL A   1      33.300  21.781  26.534  1.00  0.00     0.244 C 
ATOM     21  C   UNL A   1      34.658  22.618  24.891  1.00  0.00     0.006 A 
ATOM     22  O   UNL A   1      34.605  21.203  26.721  1.00  0.00    -0.492 OA
ATOM     23  C   UNL A   1      35.306  21.637  25.630  1.00  0.00     0.123 A 
ATOM     24  C   UNL A   1      35.288  23.191  23.798  1.00  0.00     0.008 A 
ATOM     25  C   UNL A   1      36.572  21.185  25.321  1.00  0.00     0.047 A 
ATOM     26  C   UNL A   1      36.572  22.746  23.462  1.00  0.00     0.001 A 
ATOM     27  C   UNL A   1      37.211  21.750  24.220  1.00  0.00     0.004 A 
ENDBRANCH  18  19
ENDBRANCH  16  18
ENDBRANCH   8  10
ENDBRANCH   5   8
ENDBRANCH   3   4
ENDBRANCH   2   3
ENDBRANCH   1   2
BRANCH   1  28
ATOM     28  C   UNL A   1      34.144  28.696  26.791  1.00  0.00     0.002 C 
BRANCH  28  29
ATOM     29  C   UNL A   1      35.202  29.295  27.721  1.00  0.00     0.021 C 
BRANCH  29  30
ATOM     30  C   UNL A   1      35.254  30.821  27.716  1.00  0.00     0.116 C 
BRANCH  30  31
ATOM     31  N   UNL A   1      35.045  31.375  29.046  1.00  0.00    -0.352 N 
ATOM     32  C   UNL A   1      35.816  31.249  30.174  1.00  0.00     0.251 C 
ATOM     33  H   UNL A   1      34.233  31.921  29.151  1.00  0.00     0.163 HD
ATOM     34  O   UNL A   1      35.367  31.601  31.263  1.00  0.00    -0.269 OA
BRANCH  32  35
ATOM     35  C   UNL A   1      37.171  30.668  30.078  1.00  0.00     0.039 A 
ATOM     36  C   UNL A   1      38.176  31.396  29.436  1.00  0.00     0.014 A 
ATOM     37  C   UNL A   1      37.456  29.415  30.633  1.00  0.00     0.014 A 
ATOM     38  C   UNL A   1      39.483  30.905  29.425  1.00  0.00     0.010 A 
ATOM     39  C   UNL A   1      38.771  28.961  30.679  1.00  0.00     0.010 A 
ATOM     40  C   UNL A   1      39.802  29.709  30.090  1.00  0.00    -0.014 A 
BRANCH  40  41
ATOM     41  C   UNL A   1      41.214  29.264  30.230  1.00  0.00     0.031 A 
ATOM     42  C   UNL A   1      41.757  28.157  29.367  1.00  0.00     0.074 A 
ATOM     43  C   UNL A   1      41.984  29.817  31.190  1.00  0.00     0.049 A 
ATOM     44  N   UNL A   1      42.937  27.593  29.397  1.00  0.00    -0.248 NA
ATOM     45  C   UNL A   1      40.852  27.598  28.350  1.00  0.00     0.031 C 
ATOM     46  C   UNL A   1      41.552  30.872  32.113  1.00  0.00     0.029 A 
ATOM     47  N   UNL A   1      43.283  29.570  31.562  1.00  0.00    -0.354 N 
ATOM     48  C   UNL A   1      42.914  26.607  28.417  1.00  0.00     0.074 A 
ATOM     49  C   UNL A   1      41.590  26.625  27.835  1.00  0.00     0.031 C 
ATOM     50  C   UNL A   1      42.571  31.190  32.928  1.00  0.00     0.029 A 
ATOM     51  C   UNL A   1      43.708  30.327  32.631  1.00  0.00     0.049 A 
ATOM     52  H   UNL A   1      43.856  28.911  31.107  1.00  0.00     0.167 HD
ATOM     53  C   UNL A   1      43.913  25.775  28.034  1.00  0.00     0.034 A 
ATOM     54  C   UNL A   1      44.871  30.309  33.315  1.00  0.00     0.034 A 
ATOM     55  C   UNL A   1      45.234  25.782  28.616  1.00  0.00     0.049 A 
ATOM     56  C   UNL A   1      45.948  29.341  32.887  1.00  0.00     0.074 A 
ATOM     57  C   UNL A   1      46.339  25.039  28.240  1.00  0.00     0.029 A 
ATOM     58  N   UNL A   1      45.625  26.552  29.703  1.00  0.00    -0.354 N 
ATOM     59  N   UNL A   1      45.935  28.476  31.899  1.00  0.00    -0.248 NA
ATOM     60  C   UNL A   1      47.197  29.351  33.659  1.00  0.00     0.031 C 
ATOM     61  C   UNL A   1      47.368  25.291  29.152  1.00  0.00     0.029 A 
ATOM     62  C   UNL A   1      46.938  26.260  30.044  1.00  0.00     0.049 A 
ATOM     63  H   UNL A   1      45.055  27.208  30.164  1.00  0.00     0.167 HD
ATOM     64  C   UNL A   1      47.184  27.860  31.920  1.00  0.00     0.074 A 
ATOM     65  C   UNL A   1      47.933  28.474  32.995  1.00  0.00     0.031 C 
ATOM     66  C   UNL A   1      47.668  26.871  31.127  1.00  0.00     0.034 A 
BRANCH  53  67
ATOM     67  C   UNL A   1      43.621  24.760  26.958  1.00  0.00     0.023 A 
ATOM     68  C   UNL A   1      42.853  23.610  27.205  1.00  0.00     0.031 A 
ATOM     69  C   UNL A   1      44.083  24.975  25.646  1.00  0.00     0.131 A 
ATOM     70  C   UNL A   1      42.597  22.702  26.165  1.00  0.00     0.055 A 
ATOM     71  C   UNL A   1      43.769  24.104  24.602  1.00  0.00     0.041 A 
ATOM     72  F   UNL A   1      44.841  26.045  25.356  1.00  0.00    -0.206 F 
ATOM     73  C   UNL A   1      43.027  22.955  24.860  1.00  0.00     0.022 A 
BRANCH  70  74
ATOM     74  S   UNL A   1      41.772  21.136  26.558  1.00  0.00     0.124 S 
ATOM     75  O   UNL A   1      42.365  20.234  25.574  1.00  0.00    -0.237 OA
ATOM     76  O   UNL A   1      42.162  20.913  27.945  1.00  0.00    -0.237 OA
ATOM     77  O   UNL A   1      40.356  21.432  26.347  1.00  0.00    -0.744 OA
ENDBRANCH  70  74
ENDBRANCH  53  67
BRANCH  54  78
ATOM     78  C   UNL A   1      45.078  31.192  34.503  1.00  0.00     0.023 A 
ATOM     79  C   UNL A   1      44.601  30.823  35.771  1.00  0.00     0.031 A 
ATOM     80  C   UNL A   1      45.671  32.461  34.370  1.00  0.00     0.131 A 
ATOM     81  C   UNL A   1      44.655  31.738  36.833  1.00  0.00     0.055 A 
ATOM     82  C   UNL A   1      45.789  33.339  35.448  1.00  0.00     0.041 A 
ATOM     83  F   UNL A   1      46.141  32.871  33.182  1.00  0.00    -0.206 F 
ATOM     84  C   UNL A   1      45.260  32.987  36.685  1.00  0.00     0.022 A 
BRANCH  81  85
ATOM     85  S   UNL A   1      43.789  31.327  38.374  1.00  0.00     0.124 S 
ATOM     86  O   UNL A   1      44.461  30.095  38.772  1.00  0.00    -0.237 OA
ATOM     87  O   UNL A   1      44.061  32.501  39.195  1.00  0.00    -0.237 OA
ATOM     88  O   UNL A   1      42.399  31.171  37.950  1.00  0.00    -0.744 OA
ENDBRANCH  81  85
ENDBRANCH  54  78
BRANCH  66  89
ATOM     89  C   UNL A   1      49.087  26.421  31.378  1.00  0.00     0.023 A 
ATOM     90  C   UNL A   1      49.374  25.308  32.188  1.00  0.00     0.031 A 
ATOM     91  C   UNL A   1      50.166  27.121  30.811  1.00  0.00     0.131 A 
ATOM     92  C   UNL A   1      50.707  24.962  32.455  1.00  0.00     0.055 A 
ATOM     93  C   UNL A   1      51.489  26.731  31.025  1.00  0.00     0.041 A 
ATOM     94  F   UNL A   1      49.953  28.195  30.034  1.00  0.00    -0.206 F 
ATOM     95  C   UNL A   1      51.766  25.655  31.862  1.00  0.00     0.022 A 
BRANCH  92  96
ATOM     96  S   UNL A   1      51.040  23.654  33.666  1.00  0.00     0.124 S 
ATOM     97  O   UNL A   1      50.865  22.448  32.865  1.00  0.00    -0.237 OA
ATOM     98  O   UNL A   1      52.407  23.952  34.080  1.00  0.00    -0.237 OA
ATOM     99  O   UNL A   1      50.022  23.871  34.693  1.00  0.00    -0.744 OA
ENDBRANCH  92  96
ENDBRANCH  66  89
ENDBRANCH  40  41
ENDBRANCH  32  35
ENDBRANCH  30  31
ENDBRANCH  29  30
ENDBRANCH  28  29
ENDBRANCH   1  28
TORSDOF 19
ENDMDL
