MODEL 1
REMARK VINA RESULT:     -10.1      0.000      0.000
REMARK SMILES CC(C)[C@@H]([NH3+])C(=O)N[C@@H](Cc1ccccc1)C(=O)NCCCCCCNC(=O)c1ccc(-c2c3nc(c(-c4cc(S(=O)(=O)[O-])ccc4F)c4ccc([nH]4)c(-c4cc(S(=O)(=O)[O-])ccc4F)c4nc(c(-c5cc(S(=O)(=O)[O-])ccc5F)c5ccc2[nH]5)C=C4)C=C3)cc1
REMARK SMILES IDX 22 1 21 2 20 3 19 4 17 5 18 6 9 8 8 9 6 10 7 11 4 13 2 14
REMARK SMILES IDX 1 15 3 16 5 17 10 21 11 22 12 23 16 24 13 25 15 26 14 27
REMARK SMILES IDX 23 28 24 29 25 30 26 31 27 32 28 34 29 35 30 36 91 37 31 38
REMARK SMILES IDX 90 39 32 40 33 41 34 42 84 43 35 44 89 45 83 46 85 47 36 48
REMARK SMILES IDX 88 49 82 50 81 51 37 53 69 54 49 55 68 56 50 57 53 58 67 59
REMARK SMILES IDX 86 60 51 61 52 62 66 64 87 65 54 66 38 67 39 68 47 69 40 70
REMARK SMILES IDX 46 71 48 72 45 73 41 74 42 75 43 76 44 77 70 78 71 79 79 80
REMARK SMILES IDX 72 81 78 82 80 83 77 84 73 85 74 86 75 87 76 88 55 89 56 90
REMARK SMILES IDX 64 91 57 92 63 93 65 94 62 95 58 96 59 97 60 98 61 99
REMARK H PARENT 19 7 8 12 5 18 5 19 5 20 26 33 85 52 53 63
REMARK Flexibility Score: inf
ROOT
ATOM      1  C   UNL A   1      38.352  23.869  26.564  1.00  0.00     0.002 C 
ENDROOT
BRANCH   1   2
ATOM      2  C   UNL A   1      37.214  23.083  25.906  1.00  0.00     0.021 C 
BRANCH   2   3
ATOM      3  C   UNL A   1      36.097  23.951  25.343  1.00  0.00     0.116 C 
BRANCH   3   4
ATOM      4  N   UNL A   1      35.726  23.620  23.984  1.00  0.00    -0.354 N 
ATOM      5  C   UNL A   1      34.681  22.865  23.535  1.00  0.00     0.242 C 
ATOM      6  O   UNL A   1      34.223  23.171  22.426  1.00  0.00    -0.273 OA
ATOM      7  H   UNL A   1      36.310  23.992  23.284  1.00  0.00     0.163 HD
BRANCH   5   8
ATOM      8  C   UNL A   1      33.989  21.769  24.384  1.00  0.00     0.175 C 
BRANCH   8   9
ATOM      9  N   UNL A   1      34.801  20.575  24.640  1.00  0.00    -0.339 N 
ATOM     10  C   UNL A   1      34.416  19.273  24.744  1.00  0.00     0.279 C 
ATOM     11  O   UNL A   1      35.286  18.403  24.649  1.00  0.00    -0.268 OA
ATOM     12  H   UNL A   1      35.766  20.739  24.752  1.00  0.00     0.164 HD
BRANCH  10  13
ATOM     13  C   UNL A   1      32.949  18.883  25.040  1.00  0.00     0.273 C 
BRANCH  13  14
ATOM     14  C   UNL A   1      32.432  17.810  24.047  1.00  0.00     0.051 C 
ATOM     15  C   UNL A   1      32.410  18.308  22.599  1.00  0.00     0.014 C 
ATOM     16  C   UNL A   1      33.280  16.532  24.129  1.00  0.00     0.014 C 
ENDBRANCH  13  14
BRANCH  13  17
ATOM     17  N   UNL A   1      32.818  18.497  26.458  1.00  0.00    -0.347 N 
ATOM     18  H   UNL A   1      31.833  18.515  26.726  1.00  0.00     0.345 HD
ATOM     19  H   UNL A   1      33.339  19.155  27.039  1.00  0.00     0.345 HD
ATOM     20  H   UNL A   1      33.190  17.557  26.591  1.00  0.00     0.345 HD
ENDBRANCH  13  17
ENDBRANCH  10  13
ENDBRANCH   8   9
BRANCH   8  21
ATOM     21  C   UNL A   1      33.271  22.308  25.639  1.00  0.00     0.070 C 
BRANCH  21  22
ATOM     22  C   UNL A   1      32.398  23.527  25.476  1.00  0.00    -0.045 A 
ATOM     23  C   UNL A   1      32.656  24.686  26.220  1.00  0.00     0.004 A 
ATOM     24  C   UNL A   1      31.325  23.527  24.574  1.00  0.00     0.004 A 
ATOM     25  C   UNL A   1      31.823  25.801  26.110  1.00  0.00     0.000 A 
ATOM     26  C   UNL A   1      30.504  24.651  24.451  1.00  0.00     0.000 A 
ATOM     27  C   UNL A   1      30.744  25.781  25.230  1.00  0.00     0.000 A 
ENDBRANCH  21  22
ENDBRANCH   8  21
ENDBRANCH   5   8
ENDBRANCH   3   4
ENDBRANCH   2   3
ENDBRANCH   1   2
BRANCH   1  28
ATOM     28  C   UNL A   1      39.652  23.090  26.816  1.00  0.00     0.002 C 
BRANCH  28  29
ATOM     29  C   UNL A   1      39.738  21.701  26.175  1.00  0.00     0.021 C 
BRANCH  29  30
ATOM     30  C   UNL A   1      40.592  20.687  26.927  1.00  0.00     0.116 C 
BRANCH  30  31
ATOM     31  N   UNL A   1      41.798  20.339  26.201  1.00  0.00    -0.352 N 
ATOM     32  C   UNL A   1      42.887  21.106  25.874  1.00  0.00     0.251 C 
ATOM     33  H   UNL A   1      41.842  19.405  25.893  1.00  0.00     0.163 HD
ATOM     34  O   UNL A   1      43.717  20.655  25.089  1.00  0.00    -0.269 OA
BRANCH  32  35
ATOM     35  C   UNL A   1      43.058  22.466  26.437  1.00  0.00     0.039 A 
ATOM     36  C   UNL A   1      43.014  23.555  25.563  1.00  0.00     0.014 A 
ATOM     37  C   UNL A   1      43.305  22.679  27.797  1.00  0.00     0.014 A 
ATOM     38  C   UNL A   1      43.178  24.850  26.054  1.00  0.00     0.010 A 
ATOM     39  C   UNL A   1      43.387  23.978  28.300  1.00  0.00     0.010 A 
ATOM     40  C   UNL A   1      43.340  25.078  27.431  1.00  0.00    -0.014 A 
BRANCH  40  41
ATOM     41  C   UNL A   1      43.471  26.463  27.956  1.00  0.00     0.031 A 
ATOM     42  C   UNL A   1      44.816  27.139  28.003  1.00  0.00     0.074 A 
ATOM     43  C   UNL A   1      42.374  27.106  28.403  1.00  0.00     0.049 A 
ATOM     44  N   UNL A   1      45.121  28.348  28.400  1.00  0.00    -0.248 NA
ATOM     45  C   UNL A   1      45.974  26.341  27.572  1.00  0.00     0.031 C 
ATOM     46  C   UNL A   1      41.026  26.534  28.456  1.00  0.00     0.029 A 
ATOM     47  N   UNL A   1      42.211  28.379  28.888  1.00  0.00    -0.354 N 
ATOM     48  C   UNL A   1      46.502  28.456  28.271  1.00  0.00     0.074 A 
ATOM     49  C   UNL A   1      46.980  27.164  27.826  1.00  0.00     0.031 C 
ATOM     50  C   UNL A   1      40.171  27.466  28.903  1.00  0.00     0.029 A 
ATOM     51  C   UNL A   1      40.909  28.686  29.209  1.00  0.00     0.049 A 
ATOM     52  H   UNL A   1      42.957  29.013  28.997  1.00  0.00     0.167 HD
ATOM     53  C   UNL A   1      47.294  29.538  28.477  1.00  0.00     0.034 A 
ATOM     54  C   UNL A   1      40.370  29.823  29.692  1.00  0.00     0.034 A 
ATOM     55  C   UNL A   1      46.796  30.821  28.915  1.00  0.00     0.049 A 
ATOM     56  C   UNL A   1      41.271  31.010  29.920  1.00  0.00     0.074 A 
ATOM     57  C   UNL A   1      47.498  31.998  29.110  1.00  0.00     0.029 A 
ATOM     58  N   UNL A   1      45.472  31.094  29.237  1.00  0.00    -0.354 N 
ATOM     59  N   UNL A   1      42.567  31.114  29.732  1.00  0.00    -0.248 NA
ATOM     60  C   UNL A   1      40.631  32.238  30.407  1.00  0.00     0.031 C 
ATOM     61  C   UNL A   1      46.615  32.959  29.617  1.00  0.00     0.029 A 
ATOM     62  C   UNL A   1      45.343  32.410  29.658  1.00  0.00     0.049 A 
ATOM     63  H   UNL A   1      44.733  30.447  29.176  1.00  0.00     0.167 HD
ATOM     64  C   UNL A   1      42.890  32.430  30.050  1.00  0.00     0.074 A 
ATOM     65  C   UNL A   1      41.651  33.083  30.417  1.00  0.00     0.031 C 
ATOM     66  C   UNL A   1      44.103  33.045  30.039  1.00  0.00     0.034 A 
BRANCH  53  67
ATOM     67  C   UNL A   1      48.780  29.368  28.253  1.00  0.00     0.023 A 
ATOM     68  C   UNL A   1      49.348  29.441  26.968  1.00  0.00     0.031 A 
ATOM     69  C   UNL A   1      49.640  29.106  29.333  1.00  0.00     0.131 A 
ATOM     70  C   UNL A   1      50.714  29.176  26.787  1.00  0.00     0.055 A 
ATOM     71  C   UNL A   1      51.014  28.928  29.157  1.00  0.00     0.041 A 
ATOM     72  F   UNL A   1      49.158  29.002  30.582  1.00  0.00    -0.206 F 
ATOM     73  C   UNL A   1      51.557  28.947  27.876  1.00  0.00     0.022 A 
BRANCH  70  74
ATOM     74  S   UNL A   1      51.345  28.987  25.097  1.00  0.00     0.124 S 
ATOM     75  O   UNL A   1      52.494  28.111  25.308  1.00  0.00    -0.237 OA
ATOM     76  O   UNL A   1      50.209  28.395  24.400  1.00  0.00    -0.237 OA
ATOM     77  O   UNL A   1      51.678  30.353  24.700  1.00  0.00    -0.744 OA
ENDBRANCH  70  74
ENDBRANCH  53  67
BRANCH  54  78
ATOM     78  C   UNL A   1      38.910  29.901  29.987  1.00  0.00     0.023 A 
ATOM     79  C   UNL A   1      38.019  30.506  29.086  1.00  0.00     0.031 A 
ATOM     80  C   UNL A   1      38.389  29.406  31.196  1.00  0.00     0.131 A 
ATOM     81  C   UNL A   1      36.664  30.646  29.429  1.00  0.00     0.055 A 
ATOM     82  C   UNL A   1      37.031  29.496  31.507  1.00  0.00     0.041 A 
ATOM     83  F   UNL A   1      39.196  28.813  32.090  1.00  0.00    -0.206 F 
ATOM     84  C   UNL A   1      36.162  30.132  30.627  1.00  0.00     0.022 A 
BRANCH  81  85
ATOM     85  S   UNL A   1      35.580  31.591  28.323  1.00  0.00     0.124 S 
ATOM     86  O   UNL A   1      36.461  32.673  27.899  1.00  0.00    -0.237 OA
ATOM     87  O   UNL A   1      35.246  30.599  27.307  1.00  0.00    -0.237 OA
ATOM     88  O   UNL A   1      34.474  31.989  29.190  1.00  0.00    -0.744 OA
ENDBRANCH  81  85
ENDBRANCH  54  78
BRANCH  66  89
ATOM     89  C   UNL A   1      44.126  34.512  30.399  1.00  0.00     0.023 A 
ATOM     90  C   UNL A   1      44.096  34.947  31.735  1.00  0.00     0.031 A 
ATOM     91  C   UNL A   1      44.144  35.489  29.387  1.00  0.00     0.131 A 
ATOM     92  C   UNL A   1      44.007  36.317  32.023  1.00  0.00     0.055 A 
ATOM     93  C   UNL A   1      44.130  36.852  29.682  1.00  0.00     0.041 A 
ATOM     94  F   UNL A   1      44.171  35.133  28.093  1.00  0.00    -0.206 F 
ATOM     95  C   UNL A   1      44.042  37.274  31.005  1.00  0.00     0.022 A 
BRANCH  92  96
ATOM     96  S   UNL A   1      43.721  36.828  33.740  1.00  0.00     0.124 S 
ATOM     97  O   UNL A   1      43.254  38.200  33.574  1.00  0.00    -0.237 OA
ATOM     98  O   UNL A   1      42.722  35.865  34.189  1.00  0.00    -0.237 OA
ATOM     99  O   UNL A   1      45.037  36.692  34.363  1.00  0.00    -0.744 OA
ENDBRANCH  92  96
ENDBRANCH  66  89
ENDBRANCH  40  41
ENDBRANCH  32  35
ENDBRANCH  30  31
ENDBRANCH  29  30
ENDBRANCH  28  29
ENDBRANCH   1  28
TORSDOF 22
ENDMDL
MODEL 2
REMARK VINA RESULT:     -10.1      2.698      4.119
REMARK SMILES CC(C)[C@@H]([NH3+])C(=O)N[C@@H](Cc1ccccc1)C(=O)NCCCCCCNC(=O)c1ccc(-c2c3nc(c(-c4cc(S(=O)(=O)[O-])ccc4F)c4ccc([nH]4)c(-c4cc(S(=O)(=O)[O-])ccc4F)c4nc(c(-c5cc(S(=O)(=O)[O-])ccc5F)c5ccc2[nH]5)C=C4)C=C3)cc1
REMARK SMILES IDX 22 1 21 2 20 3 19 4 17 5 18 6 9 8 8 9 6 10 7 11 4 13 2 14
REMARK SMILES IDX 1 15 3 16 5 17 10 21 11 22 12 23 16 24 13 25 15 26 14 27
REMARK SMILES IDX 23 28 24 29 25 30 26 31 27 32 28 34 29 35 30 36 91 37 31 38
REMARK SMILES IDX 90 39 32 40 33 41 34 42 84 43 35 44 89 45 83 46 85 47 36 48
REMARK SMILES IDX 88 49 82 50 81 51 37 53 69 54 49 55 68 56 50 57 53 58 67 59
REMARK SMILES IDX 86 60 51 61 52 62 66 64 87 65 54 66 38 67 39 68 47 69 40 70
REMARK SMILES IDX 46 71 48 72 45 73 41 74 42 75 43 76 44 77 70 78 71 79 79 80
REMARK SMILES IDX 72 81 78 82 80 83 77 84 73 85 74 86 75 87 76 88 55 89 56 90
REMARK SMILES IDX 64 91 57 92 63 93 65 94 62 95 58 96 59 97 60 98 61 99
REMARK H PARENT 19 7 8 12 5 18 5 19 5 20 26 33 85 52 53 63
REMARK Flexibility Score: inf
ROOT
ATOM      1  C   UNL A   1      37.295  22.290  24.870  1.00  0.00     0.002 C 
ENDROOT
BRANCH   1   2
ATOM      2  C   UNL A   1      36.935  23.778  24.919  1.00  0.00     0.021 C 
BRANCH   2   3
ATOM      3  C   UNL A   1      35.514  24.064  25.383  1.00  0.00     0.116 C 
BRANCH   3   4
ATOM      4  N   UNL A   1      35.023  23.133  26.376  1.00  0.00    -0.354 N 
ATOM      5  C   UNL A   1      34.160  22.087  26.224  1.00  0.00     0.242 C 
ATOM      6  O   UNL A   1      34.321  21.129  26.993  1.00  0.00    -0.273 OA
ATOM      7  H   UNL A   1      35.359  23.274  27.291  1.00  0.00     0.163 HD
BRANCH   5   8
ATOM      8  C   UNL A   1      33.115  21.997  25.084  1.00  0.00     0.175 C 
BRANCH   8   9
ATOM      9  N   UNL A   1      33.640  22.247  23.737  1.00  0.00    -0.339 N 
ATOM     10  C   UNL A   1      33.476  23.333  22.933  1.00  0.00     0.279 C 
ATOM     11  O   UNL A   1      34.250  23.471  21.982  1.00  0.00    -0.268 OA
ATOM     12  H   UNL A   1      34.193  21.524  23.360  1.00  0.00     0.164 HD
BRANCH  10  13
ATOM     13  C   UNL A   1      32.317  24.336  23.150  1.00  0.00     0.273 C 
BRANCH  13  14
ATOM     14  C   UNL A   1      32.613  25.704  22.483  1.00  0.00     0.051 C 
ATOM     15  C   UNL A   1      31.342  26.510  22.204  1.00  0.00     0.014 C 
ATOM     16  C   UNL A   1      33.563  26.543  23.351  1.00  0.00     0.014 C 
ENDBRANCH  13  14
BRANCH  13  17
ATOM     17  N   UNL A   1      31.047  23.721  22.718  1.00  0.00    -0.347 N 
ATOM     18  H   UNL A   1      31.007  23.704  21.698  1.00  0.00     0.345 HD
ATOM     19  H   UNL A   1      30.264  24.268  23.078  1.00  0.00     0.345 HD
ATOM     20  H   UNL A   1      30.990  22.769  23.077  1.00  0.00     0.345 HD
ENDBRANCH  13  17
ENDBRANCH  10  13
ENDBRANCH   8   9
BRANCH   8  21
ATOM     21  C   UNL A   1      32.198  20.759  25.169  1.00  0.00     0.070 C 
BRANCH  21  22
ATOM     22  C   UNL A   1      32.607  19.531  24.394  1.00  0.00    -0.045 A 
ATOM     23  C   UNL A   1      32.182  19.357  23.070  1.00  0.00     0.004 A 
ATOM     24  C   UNL A   1      33.423  18.553  24.977  1.00  0.00     0.004 A 
ATOM     25  C   UNL A   1      32.516  18.201  22.363  1.00  0.00     0.000 A 
ATOM     26  C   UNL A   1      33.773  17.405  24.261  1.00  0.00     0.000 A 
ATOM     27  C   UNL A   1      33.306  17.222  22.961  1.00  0.00     0.000 A 
ENDBRANCH  21  22
ENDBRANCH   8  21
ENDBRANCH   5   8
ENDBRANCH   3   4
ENDBRANCH   2   3
ENDBRANCH   1   2
BRANCH   1  28
ATOM     28  C   UNL A   1      38.529  21.867  25.681  1.00  0.00     0.002 C 
BRANCH  28  29
ATOM     29  C   UNL A   1      39.043  20.445  25.432  1.00  0.00     0.021 C 
BRANCH  29  30
ATOM     30  C   UNL A   1      39.921  19.866  26.535  1.00  0.00     0.116 C 
BRANCH  30  31
ATOM     31  N   UNL A   1      41.101  19.207  26.008  1.00  0.00    -0.352 N 
ATOM     32  C   UNL A   1      42.334  19.718  25.693  1.00  0.00     0.251 C 
ATOM     33  H   UNL A   1      41.000  18.241  25.851  1.00  0.00     0.163 HD
ATOM     34  O   UNL A   1      43.131  19.011  25.081  1.00  0.00    -0.269 OA
BRANCH  32  35
ATOM     35  C   UNL A   1      42.701  21.105  26.060  1.00  0.00     0.039 A 
ATOM     36  C   UNL A   1      42.695  21.455  27.414  1.00  0.00     0.014 A 
ATOM     37  C   UNL A   1      43.005  22.072  25.096  1.00  0.00     0.014 A 
ATOM     38  C   UNL A   1      43.028  22.755  27.799  1.00  0.00     0.010 A 
ATOM     39  C   UNL A   1      43.416  23.346  25.486  1.00  0.00     0.010 A 
ATOM     40  C   UNL A   1      43.417  23.707  26.842  1.00  0.00    -0.014 A 
BRANCH  40  41
ATOM     41  C   UNL A   1      43.813  25.078  27.261  1.00  0.00     0.031 A 
ATOM     42  C   UNL A   1      45.249  25.522  27.162  1.00  0.00     0.074 A 
ATOM     43  C   UNL A   1      42.876  25.916  27.746  1.00  0.00     0.049 A 
ATOM     44  N   UNL A   1      45.776  26.685  27.453  1.00  0.00    -0.248 NA
ATOM     45  C   UNL A   1      46.222  24.522  26.699  1.00  0.00     0.031 C 
ATOM     46  C   UNL A   1      41.463  25.579  27.938  1.00  0.00     0.029 A 
ATOM     47  N   UNL A   1      42.961  27.223  28.155  1.00  0.00    -0.354 N 
ATOM     48  C   UNL A   1      47.141  26.554  27.214  1.00  0.00     0.074 A 
ATOM     49  C   UNL A   1      47.365  25.180  26.822  1.00  0.00     0.031 C 
ATOM     50  C   UNL A   1      40.810  26.663  28.384  1.00  0.00     0.029 A 
ATOM     51  C   UNL A   1      41.758  27.758  28.552  1.00  0.00     0.049 A 
ATOM     52  H   UNL A   1      43.806  27.730  28.165  1.00  0.00     0.167 HD
ATOM     53  C   UNL A   1      48.111  27.501  27.287  1.00  0.00     0.034 A 
ATOM     54  C   UNL A   1      41.452  28.993  28.997  1.00  0.00     0.034 A 
ATOM     55  C   UNL A   1      47.865  28.870  27.675  1.00  0.00     0.049 A 
ATOM     56  C   UNL A   1      42.547  30.025  29.077  1.00  0.00     0.074 A 
ATOM     57  C   UNL A   1      48.761  29.923  27.737  1.00  0.00     0.029 A 
ATOM     58  N   UNL A   1      46.634  29.375  28.076  1.00  0.00    -0.354 N 
ATOM     59  N   UNL A   1      43.822  29.902  28.786  1.00  0.00    -0.248 NA
ATOM     60  C   UNL A   1      42.157  31.366  29.527  1.00  0.00     0.031 C 
ATOM     61  C   UNL A   1      48.090  31.042  28.243  1.00  0.00     0.029 A 
ATOM     62  C   UNL A   1      46.755  30.715  28.417  1.00  0.00     0.049 A 
ATOM     63  H   UNL A   1      45.798  28.857  28.114  1.00  0.00     0.167 HD
ATOM     64  C   UNL A   1      44.379  31.162  28.990  1.00  0.00     0.074 A 
ATOM     65  C   UNL A   1      43.297  32.030  29.404  1.00  0.00     0.031 C 
ATOM     66  C   UNL A   1      45.670  31.566  28.846  1.00  0.00     0.034 A 
BRANCH  53  67
ATOM     67  C   UNL A   1      49.526  27.075  26.964  1.00  0.00     0.023 A 
ATOM     68  C   UNL A   1      50.135  27.399  25.738  1.00  0.00     0.031 A 
ATOM     69  C   UNL A   1      50.271  26.315  27.883  1.00  0.00     0.131 A 
ATOM     70  C   UNL A   1      51.409  26.899  25.432  1.00  0.00     0.055 A 
ATOM     71  C   UNL A   1      51.574  25.894  27.607  1.00  0.00     0.041 A 
ATOM     72  F   UNL A   1      49.740  25.954  29.062  1.00  0.00    -0.206 F 
ATOM     73  C   UNL A   1      52.145  26.171  26.370  1.00  0.00     0.022 A 
BRANCH  70  74
ATOM     74  S   UNL A   1      52.032  27.087  23.739  1.00  0.00     0.124 S 
ATOM     75  O   UNL A   1      52.655  28.407  23.799  1.00  0.00    -0.237 OA
ATOM     76  O   UNL A   1      52.943  25.955  23.610  1.00  0.00    -0.237 OA
ATOM     77  O   UNL A   1      50.825  27.014  22.918  1.00  0.00    -0.744 OA
ENDBRANCH  70  74
ENDBRANCH  53  67
BRANCH  54  78
ATOM     78  C   UNL A   1      40.053  29.328  29.395  1.00  0.00     0.023 A 
ATOM     79  C   UNL A   1      39.685  29.418  30.747  1.00  0.00     0.031 A 
ATOM     80  C   UNL A   1      39.054  29.525  28.426  1.00  0.00     0.131 A 
ATOM     81  C   UNL A   1      38.344  29.646  31.093  1.00  0.00     0.055 A 
ATOM     82  C   UNL A   1      37.732  29.809  28.775  1.00  0.00     0.041 A 
ATOM     83  F   UNL A   1      39.352  29.456  27.119  1.00  0.00    -0.206 F 
ATOM     84  C   UNL A   1      37.368  29.856  30.117  1.00  0.00     0.022 A 
BRANCH  81  85
ATOM     85  S   UNL A   1      37.874  29.576  32.844  1.00  0.00     0.124 S 
ATOM     86  O   UNL A   1      36.810  30.572  32.906  1.00  0.00    -0.237 OA
ATOM     87  O   UNL A   1      37.461  28.184  32.990  1.00  0.00    -0.237 OA
ATOM     88  O   UNL A   1      39.107  29.935  33.541  1.00  0.00    -0.744 OA
ENDBRANCH  81  85
ENDBRANCH  54  78
BRANCH  66  89
ATOM     89  C   UNL A   1      45.958  33.026  29.104  1.00  0.00     0.023 A 
ATOM     90  C   UNL A   1      45.882  33.988  28.082  1.00  0.00     0.031 A 
ATOM     91  C   UNL A   1      46.348  33.455  30.386  1.00  0.00     0.131 A 
ATOM     92  C   UNL A   1      46.264  35.313  28.338  1.00  0.00     0.055 A 
ATOM     93  C   UNL A   1      46.657  34.789  30.652  1.00  0.00     0.041 A 
ATOM     94  F   UNL A   1      46.441  32.581  31.401  1.00  0.00    -0.206 F 
ATOM     95  C   UNL A   1      46.634  35.724  29.622  1.00  0.00     0.022 A 
BRANCH  92  96
ATOM     96  S   UNL A   1      46.391  36.467  26.944  1.00  0.00     0.124 S 
ATOM     97  O   UNL A   1      45.231  37.326  27.155  1.00  0.00    -0.237 OA
ATOM     98  O   UNL A   1      47.692  37.086  27.170  1.00  0.00    -0.237 OA
ATOM     99  O   UNL A   1      46.314  35.597  25.771  1.00  0.00    -0.744 OA
ENDBRANCH  92  96
ENDBRANCH  66  89
ENDBRANCH  40  41
ENDBRANCH  32  35
ENDBRANCH  30  31
ENDBRANCH  29  30
ENDBRANCH  28  29
ENDBRANCH   1  28
TORSDOF 22
ENDMDL
MODEL 3
REMARK VINA RESULT:     -10.0      3.158      8.372
REMARK SMILES CC(C)[C@@H]([NH3+])C(=O)N[C@@H](Cc1ccccc1)C(=O)NCCCCCCNC(=O)c1ccc(-c2c3nc(c(-c4cc(S(=O)(=O)[O-])ccc4F)c4ccc([nH]4)c(-c4cc(S(=O)(=O)[O-])ccc4F)c4nc(c(-c5cc(S(=O)(=O)[O-])ccc5F)c5ccc2[nH]5)C=C4)C=C3)cc1
REMARK SMILES IDX 22 1 21 2 20 3 19 4 17 5 18 6 9 8 8 9 6 10 7 11 4 13 2 14
REMARK SMILES IDX 1 15 3 16 5 17 10 21 11 22 12 23 16 24 13 25 15 26 14 27
REMARK SMILES IDX 23 28 24 29 25 30 26 31 27 32 28 34 29 35 30 36 91 37 31 38
REMARK SMILES IDX 90 39 32 40 33 41 34 42 84 43 35 44 89 45 83 46 85 47 36 48
REMARK SMILES IDX 88 49 82 50 81 51 37 53 69 54 49 55 68 56 50 57 53 58 67 59
REMARK SMILES IDX 86 60 51 61 52 62 66 64 87 65 54 66 38 67 39 68 47 69 40 70
REMARK SMILES IDX 46 71 48 72 45 73 41 74 42 75 43 76 44 77 70 78 71 79 79 80
REMARK SMILES IDX 72 81 78 82 80 83 77 84 73 85 74 86 75 87 76 88 55 89 56 90
REMARK SMILES IDX 64 91 57 92 63 93 65 94 62 95 58 96 59 97 60 98 61 99
REMARK H PARENT 19 7 8 12 5 18 5 19 5 20 26 33 85 52 53 63
REMARK Flexibility Score: inf
ROOT
ATOM      1  C   UNL A   1      36.573  21.644  24.681  1.00  0.00     0.002 C 
ENDROOT
BRANCH   1   2
ATOM      2  C   UNL A   1      35.946  23.028  24.484  1.00  0.00     0.021 C 
BRANCH   2   3
ATOM      3  C   UNL A   1      34.563  23.005  23.850  1.00  0.00     0.116 C 
BRANCH   3   4
ATOM      4  N   UNL A   1      34.395  23.959  22.775  1.00  0.00    -0.354 N 
ATOM      5  C   UNL A   1      33.525  25.005  22.680  1.00  0.00     0.242 C 
ATOM      6  O   UNL A   1      33.910  25.978  22.016  1.00  0.00    -0.273 OA
ATOM      7  H   UNL A   1      34.994  23.835  22.003  1.00  0.00     0.163 HD
BRANCH   5   8
ATOM      8  C   UNL A   1      32.182  25.075  23.449  1.00  0.00     0.175 C 
BRANCH   8   9
ATOM      9  N   UNL A   1      32.237  25.784  24.733  1.00  0.00    -0.339 N 
ATOM     10  C   UNL A   1      31.621  25.489  25.910  1.00  0.00     0.279 C 
ATOM     11  O   UNL A   1      32.045  26.028  26.936  1.00  0.00    -0.268 OA
ATOM     12  H   UNL A   1      32.803  26.590  24.744  1.00  0.00     0.164 HD
BRANCH  10  13
ATOM     13  C   UNL A   1      30.383  24.562  25.968  1.00  0.00     0.273 C 
BRANCH  13  14
ATOM     14  C   UNL A   1      30.691  23.244  26.725  1.00  0.00     0.051 C 
ATOM     15  C   UNL A   1      29.438  22.603  27.327  1.00  0.00     0.014 C 
ATOM     16  C   UNL A   1      31.383  22.230  25.803  1.00  0.00     0.014 C 
ENDBRANCH  13  14
BRANCH  13  17
ATOM     17  N   UNL A   1      29.233  25.309  26.512  1.00  0.00    -0.347 N 
ATOM     18  H   UNL A   1      29.427  26.310  26.471  1.00  0.00     0.345 HD
ATOM     19  H   UNL A   1      29.076  25.034  27.482  1.00  0.00     0.345 HD
ATOM     20  H   UNL A   1      28.400  25.101  25.961  1.00  0.00     0.345 HD
ENDBRANCH  13  17
ENDBRANCH  10  13
ENDBRANCH   8   9
BRANCH   8  21
ATOM     21  C   UNL A   1      30.977  25.477  22.573  1.00  0.00     0.070 C 
BRANCH  21  22
ATOM     22  C   UNL A   1      30.413  26.865  22.753  1.00  0.00    -0.045 A 
ATOM     23  C   UNL A   1      31.150  27.985  22.344  1.00  0.00     0.004 A 
ATOM     24  C   UNL A   1      29.146  27.058  23.320  1.00  0.00     0.004 A 
ATOM     25  C   UNL A   1      30.655  29.274  22.552  1.00  0.00     0.000 A 
ATOM     26  C   UNL A   1      28.645  28.348  23.508  1.00  0.00     0.000 A 
ATOM     27  C   UNL A   1      29.406  29.455  23.139  1.00  0.00     0.000 A 
ENDBRANCH  21  22
ENDBRANCH   8  21
ENDBRANCH   5   8
ENDBRANCH   3   4
ENDBRANCH   2   3
ENDBRANCH   1   2
BRANCH   1  28
ATOM     28  C   UNL A   1      37.959  21.619  25.345  1.00  0.00     0.002 C 
BRANCH  28  29
ATOM     29  C   UNL A   1      38.704  20.281  25.296  1.00  0.00     0.021 C 
BRANCH  29  30
ATOM     30  C   UNL A   1      39.616  19.999  26.484  1.00  0.00     0.116 C 
BRANCH  30  31
ATOM     31  N   UNL A   1      40.759  19.185  26.118  1.00  0.00    -0.352 N 
ATOM     32  C   UNL A   1      42.062  19.543  25.885  1.00  0.00     0.251 C 
ATOM     33  H   UNL A   1      40.570  18.224  26.020  1.00  0.00     0.163 HD
ATOM     34  O   UNL A   1      42.829  18.713  25.402  1.00  0.00    -0.269 OA
BRANCH  32  35
ATOM     35  C   UNL A   1      42.543  20.912  26.188  1.00  0.00     0.039 A 
ATOM     36  C   UNL A   1      42.748  21.792  25.121  1.00  0.00     0.014 A 
ATOM     37  C   UNL A   1      42.834  21.324  27.492  1.00  0.00     0.014 A 
ATOM     38  C   UNL A   1      43.206  23.087  25.366  1.00  0.00     0.010 A 
ATOM     39  C   UNL A   1      43.214  22.642  27.743  1.00  0.00     0.010 A 
ATOM     40  C   UNL A   1      43.419  23.535  26.681  1.00  0.00    -0.014 A 
BRANCH  40  41
ATOM     41  C   UNL A   1      43.866  24.929  26.939  1.00  0.00     0.031 A 
ATOM     42  C   UNL A   1      42.909  25.946  27.503  1.00  0.00     0.074 A 
ATOM     43  C   UNL A   1      45.134  25.281  26.648  1.00  0.00     0.049 A 
ATOM     44  N   UNL A   1      43.124  27.198  27.819  1.00  0.00    -0.248 NA
ATOM     45  C   UNL A   1      41.522  25.505  27.717  1.00  0.00     0.031 C 
ATOM     46  C   UNL A   1      46.136  24.396  26.049  1.00  0.00     0.029 A 
ATOM     47  N   UNL A   1      45.803  26.465  26.825  1.00  0.00    -0.354 N 
ATOM     48  C   UNL A   1      41.902  27.695  28.263  1.00  0.00     0.074 A 
ATOM     49  C   UNL A   1      40.938  26.627  28.108  1.00  0.00     0.031 C 
ATOM     50  C   UNL A   1      47.301  25.055  25.949  1.00  0.00     0.029 A 
ATOM     51  C   UNL A   1      47.122  26.419  26.436  1.00  0.00     0.049 A 
ATOM     52  H   UNL A   1      45.379  27.273  27.194  1.00  0.00     0.167 HD
ATOM     53  C   UNL A   1      41.618  28.917  28.779  1.00  0.00     0.034 A 
ATOM     54  C   UNL A   1      48.080  27.366  26.471  1.00  0.00     0.034 A 
ATOM     55  C   UNL A   1      42.597  29.968  28.931  1.00  0.00     0.049 A 
ATOM     56  C   UNL A   1      47.739  28.719  27.040  1.00  0.00     0.074 A 
ATOM     57  C   UNL A   1      42.433  31.227  29.484  1.00  0.00     0.029 A 
ATOM     58  N   UNL A   1      43.923  29.888  28.520  1.00  0.00    -0.354 N 
ATOM     59  N   UNL A   1      46.594  29.152  27.516  1.00  0.00    -0.248 NA
ATOM     60  C   UNL A   1      48.826  29.703  27.096  1.00  0.00     0.031 C 
ATOM     61  C   UNL A   1      43.635  31.930  29.342  1.00  0.00     0.029 A 
ATOM     62  C   UNL A   1      44.577  31.083  28.779  1.00  0.00     0.049 A 
ATOM     63  H   UNL A   1      44.336  29.097  28.105  1.00  0.00     0.167 HD
ATOM     64  C   UNL A   1      46.833  30.451  27.954  1.00  0.00     0.074 A 
ATOM     65  C   UNL A   1      48.235  30.718  27.708  1.00  0.00     0.031 C 
ATOM     66  C   UNL A   1      45.973  31.344  28.512  1.00  0.00     0.034 A 
BRANCH  53  67
ATOM     67  C   UNL A   1      40.187  29.186  29.189  1.00  0.00     0.023 A 
ATOM     68  C   UNL A   1      39.790  29.175  30.539  1.00  0.00     0.031 A 
ATOM     69  C   UNL A   1      39.200  29.433  28.220  1.00  0.00     0.131 A 
ATOM     70  C   UNL A   1      38.437  29.325  30.875  1.00  0.00     0.055 A 
ATOM     71  C   UNL A   1      37.867  29.668  28.567  1.00  0.00     0.041 A 
ATOM     72  F   UNL A   1      39.509  29.435  26.913  1.00  0.00    -0.206 F 
ATOM     73  C   UNL A   1      37.475  29.600  29.900  1.00  0.00     0.022 A 
BRANCH  70  74
ATOM     74  S   UNL A   1      37.927  29.010  32.587  1.00  0.00     0.124 S 
ATOM     75  O   UNL A   1      38.051  27.557  32.668  1.00  0.00    -0.237 OA
ATOM     76  O   UNL A   1      38.901  29.779  33.353  1.00  0.00    -0.237 OA
ATOM     77  O   UNL A   1      36.555  29.513  32.635  1.00  0.00    -0.744 OA
ENDBRANCH  70  74
ENDBRANCH  53  67
BRANCH  54  78
ATOM     78  C   UNL A   1      49.451  27.073  25.960  1.00  0.00     0.023 A 
ATOM     79  C   UNL A   1      49.837  27.444  24.662  1.00  0.00     0.031 A 
ATOM     80  C   UNL A   1      50.385  26.382  26.752  1.00  0.00     0.131 A 
ATOM     81  C   UNL A   1      51.102  27.078  24.176  1.00  0.00     0.055 A 
ATOM     82  C   UNL A   1      51.663  26.070  26.284  1.00  0.00     0.041 A 
ATOM     83  F   UNL A   1      50.071  26.009  28.002  1.00  0.00    -0.206 F 
ATOM     84  C   UNL A   1      52.023  26.406  24.983  1.00  0.00     0.022 A 
BRANCH  81  85
ATOM     85  S   UNL A   1      51.497  27.414  22.437  1.00  0.00     0.124 S 
ATOM     86  O   UNL A   1      50.185  27.302  21.809  1.00  0.00    -0.237 OA
ATOM     87  O   UNL A   1      52.062  28.757  22.510  1.00  0.00    -0.237 OA
ATOM     88  O   UNL A   1      52.447  26.358  22.094  1.00  0.00    -0.744 OA
ENDBRANCH  81  85
ENDBRANCH  54  78
BRANCH  66  89
ATOM     89  C   UNL A   1      46.549  32.677  28.927  1.00  0.00     0.023 A 
ATOM     90  C   UNL A   1      46.552  33.785  28.061  1.00  0.00     0.031 A 
ATOM     91  C   UNL A   1      47.133  32.831  30.197  1.00  0.00     0.131 A 
ATOM     92  C   UNL A   1      47.195  34.970  28.445  1.00  0.00     0.055 A 
ATOM     93  C   UNL A   1      47.707  34.037  30.601  1.00  0.00     0.041 A 
ATOM     94  F   UNL A   1      47.161  31.808  31.066  1.00  0.00    -0.206 F 
ATOM     95  C   UNL A   1      47.757  35.110  29.717  1.00  0.00     0.022 A 
BRANCH  92  96
ATOM     96  S   UNL A   1      47.396  36.288  27.214  1.00  0.00     0.124 S 
ATOM     97  O   UNL A   1      46.040  36.426  26.694  1.00  0.00    -0.237 OA
ATOM     98  O   UNL A   1      47.883  37.399  28.025  1.00  0.00    -0.237 OA
ATOM     99  O   UNL A   1      48.368  35.734  26.274  1.00  0.00    -0.744 OA
ENDBRANCH  92  96
ENDBRANCH  66  89
ENDBRANCH  40  41
ENDBRANCH  32  35
ENDBRANCH  30  31
ENDBRANCH  29  30
ENDBRANCH  28  29
ENDBRANCH   1  28
TORSDOF 22
ENDMDL
