MODEL 1
REMARK VINA RESULT:     -11.0      0.000      0.000
REMARK SMILES C[C@@H]1[C@H](C(=O)NCCCCCCNC(=O)c2ccc(-c3c4nc(c(-c5cc(S(=O)(=O)[O-])ccc5F)c5ccc([nH]5)c(-c5cc(S(=O)(=O)[O-])ccc5F)c5nc(c(-c6cc(S(=O)(=O)[O-])ccc6F)c6ccc3[nH]6)C=C5)C=C4)cc2)CC[N@@H+]1CCOc1c(Cl)cccc1Cl
REMARK SMILES IDX 9 1 8 2 7 3 6 4 4 5 5 6 3 8 1 9 2 10 81 11 79 12 80 13 82 15
REMARK SMILES IDX 83 16 84 17 85 18 86 19 91 20 87 21 88 22 90 23 92 24 89 25
REMARK SMILES IDX 10 26 11 27 12 28 13 29 14 30 15 32 16 33 17 34 78 35 18 36
REMARK SMILES IDX 77 37 19 38 20 39 21 40 71 41 22 42 76 43 70 44 72 45 23 46
REMARK SMILES IDX 75 47 69 48 68 49 24 51 56 52 36 53 55 54 37 55 40 56 54 57
REMARK SMILES IDX 73 58 38 59 39 60 53 62 74 63 41 64 25 65 26 66 34 67 27 68
REMARK SMILES IDX 33 69 35 70 32 71 28 72 29 73 30 74 31 75 57 76 58 77 66 78
REMARK SMILES IDX 59 79 65 80 67 81 64 82 60 83 61 84 62 85 63 86 42 87 43 88
REMARK SMILES IDX 51 89 44 90 50 91 52 92 49 93 45 94 46 95 47 96 48 97
REMARK H PARENT 6 7 81 14 13 31 72 50 40 61
REMARK Flexibility Score: inf
ROOT
ATOM      1  C   UNL A   1      31.785  29.772  27.068  1.00  0.00     0.002 C 
ENDROOT
BRANCH   1   2
ATOM      2  C   UNL A   1      31.520  28.755  25.958  1.00  0.00     0.021 C 
BRANCH   2   3
ATOM      3  C   UNL A   1      32.281  29.024  24.660  1.00  0.00     0.116 C 
BRANCH   3   4
ATOM      4  N   UNL A   1      31.380  29.383  23.594  1.00  0.00    -0.356 N 
ATOM      5  C   UNL A   1      30.873  28.661  22.568  1.00  0.00     0.229 C 
ATOM      6  O   UNL A   1      30.221  29.301  21.732  1.00  0.00    -0.275 OA
ATOM      7  H   UNL A   1      31.080  30.321  23.616  1.00  0.00     0.163 HD
BRANCH   5   8
ATOM      8  C   UNL A   1      30.965  27.144  22.431  1.00  0.00     0.142 C 
ATOM      9  C   UNL A   1      33.593  27.069  22.091  1.00  0.00     0.076 C 
ATOM     10  C   UNL A   1      32.254  26.358  22.101  1.00  0.00     0.193 C 
ATOM     11  N   UNL A   1      32.147  25.072  22.829  1.00  0.00    -0.329 N 
ATOM     12  C   UNL A   1      30.317  26.360  23.561  1.00  0.00     0.081 C 
ATOM     13  C   UNL A   1      30.758  24.942  23.247  1.00  0.00     0.263 C 
ATOM     14  H   UNL A   1      32.434  24.367  22.151  1.00  0.00     0.348 HD
BRANCH  11  15
ATOM     15  C   UNL A   1      33.159  24.625  23.800  1.00  0.00     0.304 C 
BRANCH  15  16
ATOM     16  C   UNL A   1      33.465  23.119  23.998  1.00  0.00     0.291 C 
BRANCH  16  17
ATOM     17  O   UNL A   1      32.311  22.322  24.326  1.00  0.00    -0.485 OA
BRANCH  17  18
ATOM     18  C   UNL A   1      32.525  20.966  24.389  1.00  0.00     0.156 A 
ATOM     19  C   UNL A   1      32.979  20.283  25.527  1.00  0.00     0.084 A 
ATOM     20  C   UNL A   1      32.277  20.222  23.224  1.00  0.00     0.084 A 
ATOM     21  Cl  UNL A   1      33.610  21.097  26.917  1.00  0.00    -0.080 Cl
ATOM     22  C   UNL A   1      32.976  18.882  25.557  1.00  0.00     0.024 A 
ATOM     23  C   UNL A   1      32.269  18.824  23.258  1.00  0.00     0.024 A 
ATOM     24  Cl  UNL A   1      31.913  20.993  21.717  1.00  0.00    -0.080 Cl
ATOM     25  C   UNL A   1      32.581  18.153  24.437  1.00  0.00     0.003 A 
ENDBRANCH  17  18
ENDBRANCH  16  17
ENDBRANCH  15  16
ENDBRANCH  11  15
ENDBRANCH   5   8
ENDBRANCH   3   4
ENDBRANCH   2   3
ENDBRANCH   1   2
BRANCH   1  26
ATOM     26  C   UNL A   1      33.032  30.638  26.870  1.00  0.00     0.002 C 
BRANCH  26  27
ATOM     27  C   UNL A   1      33.122  31.892  27.745  1.00  0.00     0.021 C 
BRANCH  27  28
ATOM     28  C   UNL A   1      33.271  33.217  27.000  1.00  0.00     0.116 C 
BRANCH  28  29
ATOM     29  N   UNL A   1      32.812  34.351  27.780  1.00  0.00    -0.352 N 
ATOM     30  C   UNL A   1      33.208  34.782  29.017  1.00  0.00     0.251 C 
ATOM     31  H   UNL A   1      32.109  34.894  27.354  1.00  0.00     0.163 HD
ATOM     32  O   UNL A   1      32.569  35.681  29.573  1.00  0.00    -0.269 OA
BRANCH  30  33
ATOM     33  C   UNL A   1      34.367  34.170  29.701  1.00  0.00     0.039 A 
ATOM     34  C   UNL A   1      34.130  33.320  30.785  1.00  0.00     0.014 A 
ATOM     35  C   UNL A   1      35.679  34.453  29.309  1.00  0.00     0.014 A 
ATOM     36  C   UNL A   1      35.204  32.723  31.449  1.00  0.00     0.010 A 
ATOM     37  C   UNL A   1      36.747  33.810  29.933  1.00  0.00     0.010 A 
ATOM     38  C   UNL A   1      36.521  32.946  31.016  1.00  0.00    -0.014 A 
BRANCH  38  39
ATOM     39  C   UNL A   1      37.666  32.300  31.709  1.00  0.00     0.031 A 
ATOM     40  C   UNL A   1      38.416  31.179  31.044  1.00  0.00     0.074 A 
ATOM     41  C   UNL A   1      38.010  32.704  32.948  1.00  0.00     0.049 A 
ATOM     42  N   UNL A   1      39.424  30.475  31.492  1.00  0.00    -0.248 NA
ATOM     43  C   UNL A   1      37.954  30.781  29.706  1.00  0.00     0.031 C 
ATOM     44  C   UNL A   1      37.332  33.754  33.711  1.00  0.00     0.029 A 
ATOM     45  N   UNL A   1      39.010  32.279  33.786  1.00  0.00    -0.354 N 
ATOM     46  C   UNL A   1      39.711  29.545  30.498  1.00  0.00     0.074 A 
ATOM     47  C   UNL A   1      38.730  29.739  29.451  1.00  0.00     0.031 C 
ATOM     48  C   UNL A   1      37.951  33.907  34.894  1.00  0.00     0.029 A 
ATOM     49  C   UNL A   1      39.045  32.947  34.988  1.00  0.00     0.049 A 
ATOM     50  H   UNL A   1      39.644  31.565  33.548  1.00  0.00     0.167 HD
ATOM     51  C   UNL A   1      40.714  28.632  30.452  1.00  0.00     0.034 A 
ATOM     52  C   UNL A   1      39.864  32.798  36.048  1.00  0.00     0.034 A 
ATOM     53  C   UNL A   1      41.692  28.461  31.499  1.00  0.00     0.049 A 
ATOM     54  C   UNL A   1      40.964  31.769  35.979  1.00  0.00     0.074 A 
ATOM     55  C   UNL A   1      42.781  27.607  31.534  1.00  0.00     0.029 A 
ATOM     56  N   UNL A   1      41.697  29.154  32.704  1.00  0.00    -0.354 N 
ATOM     57  N   UNL A   1      41.255  30.935  35.007  1.00  0.00    -0.248 NA
ATOM     58  C   UNL A   1      41.853  31.674  37.144  1.00  0.00     0.031 C 
ATOM     59  C   UNL A   1      43.407  27.741  32.779  1.00  0.00     0.029 A 
ATOM     60  C   UNL A   1      42.750  28.726  33.497  1.00  0.00     0.049 A 
ATOM     61  H   UNL A   1      41.046  29.848  32.956  1.00  0.00     0.167 HD
ATOM     62  C   UNL A   1      42.378  30.232  35.437  1.00  0.00     0.074 A 
ATOM     63  C   UNL A   1      42.720  30.755  36.744  1.00  0.00     0.031 C 
ATOM     64  C   UNL A   1      43.067  29.246  34.806  1.00  0.00     0.034 A 
BRANCH  51  65
ATOM     65  C   UNL A   1      40.780  27.737  29.237  1.00  0.00     0.023 A 
ATOM     66  C   UNL A   1      41.708  27.962  28.203  1.00  0.00     0.031 A 
ATOM     67  C   UNL A   1      39.882  26.665  29.090  1.00  0.00     0.131 A 
ATOM     68  C   UNL A   1      41.666  27.180  27.040  1.00  0.00     0.055 A 
ATOM     69  C   UNL A   1      39.899  25.838  27.965  1.00  0.00     0.041 A 
ATOM     70  F   UNL A   1      38.961  26.411  30.034  1.00  0.00    -0.206 F 
ATOM     71  C   UNL A   1      40.783  26.104  26.924  1.00  0.00     0.022 A 
BRANCH  68  72
ATOM     72  S   UNL A   1      42.680  27.681  25.623  1.00  0.00     0.124 S 
ATOM     73  O   UNL A   1      42.630  26.483  24.787  1.00  0.00    -0.237 OA
ATOM     74  O   UNL A   1      41.963  28.845  25.117  1.00  0.00    -0.237 OA
ATOM     75  O   UNL A   1      43.986  27.962  26.218  1.00  0.00    -0.744 OA
ENDBRANCH  68  72
ENDBRANCH  51  65
BRANCH  52  76
ATOM     76  C   UNL A   1      39.680  33.634  37.267  1.00  0.00     0.023 A 
ATOM     77  C   UNL A   1      38.938  33.164  38.362  1.00  0.00     0.031 A 
ATOM     78  C   UNL A   1      40.212  34.933  37.339  1.00  0.00     0.131 A 
ATOM     79  C   UNL A   1      38.711  34.003  39.465  1.00  0.00     0.055 A 
ATOM     80  C   UNL A   1      40.024  35.746  38.457  1.00  0.00     0.041 A 
ATOM     81  F   UNL A   1      40.936  35.427  36.321  1.00  0.00    -0.206 F 
ATOM     82  C   UNL A   1      39.257  35.286  39.524  1.00  0.00     0.022 A 
BRANCH  79  83
ATOM     83  S   UNL A   1      37.621  33.417  40.790  1.00  0.00     0.124 S 
ATOM     84  O   UNL A   1      36.489  32.891  40.036  1.00  0.00    -0.237 OA
ATOM     85  O   UNL A   1      38.462  32.430  41.459  1.00  0.00    -0.237 OA
ATOM     86  O   UNL A   1      37.348  34.626  41.565  1.00  0.00    -0.744 OA
ENDBRANCH  79  83
ENDBRANCH  52  76
BRANCH  64  87
ATOM     87  C   UNL A   1      44.278  28.701  35.521  1.00  0.00     0.023 A 
ATOM     88  C   UNL A   1      44.171  27.676  36.476  1.00  0.00     0.031 A 
ATOM     89  C   UNL A   1      45.554  29.231  35.256  1.00  0.00     0.131 A 
ATOM     90  C   UNL A   1      45.312  27.251  37.175  1.00  0.00     0.055 A 
ATOM     91  C   UNL A   1      46.693  28.765  35.913  1.00  0.00     0.041 A 
ATOM     92  F   UNL A   1      45.711  30.213  34.354  1.00  0.00    -0.206 F 
ATOM     93  C   UNL A   1      46.574  27.779  36.889  1.00  0.00     0.022 A 
BRANCH  90  94
ATOM     94  S   UNL A   1      45.110  26.061  38.529  1.00  0.00     0.124 S 
ATOM     95  O   UNL A   1      44.828  24.825  37.808  1.00  0.00    -0.237 OA
ATOM     96  O   UNL A   1      46.404  26.128  39.199  1.00  0.00    -0.237 OA
ATOM     97  O   UNL A   1      43.988  26.602  39.295  1.00  0.00    -0.744 OA
ENDBRANCH  90  94
ENDBRANCH  64  87
ENDBRANCH  38  39
ENDBRANCH  30  33
ENDBRANCH  28  29
ENDBRANCH  27  28
ENDBRANCH  26  27
ENDBRANCH   1  26
TORSDOF 20
ENDMDL
MODEL 2
REMARK VINA RESULT:     -11.0      6.182      9.896
REMARK SMILES C[C@@H]1[C@H](C(=O)NCCCCCCNC(=O)c2ccc(-c3c4nc(c(-c5cc(S(=O)(=O)[O-])ccc5F)c5ccc([nH]5)c(-c5cc(S(=O)(=O)[O-])ccc5F)c5nc(c(-c6cc(S(=O)(=O)[O-])ccc6F)c6ccc3[nH]6)C=C5)C=C4)cc2)CC[N@@H+]1CCOc1c(Cl)cccc1Cl
REMARK SMILES IDX 9 1 8 2 7 3 6 4 4 5 5 6 3 8 1 9 2 10 81 11 79 12 80 13 82 15
REMARK SMILES IDX 83 16 84 17 85 18 86 19 91 20 87 21 88 22 90 23 92 24 89 25
REMARK SMILES IDX 10 26 11 27 12 28 13 29 14 30 15 32 16 33 17 34 78 35 18 36
REMARK SMILES IDX 77 37 19 38 20 39 21 40 71 41 22 42 76 43 70 44 72 45 23 46
REMARK SMILES IDX 75 47 69 48 68 49 24 51 56 52 36 53 55 54 37 55 40 56 54 57
REMARK SMILES IDX 73 58 38 59 39 60 53 62 74 63 41 64 25 65 26 66 34 67 27 68
REMARK SMILES IDX 33 69 35 70 32 71 28 72 29 73 30 74 31 75 57 76 58 77 66 78
REMARK SMILES IDX 59 79 65 80 67 81 64 82 60 83 61 84 62 85 63 86 42 87 43 88
REMARK SMILES IDX 51 89 44 90 50 91 52 92 49 93 45 94 46 95 47 96 48 97
REMARK H PARENT 6 7 81 14 13 31 72 50 40 61
REMARK Flexibility Score: inf
ROOT
ATOM      1  C   UNL A   1      38.511  23.748  26.327  1.00  0.00     0.002 C 
ENDROOT
BRANCH   1   2
ATOM      2  C   UNL A   1      37.322  23.118  25.601  1.00  0.00     0.021 C 
BRANCH   2   3
ATOM      3  C   UNL A   1      35.956  23.557  26.127  1.00  0.00     0.116 C 
BRANCH   3   4
ATOM      4  N   UNL A   1      35.253  22.452  26.731  1.00  0.00    -0.356 N 
ATOM      5  C   UNL A   1      34.042  21.910  26.468  1.00  0.00     0.229 C 
ATOM      6  O   UNL A   1      33.659  21.040  27.262  1.00  0.00    -0.275 OA
ATOM      7  H   UNL A   1      35.742  22.014  27.465  1.00  0.00     0.163 HD
BRANCH   5   8
ATOM      8  C   UNL A   1      33.188  22.219  25.242  1.00  0.00     0.142 C 
ATOM      9  C   UNL A   1      32.430  24.627  26.048  1.00  0.00     0.076 C 
ATOM     10  C   UNL A   1      32.319  23.484  25.059  1.00  0.00     0.193 C 
ATOM     11  N   UNL A   1      32.356  23.799  23.612  1.00  0.00    -0.329 N 
ATOM     12  C   UNL A   1      33.899  22.046  23.909  1.00  0.00     0.081 C 
ATOM     13  C   UNL A   1      32.882  22.620  22.938  1.00  0.00     0.263 C 
ATOM     14  H   UNL A   1      31.388  24.008  23.368  1.00  0.00     0.348 HD
BRANCH  11  15
ATOM     15  C   UNL A   1      32.819  25.099  23.096  1.00  0.00     0.304 C 
BRANCH  15  16
ATOM     16  C   UNL A   1      32.145  25.755  21.866  1.00  0.00     0.291 C 
BRANCH  16  17
ATOM     17  O   UNL A   1      31.392  26.945  22.172  1.00  0.00    -0.485 OA
BRANCH  17  18
ATOM     18  C   UNL A   1      31.827  27.657  23.264  1.00  0.00     0.156 A 
ATOM     19  C   UNL A   1      32.973  28.466  23.283  1.00  0.00     0.084 A 
ATOM     20  C   UNL A   1      31.068  27.556  24.441  1.00  0.00     0.084 A 
ATOM     21  Cl  UNL A   1      34.155  28.442  22.020  1.00  0.00    -0.080 Cl
ATOM     22  C   UNL A   1      33.225  29.308  24.374  1.00  0.00     0.024 A 
ATOM     23  C   UNL A   1      31.318  28.401  25.528  1.00  0.00     0.024 A 
ATOM     24  Cl  UNL A   1      29.759  26.430  24.582  1.00  0.00    -0.080 Cl
ATOM     25  C   UNL A   1      32.375  29.306  25.478  1.00  0.00     0.003 A 
ENDBRANCH  17  18
ENDBRANCH  16  17
ENDBRANCH  15  16
ENDBRANCH  11  15
ENDBRANCH   5   8
ENDBRANCH   3   4
ENDBRANCH   2   3
ENDBRANCH   1   2
BRANCH   1  26
ATOM     26  C   UNL A   1      39.543  22.753  26.863  1.00  0.00     0.002 C 
BRANCH  26  27
ATOM     27  C   UNL A   1      39.628  21.413  26.126  1.00  0.00     0.021 C 
BRANCH  27  28
ATOM     28  C   UNL A   1      40.404  20.307  26.838  1.00  0.00     0.116 C 
BRANCH  28  29
ATOM     29  N   UNL A   1      41.596  19.906  26.114  1.00  0.00    -0.352 N 
ATOM     30  C   UNL A   1      42.698  20.638  25.765  1.00  0.00     0.251 C 
ATOM     31  H   UNL A   1      41.614  18.963  25.830  1.00  0.00     0.163 HD
ATOM     32  O   UNL A   1      43.532  20.141  25.002  1.00  0.00    -0.269 OA
BRANCH  30  33
ATOM     33  C   UNL A   1      42.886  22.015  26.267  1.00  0.00     0.039 A 
ATOM     34  C   UNL A   1      42.843  23.071  25.352  1.00  0.00     0.014 A 
ATOM     35  C   UNL A   1      43.139  22.272  27.618  1.00  0.00     0.014 A 
ATOM     36  C   UNL A   1      43.014  24.384  25.796  1.00  0.00     0.010 A 
ATOM     37  C   UNL A   1      43.249  23.587  28.069  1.00  0.00     0.010 A 
ATOM     38  C   UNL A   1      43.197  24.656  27.161  1.00  0.00    -0.014 A 
BRANCH  38  39
ATOM     39  C   UNL A   1      43.362  26.053  27.640  1.00  0.00     0.031 A 
ATOM     40  C   UNL A   1      44.722  26.696  27.640  1.00  0.00     0.074 A 
ATOM     41  C   UNL A   1      42.292  26.731  28.102  1.00  0.00     0.049 A 
ATOM     42  N   UNL A   1      45.074  27.892  28.038  1.00  0.00    -0.248 NA
ATOM     43  C   UNL A   1      45.838  25.875  27.149  1.00  0.00     0.031 C 
ATOM     44  C   UNL A   1      40.930  26.199  28.188  1.00  0.00     0.029 A 
ATOM     45  N   UNL A   1      42.180  28.009  28.588  1.00  0.00    -0.354 N 
ATOM     46  C   UNL A   1      46.451  27.964  27.856  1.00  0.00     0.074 A 
ATOM     47  C   UNL A   1      46.875  26.668  27.369  1.00  0.00     0.031 C 
ATOM     48  C   UNL A   1      40.117  27.151  28.675  1.00  0.00     0.029 A 
ATOM     49  C   UNL A   1      40.901  28.346  28.966  1.00  0.00     0.049 A 
ATOM     50  H   UNL A   1      42.943  28.626  28.660  1.00  0.00     0.167 HD
ATOM     51  C   UNL A   1      47.280  29.019  28.054  1.00  0.00     0.034 A 
ATOM     52  C   UNL A   1      40.417  29.489  29.492  1.00  0.00     0.034 A 
ATOM     53  C   UNL A   1      46.839  30.309  28.529  1.00  0.00     0.049 A 
ATOM     54  C   UNL A   1      41.360  30.645  29.714  1.00  0.00     0.074 A 
ATOM     55  C   UNL A   1      47.582  31.462  28.713  1.00  0.00     0.029 A 
ATOM     56  N   UNL A   1      45.536  30.615  28.902  1.00  0.00    -0.354 N 
ATOM     57  N   UNL A   1      42.651  30.713  29.484  1.00  0.00    -0.248 NA
ATOM     58  C   UNL A   1      40.775  31.880  30.251  1.00  0.00     0.031 C 
ATOM     59  C   UNL A   1      46.743  32.445  29.252  1.00  0.00     0.029 A 
ATOM     60  C   UNL A   1      45.461  31.928  29.343  1.00  0.00     0.049 A 
ATOM     61  H   UNL A   1      44.776  29.990  28.860  1.00  0.00     0.167 HD
ATOM     62  C   UNL A   1      43.027  32.009  29.828  1.00  0.00     0.074 A 
ATOM     63  C   UNL A   1      41.824  32.690  30.261  1.00  0.00     0.031 C 
ATOM     64  C   UNL A   1      44.256  32.587  29.786  1.00  0.00     0.034 A 
BRANCH  51  65
ATOM     65  C   UNL A   1      48.750  28.805  27.778  1.00  0.00     0.023 A 
ATOM     66  C   UNL A   1      49.282  28.921  26.481  1.00  0.00     0.031 A 
ATOM     67  C   UNL A   1      49.627  28.449  28.817  1.00  0.00     0.131 A 
ATOM     68  C   UNL A   1      50.628  28.606  26.244  1.00  0.00     0.055 A 
ATOM     69  C   UNL A   1      50.985  28.216  28.589  1.00  0.00     0.041 A 
ATOM     70  F   UNL A   1      49.176  28.306  30.074  1.00  0.00    -0.206 F 
ATOM     71  C   UNL A   1      51.489  28.277  27.293  1.00  0.00     0.022 A 
BRANCH  68  72
ATOM     72  S   UNL A   1      51.201  28.489  24.527  1.00  0.00     0.124 S 
ATOM     73  O   UNL A   1      49.985  28.062  23.839  1.00  0.00    -0.237 OA
ATOM     74  O   UNL A   1      51.648  29.849  24.250  1.00  0.00    -0.237 OA
ATOM     75  O   UNL A   1      52.260  27.483  24.587  1.00  0.00    -0.744 OA
ENDBRANCH  68  72
ENDBRANCH  51  65
BRANCH  52  76
ATOM     76  C   UNL A   1      38.975  29.604  29.850  1.00  0.00     0.023 A 
ATOM     77  C   UNL A   1      38.080  30.305  29.028  1.00  0.00     0.031 A 
ATOM     78  C   UNL A   1      38.481  29.046  31.042  1.00  0.00     0.131 A 
ATOM     79  C   UNL A   1      36.744  30.468  29.429  1.00  0.00     0.055 A 
ATOM     80  C   UNL A   1      37.141  29.171  31.413  1.00  0.00     0.041 A 
ATOM     81  F   UNL A   1      39.295  28.360  31.860  1.00  0.00    -0.206 F 
ATOM     82  C   UNL A   1      36.267  29.898  30.611  1.00  0.00     0.022 A 
BRANCH  79  83
ATOM     83  S   UNL A   1      35.656  31.509  28.419  1.00  0.00     0.124 S 
ATOM     84  O   UNL A   1      35.255  30.585  27.363  1.00  0.00    -0.237 OA
ATOM     85  O   UNL A   1      34.619  31.880  29.375  1.00  0.00    -0.237 OA
ATOM     86  O   UNL A   1      36.528  32.602  27.995  1.00  0.00    -0.744 OA
ENDBRANCH  79  83
ENDBRANCH  52  76
BRANCH  64  87
ATOM     87  C   UNL A   1      44.339  34.037  30.192  1.00  0.00     0.023 A 
ATOM     88  C   UNL A   1      44.094  35.074  29.277  1.00  0.00     0.031 A 
ATOM     89  C   UNL A   1      44.690  34.383  31.509  1.00  0.00     0.131 A 
ATOM     90  C   UNL A   1      44.258  36.410  29.674  1.00  0.00     0.055 A 
ATOM     91  C   UNL A   1      44.798  35.714  31.914  1.00  0.00     0.041 A 
ATOM     92  F   UNL A   1      44.938  33.431  32.423  1.00  0.00    -0.206 F 
ATOM     93  C   UNL A   1      44.595  36.736  30.991  1.00  0.00     0.022 A 
BRANCH  90  94
ATOM     94  S   UNL A   1      44.115  37.715  28.423  1.00  0.00     0.124 S 
ATOM     95  O   UNL A   1      42.843  37.389  27.788  1.00  0.00    -0.237 OA
ATOM     96  O   UNL A   1      44.131  38.928  29.233  1.00  0.00    -0.237 OA
ATOM     97  O   UNL A   1      45.296  37.516  27.584  1.00  0.00    -0.744 OA
ENDBRANCH  90  94
ENDBRANCH  64  87
ENDBRANCH  38  39
ENDBRANCH  30  33
ENDBRANCH  28  29
ENDBRANCH  27  28
ENDBRANCH  26  27
ENDBRANCH   1  26
TORSDOF 20
ENDMDL
MODEL 3
REMARK VINA RESULT:     -11.0      6.101     10.599
REMARK SMILES C[C@@H]1[C@H](C(=O)NCCCCCCNC(=O)c2ccc(-c3c4nc(c(-c5cc(S(=O)(=O)[O-])ccc5F)c5ccc([nH]5)c(-c5cc(S(=O)(=O)[O-])ccc5F)c5nc(c(-c6cc(S(=O)(=O)[O-])ccc6F)c6ccc3[nH]6)C=C5)C=C4)cc2)CC[N@@H+]1CCOc1c(Cl)cccc1Cl
REMARK SMILES IDX 9 1 8 2 7 3 6 4 4 5 5 6 3 8 1 9 2 10 81 11 79 12 80 13 82 15
REMARK SMILES IDX 83 16 84 17 85 18 86 19 91 20 87 21 88 22 90 23 92 24 89 25
REMARK SMILES IDX 10 26 11 27 12 28 13 29 14 30 15 32 16 33 17 34 78 35 18 36
REMARK SMILES IDX 77 37 19 38 20 39 21 40 71 41 22 42 76 43 70 44 72 45 23 46
REMARK SMILES IDX 75 47 69 48 68 49 24 51 56 52 36 53 55 54 37 55 40 56 54 57
REMARK SMILES IDX 73 58 38 59 39 60 53 62 74 63 41 64 25 65 26 66 34 67 27 68
REMARK SMILES IDX 33 69 35 70 32 71 28 72 29 73 30 74 31 75 57 76 58 77 66 78
REMARK SMILES IDX 59 79 65 80 67 81 64 82 60 83 61 84 62 85 63 86 42 87 43 88
REMARK SMILES IDX 51 89 44 90 50 91 52 92 49 93 45 94 46 95 47 96 48 97
REMARK H PARENT 6 7 81 14 13 31 72 50 40 61
REMARK Flexibility Score: inf
ROOT
ATOM      1  C   UNL A   1      40.265  22.547  26.519  1.00  0.00     0.002 C 
ENDROOT
BRANCH   1   2
ATOM      2  C   UNL A   1      39.169  23.561  26.848  1.00  0.00     0.021 C 
BRANCH   2   3
ATOM      3  C   UNL A   1      37.822  23.271  26.188  1.00  0.00     0.116 C 
BRANCH   3   4
ATOM      4  N   UNL A   1      37.798  21.948  25.614  1.00  0.00    -0.356 N 
ATOM      5  C   UNL A   1      36.795  21.231  25.058  1.00  0.00     0.229 C 
ATOM      6  O   UNL A   1      37.067  20.057  24.774  1.00  0.00    -0.275 OA
ATOM      7  H   UNL A   1      38.667  21.484  25.630  1.00  0.00     0.163 HD
BRANCH   5   8
ATOM      8  C   UNL A   1      35.424  21.784  24.679  1.00  0.00     0.142 C 
ATOM      9  C   UNL A   1      34.416  21.693  27.129  1.00  0.00     0.076 C 
ATOM     10  C   UNL A   1      34.224  21.924  25.643  1.00  0.00     0.193 C 
ATOM     11  N   UNL A   1      33.491  23.136  25.209  1.00  0.00    -0.329 N 
ATOM     12  C   UNL A   1      35.455  23.097  23.913  1.00  0.00     0.081 C 
ATOM     13  C   UNL A   1      33.984  23.473  23.881  1.00  0.00     0.263 C 
ATOM     14  H   UNL A   1      32.509  22.860  25.219  1.00  0.00     0.348 HD
BRANCH  11  15
ATOM     15  C   UNL A   1      33.233  24.271  26.111  1.00  0.00     0.304 C 
BRANCH  15  16
ATOM     16  C   UNL A   1      33.007  25.698  25.553  1.00  0.00     0.291 C 
BRANCH  16  17
ATOM     17  O   UNL A   1      31.621  26.082  25.462  1.00  0.00    -0.485 OA
BRANCH  17  18
ATOM     18  C   UNL A   1      31.343  27.093  24.573  1.00  0.00     0.156 A 
ATOM     19  C   UNL A   1      31.108  26.907  23.203  1.00  0.00     0.084 A 
ATOM     20  C   UNL A   1      31.301  28.402  25.082  1.00  0.00     0.084 A 
ATOM     21  Cl  UNL A   1      31.427  25.412  22.394  1.00  0.00    -0.080 Cl
ATOM     22  C   UNL A   1      30.637  27.968  22.417  1.00  0.00     0.024 A 
ATOM     23  C   UNL A   1      30.826  29.458  24.297  1.00  0.00     0.024 A 
ATOM     24  Cl  UNL A   1      31.776  28.757  26.709  1.00  0.00    -0.080 Cl
ATOM     25  C   UNL A   1      30.456  29.232  22.974  1.00  0.00     0.003 A 
ENDBRANCH  17  18
ENDBRANCH  16  17
ENDBRANCH  15  16
ENDBRANCH  11  15
ENDBRANCH   5   8
ENDBRANCH   3   4
ENDBRANCH   2   3
ENDBRANCH   1   2
BRANCH   1  26
ATOM     26  C   UNL A   1      40.788  21.747  27.714  1.00  0.00     0.002 C 
BRANCH  26  27
ATOM     27  C   UNL A   1      41.237  20.313  27.415  1.00  0.00     0.021 C 
BRANCH  27  28
ATOM     28  C   UNL A   1      41.133  19.871  25.957  1.00  0.00     0.116 C 
BRANCH  28  29
ATOM     29  N   UNL A   1      42.383  19.341  25.444  1.00  0.00    -0.352 N 
ATOM     30  C   UNL A   1      43.567  19.979  25.189  1.00  0.00     0.251 C 
ATOM     31  H   UNL A   1      42.379  18.376  25.249  1.00  0.00     0.163 HD
ATOM     32  O   UNL A   1      44.462  19.369  24.596  1.00  0.00    -0.269 OA
BRANCH  30  33
ATOM     33  C   UNL A   1      43.773  21.387  25.589  1.00  0.00     0.039 A 
ATOM     34  C   UNL A   1      44.276  21.651  26.866  1.00  0.00     0.014 A 
ATOM     35  C   UNL A   1      43.443  22.445  24.736  1.00  0.00     0.014 A 
ATOM     36  C   UNL A   1      44.485  22.971  27.273  1.00  0.00     0.010 A 
ATOM     37  C   UNL A   1      43.709  23.759  25.120  1.00  0.00     0.010 A 
ATOM     38  C   UNL A   1      44.224  24.036  26.396  1.00  0.00    -0.014 A 
BRANCH  38  39
ATOM     39  C   UNL A   1      44.461  25.441  26.819  1.00  0.00     0.031 A 
ATOM     40  C   UNL A   1      45.834  26.044  26.698  1.00  0.00     0.074 A 
ATOM     41  C   UNL A   1      43.447  26.162  27.337  1.00  0.00     0.049 A 
ATOM     42  N   UNL A   1      46.246  27.240  27.032  1.00  0.00    -0.248 NA
ATOM     43  C   UNL A   1      46.888  25.177  26.151  1.00  0.00     0.031 C 
ATOM     44  C   UNL A   1      42.082  25.673  27.540  1.00  0.00     0.029 A 
ATOM     45  N   UNL A   1      43.406  27.456  27.791  1.00  0.00    -0.354 N 
ATOM     46  C   UNL A   1      47.608  27.267  26.746  1.00  0.00     0.074 A 
ATOM     47  C   UNL A   1      47.959  25.947  26.269  1.00  0.00     0.031 C 
ATOM     48  C   UNL A   1      41.333  26.661  28.056  1.00  0.00     0.029 A 
ATOM     49  C   UNL A   1      42.169  27.841  28.252  1.00  0.00     0.049 A 
ATOM     50  H   UNL A   1      44.189  28.053  27.787  1.00  0.00     0.167 HD
ATOM     51  C   UNL A   1      48.477  28.303  26.849  1.00  0.00     0.034 A 
ATOM     52  C   UNL A   1      41.756  29.012  28.776  1.00  0.00     0.034 A 
ATOM     53  C   UNL A   1      48.107  29.618  27.316  1.00  0.00     0.049 A 
ATOM     54  C   UNL A   1      42.743  30.146  28.892  1.00  0.00     0.074 A 
ATOM     55  C   UNL A   1      48.892  30.754  27.409  1.00  0.00     0.029 A 
ATOM     56  N   UNL A   1      46.844  29.973  27.775  1.00  0.00    -0.354 N 
ATOM     57  N   UNL A   1      44.015  30.171  28.565  1.00  0.00    -0.248 NA
ATOM     58  C   UNL A   1      42.233  31.412  29.433  1.00  0.00     0.031 C 
ATOM     59  C   UNL A   1      48.122  31.776  27.978  1.00  0.00     0.029 A 
ATOM     60  C   UNL A   1      46.838  31.299  28.179  1.00  0.00     0.049 A 
ATOM     61  H   UNL A   1      46.068  29.369  27.808  1.00  0.00     0.167 HD
ATOM     62  C   UNL A   1      44.450  31.465  28.840  1.00  0.00     0.074 A 
ATOM     63  C   UNL A   1      43.301  32.192  29.340  1.00  0.00     0.031 C 
ATOM     64  C   UNL A   1      45.687  32.005  28.690  1.00  0.00     0.034 A 
BRANCH  51  65
ATOM     65  C   UNL A   1      49.916  28.039  26.472  1.00  0.00     0.023 A 
ATOM     66  C   UNL A   1      50.364  28.152  25.143  1.00  0.00     0.031 A 
ATOM     67  C   UNL A   1      50.848  27.637  27.446  1.00  0.00     0.131 A 
ATOM     68  C   UNL A   1      51.678  27.791  24.812  1.00  0.00     0.055 A 
ATOM     69  C   UNL A   1      52.177  27.357  27.123  1.00  0.00     0.041 A 
ATOM     70  F   UNL A   1      50.477  27.494  28.728  1.00  0.00    -0.206 F 
ATOM     71  C   UNL A   1      52.594  27.417  25.797  1.00  0.00     0.022 A 
BRANCH  68  72
ATOM     72  S   UNL A   1      52.129  27.676  23.059  1.00  0.00     0.124 S 
ATOM     73  O   UNL A   1      52.475  29.062  22.753  1.00  0.00    -0.237 OA
ATOM     74  O   UNL A   1      53.237  26.729  23.079  1.00  0.00    -0.237 OA
ATOM     75  O   UNL A   1      50.906  27.192  22.421  1.00  0.00    -0.744 OA
ENDBRANCH  68  72
ENDBRANCH  51  65
BRANCH  52  76
ATOM     76  C   UNL A   1      40.349  29.178  29.237  1.00  0.00     0.023 A 
ATOM     77  C   UNL A   1      40.023  29.124  30.601  1.00  0.00     0.031 A 
ATOM     78  C   UNL A   1      39.303  29.355  28.314  1.00  0.00     0.131 A 
ATOM     79  C   UNL A   1      38.680  29.202  31.002  1.00  0.00     0.055 A 
ATOM     80  C   UNL A   1      37.974  29.480  28.721  1.00  0.00     0.041 A 
ATOM     81  F   UNL A   1      39.563  29.421  26.998  1.00  0.00    -0.206 F 
ATOM     82  C   UNL A   1      37.655  29.389  30.072  1.00  0.00     0.022 A 
BRANCH  79  83
ATOM     83  S   UNL A   1      38.284  28.974  32.757  1.00  0.00     0.124 S 
ATOM     84  O   UNL A   1      39.578  29.206  33.388  1.00  0.00    -0.237 OA
ATOM     85  O   UNL A   1      37.271  30.001  32.974  1.00  0.00    -0.237 OA
ATOM     86  O   UNL A   1      37.796  27.598  32.820  1.00  0.00    -0.744 OA
ENDBRANCH  79  83
ENDBRANCH  52  76
BRANCH  64  87
ATOM     87  C   UNL A   1      45.839  33.463  29.044  1.00  0.00     0.023 A 
ATOM     88  C   UNL A   1      45.581  34.480  28.109  1.00  0.00     0.031 A 
ATOM     89  C   UNL A   1      46.269  33.837  30.329  1.00  0.00     0.131 A 
ATOM     90  C   UNL A   1      45.810  35.821  28.454  1.00  0.00     0.055 A 
ATOM     91  C   UNL A   1      46.441  35.175  30.685  1.00  0.00     0.041 A 
ATOM     92  F   UNL A   1      46.531  32.906  31.260  1.00  0.00    -0.206 F 
ATOM     93  C   UNL A   1      46.225  36.175  29.740  1.00  0.00     0.022 A 
BRANCH  90  94
ATOM     94  S   UNL A   1      45.646  37.090  27.169  1.00  0.00     0.124 S 
ATOM     95  O   UNL A   1      44.240  36.971  26.802  1.00  0.00    -0.237 OA
ATOM     96  O   UNL A   1      46.018  38.307  27.883  1.00  0.00    -0.237 OA
ATOM     97  O   UNL A   1      46.594  36.662  26.142  1.00  0.00    -0.744 OA
ENDBRANCH  90  94
ENDBRANCH  64  87
ENDBRANCH  38  39
ENDBRANCH  30  33
ENDBRANCH  28  29
ENDBRANCH  27  28
ENDBRANCH  26  27
ENDBRANCH   1  26
TORSDOF 20
ENDMDL
