MODEL 1
REMARK VINA RESULT:     -10.5      0.000      0.000
REMARK SMILES CC(C)(C)OC(=O)N1CCC[C@H]1C(=O)N[C@@H](Cc1ccccc1)C(=O)NCCCCCCNC(=O)c1ccc(-c2c3nc(c(-c4cc(S(=O)(=O)[O-])ccc4F)c4ccc([nH]4)c(-c4cc(S(=O)(=O)[O-])ccc4F)c4nc(c(-c5cc(S(=O)(=O)[O-])ccc5F)c5ccc2[nH]5)C=C4)C=C3)cc1
REMARK SMILES IDX 28 1 27 2 26 3 24 4 25 5 16 7 15 8 13 9 14 10 12 12 8 13
REMARK SMILES IDX 9 14 10 15 11 16 6 17 7 18 5 19 2 20 1 21 3 22 4 23 17 24
REMARK SMILES IDX 18 25 19 26 23 27 20 28 22 29 21 30 29 31 30 32 31 33 32 34
REMARK SMILES IDX 33 35 34 36 35 38 36 39 37 40 98 41 38 42 97 43 39 44 40 45
REMARK SMILES IDX 41 46 91 47 42 48 96 49 90 50 92 51 43 52 95 53 89 54 88 55
REMARK SMILES IDX 44 57 76 58 56 59 75 60 57 61 60 62 74 63 93 64 58 65 59 66
REMARK SMILES IDX 73 68 94 69 61 70 45 71 46 72 54 73 47 74 53 75 55 76 52 77
REMARK SMILES IDX 48 78 49 79 50 80 51 81 77 82 78 83 86 84 79 85 85 86 87 87
REMARK SMILES IDX 84 88 80 89 81 90 82 91 83 92 62 93 63 94 71 95 64 96 70 97
REMARK SMILES IDX 72 98 69 99 65 100 66 101 67 102 68 103
REMARK H PARENT 26 6 15 11 33 37 92 56 60 67
REMARK Flexibility Score: inf
ROOT
ATOM      1  C   UNL A   1      38.463  22.923  26.749  1.00  0.00     0.021 C 
ENDROOT
BRANCH   1   2
ATOM      2  C   UNL A   1      37.764  23.782  25.712  1.00  0.00     0.116 C 
BRANCH   2   3
ATOM      3  N   UNL A   1      37.567  23.132  24.439  1.00  0.00    -0.354 N 
ATOM      4  C   UNL A   1      36.490  23.185  23.610  1.00  0.00     0.242 C 
ATOM      5  O   UNL A   1      36.671  22.840  22.434  1.00  0.00    -0.273 OA
ATOM      6  H   UNL A   1      38.316  22.574  24.128  1.00  0.00     0.163 HD
BRANCH   4   7
ATOM      7  C   UNL A   1      35.104  23.733  24.036  1.00  0.00     0.175 C 
BRANCH   7   8
ATOM      8  N   UNL A   1      34.236  24.218  22.958  1.00  0.00    -0.342 N 
ATOM      9  C   UNL A   1      32.971  24.728  22.978  1.00  0.00     0.243 C 
ATOM     10  O   UNL A   1      32.411  24.806  21.880  1.00  0.00    -0.273 OA
ATOM     11  H   UNL A   1      34.639  24.167  22.061  1.00  0.00     0.164 HD
BRANCH   9  12
ATOM     12  C   UNL A   1      32.320  25.252  24.288  1.00  0.00     0.178 C 
ATOM     13  N   UNL A   1      32.234  26.716  24.301  1.00  0.00    -0.296 N 
ATOM     14  C   UNL A   1      30.868  27.171  24.171  1.00  0.00     0.124 C 
ATOM     15  C   UNL A   1      30.099  26.083  24.883  1.00  0.00     0.024 C 
ATOM     16  C   UNL A   1      30.856  24.822  24.481  1.00  0.00     0.037 C 
BRANCH  13  17
ATOM     17  C   UNL A   1      33.321  27.516  24.549  1.00  0.00     0.410 C 
ATOM     18  O   UNL A   1      34.022  27.997  23.669  1.00  0.00    -0.224 OA
BRANCH  17  19
ATOM     19  O   UNL A   1      33.546  27.634  25.880  1.00  0.00    -0.444 OA
BRANCH  19  20
ATOM     20  C   UNL A   1      33.076  28.748  26.682  1.00  0.00     0.106 C 
ATOM     21  C   UNL A   1      34.297  29.172  27.512  1.00  0.00     0.056 C 
ATOM     22  C   UNL A   1      31.981  28.227  27.615  1.00  0.00     0.056 C 
ATOM     23  C   UNL A   1      32.597  29.965  25.884  1.00  0.00     0.056 C 
ENDBRANCH  19  20
ENDBRANCH  17  19
ENDBRANCH  13  17
ENDBRANCH   9  12
ENDBRANCH   7   8
BRANCH   7  24
ATOM     24  C   UNL A   1      34.357  22.839  25.062  1.00  0.00     0.070 C 
BRANCH  24  25
ATOM     25  C   UNL A   1      33.970  21.429  24.674  1.00  0.00    -0.045 A 
ATOM     26  C   UNL A   1      32.758  21.194  24.005  1.00  0.00     0.004 A 
ATOM     27  C   UNL A   1      34.805  20.333  24.947  1.00  0.00     0.004 A 
ATOM     28  C   UNL A   1      32.359  19.894  23.686  1.00  0.00     0.000 A 
ATOM     29  C   UNL A   1      34.389  19.030  24.657  1.00  0.00     0.000 A 
ATOM     30  C   UNL A   1      33.164  18.811  24.031  1.00  0.00     0.000 A 
ENDBRANCH  24  25
ENDBRANCH   7  24
ENDBRANCH   4   7
ENDBRANCH   2   3
ENDBRANCH   1   2
BRANCH   1  31
ATOM     31  C   UNL A   1      39.979  22.822  26.584  1.00  0.00     0.002 C 
BRANCH  31  32
ATOM     32  C   UNL A   1      40.728  22.103  27.713  1.00  0.00     0.002 C 
BRANCH  32  33
ATOM     33  C   UNL A   1      41.029  20.620  27.481  1.00  0.00     0.021 C 
BRANCH  33  34
ATOM     34  C   UNL A   1      40.966  20.158  26.029  1.00  0.00     0.116 C 
BRANCH  34  35
ATOM     35  N   UNL A   1      42.198  19.521  25.601  1.00  0.00    -0.352 N 
ATOM     36  C   UNL A   1      43.431  20.065  25.346  1.00  0.00     0.251 C 
ATOM     37  H   UNL A   1      42.139  18.546  25.472  1.00  0.00     0.163 HD
ATOM     38  O   UNL A   1      44.287  19.379  24.792  1.00  0.00    -0.269 OA
BRANCH  36  39
ATOM     39  C   UNL A   1      43.725  21.469  25.712  1.00  0.00     0.039 A 
ATOM     40  C   UNL A   1      43.409  22.479  24.801  1.00  0.00     0.014 A 
ATOM     41  C   UNL A   1      44.333  21.793  26.929  1.00  0.00     0.014 A 
ATOM     42  C   UNL A   1      43.650  23.815  25.131  1.00  0.00     0.010 A 
ATOM     43  C   UNL A   1      44.499  23.129  27.290  1.00  0.00     0.010 A 
ATOM     44  C   UNL A   1      44.165  24.155  26.393  1.00  0.00    -0.014 A 
BRANCH  44  45
ATOM     45  C   UNL A   1      44.367  25.577  26.783  1.00  0.00     0.031 A 
ATOM     46  C   UNL A   1      45.733  26.202  26.685  1.00  0.00     0.074 A 
ATOM     47  C   UNL A   1      43.333  26.284  27.279  1.00  0.00     0.049 A 
ATOM     48  N   UNL A   1      46.123  27.399  27.040  1.00  0.00    -0.248 NA
ATOM     49  C   UNL A   1      46.808  25.355  26.147  1.00  0.00     0.031 C 
ATOM     50  C   UNL A   1      41.972  25.775  27.461  1.00  0.00     0.029 A 
ATOM     51  N   UNL A   1      43.264  27.579  27.732  1.00  0.00    -0.354 N 
ATOM     52  C   UNL A   1      47.490  27.446  26.784  1.00  0.00     0.074 A 
ATOM     53  C   UNL A   1      47.868  26.134  26.303  1.00  0.00     0.031 C 
ATOM     54  C   UNL A   1      41.201  26.750  27.966  1.00  0.00     0.029 A 
ATOM     55  C   UNL A   1      42.018  27.938  28.193  1.00  0.00     0.049 A 
ATOM     56  H   UNL A   1      44.033  28.193  27.726  1.00  0.00     0.167 HD
ATOM     57  C   UNL A   1      48.344  28.491  26.920  1.00  0.00     0.034 A 
ATOM     58  C   UNL A   1      41.585  29.085  28.753  1.00  0.00     0.034 A 
ATOM     59  C   UNL A   1      47.944  29.795  27.392  1.00  0.00     0.049 A 
ATOM     60  C   UNL A   1      42.555  30.228  28.915  1.00  0.00     0.074 A 
ATOM     61  C   UNL A   1      48.708  30.944  27.499  1.00  0.00     0.029 A 
ATOM     62  N   UNL A   1      46.672  30.122  27.850  1.00  0.00    -0.354 N 
ATOM     63  N   UNL A   1      43.831  30.277  28.607  1.00  0.00    -0.248 NA
ATOM     64  C   UNL A   1      42.026  31.471  29.488  1.00  0.00     0.031 C 
ATOM     65  C   UNL A   1      47.926  31.938  28.099  1.00  0.00     0.029 A 
ATOM     66  C   UNL A   1      46.645  31.440  28.281  1.00  0.00     0.049 A 
ATOM     67  H   UNL A   1      45.903  29.507  27.866  1.00  0.00     0.167 HD
ATOM     68  C   UNL A   1      44.249  31.566  28.925  1.00  0.00     0.074 A 
ATOM     69  C   UNL A   1      43.086  32.264  29.432  1.00  0.00     0.031 C 
ATOM     70  C   UNL A   1      45.481  32.123  28.803  1.00  0.00     0.034 A 
BRANCH  57  71
ATOM     71  C   UNL A   1      49.799  28.251  26.589  1.00  0.00     0.023 A 
ATOM     72  C   UNL A   1      50.288  28.339  25.273  1.00  0.00     0.031 A 
ATOM     73  C   UNL A   1      50.710  27.898  27.602  1.00  0.00     0.131 A 
ATOM     74  C   UNL A   1      51.621  27.998  24.994  1.00  0.00     0.055 A 
ATOM     75  C   UNL A   1      52.057  27.648  27.329  1.00  0.00     0.041 A 
ATOM     76  F   UNL A   1      50.302  27.776  28.875  1.00  0.00    -0.206 F 
ATOM     77  C   UNL A   1      52.515  27.678  26.017  1.00  0.00     0.022 A 
BRANCH  74  78
ATOM     78  S   UNL A   1      52.123  27.820  23.260  1.00  0.00     0.124 S 
ATOM     79  O   UNL A   1      53.346  27.031  23.387  1.00  0.00    -0.237 OA
ATOM     80  O   UNL A   1      50.979  27.135  22.669  1.00  0.00    -0.237 OA
ATOM     81  O   UNL A   1      52.323  29.197  22.818  1.00  0.00    -0.744 OA
ENDBRANCH  74  78
ENDBRANCH  57  71
BRANCH  58  82
ATOM     82  C   UNL A   1      40.174  29.204  29.225  1.00  0.00     0.023 A 
ATOM     83  C   UNL A   1      39.843  29.053  30.580  1.00  0.00     0.031 A 
ATOM     84  C   UNL A   1      39.129  29.447  28.314  1.00  0.00     0.131 A 
ATOM     85  C   UNL A   1      38.498  29.106  30.982  1.00  0.00     0.055 A 
ATOM     86  C   UNL A   1      37.800  29.554  28.726  1.00  0.00     0.041 A 
ATOM     87  F   UNL A   1      39.391  29.604  27.006  1.00  0.00    -0.206 F 
ATOM     88  C   UNL A   1      37.477  29.371  30.066  1.00  0.00     0.022 A 
BRANCH  85  89
ATOM     89  S   UNL A   1      38.091  28.745  32.712  1.00  0.00     0.124 S 
ATOM     90  O   UNL A   1      39.152  29.454  33.420  1.00  0.00    -0.237 OA
ATOM     91  O   UNL A   1      36.751  29.308  32.833  1.00  0.00    -0.237 OA
ATOM     92  O   UNL A   1      38.160  27.287  32.781  1.00  0.00    -0.744 OA
ENDBRANCH  85  89
ENDBRANCH  58  82
BRANCH  70  93
ATOM     93  C   UNL A   1      45.622  33.577  29.189  1.00  0.00     0.023 A 
ATOM     94  C   UNL A   1      45.336  34.616  28.287  1.00  0.00     0.031 A 
ATOM     95  C   UNL A   1      46.054  33.925  30.482  1.00  0.00     0.131 A 
ATOM     96  C   UNL A   1      45.538  35.950  28.670  1.00  0.00     0.055 A 
ATOM     97  C   UNL A   1      46.188  35.256  30.879  1.00  0.00     0.041 A 
ATOM     98  F   UNL A   1      46.346  32.975  31.384  1.00  0.00    -0.206 F 
ATOM     99  C   UNL A   1      45.943  36.278  29.967  1.00  0.00     0.022 A 
BRANCH  96 100
ATOM    100  S   UNL A   1      45.358  37.254  27.421  1.00  0.00     0.124 S 
ATOM    101  O   UNL A   1      45.571  38.462  28.213  1.00  0.00    -0.237 OA
ATOM    102  O   UNL A   1      46.412  36.922  26.469  1.00  0.00    -0.237 OA
ATOM    103  O   UNL A   1      43.995  37.070  26.926  1.00  0.00    -0.744 OA
ENDBRANCH  96 100
ENDBRANCH  70  93
ENDBRANCH  44  45
ENDBRANCH  36  39
ENDBRANCH  34  35
ENDBRANCH  33  34
ENDBRANCH  32  33
ENDBRANCH  31  32
ENDBRANCH   1  31
TORSDOF 23
ENDMDL
MODEL 2
REMARK VINA RESULT:      -9.7      1.464      7.574
REMARK SMILES CC(C)(C)OC(=O)N1CCC[C@H]1C(=O)N[C@@H](Cc1ccccc1)C(=O)NCCCCCCNC(=O)c1ccc(-c2c3nc(c(-c4cc(S(=O)(=O)[O-])ccc4F)c4ccc([nH]4)c(-c4cc(S(=O)(=O)[O-])ccc4F)c4nc(c(-c5cc(S(=O)(=O)[O-])ccc5F)c5ccc2[nH]5)C=C4)C=C3)cc1
REMARK SMILES IDX 28 1 27 2 26 3 24 4 25 5 16 7 15 8 13 9 14 10 12 12 8 13
REMARK SMILES IDX 9 14 10 15 11 16 6 17 7 18 5 19 2 20 1 21 3 22 4 23 17 24
REMARK SMILES IDX 18 25 19 26 23 27 20 28 22 29 21 30 29 31 30 32 31 33 32 34
REMARK SMILES IDX 33 35 34 36 35 38 36 39 37 40 98 41 38 42 97 43 39 44 40 45
REMARK SMILES IDX 41 46 91 47 42 48 96 49 90 50 92 51 43 52 95 53 89 54 88 55
REMARK SMILES IDX 44 57 76 58 56 59 75 60 57 61 60 62 74 63 93 64 58 65 59 66
REMARK SMILES IDX 73 68 94 69 61 70 45 71 46 72 54 73 47 74 53 75 55 76 52 77
REMARK SMILES IDX 48 78 49 79 50 80 51 81 77 82 78 83 86 84 79 85 85 86 87 87
REMARK SMILES IDX 84 88 80 89 81 90 82 91 83 92 62 93 63 94 71 95 64 96 70 97
REMARK SMILES IDX 72 98 69 99 65 100 66 101 67 102 68 103
REMARK H PARENT 26 6 15 11 33 37 92 56 60 67
REMARK Flexibility Score: inf
ROOT
ATOM      1  C   UNL A   1      38.555  22.842  26.783  1.00  0.00     0.021 C 
ENDROOT
BRANCH   1   2
ATOM      2  C   UNL A   1      37.883  23.775  25.793  1.00  0.00     0.116 C 
BRANCH   2   3
ATOM      3  N   UNL A   1      37.618  23.181  24.505  1.00  0.00    -0.354 N 
ATOM      4  C   UNL A   1      36.520  23.311  23.714  1.00  0.00     0.242 C 
ATOM      5  O   UNL A   1      36.648  23.002  22.522  1.00  0.00    -0.273 OA
ATOM      6  H   UNL A   1      38.332  22.603  24.150  1.00  0.00     0.163 HD
BRANCH   4   7
ATOM      7  C   UNL A   1      35.173  23.901  24.204  1.00  0.00     0.175 C 
BRANCH   7   8
ATOM      8  N   UNL A   1      34.229  24.321  23.164  1.00  0.00    -0.342 N 
ATOM      9  C   UNL A   1      32.965  24.829  23.243  1.00  0.00     0.243 C 
ATOM     10  O   UNL A   1      32.328  24.843  22.186  1.00  0.00    -0.273 OA
ATOM     11  H   UNL A   1      34.568  24.218  22.245  1.00  0.00     0.164 HD
BRANCH   9  12
ATOM     12  C   UNL A   1      32.405  25.429  24.563  1.00  0.00     0.178 C 
ATOM     13  N   UNL A   1      32.198  26.876  24.455  1.00  0.00    -0.296 N 
ATOM     14  C   UNL A   1      30.792  27.214  24.431  1.00  0.00     0.124 C 
ATOM     15  C   UNL A   1      30.191  26.146  25.315  1.00  0.00     0.024 C 
ATOM     16  C   UNL A   1      31.009  24.912  24.949  1.00  0.00     0.037 C 
BRANCH  13  17
ATOM     17  C   UNL A   1      33.233  27.775  24.514  1.00  0.00     0.410 C 
ATOM     18  O   UNL A   1      33.720  28.312  23.528  1.00  0.00    -0.224 OA
BRANCH  17  19
ATOM     19  O   UNL A   1      33.678  27.924  25.785  1.00  0.00    -0.444 OA
BRANCH  19  20
ATOM     20  C   UNL A   1      33.197  28.948  26.694  1.00  0.00     0.106 C 
ATOM     21  C   UNL A   1      34.447  29.407  27.459  1.00  0.00     0.056 C 
ATOM     22  C   UNL A   1      32.216  28.291  27.666  1.00  0.00     0.056 C 
ATOM     23  C   UNL A   1      32.575  30.175  26.018  1.00  0.00     0.056 C 
ENDBRANCH  19  20
ENDBRANCH  17  19
ENDBRANCH  13  17
ENDBRANCH   9  12
ENDBRANCH   7   8
BRANCH   7  24
ATOM     24  C   UNL A   1      34.500  23.087  25.343  1.00  0.00     0.070 C 
BRANCH  24  25
ATOM     25  C   UNL A   1      34.027  21.677  25.066  1.00  0.00    -0.045 A 
ATOM     26  C   UNL A   1      34.960  20.635  24.950  1.00  0.00     0.004 A 
ATOM     27  C   UNL A   1      32.663  21.369  24.938  1.00  0.00     0.004 A 
ATOM     28  C   UNL A   1      34.547  19.337  24.641  1.00  0.00     0.000 A 
ATOM     29  C   UNL A   1      32.253  20.076  24.596  1.00  0.00     0.000 A 
ATOM     30  C   UNL A   1      33.196  19.063  24.443  1.00  0.00     0.000 A 
ENDBRANCH  24  25
ENDBRANCH   7  24
ENDBRANCH   4   7
ENDBRANCH   2   3
ENDBRANCH   1   2
BRANCH   1  31
ATOM     31  C   UNL A   1      40.081  22.809  26.702  1.00  0.00     0.002 C 
BRANCH  31  32
ATOM     32  C   UNL A   1      40.794  22.042  27.823  1.00  0.00     0.002 C 
BRANCH  32  33
ATOM     33  C   UNL A   1      41.121  20.575  27.530  1.00  0.00     0.021 C 
BRANCH  33  34
ATOM     34  C   UNL A   1      41.082  20.177  26.059  1.00  0.00     0.116 C 
BRANCH  34  35
ATOM     35  N   UNL A   1      42.332  19.587  25.616  1.00  0.00    -0.352 N 
ATOM     36  C   UNL A   1      43.552  20.170  25.388  1.00  0.00     0.251 C 
ATOM     37  H   UNL A   1      42.298  18.616  25.452  1.00  0.00     0.163 HD
ATOM     38  O   UNL A   1      44.428  19.526  24.815  1.00  0.00    -0.269 OA
BRANCH  36  39
ATOM     39  C   UNL A   1      43.809  21.567  25.805  1.00  0.00     0.039 A 
ATOM     40  C   UNL A   1      44.350  21.799  27.072  1.00  0.00     0.014 A 
ATOM     41  C   UNL A   1      43.494  22.646  24.973  1.00  0.00     0.014 A 
ATOM     42  C   UNL A   1      44.627  23.106  27.481  1.00  0.00     0.010 A 
ATOM     43  C   UNL A   1      43.845  23.941  25.350  1.00  0.00     0.010 A 
ATOM     44  C   UNL A   1      44.410  24.187  26.611  1.00  0.00    -0.014 A 
BRANCH  44  45
ATOM     45  C   UNL A   1      44.760  25.577  27.009  1.00  0.00     0.031 A 
ATOM     46  C   UNL A   1      43.712  26.482  27.599  1.00  0.00     0.074 A 
ATOM     47  C   UNL A   1      46.007  26.039  26.785  1.00  0.00     0.049 A 
ATOM     48  N   UNL A   1      43.804  27.741  27.944  1.00  0.00    -0.248 NA
ATOM     49  C   UNL A   1      42.376  25.902  27.796  1.00  0.00     0.031 C 
ATOM     50  C   UNL A   1      47.096  25.271  26.181  1.00  0.00     0.029 A 
ATOM     51  N   UNL A   1      46.566  27.270  27.028  1.00  0.00    -0.354 N 
ATOM     52  C   UNL A   1      42.537  28.109  28.383  1.00  0.00     0.074 A 
ATOM     53  C   UNL A   1      41.682  26.956  28.201  1.00  0.00     0.031 C 
ATOM     54  C   UNL A   1      48.195  26.037  26.119  1.00  0.00     0.029 A 
ATOM     55  C   UNL A   1      47.879  27.368  26.631  1.00  0.00     0.049 A 
ATOM     56  H   UNL A   1      46.073  28.012  27.448  1.00  0.00     0.167 HD
ATOM     57  C   UNL A   1      42.130  29.293  28.906  1.00  0.00     0.034 A 
ATOM     58  C   UNL A   1      48.730  28.414  26.655  1.00  0.00     0.034 A 
ATOM     59  C   UNL A   1      43.002  30.429  29.089  1.00  0.00     0.049 A 
ATOM     60  C   UNL A   1      48.252  29.727  27.222  1.00  0.00     0.074 A 
ATOM     61  C   UNL A   1      42.716  31.649  29.676  1.00  0.00     0.029 A 
ATOM     62  N   UNL A   1      44.328  30.490  28.676  1.00  0.00    -0.354 N 
ATOM     63  N   UNL A   1      47.067  30.040  27.694  1.00  0.00    -0.248 NA
ATOM     64  C   UNL A   1      49.228  30.822  27.269  1.00  0.00     0.031 C 
ATOM     65  C   UNL A   1      43.836  32.476  29.541  1.00  0.00     0.029 A 
ATOM     66  C   UNL A   1      44.856  31.743  28.954  1.00  0.00     0.049 A 
ATOM     67  H   UNL A   1      44.821  29.754  28.247  1.00  0.00     0.167 HD
ATOM     68  C   UNL A   1      47.165  31.361  28.119  1.00  0.00     0.074 A 
ATOM     69  C   UNL A   1      48.528  31.779  27.863  1.00  0.00     0.031 C 
ATOM     70  C   UNL A   1      46.215  32.156  28.677  1.00  0.00     0.034 A 
BRANCH  57  71
ATOM     71  C   UNL A   1      40.672  29.427  29.281  1.00  0.00     0.023 A 
ATOM     72  C   UNL A   1      40.245  29.438  30.621  1.00  0.00     0.031 A 
ATOM     73  C   UNL A   1      39.685  29.514  28.281  1.00  0.00     0.131 A 
ATOM     74  C   UNL A   1      38.874  29.450  30.923  1.00  0.00     0.055 A 
ATOM     75  C   UNL A   1      38.328  29.616  28.590  1.00  0.00     0.041 A 
ATOM     76  F   UNL A   1      40.025  29.486  26.982  1.00  0.00    -0.206 F 
ATOM     77  C   UNL A   1      37.913  29.565  29.917  1.00  0.00     0.022 A 
BRANCH  74  78
ATOM     78  S   UNL A   1      38.363  29.147  32.637  1.00  0.00     0.124 S 
ATOM     79  O   UNL A   1      39.329  28.135  33.058  1.00  0.00    -0.237 OA
ATOM     80  O   UNL A   1      38.510  30.463  33.247  1.00  0.00    -0.237 OA
ATOM     81  O   UNL A   1      36.990  28.669  32.505  1.00  0.00    -0.744 OA
ENDBRANCH  74  78
ENDBRANCH  57  71
BRANCH  58  82
ATOM     82  C   UNL A   1      50.110  28.272  26.107  1.00  0.00     0.023 A 
ATOM     83  C   UNL A   1      50.378  28.474  24.744  1.00  0.00     0.031 A 
ATOM     84  C   UNL A   1      51.182  27.904  26.942  1.00  0.00     0.131 A 
ATOM     85  C   UNL A   1      51.676  28.268  24.248  1.00  0.00     0.055 A 
ATOM     86  C   UNL A   1      52.481  27.756  26.454  1.00  0.00     0.041 A 
ATOM     87  F   UNL A   1      50.982  27.703  28.255  1.00  0.00    -0.206 F 
ATOM     88  C   UNL A   1      52.732  27.926  25.097  1.00  0.00     0.022 A 
BRANCH  85  89
ATOM     89  S   UNL A   1      51.952  28.380  22.459  1.00  0.00     0.124 S 
ATOM     90  O   UNL A   1      50.913  29.321  22.057  1.00  0.00    -0.237 OA
ATOM     91  O   UNL A   1      53.325  28.870  22.394  1.00  0.00    -0.237 OA
ATOM     92  O   UNL A   1      51.762  27.005  22.000  1.00  0.00    -0.744 OA
ENDBRANCH  85  89
ENDBRANCH  58  82
BRANCH  70  93
ATOM     93  C   UNL A   1      46.634  33.548  29.086  1.00  0.00     0.023 A 
ATOM     94  C   UNL A   1      47.121  33.829  30.374  1.00  0.00     0.031 A 
ATOM     95  C   UNL A   1      46.539  34.611  28.169  1.00  0.00     0.131 A 
ATOM     96  C   UNL A   1      47.442  35.148  30.727  1.00  0.00     0.055 A 
ATOM     97  C   UNL A   1      46.923  35.910  28.506  1.00  0.00     0.041 A 
ATOM     98  F   UNL A   1      46.076  34.404  26.927  1.00  0.00    -0.206 F 
ATOM     99  C   UNL A   1      47.365  36.187  29.796  1.00  0.00     0.022 A 
BRANCH  96 100
ATOM    100  S   UNL A   1      47.870  35.510  32.453  1.00  0.00     0.124 S 
ATOM    101  O   UNL A   1      49.105  36.274  32.305  1.00  0.00    -0.237 OA
ATOM    102  O   UNL A   1      46.707  36.261  32.913  1.00  0.00    -0.237 OA
ATOM    103  O   UNL A   1      48.028  34.186  33.053  1.00  0.00    -0.744 OA
ENDBRANCH  96 100
ENDBRANCH  70  93
ENDBRANCH  44  45
ENDBRANCH  36  39
ENDBRANCH  34  35
ENDBRANCH  33  34
ENDBRANCH  32  33
ENDBRANCH  31  32
ENDBRANCH   1  31
TORSDOF 23
ENDMDL
MODEL 3
REMARK VINA RESULT:      -9.6      2.863      7.986
REMARK SMILES CC(C)(C)OC(=O)N1CCC[C@H]1C(=O)N[C@@H](Cc1ccccc1)C(=O)NCCCCCCNC(=O)c1ccc(-c2c3nc(c(-c4cc(S(=O)(=O)[O-])ccc4F)c4ccc([nH]4)c(-c4cc(S(=O)(=O)[O-])ccc4F)c4nc(c(-c5cc(S(=O)(=O)[O-])ccc5F)c5ccc2[nH]5)C=C4)C=C3)cc1
REMARK SMILES IDX 28 1 27 2 26 3 24 4 25 5 16 7 15 8 13 9 14 10 12 12 8 13
REMARK SMILES IDX 9 14 10 15 11 16 6 17 7 18 5 19 2 20 1 21 3 22 4 23 17 24
REMARK SMILES IDX 18 25 19 26 23 27 20 28 22 29 21 30 29 31 30 32 31 33 32 34
REMARK SMILES IDX 33 35 34 36 35 38 36 39 37 40 98 41 38 42 97 43 39 44 40 45
REMARK SMILES IDX 41 46 91 47 42 48 96 49 90 50 92 51 43 52 95 53 89 54 88 55
REMARK SMILES IDX 44 57 76 58 56 59 75 60 57 61 60 62 74 63 93 64 58 65 59 66
REMARK SMILES IDX 73 68 94 69 61 70 45 71 46 72 54 73 47 74 53 75 55 76 52 77
REMARK SMILES IDX 48 78 49 79 50 80 51 81 77 82 78 83 86 84 79 85 85 86 87 87
REMARK SMILES IDX 84 88 80 89 81 90 82 91 83 92 62 93 63 94 71 95 64 96 70 97
REMARK SMILES IDX 72 98 69 99 65 100 66 101 67 102 68 103
REMARK H PARENT 26 6 15 11 33 37 92 56 60 67
REMARK Flexibility Score: inf
ROOT
ATOM      1  C   UNL A   1      38.699  23.238  26.644  1.00  0.00     0.021 C 
ENDROOT
BRANCH   1   2
ATOM      2  C   UNL A   1      37.583  23.828  25.801  1.00  0.00     0.116 C 
BRANCH   2   3
ATOM      3  N   UNL A   1      37.395  23.176  24.527  1.00  0.00    -0.354 N 
ATOM      4  C   UNL A   1      36.320  23.222  23.695  1.00  0.00     0.242 C 
ATOM      5  O   UNL A   1      36.507  22.878  22.520  1.00  0.00    -0.273 OA
ATOM      6  H   UNL A   1      38.148  22.623  24.219  1.00  0.00     0.163 HD
BRANCH   4   7
ATOM      7  C   UNL A   1      34.929  23.760  24.116  1.00  0.00     0.175 C 
BRANCH   7   8
ATOM      8  N   UNL A   1      34.081  24.286  23.041  1.00  0.00    -0.342 N 
ATOM      9  C   UNL A   1      32.863  24.898  23.070  1.00  0.00     0.243 C 
ATOM     10  O   UNL A   1      32.288  24.992  21.981  1.00  0.00    -0.273 OA
ATOM     11  H   UNL A   1      34.460  24.177  22.138  1.00  0.00     0.164 HD
BRANCH   9  12
ATOM     12  C   UNL A   1      32.284  25.510  24.376  1.00  0.00     0.178 C 
ATOM     13  N   UNL A   1      32.014  26.943  24.228  1.00  0.00    -0.296 N 
ATOM     14  C   UNL A   1      30.594  27.219  24.205  1.00  0.00     0.124 C 
ATOM     15  C   UNL A   1      30.046  26.151  25.122  1.00  0.00     0.024 C 
ATOM     16  C   UNL A   1      30.914  24.944  24.786  1.00  0.00     0.037 C 
BRANCH  13  17
ATOM     17  C   UNL A   1      33.008  27.888  24.255  1.00  0.00     0.410 C 
ATOM     18  O   UNL A   1      33.348  28.540  23.276  1.00  0.00    -0.224 OA
BRANCH  17  19
ATOM     19  O   UNL A   1      33.598  27.942  25.473  1.00  0.00    -0.444 OA
BRANCH  19  20
ATOM     20  C   UNL A   1      33.193  28.854  26.526  1.00  0.00     0.106 C 
ATOM     21  C   UNL A   1      34.505  29.254  27.219  1.00  0.00     0.056 C 
ATOM     22  C   UNL A   1      32.313  28.079  27.508  1.00  0.00     0.056 C 
ATOM     23  C   UNL A   1      32.500  30.133  26.045  1.00  0.00     0.056 C 
ENDBRANCH  19  20
ENDBRANCH  17  19
ENDBRANCH  13  17
ENDBRANCH   9  12
ENDBRANCH   7   8
BRANCH   7  24
ATOM     24  C   UNL A   1      34.161  22.836  25.099  1.00  0.00     0.070 C 
BRANCH  24  25
ATOM     25  C   UNL A   1      33.728  21.461  24.638  1.00  0.00    -0.045 A 
ATOM     26  C   UNL A   1      34.494  20.335  24.977  1.00  0.00     0.004 A 
ATOM     27  C   UNL A   1      32.557  21.271  23.885  1.00  0.00     0.004 A 
ATOM     28  C   UNL A   1      34.139  19.065  24.516  1.00  0.00     0.000 A 
ATOM     29  C   UNL A   1      32.222  20.004  23.397  1.00  0.00     0.000 A 
ATOM     30  C   UNL A   1      33.016  18.903  23.708  1.00  0.00     0.000 A 
ENDBRANCH  24  25
ENDBRANCH   7  24
ENDBRANCH   4   7
ENDBRANCH   2   3
ENDBRANCH   1   2
BRANCH   1  31
ATOM     31  C   UNL A   1      39.775  24.235  27.073  1.00  0.00     0.002 C 
BRANCH  31  32
ATOM     32  C   UNL A   1      40.983  23.640  27.807  1.00  0.00     0.002 C 
BRANCH  32  33
ATOM     33  C   UNL A   1      41.662  22.448  27.127  1.00  0.00     0.021 C 
BRANCH  33  34
ATOM     34  C   UNL A   1      41.995  22.638  25.652  1.00  0.00     0.116 C 
BRANCH  34  35
ATOM     35  N   UNL A   1      43.395  22.384  25.368  1.00  0.00    -0.352 N 
ATOM     36  C   UNL A   1      44.480  23.220  25.453  1.00  0.00     0.251 C 
ATOM     37  H   UNL A   1      43.599  21.469  25.064  1.00  0.00     0.163 HD
ATOM     38  O   UNL A   1      45.550  22.866  24.965  1.00  0.00    -0.269 OA
BRANCH  36  39
ATOM     39  C   UNL A   1      44.360  24.544  26.104  1.00  0.00     0.039 A 
ATOM     40  C   UNL A   1      44.579  24.636  27.481  1.00  0.00     0.014 A 
ATOM     41  C   UNL A   1      44.007  25.685  25.377  1.00  0.00     0.014 A 
ATOM     42  C   UNL A   1      44.499  25.878  28.116  1.00  0.00     0.010 A 
ATOM     43  C   UNL A   1      44.006  26.933  25.997  1.00  0.00     0.010 A 
ATOM     44  C   UNL A   1      44.246  27.043  27.375  1.00  0.00    -0.014 A 
BRANCH  44  45
ATOM     45  C   UNL A   1      44.222  28.380  28.028  1.00  0.00     0.031 A 
ATOM     46  C   UNL A   1      42.930  28.938  28.563  1.00  0.00     0.074 A 
ATOM     47  C   UNL A   1      45.352  29.113  28.087  1.00  0.00     0.049 A 
ATOM     48  N   UNL A   1      42.693  30.106  29.101  1.00  0.00    -0.248 NA
ATOM     49  C   UNL A   1      41.743  28.078  28.446  1.00  0.00     0.031 C 
ATOM     50  C   UNL A   1      46.655  28.698  27.565  1.00  0.00     0.029 A 
ATOM     51  N   UNL A   1      45.585  30.365  28.599  1.00  0.00    -0.354 N 
ATOM     52  C   UNL A   1      41.328  30.130  29.373  1.00  0.00     0.074 A 
ATOM     53  C   UNL A   1      40.784  28.882  28.881  1.00  0.00     0.031 C 
ATOM     54  C   UNL A   1      47.553  29.665  27.802  1.00  0.00     0.029 A 
ATOM     55  C   UNL A   1      46.884  30.792  28.446  1.00  0.00     0.049 A 
ATOM     56  H   UNL A   1      44.888  30.907  29.036  1.00  0.00     0.167 HD
ATOM     57  C   UNL A   1      40.602  31.094  29.991  1.00  0.00     0.034 A 
ATOM     58  C   UNL A   1      47.469  31.964  28.767  1.00  0.00     0.034 A 
ATOM     59  C   UNL A   1      41.167  32.329  30.484  1.00  0.00     0.049 A 
ATOM     60  C   UNL A   1      46.639  33.031  29.435  1.00  0.00     0.074 A 
ATOM     61  C   UNL A   1      40.541  33.341  31.189  1.00  0.00     0.029 A 
ATOM     62  N   UNL A   1      42.488  32.726  30.311  1.00  0.00    -0.354 N 
ATOM     63  N   UNL A   1      45.363  33.012  29.744  1.00  0.00    -0.248 NA
ATOM     64  C   UNL A   1      47.331  34.271  29.807  1.00  0.00     0.031 C 
ATOM     65  C   UNL A   1      41.456  34.385  31.367  1.00  0.00     0.029 A 
ATOM     66  C   UNL A   1      42.682  33.987  30.857  1.00  0.00     0.049 A 
ATOM     67  H   UNL A   1      43.184  32.192  29.865  1.00  0.00     0.167 HD
ATOM     68  C   UNL A   1      45.106  34.228  30.371  1.00  0.00     0.074 A 
ATOM     69  C   UNL A   1      46.363  34.947  30.411  1.00  0.00     0.031 C 
ATOM     70  C   UNL A   1      43.938  34.704  30.875  1.00  0.00     0.034 A 
BRANCH  57  71
ATOM     71  C   UNL A   1      39.115  30.867  30.133  1.00  0.00     0.023 A 
ATOM     72  C   UNL A   1      38.174  31.621  29.408  1.00  0.00     0.031 A 
ATOM     73  C   UNL A   1      38.625  29.900  31.031  1.00  0.00     0.131 A 
ATOM     74  C   UNL A   1      36.802  31.455  29.652  1.00  0.00     0.055 A 
ATOM     75  C   UNL A   1      37.257  29.679  31.203  1.00  0.00     0.041 A 
ATOM     76  F   UNL A   1      39.470  29.163  31.768  1.00  0.00    -0.206 F 
ATOM     77  C   UNL A   1      36.336  30.471  30.526  1.00  0.00     0.022 A 
BRANCH  74  78
ATOM     78  S   UNL A   1      35.645  32.655  28.936  1.00  0.00     0.124 S 
ATOM     79  O   UNL A   1      35.941  32.535  27.510  1.00  0.00    -0.237 OA
ATOM     80  O   UNL A   1      34.351  32.140  29.365  1.00  0.00    -0.237 OA
ATOM     81  O   UNL A   1      36.046  33.922  29.542  1.00  0.00    -0.744 OA
ENDBRANCH  74  78
ENDBRANCH  57  71
BRANCH  58  82
ATOM     82  C   UNL A   1      48.905  32.200  28.442  1.00  0.00     0.023 A 
ATOM     83  C   UNL A   1      49.290  32.813  27.239  1.00  0.00     0.031 A 
ATOM     84  C   UNL A   1      49.920  31.788  29.325  1.00  0.00     0.131 A 
ATOM     85  C   UNL A   1      50.653  32.962  26.934  1.00  0.00     0.055 A 
ATOM     86  C   UNL A   1      51.273  31.988  29.042  1.00  0.00     0.041 A 
ATOM     87  F   UNL A   1      49.608  31.199  30.491  1.00  0.00    -0.206 F 
ATOM     88  C   UNL A   1      51.645  32.568  27.834  1.00  0.00     0.022 A 
BRANCH  85  89
ATOM     89  S   UNL A   1      51.114  33.610  25.304  1.00  0.00     0.124 S 
ATOM     90  O   UNL A   1      51.352  32.382  24.553  1.00  0.00    -0.237 OA
ATOM     91  O   UNL A   1      49.926  34.371  24.932  1.00  0.00    -0.237 OA
ATOM     92  O   UNL A   1      52.304  34.413  25.581  1.00  0.00    -0.744 OA
ENDBRANCH  85  89
ENDBRANCH  58  82
BRANCH  70  93
ATOM     93  C   UNL A   1      43.978  36.055  31.550  1.00  0.00     0.023 A 
ATOM     94  C   UNL A   1      44.082  36.184  32.945  1.00  0.00     0.031 A 
ATOM     95  C   UNL A   1      43.907  37.230  30.781  1.00  0.00     0.131 A 
ATOM     96  C   UNL A   1      44.055  37.458  33.533  1.00  0.00     0.055 A 
ATOM     97  C   UNL A   1      43.948  38.497  31.366  1.00  0.00     0.041 A 
ATOM     98  F   UNL A   1      43.801  37.168  29.444  1.00  0.00    -0.206 F 
ATOM     99  C   UNL A   1      44.009  38.615  32.752  1.00  0.00     0.022 A 
BRANCH  96 100
ATOM    100  S   UNL A   1      43.983  37.584  35.341  1.00  0.00     0.124 S 
ATOM    101  O   UNL A   1      42.644  37.076  35.626  1.00  0.00    -0.237 OA
ATOM    102  O   UNL A   1      45.091  36.731  35.759  1.00  0.00    -0.237 OA
ATOM    103  O   UNL A   1      44.170  39.011  35.595  1.00  0.00    -0.744 OA
ENDBRANCH  96 100
ENDBRANCH  70  93
ENDBRANCH  44  45
ENDBRANCH  36  39
ENDBRANCH  34  35
ENDBRANCH  33  34
ENDBRANCH  32  33
ENDBRANCH  31  32
ENDBRANCH   1  31
TORSDOF 23
ENDMDL
