MODEL 1
REMARK VINA RESULT:     -10.7      0.000      0.000
REMARK SMILES CC(C)C[C@H](CNC(=O)N[C@@H](C)c1nccs1)C(=O)NCCCCCCNC(=O)c1ccc(-c2c3nc(c(-c4cc(S(=O)(=O)[O-])ccc4F)c4ccc([nH]4)c(-c4cc(S(=O)(=O)[O-])ccc4F)c4nc(c(-c5cc(S(=O)(=O)[O-])ccc5F)c5ccc2[nH]5)C=C4)C=C3)cc1
REMARK SMILES IDX 23 1 22 2 21 3 20 4 18 5 19 6 5 8 4 9 2 10 1 11 3 12 6 13
REMARK SMILES IDX 7 14 8 15 9 17 10 18 11 20 12 21 13 22 14 23 17 24 15 25
REMARK SMILES IDX 16 26 24 27 25 28 26 29 27 30 28 31 29 33 30 34 31 35 92 36
REMARK SMILES IDX 32 37 91 38 33 39 34 40 35 41 85 42 36 43 90 44 84 45 86 46
REMARK SMILES IDX 37 47 89 48 83 49 82 50 38 52 70 53 50 54 69 55 51 56 54 57
REMARK SMILES IDX 68 58 87 59 52 60 53 61 67 63 88 64 55 65 39 66 40 67 48 68
REMARK SMILES IDX 41 69 47 70 49 71 46 72 42 73 43 74 44 75 45 76 71 77 72 78
REMARK SMILES IDX 80 79 73 80 79 81 81 82 78 83 74 84 75 85 76 86 77 87 56 88
REMARK SMILES IDX 57 89 65 90 58 91 64 92 66 93 63 94 59 95 60 96 61 97 62 98
REMARK H PARENT 20 7 7 16 10 19 27 32 86 51 54 62
REMARK Flexibility Score: inf
ROOT
ATOM      1  C   UNL A   1      37.009  21.497  24.768  1.00  0.00     0.002 C 
ENDROOT
BRANCH   1   2
ATOM      2  C   UNL A   1      36.305  22.429  25.752  1.00  0.00     0.021 C 
BRANCH   2   3
ATOM      3  C   UNL A   1      36.198  23.854  25.225  1.00  0.00     0.116 C 
BRANCH   3   4
ATOM      4  N   UNL A   1      35.655  23.864  23.881  1.00  0.00    -0.356 N 
ATOM      5  C   UNL A   1      34.397  24.187  23.472  1.00  0.00     0.224 C 
ATOM      6  O   UNL A   1      34.115  24.062  22.279  1.00  0.00    -0.275 OA
ATOM      7  H   UNL A   1      36.280  23.602  23.168  1.00  0.00     0.163 HD
BRANCH   5   8
ATOM      8  C   UNL A   1      33.360  24.666  24.483  1.00  0.00     0.098 C 
BRANCH   8   9
ATOM      9  C   UNL A   1      32.456  23.537  25.062  1.00  0.00     0.018 C 
BRANCH   9  10
ATOM     10  C   UNL A   1      31.892  23.746  26.495  1.00  0.00    -0.017 C 
ATOM     11  C   UNL A   1      30.372  23.631  26.577  1.00  0.00     0.007 C 
ATOM     12  C   UNL A   1      32.538  22.765  27.479  1.00  0.00     0.007 C 
ENDBRANCH   9  10
ENDBRANCH   8   9
BRANCH   8  13
ATOM     13  C   UNL A   1      32.679  25.929  23.881  1.00  0.00     0.131 C 
BRANCH  13  14
ATOM     14  N   UNL A   1      33.503  26.786  23.040  1.00  0.00    -0.337 N 
ATOM     15  C   UNL A   1      33.345  27.920  22.359  1.00  0.00     0.315 C 
ATOM     16  H   UNL A   1      34.419  26.435  22.952  1.00  0.00     0.165 HD
ATOM     17  O   UNL A   1      34.273  28.280  21.635  1.00  0.00    -0.249 OA
ATOM     18  N   UNL A   1      32.255  28.682  22.407  1.00  0.00    -0.329 N 
ATOM     19  H   UNL A   1      32.236  29.382  21.716  1.00  0.00     0.166 HD
BRANCH  18  20
ATOM     20  C   UNL A   1      31.091  28.689  23.270  1.00  0.00     0.140 C 
ATOM     21  C   UNL A   1      31.404  29.418  24.571  1.00  0.00     0.039 C 
BRANCH  20  22
ATOM     22  C   UNL A   1      29.860  29.225  22.579  1.00  0.00     0.115 A 
ATOM     23  N   UNL A   1      29.938  30.074  21.569  1.00  0.00    -0.247 NA
ATOM     24  S   UNL A   1      28.260  28.891  23.121  1.00  0.00    -0.125 S 
ATOM     25  C   UNL A   1      28.685  30.551  21.256  1.00  0.00     0.123 A 
ATOM     26  C   UNL A   1      27.652  30.039  22.007  1.00  0.00     0.087 A 
ENDBRANCH  20  22
ENDBRANCH  18  20
ENDBRANCH  13  14
ENDBRANCH   8  13
ENDBRANCH   5   8
ENDBRANCH   3   4
ENDBRANCH   2   3
ENDBRANCH   1   2
BRANCH   1  27
ATOM     27  C   UNL A   1      36.711  20.013  25.002  1.00  0.00     0.002 C 
BRANCH  27  28
ATOM     28  C   UNL A   1      37.951  19.158  25.275  1.00  0.00     0.021 C 
BRANCH  28  29
ATOM     29  C   UNL A   1      39.202  19.973  25.580  1.00  0.00     0.116 C 
BRANCH  29  30
ATOM     30  N   UNL A   1      40.306  19.110  25.966  1.00  0.00    -0.352 N 
ATOM     31  C   UNL A   1      41.598  19.454  26.269  1.00  0.00     0.251 C 
ATOM     32  H   UNL A   1      40.098  18.150  26.017  1.00  0.00     0.163 HD
ATOM     33  O   UNL A   1      42.473  18.596  26.287  1.00  0.00    -0.269 OA
BRANCH  31  34
ATOM     34  C   UNL A   1      41.914  20.867  26.558  1.00  0.00     0.039 A 
ATOM     35  C   UNL A   1      42.191  21.247  27.870  1.00  0.00     0.014 A 
ATOM     36  C   UNL A   1      41.939  21.808  25.524  1.00  0.00     0.014 A 
ATOM     37  C   UNL A   1      42.540  22.571  28.140  1.00  0.00     0.010 A 
ATOM     38  C   UNL A   1      42.365  23.105  25.783  1.00  0.00     0.010 A 
ATOM     39  C   UNL A   1      42.658  23.502  27.095  1.00  0.00    -0.014 A 
BRANCH  39  40
ATOM     40  C   UNL A   1      43.075  24.902  27.358  1.00  0.00     0.031 A 
ATOM     41  C   UNL A   1      42.117  25.862  28.008  1.00  0.00     0.074 A 
ATOM     42  C   UNL A   1      44.293  25.318  26.962  1.00  0.00     0.049 A 
ATOM     43  N   UNL A   1      42.268  27.135  28.265  1.00  0.00    -0.248 NA
ATOM     44  C   UNL A   1      40.803  25.323  28.389  1.00  0.00     0.031 C 
ATOM     45  C   UNL A   1      45.290  24.486  26.285  1.00  0.00     0.029 A 
ATOM     46  N   UNL A   1      44.901  26.544  27.063  1.00  0.00    -0.354 N 
ATOM     47  C   UNL A   1      41.067  27.552  28.828  1.00  0.00     0.074 A 
ATOM     48  C   UNL A   1      40.176  26.411  28.805  1.00  0.00     0.031 C 
ATOM     49  C   UNL A   1      46.393  25.216  26.060  1.00  0.00     0.029 A 
ATOM     50  C   UNL A   1      46.166  26.580  26.526  1.00  0.00     0.049 A 
ATOM     51  H   UNL A   1      44.470  27.325  27.481  1.00  0.00     0.167 HD
ATOM     52  C   UNL A   1      40.746  28.768  29.339  1.00  0.00     0.034 A 
ATOM     53  C   UNL A   1      47.038  27.600  26.408  1.00  0.00     0.034 A 
ATOM     54  C   UNL A   1      41.652  29.891  29.350  1.00  0.00     0.049 A 
ATOM     55  C   UNL A   1      46.648  28.953  26.949  1.00  0.00     0.074 A 
ATOM     56  C   UNL A   1      41.455  31.151  29.886  1.00  0.00     0.029 A 
ATOM     57  N   UNL A   1      42.924  29.894  28.789  1.00  0.00    -0.354 N 
ATOM     58  N   UNL A   1      45.528  29.320  27.528  1.00  0.00    -0.248 NA
ATOM     59  C   UNL A   1      47.643  30.024  26.828  1.00  0.00     0.031 C 
ATOM     60  C   UNL A   1      42.570  31.938  29.577  1.00  0.00     0.029 A 
ATOM     61  C   UNL A   1      43.505  31.146  28.930  1.00  0.00     0.049 A 
ATOM     62  H   UNL A   1      43.349  29.122  28.352  1.00  0.00     0.167 HD
ATOM     63  C   UNL A   1      45.699  30.659  27.870  1.00  0.00     0.074 A 
ATOM     64  C   UNL A   1      47.034  31.027  27.444  1.00  0.00     0.031 C 
ATOM     65  C   UNL A   1      44.833  31.504  28.487  1.00  0.00     0.034 A 
BRANCH  52  66
ATOM     66  C   UNL A   1      39.349  28.941  29.891  1.00  0.00     0.023 A 
ATOM     67  C   UNL A   1      38.318  29.520  29.127  1.00  0.00     0.031 A 
ATOM     68  C   UNL A   1      39.050  28.561  31.211  1.00  0.00     0.131 A 
ATOM     69  C   UNL A   1      37.072  29.786  29.717  1.00  0.00     0.055 A 
ATOM     70  C   UNL A   1      37.780  28.741  31.761  1.00  0.00     0.041 A 
ATOM     71  F   UNL A   1      39.996  28.023  31.998  1.00  0.00    -0.206 F 
ATOM     72  C   UNL A   1      36.786  29.374  31.019  1.00  0.00     0.022 A 
BRANCH  69  73
ATOM     73  S   UNL A   1      35.894  30.827  28.814  1.00  0.00     0.124 S 
ATOM     74  O   UNL A   1      36.789  31.646  27.998  1.00  0.00    -0.237 OA
ATOM     75  O   UNL A   1      35.092  29.845  28.093  1.00  0.00    -0.237 OA
ATOM     76  O   UNL A   1      35.193  31.550  29.873  1.00  0.00    -0.744 OA
ENDBRANCH  69  73
ENDBRANCH  52  66
BRANCH  53  77
ATOM     77  C   UNL A   1      48.358  27.388  25.747  1.00  0.00     0.023 A 
ATOM     78  C   UNL A   1      48.502  27.516  24.358  1.00  0.00     0.031 A 
ATOM     79  C   UNL A   1      49.493  27.027  26.497  1.00  0.00     0.131 A 
ATOM     80  C   UNL A   1      49.741  27.244  23.754  1.00  0.00     0.055 A 
ATOM     81  C   UNL A   1      50.735  26.814  25.899  1.00  0.00     0.041 A 
ATOM     82  F   UNL A   1      49.411  26.896  27.831  1.00  0.00    -0.206 F 
ATOM     83  C   UNL A   1      50.861  26.910  24.517  1.00  0.00     0.022 A 
BRANCH  80  84
ATOM     84  S   UNL A   1      49.847  27.257  21.944  1.00  0.00     0.124 S 
ATOM     85  O   UNL A   1      51.210  26.788  21.723  1.00  0.00    -0.237 OA
ATOM     86  O   UNL A   1      48.781  26.334  21.570  1.00  0.00    -0.237 OA
ATOM     87  O   UNL A   1      49.606  28.657  21.600  1.00  0.00    -0.744 OA
ENDBRANCH  80  84
ENDBRANCH  53  77
BRANCH  65  88
ATOM     88  C   UNL A   1      45.328  32.901  28.780  1.00  0.00     0.023 A 
ATOM     89  C   UNL A   1      45.093  33.973  27.902  1.00  0.00     0.031 A 
ATOM     90  C   UNL A   1      46.054  33.159  29.957  1.00  0.00     0.131 A 
ATOM     91  C   UNL A   1      45.627  35.240  28.186  1.00  0.00     0.055 A 
ATOM     92  C   UNL A   1      46.526  34.435  30.267  1.00  0.00     0.041 A 
ATOM     93  F   UNL A   1      46.315  32.172  30.830  1.00  0.00    -0.206 F 
ATOM     94  C   UNL A   1      46.325  35.482  29.373  1.00  0.00     0.022 A 
BRANCH  91  95
ATOM     95  S   UNL A   1      45.489  36.545  26.934  1.00  0.00     0.124 S 
ATOM     96  O   UNL A   1      46.329  36.025  25.859  1.00  0.00    -0.237 OA
ATOM     97  O   UNL A   1      44.055  36.571  26.667  1.00  0.00    -0.237 OA
ATOM     98  O   UNL A   1      46.014  37.729  27.614  1.00  0.00    -0.744 OA
ENDBRANCH  91  95
ENDBRANCH  65  88
ENDBRANCH  39  40
ENDBRANCH  31  34
ENDBRANCH  29  30
ENDBRANCH  28  29
ENDBRANCH  27  28
ENDBRANCH   1  27
TORSDOF 22
ENDMDL
MODEL 2
REMARK VINA RESULT:     -10.6      1.876      2.245
REMARK SMILES CC(C)C[C@H](CNC(=O)N[C@@H](C)c1nccs1)C(=O)NCCCCCCNC(=O)c1ccc(-c2c3nc(c(-c4cc(S(=O)(=O)[O-])ccc4F)c4ccc([nH]4)c(-c4cc(S(=O)(=O)[O-])ccc4F)c4nc(c(-c5cc(S(=O)(=O)[O-])ccc5F)c5ccc2[nH]5)C=C4)C=C3)cc1
REMARK SMILES IDX 23 1 22 2 21 3 20 4 18 5 19 6 5 8 4 9 2 10 1 11 3 12 6 13
REMARK SMILES IDX 7 14 8 15 9 17 10 18 11 20 12 21 13 22 14 23 17 24 15 25
REMARK SMILES IDX 16 26 24 27 25 28 26 29 27 30 28 31 29 33 30 34 31 35 92 36
REMARK SMILES IDX 32 37 91 38 33 39 34 40 35 41 85 42 36 43 90 44 84 45 86 46
REMARK SMILES IDX 37 47 89 48 83 49 82 50 38 52 70 53 50 54 69 55 51 56 54 57
REMARK SMILES IDX 68 58 87 59 52 60 53 61 67 63 88 64 55 65 39 66 40 67 48 68
REMARK SMILES IDX 41 69 47 70 49 71 46 72 42 73 43 74 44 75 45 76 71 77 72 78
REMARK SMILES IDX 80 79 73 80 79 81 81 82 78 83 74 84 75 85 76 86 77 87 56 88
REMARK SMILES IDX 57 89 65 90 58 91 64 92 66 93 63 94 59 95 60 96 61 97 62 98
REMARK H PARENT 20 7 7 16 10 19 27 32 86 51 54 62
REMARK Flexibility Score: inf
ROOT
ATOM      1  C   UNL A   1      36.122  21.293  25.192  1.00  0.00     0.002 C 
ENDROOT
BRANCH   1   2
ATOM      2  C   UNL A   1      35.193  20.098  24.995  1.00  0.00     0.021 C 
BRANCH   2   3
ATOM      3  C   UNL A   1      33.731  20.457  25.225  1.00  0.00     0.116 C 
BRANCH   3   4
ATOM      4  N   UNL A   1      33.012  20.511  23.967  1.00  0.00    -0.356 N 
ATOM      5  C   UNL A   1      32.530  21.600  23.307  1.00  0.00     0.224 C 
ATOM      6  O   UNL A   1      31.879  21.422  22.276  1.00  0.00    -0.275 OA
ATOM      7  H   UNL A   1      32.851  19.643  23.531  1.00  0.00     0.163 HD
BRANCH   5   8
ATOM      8  C   UNL A   1      32.771  23.002  23.857  1.00  0.00     0.098 C 
BRANCH   8   9
ATOM      9  C   UNL A   1      32.691  23.107  25.409  1.00  0.00     0.018 C 
BRANCH   9  10
ATOM     10  C   UNL A   1      33.456  24.281  26.081  1.00  0.00    -0.017 C 
ATOM     11  C   UNL A   1      34.707  24.713  25.318  1.00  0.00     0.007 C 
ATOM     12  C   UNL A   1      32.532  25.486  26.281  1.00  0.00     0.007 C 
ENDBRANCH   9  10
ENDBRANCH   8   9
BRANCH   8  13
ATOM     13  C   UNL A   1      31.924  23.985  23.000  1.00  0.00     0.131 C 
BRANCH  13  14
ATOM     14  N   UNL A   1      32.479  24.389  21.716  1.00  0.00    -0.337 N 
ATOM     15  C   UNL A   1      32.688  25.532  21.065  1.00  0.00     0.315 C 
ATOM     16  H   UNL A   1      32.780  23.612  21.191  1.00  0.00     0.165 HD
ATOM     17  O   UNL A   1      33.075  25.457  19.899  1.00  0.00    -0.249 OA
ATOM     18  N   UNL A   1      32.503  26.742  21.588  1.00  0.00    -0.329 N 
ATOM     19  H   UNL A   1      32.535  27.466  20.922  1.00  0.00     0.166 HD
BRANCH  18  20
ATOM     20  C   UNL A   1      32.264  27.210  22.938  1.00  0.00     0.140 C 
ATOM     21  C   UNL A   1      33.548  27.769  23.538  1.00  0.00     0.039 C 
BRANCH  20  22
ATOM     22  C   UNL A   1      31.107  28.176  23.021  1.00  0.00     0.115 A 
ATOM     23  N   UNL A   1      30.214  28.282  22.054  1.00  0.00    -0.247 NA
ATOM     24  S   UNL A   1      30.924  29.312  24.303  1.00  0.00    -0.125 S 
ATOM     25  C   UNL A   1      29.391  29.361  22.288  1.00  0.00     0.123 A 
ATOM     26  C   UNL A   1      29.640  30.055  23.450  1.00  0.00     0.087 A 
ENDBRANCH  20  22
ENDBRANCH  18  20
ENDBRANCH  13  14
ENDBRANCH   8  13
ENDBRANCH   5   8
ENDBRANCH   3   4
ENDBRANCH   2   3
ENDBRANCH   1   2
BRANCH   1  27
ATOM     27  C   UNL A   1      37.489  21.131  24.519  1.00  0.00     0.002 C 
BRANCH  27  28
ATOM     28  C   UNL A   1      38.308  19.945  25.036  1.00  0.00     0.021 C 
BRANCH  28  29
ATOM     29  C   UNL A   1      39.330  20.324  26.100  1.00  0.00     0.116 C 
BRANCH  29  30
ATOM     30  N   UNL A   1      40.459  19.409  26.089  1.00  0.00    -0.352 N 
ATOM     31  C   UNL A   1      41.799  19.698  26.048  1.00  0.00     0.251 C 
ATOM     32  H   UNL A   1      40.231  18.452  26.114  1.00  0.00     0.163 HD
ATOM     33  O   UNL A   1      42.606  18.826  25.751  1.00  0.00    -0.269 OA
BRANCH  31  34
ATOM     34  C   UNL A   1      42.243  21.072  26.356  1.00  0.00     0.039 A 
ATOM     35  C   UNL A   1      42.574  21.401  27.670  1.00  0.00     0.014 A 
ATOM     36  C   UNL A   1      42.336  22.027  25.339  1.00  0.00     0.014 A 
ATOM     37  C   UNL A   1      43.043  22.683  27.957  1.00  0.00     0.010 A 
ATOM     38  C   UNL A   1      42.880  23.276  25.613  1.00  0.00     0.010 A 
ATOM     39  C   UNL A   1      43.228  23.620  26.927  1.00  0.00    -0.014 A 
BRANCH  39  40
ATOM     40  C   UNL A   1      43.772  24.972  27.207  1.00  0.00     0.031 A 
ATOM     41  C   UNL A   1      42.886  26.028  27.809  1.00  0.00     0.074 A 
ATOM     42  C   UNL A   1      45.043  25.260  26.869  1.00  0.00     0.049 A 
ATOM     43  N   UNL A   1      43.154  27.281  28.071  1.00  0.00    -0.248 NA
ATOM     44  C   UNL A   1      41.508  25.627  28.127  1.00  0.00     0.031 C 
ATOM     45  C   UNL A   1      45.981  24.326  26.242  1.00  0.00     0.029 A 
ATOM     46  N   UNL A   1      45.767  26.418  26.996  1.00  0.00    -0.354 N 
ATOM     47  C   UNL A   1      41.976  27.821  28.575  1.00  0.00     0.074 A 
ATOM     48  C   UNL A   1      40.976  26.776  28.512  1.00  0.00     0.031 C 
ATOM     49  C   UNL A   1      47.162  24.939  26.068  1.00  0.00     0.029 A 
ATOM     50  C   UNL A   1      47.052  26.323  26.520  1.00  0.00     0.049 A 
ATOM     51  H   UNL A   1      45.398  27.241  27.392  1.00  0.00     0.167 HD
ATOM     52  C   UNL A   1      41.756  29.067  29.068  1.00  0.00     0.034 A 
ATOM     53  C   UNL A   1      48.029  27.248  26.443  1.00  0.00     0.034 A 
ATOM     54  C   UNL A   1      42.770  30.092  29.121  1.00  0.00     0.049 A 
ATOM     55  C   UNL A   1      47.753  28.637  26.961  1.00  0.00     0.074 A 
ATOM     56  C   UNL A   1      42.677  31.369  29.645  1.00  0.00     0.029 A 
ATOM     57  N   UNL A   1      44.061  29.963  28.620  1.00  0.00    -0.354 N 
ATOM     58  N   UNL A   1      46.650  29.119  27.486  1.00  0.00    -0.248 NA
ATOM     59  C   UNL A   1      48.856  29.601  26.887  1.00  0.00     0.031 C 
ATOM     60  C   UNL A   1      43.879  32.037  29.388  1.00  0.00     0.029 A 
ATOM     61  C   UNL A   1      44.759  31.150  28.787  1.00  0.00     0.049 A 
ATOM     62  H   UNL A   1      44.425  29.148  28.206  1.00  0.00     0.167 HD
ATOM     63  C   UNL A   1      46.939  30.436  27.834  1.00  0.00     0.074 A 
ATOM     64  C   UNL A   1      48.323  30.664  27.471  1.00  0.00     0.031 C 
ATOM     65  C   UNL A   1      46.136  31.369  28.408  1.00  0.00     0.034 A 
BRANCH  52  66
ATOM     66  C   UNL A   1      40.359  29.385  29.552  1.00  0.00     0.023 A 
ATOM     67  C   UNL A   1      40.045  29.436  30.923  1.00  0.00     0.031 A 
ATOM     68  C   UNL A   1      39.317  29.601  28.634  1.00  0.00     0.131 A 
ATOM     69  C   UNL A   1      38.713  29.603  31.332  1.00  0.00     0.055 A 
ATOM     70  C   UNL A   1      38.009  29.861  29.050  1.00  0.00     0.041 A 
ATOM     71  F   UNL A   1      39.547  29.543  27.313  1.00  0.00    -0.206 F 
ATOM     72  C   UNL A   1      37.697  29.845  30.407  1.00  0.00     0.022 A 
BRANCH  69  73
ATOM     73  S   UNL A   1      38.305  29.329  33.078  1.00  0.00     0.124 S 
ATOM     74  O   UNL A   1      38.071  30.694  33.544  1.00  0.00    -0.237 OA
ATOM     75  O   UNL A   1      37.129  28.470  32.997  1.00  0.00    -0.237 OA
ATOM     76  O   UNL A   1      39.507  28.694  33.615  1.00  0.00    -0.744 OA
ENDBRANCH  69  73
ENDBRANCH  52  66
BRANCH  53  77
ATOM     77  C   UNL A   1      49.350  26.899  25.846  1.00  0.00     0.023 A 
ATOM     78  C   UNL A   1      49.716  27.362  24.573  1.00  0.00     0.031 A 
ATOM     79  C   UNL A   1      50.258  26.072  26.533  1.00  0.00     0.131 A 
ATOM     80  C   UNL A   1      50.938  26.963  24.007  1.00  0.00     0.055 A 
ATOM     81  C   UNL A   1      51.494  25.723  25.989  1.00  0.00     0.041 A 
ATOM     82  F   UNL A   1      49.958  25.604  27.755  1.00  0.00    -0.206 F 
ATOM     83  C   UNL A   1      51.836  26.160  24.713  1.00  0.00     0.022 A 
BRANCH  80  84
ATOM     84  S   UNL A   1      51.303  27.445  22.297  1.00  0.00     0.124 S 
ATOM     85  O   UNL A   1      52.064  28.674  22.492  1.00  0.00    -0.237 OA
ATOM     86  O   UNL A   1      52.055  26.293  21.811  1.00  0.00    -0.237 OA
ATOM     87  O   UNL A   1      49.979  27.619  21.704  1.00  0.00    -0.744 OA
ENDBRANCH  80  84
ENDBRANCH  53  77
BRANCH  65  88
ATOM     88  C   UNL A   1      46.756  32.711  28.721  1.00  0.00     0.023 A 
ATOM     89  C   UNL A   1      46.731  33.775  27.803  1.00  0.00     0.031 A 
ATOM     90  C   UNL A   1      47.388  32.922  29.960  1.00  0.00     0.131 A 
ATOM     91  C   UNL A   1      47.376  34.982  28.115  1.00  0.00     0.055 A 
ATOM     92  C   UNL A   1      47.969  34.147  30.291  1.00  0.00     0.041 A 
ATOM     93  F   UNL A   1      47.447  31.940  30.874  1.00  0.00    -0.206 F 
ATOM     94  C   UNL A   1      47.977  35.181  29.361  1.00  0.00     0.022 A 
BRANCH  91  95
ATOM     95  S   UNL A   1      47.511  36.255  26.830  1.00  0.00     0.124 S 
ATOM     96  O   UNL A   1      48.940  36.237  26.533  1.00  0.00    -0.237 OA
ATOM     97  O   UNL A   1      46.636  35.737  25.783  1.00  0.00    -0.237 OA
ATOM     98  O   UNL A   1      47.030  37.465  27.495  1.00  0.00    -0.744 OA
ENDBRANCH  91  95
ENDBRANCH  65  88
ENDBRANCH  39  40
ENDBRANCH  31  34
ENDBRANCH  29  30
ENDBRANCH  28  29
ENDBRANCH  27  28
ENDBRANCH   1  27
TORSDOF 22
ENDMDL
MODEL 3
REMARK VINA RESULT:     -10.6      6.076     11.252
REMARK SMILES CC(C)C[C@H](CNC(=O)N[C@@H](C)c1nccs1)C(=O)NCCCCCCNC(=O)c1ccc(-c2c3nc(c(-c4cc(S(=O)(=O)[O-])ccc4F)c4ccc([nH]4)c(-c4cc(S(=O)(=O)[O-])ccc4F)c4nc(c(-c5cc(S(=O)(=O)[O-])ccc5F)c5ccc2[nH]5)C=C4)C=C3)cc1
REMARK SMILES IDX 23 1 22 2 21 3 20 4 18 5 19 6 5 8 4 9 2 10 1 11 3 12 6 13
REMARK SMILES IDX 7 14 8 15 9 17 10 18 11 20 12 21 13 22 14 23 17 24 15 25
REMARK SMILES IDX 16 26 24 27 25 28 26 29 27 30 28 31 29 33 30 34 31 35 92 36
REMARK SMILES IDX 32 37 91 38 33 39 34 40 35 41 85 42 36 43 90 44 84 45 86 46
REMARK SMILES IDX 37 47 89 48 83 49 82 50 38 52 70 53 50 54 69 55 51 56 54 57
REMARK SMILES IDX 68 58 87 59 52 60 53 61 67 63 88 64 55 65 39 66 40 67 48 68
REMARK SMILES IDX 41 69 47 70 49 71 46 72 42 73 43 74 44 75 45 76 71 77 72 78
REMARK SMILES IDX 80 79 73 80 79 81 81 82 78 83 74 84 75 85 76 86 77 87 56 88
REMARK SMILES IDX 57 89 65 90 58 91 64 92 66 93 63 94 59 95 60 96 61 97 62 98
REMARK H PARENT 20 7 7 16 10 19 27 32 86 51 54 62
REMARK Flexibility Score: inf
ROOT
ATOM      1  C   UNL A   1      34.178  29.042  26.939  1.00  0.00     0.002 C 
ENDROOT
BRANCH   1   2
ATOM      2  C   UNL A   1      32.767  28.468  27.048  1.00  0.00     0.021 C 
BRANCH   2   3
ATOM      3  C   UNL A   1      32.243  27.963  25.710  1.00  0.00     0.116 C 
BRANCH   3   4
ATOM      4  N   UNL A   1      33.084  28.421  24.623  1.00  0.00    -0.356 N 
ATOM      5  C   UNL A   1      32.726  28.774  23.358  1.00  0.00     0.224 C 
ATOM      6  O   UNL A   1      33.612  29.072  22.556  1.00  0.00    -0.275 OA
ATOM      7  H   UNL A   1      34.044  28.487  24.827  1.00  0.00     0.163 HD
BRANCH   5   8
ATOM      8  C   UNL A   1      31.257  28.769  22.945  1.00  0.00     0.098 C 
BRANCH   8   9
ATOM      9  C   UNL A   1      30.313  29.539  23.916  1.00  0.00     0.018 C 
BRANCH   9  10
ATOM     10  C   UNL A   1      29.122  30.311  23.283  1.00  0.00    -0.017 C 
ATOM     11  C   UNL A   1      28.930  31.715  23.853  1.00  0.00     0.007 C 
ATOM     12  C   UNL A   1      29.274  30.388  21.761  1.00  0.00     0.007 C 
ENDBRANCH   9  10
ENDBRANCH   8   9
BRANCH   8  13
ATOM     13  C   UNL A   1      30.893  27.307  22.556  1.00  0.00     0.131 C 
BRANCH  13  14
ATOM     14  N   UNL A   1      31.687  26.686  21.506  1.00  0.00    -0.337 N 
ATOM     15  C   UNL A   1      32.517  25.649  21.400  1.00  0.00     0.315 C 
ATOM     16  H   UNL A   1      31.583  27.157  20.647  1.00  0.00     0.165 HD
ATOM     17  O   UNL A   1      33.120  25.513  20.336  1.00  0.00    -0.249 OA
ATOM     18  N   UNL A   1      32.737  24.759  22.364  1.00  0.00    -0.329 N 
ATOM     19  H   UNL A   1      33.502  24.166  22.184  1.00  0.00     0.166 HD
BRANCH  18  20
ATOM     20  C   UNL A   1      32.081  24.486  23.627  1.00  0.00     0.140 C 
ATOM     21  C   UNL A   1      30.774  23.739  23.391  1.00  0.00     0.039 C 
BRANCH  20  22
ATOM     22  C   UNL A   1      32.986  23.787  24.613  1.00  0.00     0.115 A 
ATOM     23  N   UNL A   1      33.439  24.392  25.696  1.00  0.00    -0.247 NA
ATOM     24  S   UNL A   1      33.616  22.206  24.351  1.00  0.00    -0.125 S 
ATOM     25  C   UNL A   1      34.390  23.610  26.311  1.00  0.00     0.123 A 
ATOM     26  C   UNL A   1      34.635  22.395  25.711  1.00  0.00     0.087 A 
ENDBRANCH  20  22
ENDBRANCH  18  20
ENDBRANCH  13  14
ENDBRANCH   8  13
ENDBRANCH   5   8
ENDBRANCH   3   4
ENDBRANCH   2   3
ENDBRANCH   1   2
BRANCH   1  27
ATOM     27  C   UNL A   1      34.404  30.292  27.795  1.00  0.00     0.002 C 
BRANCH  27  28
ATOM     28  C   UNL A   1      33.961  31.599  27.131  1.00  0.00     0.021 C 
BRANCH  28  29
ATOM     29  C   UNL A   1      32.600  32.095  27.606  1.00  0.00     0.116 C 
BRANCH  29  30
ATOM     30  N   UNL A   1      32.568  33.547  27.672  1.00  0.00    -0.352 N 
ATOM     31  C   UNL A   1      33.236  34.382  28.531  1.00  0.00     0.251 C 
ATOM     32  H   UNL A   1      31.990  33.990  27.010  1.00  0.00     0.163 HD
ATOM     33  O   UNL A   1      32.882  35.548  28.650  1.00  0.00    -0.269 OA
BRANCH  31  34
ATOM     34  C   UNL A   1      34.371  33.848  29.309  1.00  0.00     0.039 A 
ATOM     35  C   UNL A   1      34.118  32.995  30.383  1.00  0.00     0.014 A 
ATOM     36  C   UNL A   1      35.683  34.193  28.968  1.00  0.00     0.014 A 
ATOM     37  C   UNL A   1      35.189  32.448  31.089  1.00  0.00     0.010 A 
ATOM     38  C   UNL A   1      36.747  33.584  29.621  1.00  0.00     0.010 A 
ATOM     39  C   UNL A   1      36.511  32.715  30.695  1.00  0.00    -0.014 A 
BRANCH  39  40
ATOM     40  C   UNL A   1      37.662  32.103  31.406  1.00  0.00     0.031 A 
ATOM     41  C   UNL A   1      38.434  30.986  30.761  1.00  0.00     0.074 A 
ATOM     42  C   UNL A   1      37.970  32.517  32.650  1.00  0.00     0.049 A 
ATOM     43  N   UNL A   1      39.427  30.282  31.241  1.00  0.00    -0.248 NA
ATOM     44  C   UNL A   1      38.013  30.588  29.410  1.00  0.00     0.031 C 
ATOM     45  C   UNL A   1      37.264  33.565  33.390  1.00  0.00     0.029 A 
ATOM     46  N   UNL A   1      38.952  32.106  33.516  1.00  0.00    -0.354 N 
ATOM     47  C   UNL A   1      39.741  29.352  30.256  1.00  0.00     0.074 A 
ATOM     48  C   UNL A   1      38.785  29.537  29.185  1.00  0.00     0.031 C 
ATOM     49  C   UNL A   1      37.853  33.734  34.583  1.00  0.00     0.029 A 
ATOM     50  C   UNL A   1      38.944  32.773  34.717  1.00  0.00     0.049 A 
ATOM     51  H   UNL A   1      39.601  31.399  33.296  1.00  0.00     0.167 HD
ATOM     52  C   UNL A   1      40.750  28.444  30.238  1.00  0.00     0.034 A 
ATOM     53  C   UNL A   1      39.719  32.620  35.809  1.00  0.00     0.034 A 
ATOM     54  C   UNL A   1      41.692  28.279  31.318  1.00  0.00     0.049 A 
ATOM     55  C   UNL A   1      40.810  31.580  35.783  1.00  0.00     0.074 A 
ATOM     56  C   UNL A   1      42.783  27.430  31.388  1.00  0.00     0.029 A 
ATOM     57  N   UNL A   1      41.649  28.966  32.526  1.00  0.00    -0.354 N 
ATOM     58  N   UNL A   1      41.132  30.744  34.823  1.00  0.00    -0.248 NA
ATOM     59  C   UNL A   1      41.649  31.472  36.982  1.00  0.00     0.031 C 
ATOM     60  C   UNL A   1      43.347  27.545  32.663  1.00  0.00     0.029 A 
ATOM     61  C   UNL A   1      42.668  28.532  33.360  1.00  0.00     0.049 A 
ATOM     62  H   UNL A   1      40.989  29.659  32.756  1.00  0.00     0.167 HD
ATOM     63  C   UNL A   1      42.232  30.032  35.292  1.00  0.00     0.074 A 
ATOM     64  C   UNL A   1      42.525  30.549  36.614  1.00  0.00     0.031 C 
ATOM     65  C   UNL A   1      42.941  29.046  34.683  1.00  0.00     0.034 A 
BRANCH  52  66
ATOM     66  C   UNL A   1      40.855  27.548  29.024  1.00  0.00     0.023 A 
ATOM     67  C   UNL A   1      41.827  27.761  28.029  1.00  0.00     0.031 A 
ATOM     68  C   UNL A   1      39.947  26.491  28.837  1.00  0.00     0.131 A 
ATOM     69  C   UNL A   1      41.809  26.992  26.855  1.00  0.00     0.055 A 
ATOM     70  C   UNL A   1      39.995  25.668  27.709  1.00  0.00     0.041 A 
ATOM     71  F   UNL A   1      38.983  26.250  29.739  1.00  0.00    -0.206 F 
ATOM     72  C   UNL A   1      40.919  25.928  26.701  1.00  0.00     0.022 A 
BRANCH  69  73
ATOM     73  S   UNL A   1      42.852  27.513  25.465  1.00  0.00     0.124 S 
ATOM     74  O   UNL A   1      44.038  28.012  26.158  1.00  0.00    -0.237 OA
ATOM     75  O   UNL A   1      43.023  26.273  24.717  1.00  0.00    -0.237 OA
ATOM     76  O   UNL A   1      42.050  28.539  24.801  1.00  0.00    -0.744 OA
ENDBRANCH  69  73
ENDBRANCH  52  66
BRANCH  53  77
ATOM     77  C   UNL A   1      39.487  33.460  37.020  1.00  0.00     0.023 A 
ATOM     78  C   UNL A   1      40.212  34.642  37.232  1.00  0.00     0.031 A 
ATOM     79  C   UNL A   1      38.550  33.076  37.997  1.00  0.00     0.131 A 
ATOM     80  C   UNL A   1      40.021  35.378  38.412  1.00  0.00     0.055 A 
ATOM     81  C   UNL A   1      38.324  33.841  39.142  1.00  0.00     0.041 A 
ATOM     82  F   UNL A   1      37.826  31.956  37.841  1.00  0.00    -0.206 F 
ATOM     83  C   UNL A   1      39.070  34.994  39.361  1.00  0.00     0.022 A 
BRANCH  80  84
ATOM     84  S   UNL A   1      41.092  36.807  38.729  1.00  0.00     0.124 S 
ATOM     85  O   UNL A   1      40.116  37.855  39.001  1.00  0.00    -0.237 OA
ATOM     86  O   UNL A   1      41.879  36.349  39.869  1.00  0.00    -0.237 OA
ATOM     87  O   UNL A   1      41.836  36.956  37.480  1.00  0.00    -0.744 OA
ENDBRANCH  80  84
ENDBRANCH  53  77
BRANCH  65  88
ATOM     88  C   UNL A   1      44.134  28.496  35.429  1.00  0.00     0.023 A 
ATOM     89  C   UNL A   1      44.016  27.439  36.347  1.00  0.00     0.031 A 
ATOM     90  C   UNL A   1      45.411  29.048  35.217  1.00  0.00     0.131 A 
ATOM     91  C   UNL A   1      45.143  27.005  37.063  1.00  0.00     0.055 A 
ATOM     92  C   UNL A   1      46.540  28.567  35.882  1.00  0.00     0.041 A 
ATOM     93  F   UNL A   1      45.584  30.063  34.356  1.00  0.00    -0.206 F 
ATOM     94  C   UNL A   1      46.407  27.549  36.821  1.00  0.00     0.022 A 
BRANCH  91  95
ATOM     95  S   UNL A   1      44.918  25.790  38.390  1.00  0.00     0.124 S 
ATOM     96  O   UNL A   1      43.869  24.934  37.844  1.00  0.00    -0.237 OA
ATOM     97  O   UNL A   1      46.243  25.190  38.493  1.00  0.00    -0.237 OA
ATOM     98  O   UNL A   1      44.518  26.606  39.537  1.00  0.00    -0.744 OA
ENDBRANCH  91  95
ENDBRANCH  65  88
ENDBRANCH  39  40
ENDBRANCH  31  34
ENDBRANCH  29  30
ENDBRANCH  28  29
ENDBRANCH  27  28
ENDBRANCH   1  27
TORSDOF 22
ENDMDL
