MODEL 1
REMARK VINA RESULT:     -12.1      0.000      0.000
REMARK SMILES O=C(NCCCCCCNC(=O)[C@H]1Cc2ccc(Cl)cc2C[N@@H+]1Cc1ccc(Cl)cc1)c1ccc(-c2c3nc(c(-c4cc(S(=O)(=O)[O-])ccc4F)c4ccc([nH]4)c(-c4cc(S(=O)(=O)[O-])ccc4F)c4nc(c(-c5cc(S(=O)(=O)[O-])ccc5F)c5ccc2[nH]5)C=C4)C=C3)cc1
REMARK SMILES IDX 6 1 5 2 4 3 3 4 1 5 2 6 32 8 33 9 94 10 34 11 93 12 35 13
REMARK SMILES IDX 36 14 37 15 87 16 38 17 92 18 86 19 88 20 39 21 91 22 85 23
REMARK SMILES IDX 84 24 40 26 72 27 52 28 71 29 53 30 56 31 70 32 89 33 54 34
REMARK SMILES IDX 55 35 69 37 90 38 57 39 41 40 42 41 50 42 43 43 49 44 51 45
REMARK SMILES IDX 48 46 44 47 45 48 46 49 47 50 73 51 74 52 82 53 75 54 81 55
REMARK SMILES IDX 83 56 80 57 76 58 77 59 78 60 79 61 58 62 59 63 67 64 60 65
REMARK SMILES IDX 66 66 68 67 65 68 61 69 62 70 63 71 64 72 7 73 8 74 9 75
REMARK SMILES IDX 10 76 11 77 12 79 13 80 14 81 23 82 15 83 22 84 16 86 21 87
REMARK SMILES IDX 17 88 20 89 18 90 19 91 24 92 25 93 26 94 31 95 27 96 30 97
REMARK SMILES IDX 28 98 29 99
REMARK H PARENT 3 7 88 25 56 36 10 78 23 85
REMARK Flexibility Score: inf
ROOT
ATOM      1  C   UNL A   1      33.504  27.045  24.087  1.00  0.00     0.002 C 
ENDROOT
BRANCH   1   2
ATOM      2  C   UNL A   1      33.591  28.547  24.358  1.00  0.00     0.021 C 
BRANCH   2   3
ATOM      3  C   UNL A   1      34.006  28.961  25.763  1.00  0.00     0.116 C 
BRANCH   3   4
ATOM      4  N   UNL A   1      33.452  30.238  26.172  1.00  0.00    -0.352 N 
ATOM      5  O   UNL A   1      33.181  32.082  27.427  1.00  0.00    -0.269 OA
ATOM      6  C   UNL A   1      33.865  31.090  27.164  1.00  0.00     0.251 C 
ATOM      7  H   UNL A   1      32.664  30.535  25.664  1.00  0.00     0.163 HD
BRANCH   6   8
ATOM      8  C   UNL A   1      35.105  30.825  27.930  1.00  0.00     0.039 A 
ATOM      9  C   UNL A   1      35.206  29.628  28.641  1.00  0.00     0.014 A 
ATOM     10  C   UNL A   1      36.149  31.756  27.986  1.00  0.00     0.014 A 
ATOM     11  C   UNL A   1      36.353  29.359  29.392  1.00  0.00     0.010 A 
ATOM     12  C   UNL A   1      37.329  31.445  28.659  1.00  0.00     0.010 A 
ATOM     13  C   UNL A   1      37.432  30.259  29.398  1.00  0.00    -0.014 A 
BRANCH  13  14
ATOM     14  C   UNL A   1      38.646  29.979  30.209  1.00  0.00     0.031 A 
ATOM     15  C   UNL A   1      38.811  30.593  31.574  1.00  0.00     0.074 A 
ATOM     16  C   UNL A   1      39.605  29.172  29.716  1.00  0.00     0.049 A 
ATOM     17  N   UNL A   1      39.770  30.417  32.445  1.00  0.00    -0.248 NA
ATOM     18  C   UNL A   1      37.778  31.549  32.007  1.00  0.00     0.031 C 
ATOM     19  C   UNL A   1      39.586  28.573  28.382  1.00  0.00     0.029 A 
ATOM     20  N   UNL A   1      40.769  28.709  30.275  1.00  0.00    -0.354 N 
ATOM     21  C   UNL A   1      39.453  31.231  33.527  1.00  0.00     0.074 A 
ATOM     22  C   UNL A   1      38.266  31.970  33.164  1.00  0.00     0.031 C 
ATOM     23  C   UNL A   1      40.659  27.783  28.244  1.00  0.00     0.029 A 
ATOM     24  C   UNL A   1      41.467  27.848  29.461  1.00  0.00     0.049 A 
ATOM     25  H   UNL A   1      41.075  28.968  31.175  1.00  0.00     0.167 HD
ATOM     26  C   UNL A   1      40.067  31.321  34.731  1.00  0.00     0.034 A 
ATOM     27  C   UNL A   1      42.619  27.176  29.670  1.00  0.00     0.034 A 
ATOM     28  C   UNL A   1      41.245  30.569  35.082  1.00  0.00     0.049 A 
ATOM     29  C   UNL A   1      43.293  27.288  31.013  1.00  0.00     0.074 A 
ATOM     30  C   UNL A   1      41.918  30.549  36.290  1.00  0.00     0.029 A 
ATOM     31  N   UNL A   1      41.927  29.707  34.233  1.00  0.00    -0.354 N 
ATOM     32  N   UNL A   1      42.923  27.982  32.065  1.00  0.00    -0.248 NA
ATOM     33  C   UNL A   1      44.526  26.515  31.209  1.00  0.00     0.031 C 
ATOM     34  C   UNL A   1      43.044  29.735  36.148  1.00  0.00     0.029 A 
ATOM     35  C   UNL A   1      43.033  29.178  34.879  1.00  0.00     0.049 A 
ATOM     36  H   UNL A   1      41.663  29.501  33.307  1.00  0.00     0.167 HD
ATOM     37  C   UNL A   1      43.876  27.728  33.049  1.00  0.00     0.074 A 
ATOM     38  C   UNL A   1      44.810  26.778  32.479  1.00  0.00     0.031 C 
ATOM     39  C   UNL A   1      43.973  28.243  34.302  1.00  0.00     0.034 A 
BRANCH  26  40
ATOM     40  C   UNL A   1      39.466  32.233  35.776  1.00  0.00     0.023 A 
ATOM     41  C   UNL A   1      39.904  33.565  35.894  1.00  0.00     0.031 A 
ATOM     42  C   UNL A   1      38.533  31.758  36.718  1.00  0.00     0.131 A 
ATOM     43  C   UNL A   1      39.430  34.364  36.944  1.00  0.00     0.055 A 
ATOM     44  C   UNL A   1      38.024  32.573  37.729  1.00  0.00     0.041 A 
ATOM     45  F   UNL A   1      38.086  30.493  36.657  1.00  0.00    -0.206 F 
ATOM     46  C   UNL A   1      38.484  33.880  37.853  1.00  0.00     0.022 A 
BRANCH  43  47
ATOM     47  S   UNL A   1      40.076  36.037  37.216  1.00  0.00     0.124 S 
ATOM     48  O   UNL A   1      41.509  35.786  37.349  1.00  0.00    -0.237 OA
ATOM     49  O   UNL A   1      39.674  36.720  35.989  1.00  0.00    -0.237 OA
ATOM     50  O   UNL A   1      39.406  36.478  38.434  1.00  0.00    -0.744 OA
ENDBRANCH  43  47
ENDBRANCH  26  40
BRANCH  27  51
ATOM     51  C   UNL A   1      43.132  26.287  28.587  1.00  0.00     0.023 A 
ATOM     52  C   UNL A   1      44.206  26.693  27.774  1.00  0.00     0.031 A 
ATOM     53  C   UNL A   1      42.464  25.097  28.253  1.00  0.00     0.131 A 
ATOM     54  C   UNL A   1      44.515  25.970  26.615  1.00  0.00     0.055 A 
ATOM     55  C   UNL A   1      42.830  24.335  27.141  1.00  0.00     0.041 A 
ATOM     56  F   UNL A   1      41.426  24.674  28.990  1.00  0.00    -0.206 F 
ATOM     57  C   UNL A   1      43.846  24.783  26.302  1.00  0.00     0.022 A 
BRANCH  54  58
ATOM     58  S   UNL A   1      45.681  26.635  25.392  1.00  0.00     0.124 S 
ATOM     59  O   UNL A   1      44.895  27.689  24.760  1.00  0.00    -0.237 OA
ATOM     60  O   UNL A   1      46.776  27.090  26.246  1.00  0.00    -0.237 OA
ATOM     61  O   UNL A   1      45.989  25.486  24.548  1.00  0.00    -0.744 OA
ENDBRANCH  54  58
ENDBRANCH  27  51
BRANCH  39  62
ATOM     62  C   UNL A   1      45.152  27.834  35.158  1.00  0.00     0.023 A 
ATOM     63  C   UNL A   1      45.056  26.723  36.020  1.00  0.00     0.031 A 
ATOM     64  C   UNL A   1      46.313  28.623  35.224  1.00  0.00     0.131 A 
ATOM     65  C   UNL A   1      46.082  26.459  36.936  1.00  0.00     0.055 A 
ATOM     66  C   UNL A   1      47.359  28.321  36.097  1.00  0.00     0.041 A 
ATOM     67  F   UNL A   1      46.450  29.702  34.437  1.00  0.00    -0.206 F 
ATOM     68  C   UNL A   1      47.239  27.243  36.970  1.00  0.00     0.022 A 
BRANCH  65  69
ATOM     69  S   UNL A   1      45.916  25.151  38.183  1.00  0.00     0.124 S 
ATOM     70  O   UNL A   1      46.954  25.516  39.143  1.00  0.00    -0.237 OA
ATOM     71  O   UNL A   1      44.544  25.340  38.645  1.00  0.00    -0.237 OA
ATOM     72  O   UNL A   1      46.163  23.920  37.438  1.00  0.00    -0.744 OA
ENDBRANCH  65  69
ENDBRANCH  39  62
ENDBRANCH  13  14
ENDBRANCH   6   8
ENDBRANCH   3   4
ENDBRANCH   2   3
ENDBRANCH   1   2
BRANCH   1  73
ATOM     73  C   UNL A   1      33.138  26.593  22.668  1.00  0.00     0.002 C 
BRANCH  73  74
ATOM     74  C   UNL A   1      31.928  25.665  22.490  1.00  0.00     0.021 C 
BRANCH  74  75
ATOM     75  C   UNL A   1      32.172  24.174  22.698  1.00  0.00     0.116 C 
BRANCH  75  76
ATOM     76  N   UNL A   1      31.831  23.678  24.015  1.00  0.00    -0.351 N 
ATOM     77  C   UNL A   1      32.632  23.158  24.993  1.00  0.00     0.278 C 
ATOM     78  H   UNL A   1      30.874  23.724  24.241  1.00  0.00     0.163 HD
ATOM     79  O   UNL A   1      32.091  22.989  26.096  1.00  0.00    -0.268 OA
BRANCH  77  80
ATOM     80  C   UNL A   1      34.082  22.646  24.777  1.00  0.00     0.279 C 
ATOM     81  C   UNL A   1      34.958  23.537  25.693  1.00  0.00     0.111 C 
ATOM     82  N   UNL A   1      34.289  21.194  24.988  1.00  0.00    -0.317 N 
ATOM     83  C   UNL A   1      36.392  23.096  25.790  1.00  0.00    -0.033 A 
ATOM     84  C   UNL A   1      35.709  20.803  24.949  1.00  0.00     0.300 C 
ATOM     85  H   UNL A   1      33.926  21.052  25.930  1.00  0.00     0.349 HD
ATOM     86  C   UNL A   1      37.399  23.992  26.185  1.00  0.00     0.006 A 
ATOM     87  C   UNL A   1      36.717  21.762  25.532  1.00  0.00     0.011 A 
ATOM     88  C   UNL A   1      38.723  23.562  26.311  1.00  0.00     0.021 A 
ATOM     89  C   UNL A   1      38.048  21.333  25.681  1.00  0.00     0.030 A 
ATOM     90  C   UNL A   1      39.040  22.230  26.067  1.00  0.00     0.041 A 
ATOM     91  Cl  UNL A   1      40.669  21.694  26.212  1.00  0.00    -0.084 Cl
BRANCH  82  92
ATOM     92  C   UNL A   1      33.511  20.309  24.088  1.00  0.00     0.299 C 
BRANCH  92  93
ATOM     93  C   UNL A   1      33.355  18.850  24.456  1.00  0.00     0.006 A 
ATOM     94  C   UNL A   1      32.758  18.458  25.662  1.00  0.00     0.011 A 
ATOM     95  C   UNL A   1      33.752  17.859  23.543  1.00  0.00     0.011 A 
ATOM     96  C   UNL A   1      32.613  17.106  25.976  1.00  0.00     0.021 A 
ATOM     97  C   UNL A   1      33.581  16.507  23.843  1.00  0.00     0.021 A 
ATOM     98  C   UNL A   1      33.026  16.137  25.065  1.00  0.00     0.041 A 
ATOM     99  Cl  UNL A   1      32.841  14.470  25.450  1.00  0.00    -0.084 Cl
ENDBRANCH  92  93
ENDBRANCH  82  92
ENDBRANCH  77  80
ENDBRANCH  75  76
ENDBRANCH  74  75
ENDBRANCH  73  74
ENDBRANCH   1  73
TORSDOF 18
ENDMDL
MODEL 2
REMARK VINA RESULT:     -11.9      5.092     10.109
REMARK SMILES O=C(NCCCCCCNC(=O)[C@H]1Cc2ccc(Cl)cc2C[N@@H+]1Cc1ccc(Cl)cc1)c1ccc(-c2c3nc(c(-c4cc(S(=O)(=O)[O-])ccc4F)c4ccc([nH]4)c(-c4cc(S(=O)(=O)[O-])ccc4F)c4nc(c(-c5cc(S(=O)(=O)[O-])ccc5F)c5ccc2[nH]5)C=C4)C=C3)cc1
REMARK SMILES IDX 6 1 5 2 4 3 3 4 1 5 2 6 32 8 33 9 94 10 34 11 93 12 35 13
REMARK SMILES IDX 36 14 37 15 87 16 38 17 92 18 86 19 88 20 39 21 91 22 85 23
REMARK SMILES IDX 84 24 40 26 72 27 52 28 71 29 53 30 56 31 70 32 89 33 54 34
REMARK SMILES IDX 55 35 69 37 90 38 57 39 41 40 42 41 50 42 43 43 49 44 51 45
REMARK SMILES IDX 48 46 44 47 45 48 46 49 47 50 73 51 74 52 82 53 75 54 81 55
REMARK SMILES IDX 83 56 80 57 76 58 77 59 78 60 79 61 58 62 59 63 67 64 60 65
REMARK SMILES IDX 66 66 68 67 65 68 61 69 62 70 63 71 64 72 7 73 8 74 9 75
REMARK SMILES IDX 10 76 11 77 12 79 13 80 14 81 23 82 15 83 22 84 16 86 21 87
REMARK SMILES IDX 17 88 20 89 18 90 19 91 24 92 25 93 26 94 31 95 27 96 30 97
REMARK SMILES IDX 28 98 29 99
REMARK H PARENT 3 7 88 25 56 36 10 78 23 85
REMARK Flexibility Score: inf
ROOT
ATOM      1  C   UNL A   1      35.956  23.592  24.228  1.00  0.00     0.002 C 
ENDROOT
BRANCH   1   2
ATOM      2  C   UNL A   1      36.858  22.376  24.442  1.00  0.00     0.021 C 
BRANCH   2   3
ATOM      3  C   UNL A   1      37.196  22.026  25.885  1.00  0.00     0.116 C 
BRANCH   3   4
ATOM      4  N   UNL A   1      38.233  21.018  26.002  1.00  0.00    -0.352 N 
ATOM      5  O   UNL A   1      40.299  20.182  26.287  1.00  0.00    -0.269 OA
ATOM      6  C   UNL A   1      39.549  21.159  26.358  1.00  0.00     0.251 C 
ATOM      7  H   UNL A   1      37.949  20.099  25.796  1.00  0.00     0.163 HD
BRANCH   6   8
ATOM      8  C   UNL A   1      40.083  22.466  26.808  1.00  0.00     0.039 A 
ATOM      9  C   UNL A   1      39.706  23.615  26.110  1.00  0.00     0.014 A 
ATOM     10  C   UNL A   1      40.976  22.568  27.880  1.00  0.00     0.014 A 
ATOM     11  C   UNL A   1      40.210  24.859  26.494  1.00  0.00     0.010 A 
ATOM     12  C   UNL A   1      41.403  23.819  28.320  1.00  0.00     0.010 A 
ATOM     13  C   UNL A   1      41.054  24.976  27.612  1.00  0.00    -0.014 A 
BRANCH  13  14
ATOM     14  C   UNL A   1      41.601  26.299  28.011  1.00  0.00     0.031 A 
ATOM     15  C   UNL A   1      43.008  26.686  27.642  1.00  0.00     0.074 A 
ATOM     16  C   UNL A   1      40.832  27.154  28.712  1.00  0.00     0.049 A 
ATOM     17  N   UNL A   1      43.633  27.815  27.852  1.00  0.00    -0.248 NA
ATOM     18  C   UNL A   1      43.829  25.665  26.972  1.00  0.00     0.031 C 
ATOM     19  C   UNL A   1      39.478  26.864  29.182  1.00  0.00     0.029 A 
ATOM     20  N   UNL A   1      41.068  28.436  29.139  1.00  0.00    -0.354 N 
ATOM     21  C   UNL A   1      44.913  27.642  27.336  1.00  0.00     0.074 A 
ATOM     22  C   UNL A   1      45.003  26.272  26.888  1.00  0.00     0.031 C 
ATOM     23  C   UNL A   1      38.984  27.953  29.789  1.00  0.00     0.029 A 
ATOM     24  C   UNL A   1      39.998  29.006  29.789  1.00  0.00     0.049 A 
ATOM     25  H   UNL A   1      41.922  28.905  28.994  1.00  0.00     0.167 HD
ATOM     26  C   UNL A   1      45.906  28.554  27.204  1.00  0.00     0.034 A 
ATOM     27  C   UNL A   1      39.841  30.239  30.316  1.00  0.00     0.034 A 
ATOM     28  C   UNL A   1      45.796  29.921  27.646  1.00  0.00     0.049 A 
ATOM     29  C   UNL A   1      40.956  31.242  30.164  1.00  0.00     0.074 A 
ATOM     30  C   UNL A   1      46.724  30.938  27.517  1.00  0.00     0.029 A 
ATOM     31  N   UNL A   1      44.699  30.464  28.302  1.00  0.00    -0.354 N 
ATOM     32  N   UNL A   1      42.123  31.095  29.579  1.00  0.00    -0.248 NA
ATOM     33  C   UNL A   1      40.732  32.582  30.723  1.00  0.00     0.031 C 
ATOM     34  C   UNL A   1      46.220  32.072  28.157  1.00  0.00     0.029 A 
ATOM     35  C   UNL A   1      44.942  31.792  28.615  1.00  0.00     0.049 A 
ATOM     36  H   UNL A   1      43.870  29.977  28.513  1.00  0.00     0.167 HD
ATOM     37  C   UNL A   1      42.771  32.322  29.697  1.00  0.00     0.074 A 
ATOM     38  C   UNL A   1      41.844  33.213  30.366  1.00  0.00     0.031 C 
ATOM     39  C   UNL A   1      44.021  32.673  29.298  1.00  0.00     0.034 A 
BRANCH  26  40
ATOM     40  C   UNL A   1      47.187  28.124  26.525  1.00  0.00     0.023 A 
ATOM     41  C   UNL A   1      47.287  28.138  25.121  1.00  0.00     0.031 A 
ATOM     42  C   UNL A   1      48.272  27.608  27.260  1.00  0.00     0.131 A 
ATOM     43  C   UNL A   1      48.431  27.622  24.499  1.00  0.00     0.055 A 
ATOM     44  C   UNL A   1      49.431  27.145  26.637  1.00  0.00     0.041 A 
ATOM     45  F   UNL A   1      48.228  27.565  28.601  1.00  0.00    -0.206 F 
ATOM     46  C   UNL A   1      49.509  27.138  25.249  1.00  0.00     0.022 A 
BRANCH  43  47
ATOM     47  S   UNL A   1      48.540  27.489  22.693  1.00  0.00     0.124 S 
ATOM     48  O   UNL A   1      48.444  26.045  22.493  1.00  0.00    -0.237 OA
ATOM     49  O   UNL A   1      47.375  28.257  22.263  1.00  0.00    -0.237 OA
ATOM     50  O   UNL A   1      49.837  28.076  22.376  1.00  0.00    -0.744 OA
ENDBRANCH  43  47
ENDBRANCH  26  40
BRANCH  27  51
ATOM     51  C   UNL A   1      38.538  30.582  30.956  1.00  0.00     0.023 A 
ATOM     52  C   UNL A   1      37.599  31.388  30.286  1.00  0.00     0.031 A 
ATOM     53  C   UNL A   1      38.280  30.240  32.294  1.00  0.00     0.131 A 
ATOM     54  C   UNL A   1      36.500  31.904  30.984  1.00  0.00     0.055 A 
ATOM     55  C   UNL A   1      37.139  30.691  32.962  1.00  0.00     0.041 A 
ATOM     56  F   UNL A   1      39.150  29.485  32.980  1.00  0.00    -0.206 F 
ATOM     57  C   UNL A   1      36.253  31.547  32.312  1.00  0.00     0.022 A 
BRANCH  54  58
ATOM     58  S   UNL A   1      35.450  33.184  30.239  1.00  0.00     0.124 S 
ATOM     59  O   UNL A   1      34.190  32.475  30.047  1.00  0.00    -0.237 OA
ATOM     60  O   UNL A   1      35.446  34.207  31.283  1.00  0.00    -0.237 OA
ATOM     61  O   UNL A   1      36.161  33.548  29.018  1.00  0.00    -0.744 OA
ENDBRANCH  54  58
ENDBRANCH  27  51
BRANCH  39  62
ATOM     62  C   UNL A   1      44.504  34.075  29.599  1.00  0.00     0.023 A 
ATOM     63  C   UNL A   1      44.314  35.112  28.664  1.00  0.00     0.031 A 
ATOM     64  C   UNL A   1      45.273  34.351  30.744  1.00  0.00     0.131 A 
ATOM     65  C   UNL A   1      44.918  36.359  28.871  1.00  0.00     0.055 A 
ATOM     66  C   UNL A   1      45.824  35.612  30.974  1.00  0.00     0.041 A 
ATOM     67  F   UNL A   1      45.500  33.395  31.660  1.00  0.00    -0.206 F 
ATOM     68  C   UNL A   1      45.661  36.619  30.027  1.00  0.00     0.022 A 
BRANCH  65  69
ATOM     69  S   UNL A   1      44.849  37.658  27.606  1.00  0.00     0.124 S 
ATOM     70  O   UNL A   1      44.982  38.870  28.411  1.00  0.00    -0.237 OA
ATOM     71  O   UNL A   1      46.000  37.335  26.769  1.00  0.00    -0.237 OA
ATOM     72  O   UNL A   1      43.545  37.469  26.978  1.00  0.00    -0.744 OA
ENDBRANCH  65  69
ENDBRANCH  39  62
ENDBRANCH  13  14
ENDBRANCH   6   8
ENDBRANCH   3   4
ENDBRANCH   2   3
ENDBRANCH   1   2
BRANCH   1  73
ATOM     73  C   UNL A   1      34.896  23.512  23.123  1.00  0.00     0.002 C 
BRANCH  73  74
ATOM     74  C   UNL A   1      34.040  24.756  22.845  1.00  0.00     0.021 C 
BRANCH  74  75
ATOM     75  C   UNL A   1      32.939  24.610  21.800  1.00  0.00     0.116 C 
BRANCH  75  76
ATOM     76  N   UNL A   1      31.615  24.985  22.253  1.00  0.00    -0.351 N 
ATOM     77  C   UNL A   1      30.884  24.521  23.310  1.00  0.00     0.278 C 
ATOM     78  H   UNL A   1      31.174  25.682  21.716  1.00  0.00     0.163 HD
ATOM     79  O   UNL A   1      29.854  25.159  23.572  1.00  0.00    -0.268 OA
BRANCH  77  80
ATOM     80  C   UNL A   1      31.173  23.205  24.083  1.00  0.00     0.279 C 
ATOM     81  C   UNL A   1      31.640  22.202  22.998  1.00  0.00     0.111 C 
ATOM     82  N   UNL A   1      32.109  23.322  25.226  1.00  0.00    -0.317 N 
ATOM     83  C   UNL A   1      32.157  20.901  23.546  1.00  0.00    -0.033 A 
ATOM     84  C   UNL A   1      32.483  22.018  25.800  1.00  0.00     0.300 C 
ATOM     85  H   UNL A   1      32.929  23.750  24.798  1.00  0.00     0.349 HD
ATOM     86  C   UNL A   1      32.198  19.746  22.748  1.00  0.00     0.006 A 
ATOM     87  C   UNL A   1      32.653  20.857  24.851  1.00  0.00     0.011 A 
ATOM     88  C   UNL A   1      32.718  18.551  23.255  1.00  0.00     0.021 A 
ATOM     89  C   UNL A   1      33.193  19.656  25.346  1.00  0.00     0.030 A 
ATOM     90  C   UNL A   1      33.222  18.514  24.550  1.00  0.00     0.041 A 
ATOM     91  Cl  UNL A   1      33.858  17.046  25.183  1.00  0.00    -0.084 Cl
BRANCH  82  92
ATOM     92  C   UNL A   1      31.667  24.229  26.312  1.00  0.00     0.299 C 
BRANCH  92  93
ATOM     93  C   UNL A   1      32.090  25.680  26.269  1.00  0.00     0.006 A 
ATOM     94  C   UNL A   1      31.186  26.717  26.541  1.00  0.00     0.011 A 
ATOM     95  C   UNL A   1      33.434  26.004  26.016  1.00  0.00     0.011 A 
ATOM     96  C   UNL A   1      31.601  28.048  26.508  1.00  0.00     0.021 A 
ATOM     97  C   UNL A   1      33.856  27.334  26.010  1.00  0.00     0.021 A 
ATOM     98  C   UNL A   1      32.934  28.351  26.242  1.00  0.00     0.041 A 
ATOM     99  Cl  UNL A   1      33.446  29.992  26.205  1.00  0.00    -0.084 Cl
ENDBRANCH  92  93
ENDBRANCH  82  92
ENDBRANCH  77  80
ENDBRANCH  75  76
ENDBRANCH  74  75
ENDBRANCH  73  74
ENDBRANCH   1  73
TORSDOF 18
ENDMDL
MODEL 3
REMARK VINA RESULT:     -11.8      4.603      9.770
REMARK SMILES O=C(NCCCCCCNC(=O)[C@H]1Cc2ccc(Cl)cc2C[N@@H+]1Cc1ccc(Cl)cc1)c1ccc(-c2c3nc(c(-c4cc(S(=O)(=O)[O-])ccc4F)c4ccc([nH]4)c(-c4cc(S(=O)(=O)[O-])ccc4F)c4nc(c(-c5cc(S(=O)(=O)[O-])ccc5F)c5ccc2[nH]5)C=C4)C=C3)cc1
REMARK SMILES IDX 6 1 5 2 4 3 3 4 1 5 2 6 32 8 33 9 94 10 34 11 93 12 35 13
REMARK SMILES IDX 36 14 37 15 87 16 38 17 92 18 86 19 88 20 39 21 91 22 85 23
REMARK SMILES IDX 84 24 40 26 72 27 52 28 71 29 53 30 56 31 70 32 89 33 54 34
REMARK SMILES IDX 55 35 69 37 90 38 57 39 41 40 42 41 50 42 43 43 49 44 51 45
REMARK SMILES IDX 48 46 44 47 45 48 46 49 47 50 73 51 74 52 82 53 75 54 81 55
REMARK SMILES IDX 83 56 80 57 76 58 77 59 78 60 79 61 58 62 59 63 67 64 60 65
REMARK SMILES IDX 66 66 68 67 65 68 61 69 62 70 63 71 64 72 7 73 8 74 9 75
REMARK SMILES IDX 10 76 11 77 12 79 13 80 14 81 23 82 15 83 22 84 16 86 21 87
REMARK SMILES IDX 17 88 20 89 18 90 19 91 24 92 25 93 26 94 31 95 27 96 30 97
REMARK SMILES IDX 28 98 29 99
REMARK H PARENT 3 7 88 25 56 36 10 78 23 85
REMARK Flexibility Score: inf
ROOT
ATOM      1  C   UNL A   1      35.859  23.313  24.004  1.00  0.00     0.002 C 
ENDROOT
BRANCH   1   2
ATOM      2  C   UNL A   1      36.211  21.843  24.232  1.00  0.00     0.021 C 
BRANCH   2   3
ATOM      3  C   UNL A   1      36.699  21.469  25.625  1.00  0.00     0.116 C 
BRANCH   3   4
ATOM      4  N   UNL A   1      37.695  20.414  25.619  1.00  0.00    -0.352 N 
ATOM      5  O   UNL A   1      39.736  19.478  25.725  1.00  0.00    -0.269 OA
ATOM      6  C   UNL A   1      39.036  20.479  25.899  1.00  0.00     0.251 C 
ATOM      7  H   UNL A   1      37.359  19.521  25.379  1.00  0.00     0.163 HD
BRANCH   6   8
ATOM      8  C   UNL A   1      39.653  21.734  26.388  1.00  0.00     0.039 A 
ATOM      9  C   UNL A   1      39.232  22.944  25.832  1.00  0.00     0.014 A 
ATOM     10  C   UNL A   1      40.664  21.730  27.355  1.00  0.00     0.014 A 
ATOM     11  C   UNL A   1      39.811  24.143  26.255  1.00  0.00     0.010 A 
ATOM     12  C   UNL A   1      41.173  22.932  27.843  1.00  0.00     0.010 A 
ATOM     13  C   UNL A   1      40.778  24.150  27.274  1.00  0.00    -0.014 A 
BRANCH  13  14
ATOM     14  C   UNL A   1      41.404  25.425  27.713  1.00  0.00     0.031 A 
ATOM     15  C   UNL A   1      42.823  25.750  27.330  1.00  0.00     0.074 A 
ATOM     16  C   UNL A   1      40.696  26.292  28.462  1.00  0.00     0.049 A 
ATOM     17  N   UNL A   1      43.512  26.836  27.571  1.00  0.00    -0.248 NA
ATOM     18  C   UNL A   1      43.575  24.714  26.604  1.00  0.00     0.031 C 
ATOM     19  C   UNL A   1      39.337  26.056  28.949  1.00  0.00     0.029 A 
ATOM     20  N   UNL A   1      41.009  27.541  28.934  1.00  0.00    -0.354 N 
ATOM     21  C   UNL A   1      44.771  26.614  27.022  1.00  0.00     0.074 A 
ATOM     22  C   UNL A   1      44.778  25.260  26.519  1.00  0.00     0.031 C 
ATOM     23  C   UNL A   1      38.915  27.144  29.608  1.00  0.00     0.029 A 
ATOM     24  C   UNL A   1      39.984  28.141  29.627  1.00  0.00     0.049 A 
ATOM     25  H   UNL A   1      41.885  27.968  28.789  1.00  0.00     0.167 HD
ATOM     26  C   UNL A   1      45.810  27.476  26.905  1.00  0.00     0.034 A 
ATOM     27  C   UNL A   1      39.904  29.359  30.205  1.00  0.00     0.034 A 
ATOM     28  C   UNL A   1      45.782  28.829  27.401  1.00  0.00     0.049 A 
ATOM     29  C   UNL A   1      41.069  30.306  30.069  1.00  0.00     0.074 A 
ATOM     30  C   UNL A   1      46.761  29.799  27.293  1.00  0.00     0.029 A 
ATOM     31  N   UNL A   1      44.729  29.403  28.100  1.00  0.00    -0.354 N 
ATOM     32  N   UNL A   1      42.215  30.120  29.455  1.00  0.00    -0.248 NA
ATOM     33  C   UNL A   1      40.928  31.632  30.684  1.00  0.00     0.031 C 
ATOM     34  C   UNL A   1      46.331  30.932  27.986  1.00  0.00     0.029 A 
ATOM     35  C   UNL A   1      45.049  30.703  28.460  1.00  0.00     0.049 A 
ATOM     36  H   UNL A   1      43.879  28.953  28.310  1.00  0.00     0.167 HD
ATOM     37  C   UNL A   1      42.931  31.305  29.606  1.00  0.00     0.074 A 
ATOM     38  C   UNL A   1      42.066  32.216  30.328  1.00  0.00     0.031 C 
ATOM     39  C   UNL A   1      44.190  31.604  29.195  1.00  0.00     0.034 A 
BRANCH  26  40
ATOM     40  C   UNL A   1      47.052  27.006  26.183  1.00  0.00     0.023 A 
ATOM     41  C   UNL A   1      48.084  26.361  26.890  1.00  0.00     0.031 A 
ATOM     42  C   UNL A   1      47.259  27.284  24.818  1.00  0.00     0.131 A 
ATOM     43  C   UNL A   1      49.282  26.042  26.236  1.00  0.00     0.055 A 
ATOM     44  C   UNL A   1      48.433  26.916  24.160  1.00  0.00     0.041 A 
ATOM     45  F   UNL A   1      46.311  27.904  24.096  1.00  0.00    -0.206 F 
ATOM     46  C   UNL A   1      49.457  26.303  24.873  1.00  0.00     0.022 A 
BRANCH  43  47
ATOM     47  S   UNL A   1      50.688  25.342  27.143  1.00  0.00     0.124 S 
ATOM     48  O   UNL A   1      51.100  26.471  27.975  1.00  0.00    -0.237 OA
ATOM     49  O   UNL A   1      50.064  24.234  27.862  1.00  0.00    -0.237 OA
ATOM     50  O   UNL A   1      51.630  24.965  26.095  1.00  0.00    -0.744 OA
ENDBRANCH  43  47
ENDBRANCH  26  40
BRANCH  27  51
ATOM     51  C   UNL A   1      38.634  29.745  30.885  1.00  0.00     0.023 A 
ATOM     52  C   UNL A   1      37.651  30.485  30.202  1.00  0.00     0.031 A 
ATOM     53  C   UNL A   1      38.452  29.516  32.259  1.00  0.00     0.131 A 
ATOM     54  C   UNL A   1      36.585  31.050  30.914  1.00  0.00     0.055 A 
ATOM     55  C   UNL A   1      37.344  30.013  32.948  1.00  0.00     0.041 A 
ATOM     56  F   UNL A   1      39.368  28.827  32.957  1.00  0.00    -0.206 F 
ATOM     57  C   UNL A   1      36.414  30.805  32.279  1.00  0.00     0.022 A 
BRANCH  54  58
ATOM     58  S   UNL A   1      35.481  32.256  30.123  1.00  0.00     0.124 S 
ATOM     59  O   UNL A   1      36.375  33.386  29.893  1.00  0.00    -0.237 OA
ATOM     60  O   UNL A   1      35.061  31.530  28.927  1.00  0.00    -0.237 OA
ATOM     61  O   UNL A   1      34.436  32.471  31.118  1.00  0.00    -0.744 OA
ENDBRANCH  54  58
ENDBRANCH  27  51
BRANCH  39  62
ATOM     62  C   UNL A   1      44.754  32.965  29.541  1.00  0.00     0.023 A 
ATOM     63  C   UNL A   1      45.395  33.178  30.778  1.00  0.00     0.031 A 
ATOM     64  C   UNL A   1      44.533  34.079  28.712  1.00  0.00     0.131 A 
ATOM     65  C   UNL A   1      45.753  34.476  31.165  1.00  0.00     0.055 A 
ATOM     66  C   UNL A   1      44.946  35.361  29.075  1.00  0.00     0.041 A 
ATOM     67  F   UNL A   1      43.913  33.936  27.529  1.00  0.00    -0.206 F 
ATOM     68  C   UNL A   1      45.545  35.566  30.315  1.00  0.00     0.022 A 
BRANCH  65  69
ATOM     69  S   UNL A   1      46.413  34.814  32.821  1.00  0.00     0.124 S 
ATOM     70  O   UNL A   1      47.272  33.655  33.047  1.00  0.00    -0.237 OA
ATOM     71  O   UNL A   1      47.113  36.079  32.621  1.00  0.00    -0.237 OA
ATOM     72  O   UNL A   1      45.225  34.882  33.667  1.00  0.00    -0.744 OA
ENDBRANCH  65  69
ENDBRANCH  39  62
ENDBRANCH  13  14
ENDBRANCH   6   8
ENDBRANCH   3   4
ENDBRANCH   2   3
ENDBRANCH   1   2
BRANCH   1  73
ATOM     73  C   UNL A   1      35.046  23.669  22.755  1.00  0.00     0.002 C 
BRANCH  73  74
ATOM     74  C   UNL A   1      33.974  24.763  22.872  1.00  0.00     0.021 C 
BRANCH  74  75
ATOM     75  C   UNL A   1      32.854  24.738  21.837  1.00  0.00     0.116 C 
BRANCH  75  76
ATOM     76  N   UNL A   1      31.540  25.063  22.353  1.00  0.00    -0.351 N 
ATOM     77  C   UNL A   1      30.863  24.548  23.423  1.00  0.00     0.278 C 
ATOM     78  H   UNL A   1      31.061  25.766  21.856  1.00  0.00     0.163 HD
ATOM     79  O   UNL A   1      29.828  25.150  23.744  1.00  0.00    -0.268 OA
BRANCH  77  80
ATOM     80  C   UNL A   1      31.215  23.216  24.140  1.00  0.00     0.279 C 
ATOM     81  C   UNL A   1      31.611  22.244  23.001  1.00  0.00     0.111 C 
ATOM     82  N   UNL A   1      32.229  23.313  25.216  1.00  0.00    -0.317 N 
ATOM     83  C   UNL A   1      32.175  20.935  23.478  1.00  0.00    -0.033 A 
ATOM     84  C   UNL A   1      32.652  22.000  25.730  1.00  0.00     0.300 C 
ATOM     85  H   UNL A   1      33.014  23.759  24.742  1.00  0.00     0.349 HD
ATOM     86  C   UNL A   1      32.166  19.799  22.652  1.00  0.00     0.006 A 
ATOM     87  C   UNL A   1      32.762  20.863  24.744  1.00  0.00     0.011 A 
ATOM     88  C   UNL A   1      32.729  18.597  23.091  1.00  0.00     0.021 A 
ATOM     89  C   UNL A   1      33.344  19.655  25.170  1.00  0.00     0.030 A 
ATOM     90  C   UNL A   1      33.324  18.533  24.346  1.00  0.00     0.041 A 
ATOM     91  Cl  UNL A   1      34.014  17.056  24.896  1.00  0.00    -0.084 Cl
BRANCH  82  92
ATOM     92  C   UNL A   1      31.859  24.190  26.353  1.00  0.00     0.299 C 
BRANCH  92  93
ATOM     93  C   UNL A   1      32.198  25.662  26.280  1.00  0.00     0.006 A 
ATOM     94  C   UNL A   1      31.235  26.651  26.529  1.00  0.00     0.011 A 
ATOM     95  C   UNL A   1      33.522  26.057  26.024  1.00  0.00     0.011 A 
ATOM     96  C   UNL A   1      31.574  28.003  26.468  1.00  0.00     0.021 A 
ATOM     97  C   UNL A   1      33.867  27.408  25.992  1.00  0.00     0.021 A 
ATOM     98  C   UNL A   1      32.889  28.375  26.199  1.00  0.00     0.041 A 
ATOM     99  Cl  UNL A   1      33.306  30.043  26.130  1.00  0.00    -0.084 Cl
ENDBRANCH  92  93
ENDBRANCH  82  92
ENDBRANCH  77  80
ENDBRANCH  75  76
ENDBRANCH  74  75
ENDBRANCH  73  74
ENDBRANCH   1  73
TORSDOF 18
ENDMDL
