MODEL 1
REMARK VINA RESULT:     -10.8      0.000      0.000
REMARK SMILES CN(C)c1cccc2c(S(=O)(=O)N[C@H](CO)C(=O)NCCCCCCNC(=O)c3ccc(-c4c5nc(c(-c6cc(S(=O)(=O)[O-])ccc6F)c6ccc([nH]6)c(-c6cc(S(=O)(=O)[O-])ccc6F)c6nc(c(-c7cc(S(=O)(=O)[O-])ccc7F)c7ccc4[nH]7)C=C6)C=C5)cc3)cccc12
REMARK SMILES IDX 22 1 21 2 20 3 19 4 17 5 18 6 14 8 13 9 10 11 11 12 12 13
REMARK SMILES IDX 9 14 4 15 5 16 95 17 6 18 8 19 94 20 7 21 93 22 92 23 2 24
REMARK SMILES IDX 1 25 3 26 15 27 16 28 23 30 24 31 25 32 26 33 27 34 28 36
REMARK SMILES IDX 29 37 30 38 91 39 31 40 90 41 32 42 33 43 34 44 84 45 35 46
REMARK SMILES IDX 89 47 83 48 85 49 36 50 88 51 82 52 81 53 37 55 69 56 49 57
REMARK SMILES IDX 68 58 50 59 53 60 67 61 86 62 51 63 52 64 66 66 87 67 54 68
REMARK SMILES IDX 38 69 39 70 47 71 40 72 46 73 48 74 45 75 41 76 42 77 43 78
REMARK SMILES IDX 44 79 70 80 71 81 79 82 72 83 78 84 80 85 77 86 73 87 74 88
REMARK SMILES IDX 75 89 76 90 55 91 56 92 64 93 57 94 63 95 65 96 62 97 58 98
REMARK SMILES IDX 59 99 60 100 61 101
REMARK H PARENT 19 7 13 10 16 29 26 35 85 54 53 65
REMARK Flexibility Score: inf
ROOT
ATOM      1  C   UNL A   1      34.465  25.025  24.028  1.00  0.00     0.002 C 
ENDROOT
BRANCH   1   2
ATOM      2  C   UNL A   1      33.941  25.558  22.690  1.00  0.00     0.021 C 
BRANCH   2   3
ATOM      3  C   UNL A   1      32.828  26.590  22.837  1.00  0.00     0.116 C 
BRANCH   3   4
ATOM      4  N   UNL A   1      33.152  27.534  23.889  1.00  0.00    -0.355 N 
ATOM      5  C   UNL A   1      32.352  28.304  24.667  1.00  0.00     0.240 C 
ATOM      6  O   UNL A   1      32.904  29.188  25.332  1.00  0.00    -0.273 OA
ATOM      7  H   UNL A   1      34.114  27.632  24.069  1.00  0.00     0.163 HD
BRANCH   5   8
ATOM      8  C   UNL A   1      30.843  28.148  24.710  1.00  0.00     0.184 C 
BRANCH   8   9
ATOM      9  N   UNL A   1      30.244  26.800  24.802  1.00  0.00    -0.196 NA
ATOM     10  H   UNL A   1      29.244  26.957  24.931  1.00  0.00     0.142 HD
BRANCH   9  11
ATOM     11  S   UNL A   1      30.661  25.631  25.931  1.00  0.00     0.241 S 
ATOM     12  O   UNL A   1      29.402  25.315  26.570  1.00  0.00    -0.207 OA
ATOM     13  O   UNL A   1      31.748  26.172  26.723  1.00  0.00    -0.207 OA
BRANCH  11  14
ATOM     14  C   UNL A   1      31.260  24.143  25.151  1.00  0.00     0.090 A 
ATOM     15  C   UNL A   1      33.270  21.023  25.818  1.00  0.00     0.044 A 
ATOM     16  C   UNL A   1      33.672  21.274  27.142  1.00  0.00     0.026 A 
ATOM     17  C   UNL A   1      32.436  21.987  25.162  1.00  0.00     0.006 A 
ATOM     18  C   UNL A   1      33.209  22.374  27.844  1.00  0.00     0.003 A 
ATOM     19  C   UNL A   1      32.011  23.160  25.858  1.00  0.00     0.004 A 
ATOM     20  C   UNL A   1      31.967  21.804  23.840  1.00  0.00     0.011 A 
ATOM     21  C   UNL A   1      32.360  23.276  27.221  1.00  0.00     0.010 A 
ATOM     22  C   UNL A   1      31.203  22.759  23.174  1.00  0.00     0.002 A 
ATOM     23  C   UNL A   1      30.865  23.936  23.820  1.00  0.00     0.022 A 
BRANCH  15  24
ATOM     24  N   UNL A   1      33.697  19.838  25.195  1.00  0.00    -0.377 N 
ATOM     25  C   UNL A   1      32.940  18.619  25.448  1.00  0.00     0.143 C 
ATOM     26  C   UNL A   1      35.123  19.696  24.916  1.00  0.00     0.143 C 
ENDBRANCH  15  24
ENDBRANCH  11  14
ENDBRANCH   9  11
ENDBRANCH   8   9
BRANCH   8  27
ATOM     27  C   UNL A   1      30.208  28.909  23.528  1.00  0.00     0.186 C 
BRANCH  27  28
ATOM     28  O   UNL A   1      31.175  29.670  22.804  1.00  0.00    -0.394 OA
ATOM     29  H   UNL A   1      31.322  30.518  23.253  1.00  0.00     0.210 HD
ENDBRANCH  27  28
ENDBRANCH   8  27
ENDBRANCH   5   8
ENDBRANCH   3   4
ENDBRANCH   2   3
ENDBRANCH   1   2
BRANCH   1  30
ATOM     30  C   UNL A   1      35.193  23.678  23.948  1.00  0.00     0.002 C 
BRANCH  30  31
ATOM     31  C   UNL A   1      36.615  23.673  24.515  1.00  0.00     0.021 C 
BRANCH  31  32
ATOM     32  C   UNL A   1      36.731  23.153  25.944  1.00  0.00     0.116 C 
BRANCH  32  33
ATOM     33  N   UNL A   1      37.848  22.240  26.106  1.00  0.00    -0.352 N 
ATOM     34  C   UNL A   1      39.148  22.524  26.436  1.00  0.00     0.251 C 
ATOM     35  H   UNL A   1      37.644  21.287  25.958  1.00  0.00     0.163 HD
ATOM     36  O   UNL A   1      40.005  21.648  26.362  1.00  0.00    -0.269 OA
BRANCH  34  37
ATOM     37  C   UNL A   1      39.509  23.895  26.854  1.00  0.00     0.039 A 
ATOM     38  C   UNL A   1      39.418  24.233  28.204  1.00  0.00     0.014 A 
ATOM     39  C   UNL A   1      39.938  24.839  25.915  1.00  0.00     0.014 A 
ATOM     40  C   UNL A   1      39.799  25.510  28.624  1.00  0.00     0.010 A 
ATOM     41  C   UNL A   1      40.374  26.090  26.342  1.00  0.00     0.010 A 
ATOM     42  C   UNL A   1      40.301  26.440  27.700  1.00  0.00    -0.014 A 
BRANCH  42  43
ATOM     43  C   UNL A   1      40.730  27.794  28.132  1.00  0.00     0.031 A 
ATOM     44  C   UNL A   1      42.189  28.156  28.114  1.00  0.00     0.074 A 
ATOM     45  C   UNL A   1      39.815  28.670  28.590  1.00  0.00     0.049 A 
ATOM     46  N   UNL A   1      42.776  29.253  28.519  1.00  0.00    -0.248 NA
ATOM     47  C   UNL A   1      43.113  27.135  27.598  1.00  0.00     0.031 C 
ATOM     48  C   UNL A   1      38.375  28.414  28.689  1.00  0.00     0.029 A 
ATOM     49  N   UNL A   1      39.957  29.948  29.067  1.00  0.00    -0.354 N 
ATOM     50  C   UNL A   1      44.138  29.048  28.322  1.00  0.00     0.074 A 
ATOM     51  C   UNL A   1      44.290  27.702  27.813  1.00  0.00     0.031 C 
ATOM     52  C   UNL A   1      37.768  29.507  29.179  1.00  0.00     0.029 A 
ATOM     53  C   UNL A   1      38.774  30.525  29.465  1.00  0.00     0.049 A 
ATOM     54  H   UNL A   1      40.825  30.409  29.121  1.00  0.00     0.167 HD
ATOM     55  C   UNL A   1      45.162  29.914  28.525  1.00  0.00     0.034 A 
ATOM     56  C   UNL A   1      38.530  31.734  30.009  1.00  0.00     0.034 A 
ATOM     57  C   UNL A   1      44.988  31.259  29.015  1.00  0.00     0.049 A 
ATOM     58  C   UNL A   1      39.686  32.676  30.233  1.00  0.00     0.074 A 
ATOM     59  C   UNL A   1      45.947  32.238  29.207  1.00  0.00     0.029 A 
ATOM     60  N   UNL A   1      43.773  31.815  29.394  1.00  0.00    -0.354 N 
ATOM     61  N   UNL A   1      40.964  32.485  29.997  1.00  0.00    -0.248 NA
ATOM     62  C   UNL A   1      39.366  33.998  30.786  1.00  0.00     0.031 C 
ATOM     63  C   UNL A   1      45.322  33.364  29.757  1.00  0.00     0.029 A 
ATOM     64  C   UNL A   1      43.961  33.113  29.843  1.00  0.00     0.049 A 
ATOM     65  H   UNL A   1      42.904  31.354  29.351  1.00  0.00     0.167 HD
ATOM     66  C   UNL A   1      41.595  33.677  30.343  1.00  0.00     0.074 A 
ATOM     67  C   UNL A   1      40.556  34.582  30.790  1.00  0.00     0.031 C 
ATOM     68  C   UNL A   1      42.912  33.998  30.292  1.00  0.00     0.034 A 
BRANCH  55  69
ATOM     69  C   UNL A   1      46.559  29.414  28.242  1.00  0.00     0.023 A 
ATOM     70  C   UNL A   1      47.338  28.797  29.235  1.00  0.00     0.031 A 
ATOM     71  C   UNL A   1      47.130  29.583  26.968  1.00  0.00     0.131 A 
ATOM     72  C   UNL A   1      48.667  28.437  28.962  1.00  0.00     0.055 A 
ATOM     73  C   UNL A   1      48.426  29.151  26.679  1.00  0.00     0.041 A 
ATOM     74  F   UNL A   1      46.443  30.185  25.985  1.00  0.00    -0.206 F 
ATOM     75  C   UNL A   1      49.208  28.587  27.683  1.00  0.00     0.022 A 
BRANCH  72  76
ATOM     76  S   UNL A   1      49.719  27.898  30.337  1.00  0.00     0.124 S 
ATOM     77  O   UNL A   1      50.122  29.177  30.917  1.00  0.00    -0.237 OA
ATOM     78  O   UNL A   1      48.806  27.092  31.137  1.00  0.00    -0.237 OA
ATOM     79  O   UNL A   1      50.793  27.157  29.676  1.00  0.00    -0.744 OA
ENDBRANCH  72  76
ENDBRANCH  55  69
BRANCH  56  80
ATOM     80  C   UNL A   1      37.143  32.129  30.389  1.00  0.00     0.023 A 
ATOM     81  C   UNL A   1      36.257  32.659  29.439  1.00  0.00     0.031 A 
ATOM     82  C   UNL A   1      36.701  32.025  31.719  1.00  0.00     0.131 A 
ATOM     83  C   UNL A   1      34.990  33.111  29.839  1.00  0.00     0.055 A 
ATOM     84  C   UNL A   1      35.421  32.429  32.103  1.00  0.00     0.041 A 
ATOM     85  F   UNL A   1      37.506  31.519  32.667  1.00  0.00    -0.206 F 
ATOM     86  C   UNL A   1      34.562  32.989  31.163  1.00  0.00     0.022 A 
BRANCH  83  87
ATOM     87  S   UNL A   1      33.941  33.945  28.617  1.00  0.00     0.124 S 
ATOM     88  O   UNL A   1      33.511  32.829  27.781  1.00  0.00    -0.237 OA
ATOM     89  O   UNL A   1      32.915  34.548  29.460  1.00  0.00    -0.237 OA
ATOM     90  O   UNL A   1      34.853  34.890  27.976  1.00  0.00    -0.744 OA
ENDBRANCH  83  87
ENDBRANCH  56  80
BRANCH  68  91
ATOM     91  C   UNL A   1      43.287  35.404  30.688  1.00  0.00     0.023 A 
ATOM     92  C   UNL A   1      43.480  35.767  32.032  1.00  0.00     0.031 A 
ATOM     93  C   UNL A   1      43.441  36.395  29.704  1.00  0.00     0.131 A 
ATOM     94  C   UNL A   1      43.763  37.101  32.360  1.00  0.00     0.055 A 
ATOM     95  C   UNL A   1      43.777  37.709  30.032  1.00  0.00     0.041 A 
ATOM     96  F   UNL A   1      43.267  36.102  28.405  1.00  0.00    -0.206 F 
ATOM     97  C   UNL A   1      43.928  38.072  31.367  1.00  0.00     0.022 A 
BRANCH  94  98
ATOM     98  S   UNL A   1      43.831  37.573  34.110  1.00  0.00     0.124 S 
ATOM     99  O   UNL A   1      43.818  36.274  34.775  1.00  0.00    -0.237 OA
ATOM    100  O   UNL A   1      45.085  38.315  34.186  1.00  0.00    -0.237 OA
ATOM    101  O   UNL A   1      42.624  38.376  34.296  1.00  0.00    -0.744 OA
ENDBRANCH  94  98
ENDBRANCH  68  91
ENDBRANCH  42  43
ENDBRANCH  34  37
ENDBRANCH  32  33
ENDBRANCH  31  32
ENDBRANCH  30  31
ENDBRANCH   1  30
TORSDOF 22
ENDMDL
MODEL 2
REMARK VINA RESULT:     -10.6      3.574      8.618
REMARK SMILES CN(C)c1cccc2c(S(=O)(=O)N[C@H](CO)C(=O)NCCCCCCNC(=O)c3ccc(-c4c5nc(c(-c6cc(S(=O)(=O)[O-])ccc6F)c6ccc([nH]6)c(-c6cc(S(=O)(=O)[O-])ccc6F)c6nc(c(-c7cc(S(=O)(=O)[O-])ccc7F)c7ccc4[nH]7)C=C6)C=C5)cc3)cccc12
REMARK SMILES IDX 22 1 21 2 20 3 19 4 17 5 18 6 14 8 13 9 10 11 11 12 12 13
REMARK SMILES IDX 9 14 4 15 5 16 95 17 6 18 8 19 94 20 7 21 93 22 92 23 2 24
REMARK SMILES IDX 1 25 3 26 15 27 16 28 23 30 24 31 25 32 26 33 27 34 28 36
REMARK SMILES IDX 29 37 30 38 91 39 31 40 90 41 32 42 33 43 34 44 84 45 35 46
REMARK SMILES IDX 89 47 83 48 85 49 36 50 88 51 82 52 81 53 37 55 69 56 49 57
REMARK SMILES IDX 68 58 50 59 53 60 67 61 86 62 51 63 52 64 66 66 87 67 54 68
REMARK SMILES IDX 38 69 39 70 47 71 40 72 46 73 48 74 45 75 41 76 42 77 43 78
REMARK SMILES IDX 44 79 70 80 71 81 79 82 72 83 78 84 80 85 77 86 73 87 74 88
REMARK SMILES IDX 75 89 76 90 55 91 56 92 64 93 57 94 63 95 65 96 62 97 58 98
REMARK SMILES IDX 59 99 60 100 61 101
REMARK H PARENT 19 7 13 10 16 29 26 35 85 54 53 65
REMARK Flexibility Score: inf
ROOT
ATOM      1  C   UNL A   1      34.098  25.886  24.309  1.00  0.00     0.002 C 
ENDROOT
BRANCH   1   2
ATOM      2  C   UNL A   1      33.747  26.885  23.201  1.00  0.00     0.021 C 
BRANCH   2   3
ATOM      3  C   UNL A   1      32.848  26.301  22.115  1.00  0.00     0.116 C 
BRANCH   3   4
ATOM      4  N   UNL A   1      31.764  27.215  21.814  1.00  0.00    -0.355 N 
ATOM      5  C   UNL A   1      30.794  27.733  22.607  1.00  0.00     0.240 C 
ATOM      6  O   UNL A   1      29.860  28.312  22.040  1.00  0.00    -0.273 OA
ATOM      7  H   UNL A   1      31.726  27.509  20.876  1.00  0.00     0.163 HD
BRANCH   5   8
ATOM      8  C   UNL A   1      30.797  27.590  24.118  1.00  0.00     0.184 C 
BRANCH   8   9
ATOM      9  N   UNL A   1      29.859  26.655  24.772  1.00  0.00    -0.196 NA
ATOM     10  H   UNL A   1      29.173  27.245  25.243  1.00  0.00     0.142 HD
BRANCH   9  11
ATOM     11  S   UNL A   1      30.288  25.485  25.897  1.00  0.00     0.241 S 
ATOM     12  O   UNL A   1      29.013  24.974  26.353  1.00  0.00    -0.207 OA
ATOM     13  O   UNL A   1      31.187  26.113  26.845  1.00  0.00    -0.207 OA
BRANCH  11  14
ATOM     14  C   UNL A   1      31.172  24.133  25.140  1.00  0.00     0.090 A 
ATOM     15  C   UNL A   1      33.515  21.285  25.927  1.00  0.00     0.044 A 
ATOM     16  C   UNL A   1      33.729  21.521  27.296  1.00  0.00     0.026 A 
ATOM     17  C   UNL A   1      32.631  22.159  25.213  1.00  0.00     0.006 A 
ATOM     18  C   UNL A   1      33.042  22.511  27.978  1.00  0.00     0.003 A 
ATOM     19  C   UNL A   1      31.972  23.227  25.895  1.00  0.00     0.004 A 
ATOM     20  C   UNL A   1      32.341  21.981  23.839  1.00  0.00     0.011 A 
ATOM     21  C   UNL A   1      32.149  23.320  27.292  1.00  0.00     0.010 A 
ATOM     22  C   UNL A   1      31.528  22.856  23.122  1.00  0.00     0.002 A 
ATOM     23  C   UNL A   1      30.959  23.942  23.766  1.00  0.00     0.022 A 
BRANCH  15  24
ATOM     24  N   UNL A   1      34.171  20.202  25.317  1.00  0.00    -0.377 N 
ATOM     25  C   UNL A   1      35.552  20.387  24.892  1.00  0.00     0.143 C 
ATOM     26  C   UNL A   1      33.356  19.259  24.556  1.00  0.00     0.143 C 
ENDBRANCH  15  24
ENDBRANCH  11  14
ENDBRANCH   9  11
ENDBRANCH   8   9
BRANCH   8  27
ATOM     27  C   UNL A   1      30.670  28.982  24.771  1.00  0.00     0.186 C 
BRANCH  27  28
ATOM     28  O   UNL A   1      31.673  29.883  24.305  1.00  0.00    -0.394 OA
ATOM     29  H   UNL A   1      31.348  30.794  24.374  1.00  0.00     0.210 HD
ENDBRANCH  27  28
ENDBRANCH   8  27
ENDBRANCH   5   8
ENDBRANCH   3   4
ENDBRANCH   2   3
ENDBRANCH   1   2
BRANCH   1  30
ATOM     30  C   UNL A   1      34.077  26.463  25.729  1.00  0.00     0.002 C 
BRANCH  30  31
ATOM     31  C   UNL A   1      34.076  27.992  25.810  1.00  0.00     0.021 C 
BRANCH  31  32
ATOM     32  C   UNL A   1      33.495  28.564  27.100  1.00  0.00     0.116 C 
BRANCH  32  33
ATOM     33  N   UNL A   1      33.550  30.014  27.129  1.00  0.00    -0.352 N 
ATOM     34  C   UNL A   1      34.519  30.826  27.662  1.00  0.00     0.251 C 
ATOM     35  H   UNL A   1      32.788  30.478  26.711  1.00  0.00     0.163 HD
ATOM     36  O   UNL A   1      34.324  32.034  27.753  1.00  0.00    -0.269 OA
BRANCH  34  37
ATOM     37  C   UNL A   1      35.781  30.229  28.146  1.00  0.00     0.039 A 
ATOM     38  C   UNL A   1      36.901  30.256  27.315  1.00  0.00     0.014 A 
ATOM     39  C   UNL A   1      35.856  29.649  29.417  1.00  0.00     0.014 A 
ATOM     40  C   UNL A   1      38.114  29.739  27.773  1.00  0.00     0.010 A 
ATOM     41  C   UNL A   1      37.080  29.189  29.895  1.00  0.00     0.010 A 
ATOM     42  C   UNL A   1      38.219  29.222  29.075  1.00  0.00    -0.014 A 
BRANCH  42  43
ATOM     43  C   UNL A   1      39.506  28.688  29.585  1.00  0.00     0.031 A 
ATOM     44  C   UNL A   1      40.213  29.390  30.711  1.00  0.00     0.074 A 
ATOM     45  C   UNL A   1      40.060  27.608  28.999  1.00  0.00     0.049 A 
ATOM     46  N   UNL A   1      41.376  29.131  31.250  1.00  0.00    -0.248 NA
ATOM     47  C   UNL A   1      39.532  30.560  31.286  1.00  0.00     0.031 C 
ATOM     48  C   UNL A   1      39.483  26.867  27.875  1.00  0.00     0.029 A 
ATOM     49  N   UNL A   1      41.235  26.950  29.261  1.00  0.00    -0.354 N 
ATOM     50  C   UNL A   1      41.573  30.112  32.216  1.00  0.00     0.074 A 
ATOM     51  C   UNL A   1      40.434  31.002  32.148  1.00  0.00     0.031 C 
ATOM     52  C   UNL A   1      40.298  25.848  27.556  1.00  0.00     0.029 A 
ATOM     53  C   UNL A   1      41.471  25.885  28.423  1.00  0.00     0.049 A 
ATOM     54  H   UNL A   1      41.853  27.216  29.980  1.00  0.00     0.167 HD
ATOM     55  C   UNL A   1      42.600  30.243  33.093  1.00  0.00     0.034 A 
ATOM     56  C   UNL A   1      42.520  25.041  28.357  1.00  0.00     0.034 A 
ATOM     57  C   UNL A   1      43.717  29.334  33.159  1.00  0.00     0.049 A 
ATOM     58  C   UNL A   1      43.653  25.211  29.338  1.00  0.00     0.074 A 
ATOM     59  C   UNL A   1      44.784  29.339  34.041  1.00  0.00     0.029 A 
ATOM     60  N   UNL A   1      43.916  28.257  32.304  1.00  0.00    -0.354 N 
ATOM     61  N   UNL A   1      43.802  26.117  30.277  1.00  0.00    -0.248 NA
ATOM     62  C   UNL A   1      44.751  24.240  29.256  1.00  0.00     0.031 C 
ATOM     63  C   UNL A   1      45.655  28.303  33.684  1.00  0.00     0.029 A 
ATOM     64  C   UNL A   1      45.099  27.607  32.622  1.00  0.00     0.049 A 
ATOM     65  H   UNL A   1      43.306  27.993  31.577  1.00  0.00     0.167 HD
ATOM     66  C   UNL A   1      44.997  25.802  30.919  1.00  0.00     0.074 A 
ATOM     67  C   UNL A   1      45.519  24.619  30.268  1.00  0.00     0.031 C 
ATOM     68  C   UNL A   1      45.606  26.431  31.955  1.00  0.00     0.034 A 
BRANCH  55  69
ATOM     69  C   UNL A   1      42.566  31.428  34.029  1.00  0.00     0.023 A 
ATOM     70  C   UNL A   1      41.790  31.421  35.201  1.00  0.00     0.031 A 
ATOM     71  C   UNL A   1      43.298  32.591  33.732  1.00  0.00     0.131 A 
ATOM     72  C   UNL A   1      41.706  32.576  35.993  1.00  0.00     0.055 A 
ATOM     73  C   UNL A   1      43.273  33.711  34.565  1.00  0.00     0.041 A 
ATOM     74  F   UNL A   1      44.040  32.665  32.615  1.00  0.00    -0.206 F 
ATOM     75  C   UNL A   1      42.461  33.713  35.696  1.00  0.00     0.022 A 
BRANCH  72  76
ATOM     76  S   UNL A   1      40.489  32.619  37.337  1.00  0.00     0.124 S 
ATOM     77  O   UNL A   1      39.548  31.584  36.915  1.00  0.00    -0.237 OA
ATOM     78  O   UNL A   1      41.299  32.307  38.508  1.00  0.00    -0.237 OA
ATOM     79  O   UNL A   1      39.967  33.984  37.283  1.00  0.00    -0.744 OA
ENDBRANCH  72  76
ENDBRANCH  55  69
BRANCH  56  80
ATOM     80  C   UNL A   1      42.561  23.963  27.327  1.00  0.00     0.023 A 
ATOM     81  C   UNL A   1      41.909  22.739  27.536  1.00  0.00     0.031 A 
ATOM     82  C   UNL A   1      43.295  24.126  26.139  1.00  0.00     0.131 A 
ATOM     83  C   UNL A   1      42.041  21.706  26.595  1.00  0.00     0.055 A 
ATOM     84  C   UNL A   1      43.381  23.114  25.182  1.00  0.00     0.041 A 
ATOM     85  F   UNL A   1      43.933  25.281  25.886  1.00  0.00    -0.206 F 
ATOM     86  C   UNL A   1      42.764  21.889  25.414  1.00  0.00     0.022 A 
BRANCH  83  87
ATOM     87  S   UNL A   1      41.326  20.085  26.982  1.00  0.00     0.124 S 
ATOM     88  O   UNL A   1      42.503  19.224  26.951  1.00  0.00    -0.237 OA
ATOM     89  O   UNL A   1      40.736  20.320  28.296  1.00  0.00    -0.237 OA
ATOM     90  O   UNL A   1      40.366  19.869  25.900  1.00  0.00    -0.744 OA
ENDBRANCH  83  87
ENDBRANCH  56  80
BRANCH  68  91
ATOM     91  C   UNL A   1      46.882  25.815  32.472  1.00  0.00     0.023 A 
ATOM     92  C   UNL A   1      48.118  26.036  31.842  1.00  0.00     0.031 A 
ATOM     93  C   UNL A   1      46.853  24.983  33.605  1.00  0.00     0.131 A 
ATOM     94  C   UNL A   1      49.269  25.389  32.318  1.00  0.00     0.055 A 
ATOM     95  C   UNL A   1      48.010  24.387  34.107  1.00  0.00     0.041 A 
ATOM     96  F   UNL A   1      45.698  24.738  34.244  1.00  0.00    -0.206 F 
ATOM     97  C   UNL A   1      49.225  24.578  33.456  1.00  0.00     0.022 A 
BRANCH  94  98
ATOM     98  S   UNL A   1      50.812  25.554  31.379  1.00  0.00     0.124 S 
ATOM     99  O   UNL A   1      51.211  26.923  31.689  1.00  0.00    -0.237 OA
ATOM    100  O   UNL A   1      51.643  24.502  31.957  1.00  0.00    -0.237 OA
ATOM    101  O   UNL A   1      50.399  25.327  29.996  1.00  0.00    -0.744 OA
ENDBRANCH  94  98
ENDBRANCH  68  91
ENDBRANCH  42  43
ENDBRANCH  34  37
ENDBRANCH  32  33
ENDBRANCH  31  32
ENDBRANCH  30  31
ENDBRANCH   1  30
TORSDOF 22
ENDMDL
MODEL 3
REMARK VINA RESULT:     -10.5      4.023      9.015
REMARK SMILES CN(C)c1cccc2c(S(=O)(=O)N[C@H](CO)C(=O)NCCCCCCNC(=O)c3ccc(-c4c5nc(c(-c6cc(S(=O)(=O)[O-])ccc6F)c6ccc([nH]6)c(-c6cc(S(=O)(=O)[O-])ccc6F)c6nc(c(-c7cc(S(=O)(=O)[O-])ccc7F)c7ccc4[nH]7)C=C6)C=C5)cc3)cccc12
REMARK SMILES IDX 22 1 21 2 20 3 19 4 17 5 18 6 14 8 13 9 10 11 11 12 12 13
REMARK SMILES IDX 9 14 4 15 5 16 95 17 6 18 8 19 94 20 7 21 93 22 92 23 2 24
REMARK SMILES IDX 1 25 3 26 15 27 16 28 23 30 24 31 25 32 26 33 27 34 28 36
REMARK SMILES IDX 29 37 30 38 91 39 31 40 90 41 32 42 33 43 34 44 84 45 35 46
REMARK SMILES IDX 89 47 83 48 85 49 36 50 88 51 82 52 81 53 37 55 69 56 49 57
REMARK SMILES IDX 68 58 50 59 53 60 67 61 86 62 51 63 52 64 66 66 87 67 54 68
REMARK SMILES IDX 38 69 39 70 47 71 40 72 46 73 48 74 45 75 41 76 42 77 43 78
REMARK SMILES IDX 44 79 70 80 71 81 79 82 72 83 78 84 80 85 77 86 73 87 74 88
REMARK SMILES IDX 75 89 76 90 55 91 56 92 64 93 57 94 63 95 65 96 62 97 58 98
REMARK SMILES IDX 59 99 60 100 61 101
REMARK H PARENT 19 7 13 10 16 29 26 35 85 54 53 65
REMARK Flexibility Score: inf
ROOT
ATOM      1  C   UNL A   1      37.964  23.249  26.084  1.00  0.00     0.002 C 
ENDROOT
BRANCH   1   2
ATOM      2  C   UNL A   1      37.070  22.381  25.191  1.00  0.00     0.021 C 
BRANCH   2   3
ATOM      3  C   UNL A   1      36.066  21.536  25.970  1.00  0.00     0.116 C 
BRANCH   3   4
ATOM      4  N   UNL A   1      35.900  20.242  25.338  1.00  0.00    -0.355 N 
ATOM      5  C   UNL A   1      34.834  19.695  24.704  1.00  0.00     0.240 C 
ATOM      6  O   UNL A   1      34.893  18.485  24.456  1.00  0.00    -0.273 OA
ATOM      7  H   UNL A   1      36.695  19.663  25.375  1.00  0.00     0.163 HD
BRANCH   5   8
ATOM      8  C   UNL A   1      33.592  20.488  24.341  1.00  0.00     0.184 C 
BRANCH   8   9
ATOM      9  N   UNL A   1      33.706  21.921  24.000  1.00  0.00    -0.196 NA
ATOM     10  H   UNL A   1      33.548  22.421  24.875  1.00  0.00     0.142 HD
BRANCH   9  11
ATOM     11  S   UNL A   1      32.773  22.720  22.856  1.00  0.00     0.241 S 
ATOM     12  O   UNL A   1      31.788  21.732  22.476  1.00  0.00    -0.207 OA
ATOM     13  O   UNL A   1      33.682  23.245  21.856  1.00  0.00    -0.207 OA
BRANCH  11  14
ATOM     14  C   UNL A   1      31.903  24.106  23.564  1.00  0.00     0.090 A 
ATOM     15  C   UNL A   1      32.415  27.196  25.665  1.00  0.00     0.044 A 
ATOM     16  C   UNL A   1      33.779  27.052  25.975  1.00  0.00     0.026 A 
ATOM     17  C   UNL A   1      31.796  26.208  24.830  1.00  0.00     0.006 A 
ATOM     18  C   UNL A   1      34.546  26.040  25.424  1.00  0.00     0.003 A 
ATOM     19  C   UNL A   1      32.565  25.121  24.314  1.00  0.00     0.004 A 
ATOM     20  C   UNL A   1      30.436  26.287  24.450  1.00  0.00     0.011 A 
ATOM     21  C   UNL A   1      33.953  25.117  24.575  1.00  0.00     0.010 A 
ATOM     22  C   UNL A   1      29.810  25.305  23.686  1.00  0.00     0.002 A 
ATOM     23  C   UNL A   1      30.536  24.205  23.259  1.00  0.00     0.022 A 
BRANCH  15  24
ATOM     24  N   UNL A   1      31.718  28.303  26.180  1.00  0.00    -0.377 N 
ATOM     25  C   UNL A   1      31.798  29.563  25.452  1.00  0.00     0.143 C 
ATOM     26  C   UNL A   1      31.533  28.373  27.626  1.00  0.00     0.143 C 
ENDBRANCH  15  24
ENDBRANCH  11  14
ENDBRANCH   9  11
ENDBRANCH   8   9
BRANCH   8  27
ATOM     27  C   UNL A   1      32.522  20.307  25.437  1.00  0.00     0.186 C 
BRANCH  27  28
ATOM     28  O   UNL A   1      33.024  19.579  26.557  1.00  0.00    -0.394 OA
ATOM     29  H   UNL A   1      32.916  20.108  27.362  1.00  0.00     0.210 HD
ENDBRANCH  27  28
ENDBRANCH   8  27
ENDBRANCH   5   8
ENDBRANCH   3   4
ENDBRANCH   2   3
ENDBRANCH   1   2
BRANCH   1  30
ATOM     30  C   UNL A   1      39.301  22.609  26.475  1.00  0.00     0.002 C 
BRANCH  30  31
ATOM     31  C   UNL A   1      39.620  21.288  25.771  1.00  0.00     0.021 C 
BRANCH  31  32
ATOM     32  C   UNL A   1      39.927  20.123  26.707  1.00  0.00     0.116 C 
BRANCH  32  33
ATOM     33  N   UNL A   1      40.974  19.263  26.187  1.00  0.00    -0.352 N 
ATOM     34  C   UNL A   1      42.263  19.589  25.847  1.00  0.00     0.251 C 
ATOM     35  H   UNL A   1      40.726  18.318  26.060  1.00  0.00     0.163 HD
ATOM     36  O   UNL A   1      42.966  18.773  25.259  1.00  0.00    -0.269 OA
BRANCH  34  37
ATOM     37  C   UNL A   1      42.781  20.934  26.171  1.00  0.00     0.039 A 
ATOM     38  C   UNL A   1      43.048  21.822  25.128  1.00  0.00     0.014 A 
ATOM     39  C   UNL A   1      42.998  21.316  27.499  1.00  0.00     0.014 A 
ATOM     40  C   UNL A   1      43.494  23.113  25.417  1.00  0.00     0.010 A 
ATOM     41  C   UNL A   1      43.384  22.622  27.788  1.00  0.00     0.010 A 
ATOM     42  C   UNL A   1      43.644  23.531  26.749  1.00  0.00    -0.014 A 
BRANCH  42  43
ATOM     43  C   UNL A   1      44.097  24.906  27.074  1.00  0.00     0.031 A 
ATOM     44  C   UNL A   1      43.122  25.898  27.646  1.00  0.00     0.074 A 
ATOM     45  C   UNL A   1      45.365  25.273  26.803  1.00  0.00     0.049 A 
ATOM     46  N   UNL A   1      43.296  27.164  27.928  1.00  0.00    -0.248 NA
ATOM     47  C   UNL A   1      41.761  25.406  27.906  1.00  0.00     0.031 C 
ATOM     48  C   UNL A   1      46.389  24.406  26.215  1.00  0.00     0.029 A 
ATOM     49  N   UNL A   1      46.008  26.472  26.979  1.00  0.00    -0.354 N 
ATOM     50  C   UNL A   1      42.065  27.623  28.383  1.00  0.00     0.074 A 
ATOM     51  C   UNL A   1      41.141  26.512  28.286  1.00  0.00     0.031 C 
ATOM     52  C   UNL A   1      47.534  25.097  26.094  1.00  0.00     0.029 A 
ATOM     53  C   UNL A   1      47.318  26.464  26.559  1.00  0.00     0.049 A 
ATOM     54  H   UNL A   1      45.573  27.264  27.369  1.00  0.00     0.167 HD
ATOM     55  C   UNL A   1      41.743  28.851  28.860  1.00  0.00     0.034 A 
ATOM     56  C   UNL A   1      48.237  27.450  26.542  1.00  0.00     0.034 A 
ATOM     57  C   UNL A   1      42.683  29.940  28.967  1.00  0.00     0.049 A 
ATOM     58  C   UNL A   1      47.852  28.809  27.070  1.00  0.00     0.074 A 
ATOM     59  C   UNL A   1      42.480  31.208  29.483  1.00  0.00     0.029 A 
ATOM     60  N   UNL A   1      44.006  29.892  28.545  1.00  0.00    -0.354 N 
ATOM     61  N   UNL A   1      46.696  29.216  27.542  1.00  0.00    -0.248 NA
ATOM     62  C   UNL A   1      48.900  29.839  27.072  1.00  0.00     0.031 C 
ATOM     63  C   UNL A   1      43.661  31.943  29.321  1.00  0.00     0.029 A 
ATOM     64  C   UNL A   1      44.622  31.113  28.766  1.00  0.00     0.049 A 
ATOM     65  H   UNL A   1      44.442  29.104  28.146  1.00  0.00     0.167 HD
ATOM     66  C   UNL A   1      46.888  30.539  27.927  1.00  0.00     0.074 A 
ATOM     67  C   UNL A   1      48.273  30.857  27.645  1.00  0.00     0.031 C 
ATOM     68  C   UNL A   1      46.003  31.413  28.470  1.00  0.00     0.034 A 
BRANCH  55  69
ATOM     69  C   UNL A   1      40.309  29.081  29.273  1.00  0.00     0.023 A 
ATOM     70  C   UNL A   1      39.910  29.024  30.619  1.00  0.00     0.031 A 
ATOM     71  C   UNL A   1      39.321  29.335  28.305  1.00  0.00     0.131 A 
ATOM     72  C   UNL A   1      38.553  29.143  30.954  1.00  0.00     0.055 A 
ATOM     73  C   UNL A   1      37.983  29.532  28.652  1.00  0.00     0.041 A 
ATOM     74  F   UNL A   1      39.637  29.380  27.001  1.00  0.00    -0.206 F 
ATOM     75  C   UNL A   1      37.590  29.422  29.982  1.00  0.00     0.022 A 
BRANCH  72  76
ATOM     76  S   UNL A   1      38.047  28.793  32.661  1.00  0.00     0.124 S 
ATOM     77  O   UNL A   1      36.686  29.324  32.679  1.00  0.00    -0.237 OA
ATOM     78  O   UNL A   1      38.169  27.342  32.735  1.00  0.00    -0.237 OA
ATOM     79  O   UNL A   1      39.011  29.543  33.465  1.00  0.00    -0.744 OA
ENDBRANCH  72  76
ENDBRANCH  55  69
BRANCH  56  80
ATOM     80  C   UNL A   1      49.605  27.202  26.003  1.00  0.00     0.023 A 
ATOM     81  C   UNL A   1      49.912  27.470  24.661  1.00  0.00     0.031 A 
ATOM     82  C   UNL A   1      50.612  26.649  26.813  1.00  0.00     0.131 A 
ATOM     83  C   UNL A   1      51.178  27.140  24.153  1.00  0.00     0.055 A 
ATOM     84  C   UNL A   1      51.886  26.370  26.317  1.00  0.00     0.041 A 
ATOM     85  F   UNL A   1      50.373  26.379  28.107  1.00  0.00    -0.206 F 
ATOM     86  C   UNL A   1      52.171  26.602  24.975  1.00  0.00     0.022 A 
BRANCH  83  87
ATOM     87  S   UNL A   1      51.479  27.343  22.376  1.00  0.00     0.124 S 
ATOM     88  O   UNL A   1      52.634  26.476  22.168  1.00  0.00    -0.237 OA
ATOM     89  O   UNL A   1      50.220  26.882  21.802  1.00  0.00    -0.237 OA
ATOM     90  O   UNL A   1      51.739  28.774  22.236  1.00  0.00    -0.744 OA
ENDBRANCH  83  87
ENDBRANCH  56  80
BRANCH  68  91
ATOM     91  C   UNL A   1      46.529  32.779  28.834  1.00  0.00     0.023 A 
ATOM     92  C   UNL A   1      46.453  33.862  27.942  1.00  0.00     0.031 A 
ATOM     93  C   UNL A   1      47.127  32.992  30.089  1.00  0.00     0.131 A 
ATOM     94  C   UNL A   1      47.015  35.098  28.297  1.00  0.00     0.055 A 
ATOM     95  C   UNL A   1      47.635  34.238  30.457  1.00  0.00     0.041 A 
ATOM     96  F   UNL A   1      47.227  31.990  30.977  1.00  0.00    -0.206 F 
ATOM     97  C   UNL A   1      47.592  35.297  29.555  1.00  0.00     0.022 A 
BRANCH  94  98
ATOM     98  S   UNL A   1      47.058  36.423  27.059  1.00  0.00     0.124 S 
ATOM     99  O   UNL A   1      46.041  37.342  27.562  1.00  0.00    -0.237 OA
ATOM    100  O   UNL A   1      48.438  36.889  27.149  1.00  0.00    -0.237 OA
ATOM    101  O   UNL A   1      46.715  35.741  25.814  1.00  0.00    -0.744 OA
ENDBRANCH  94  98
ENDBRANCH  68  91
ENDBRANCH  42  43
ENDBRANCH  34  37
ENDBRANCH  32  33
ENDBRANCH  31  32
ENDBRANCH  30  31
ENDBRANCH   1  30
TORSDOF 22
ENDMDL
