MODEL 1
REMARK VINA RESULT:     -11.8      0.000      0.000
REMARK SMILES O=C(C[C@H](NC(=O)[C@]12C[C@H]3C[C@H](C[C@H](C3)C1)C2)c1ccc(Cl)cc1Cl)NCCCCCCNC(=O)c1ccc(-c2c3nc(c(-c4cc(S(=O)(=O)[O-])ccc4F)c4ccc([nH]4)c(-c4cc(S(=O)(=O)[O-])ccc4F)c4nc(c(-c5cc(S(=O)(=O)[O-])ccc5F)c5ccc2[nH]5)C=C4)C=C3)cc1
REMARK SMILES IDX 29 1 28 2 27 3 26 4 1 5 2 6 3 8 4 9 18 10 19 11 24 12 20 13
REMARK SMILES IDX 23 14 25 15 21 16 22 17 5 18 6 19 7 21 8 22 9 23 16 24 17 25
REMARK SMILES IDX 10 26 14 27 12 28 11 29 15 30 13 31 30 32 31 33 32 34 33 35
REMARK SMILES IDX 34 36 35 38 36 39 37 40 98 41 38 42 97 43 39 44 40 45 41 46
REMARK SMILES IDX 91 47 42 48 96 49 90 50 92 51 43 52 95 53 89 54 88 55 44 57
REMARK SMILES IDX 76 58 56 59 75 60 57 61 60 62 74 63 93 64 58 65 59 66 73 68
REMARK SMILES IDX 94 69 61 70 45 71 46 72 54 73 47 74 53 75 55 76 52 77 48 78
REMARK SMILES IDX 49 79 50 80 51 81 77 82 78 83 86 84 79 85 85 86 87 87 84 88
REMARK SMILES IDX 80 89 81 90 82 91 83 92 62 93 63 94 71 95 64 96 70 97 72 98
REMARK SMILES IDX 69 99 65 100 66 101 67 102 68 103
REMARK H PARENT 26 7 5 20 33 37 92 56 60 67
REMARK Flexibility Score: inf
ROOT
ATOM      1  C   UNL A   1      34.180  31.244  27.644  1.00  0.00     0.002 C 
ENDROOT
BRANCH   1   2
ATOM      2  C   UNL A   1      35.301  30.220  27.466  1.00  0.00     0.021 C 
BRANCH   2   3
ATOM      3  C   UNL A   1      34.805  28.794  27.228  1.00  0.00     0.116 C 
BRANCH   3   4
ATOM      4  N   UNL A   1      33.417  28.672  26.809  1.00  0.00    -0.356 N 
ATOM      5  O   UNL A   1      33.892  27.957  24.690  1.00  0.00    -0.275 OA
ATOM      6  C   UNL A   1      33.078  28.134  25.596  1.00  0.00     0.222 C 
ATOM      7  H   UNL A   1      32.705  28.986  27.411  1.00  0.00     0.163 HD
BRANCH   6   8
ATOM      8  C   UNL A   1      31.653  27.698  25.369  1.00  0.00     0.129 C 
BRANCH   8   9
ATOM      9  C   UNL A   1      31.223  26.926  24.113  1.00  0.00     0.123 C 
BRANCH   9  10
ATOM     10  C   UNL A   1      30.377  27.890  23.261  1.00  0.00    -0.006 A 
ATOM     11  C   UNL A   1      30.984  28.940  22.547  1.00  0.00     0.009 A 
ATOM     12  C   UNL A   1      28.963  27.838  23.274  1.00  0.00     0.047 A 
ATOM     13  C   UNL A   1      30.215  29.923  21.918  1.00  0.00     0.021 A 
ATOM     14  C   UNL A   1      28.196  28.830  22.656  1.00  0.00     0.041 A 
ATOM     15  Cl  UNL A   1      28.093  26.570  24.073  1.00  0.00    -0.084 Cl
ATOM     16  C   UNL A   1      28.827  29.874  21.991  1.00  0.00     0.042 A 
ATOM     17  Cl  UNL A   1      27.886  31.116  21.264  1.00  0.00    -0.084 Cl
ENDBRANCH   9  10
BRANCH   9  18
ATOM     18  N   UNL A   1      32.162  26.139  23.263  1.00  0.00    -0.348 N 
ATOM     19  C   UNL A   1      32.998  25.065  23.255  1.00  0.00     0.226 C 
ATOM     20  H   UNL A   1      32.188  26.553  22.369  1.00  0.00     0.164 HD
ATOM     21  O   UNL A   1      33.788  25.039  22.303  1.00  0.00    -0.274 OA
BRANCH  19  22
ATOM     22  C   UNL A   1      32.997  23.916  24.271  1.00  0.00     0.050 C 
ATOM     23  C   UNL A   1      33.672  24.342  25.585  1.00  0.00     0.020 C 
ATOM     24  C   UNL A   1      33.780  22.654  23.786  1.00  0.00     0.020 C 
ATOM     25  C   UNL A   1      31.559  23.413  24.430  1.00  0.00     0.020 C 
ATOM     26  C   UNL A   1      33.524  23.253  26.652  1.00  0.00    -0.010 C 
ATOM     27  C   UNL A   1      33.681  21.515  24.840  1.00  0.00    -0.010 C 
ATOM     28  C   UNL A   1      31.432  22.375  25.540  1.00  0.00    -0.010 C 
ATOM     29  C   UNL A   1      32.034  22.927  26.843  1.00  0.00     0.007 C 
ATOM     30  C   UNL A   1      34.271  21.997  26.176  1.00  0.00     0.007 C 
ATOM     31  C   UNL A   1      32.208  21.135  25.087  1.00  0.00     0.007 C 
ENDBRANCH  19  22
ENDBRANCH   9  18
ENDBRANCH   8   9
ENDBRANCH   6   8
ENDBRANCH   3   4
ENDBRANCH   2   3
ENDBRANCH   1   2
BRANCH   1  32
ATOM     32  C   UNL A   1      34.659  32.613  28.126  1.00  0.00     0.002 C 
BRANCH  32  33
ATOM     33  C   UNL A   1      33.559  33.674  28.192  1.00  0.00     0.021 C 
BRANCH  33  34
ATOM     34  C   UNL A   1      34.030  35.027  28.711  1.00  0.00     0.116 C 
BRANCH  34  35
ATOM     35  N   UNL A   1      33.121  35.566  29.712  1.00  0.00    -0.352 N 
ATOM     36  C   UNL A   1      33.093  35.318  31.060  1.00  0.00     0.251 C 
ATOM     37  H   UNL A   1      32.436  36.189  29.377  1.00  0.00     0.163 HD
ATOM     38  O   UNL A   1      32.126  35.660  31.736  1.00  0.00    -0.269 OA
BRANCH  36  39
ATOM     39  C   UNL A   1      34.234  34.613  31.675  1.00  0.00     0.039 A 
ATOM     40  C   UNL A   1      34.079  33.286  32.076  1.00  0.00     0.014 A 
ATOM     41  C   UNL A   1      35.468  35.260  31.804  1.00  0.00     0.014 A 
ATOM     42  C   UNL A   1      35.187  32.582  32.550  1.00  0.00     0.010 A 
ATOM     43  C   UNL A   1      36.583  34.535  32.206  1.00  0.00     0.010 A 
ATOM     44  C   UNL A   1      36.455  33.190  32.582  1.00  0.00    -0.014 A 
BRANCH  44  45
ATOM     45  C   UNL A   1      37.661  32.430  32.996  1.00  0.00     0.031 A 
ATOM     46  C   UNL A   1      38.336  32.749  34.299  1.00  0.00     0.074 A 
ATOM     47  C   UNL A   1      38.188  31.513  32.162  1.00  0.00     0.049 A 
ATOM     48  N   UNL A   1      39.445  32.265  34.798  1.00  0.00    -0.248 NA
ATOM     49  C   UNL A   1      37.696  33.774  35.135  1.00  0.00     0.031 C 
ATOM     50  C   UNL A   1      37.646  31.159  30.848  1.00  0.00     0.029 A 
ATOM     51  N   UNL A   1      39.303  30.724  32.283  1.00  0.00    -0.354 N 
ATOM     52  C   UNL A   1      39.638  32.929  36.004  1.00  0.00     0.074 A 
ATOM     53  C   UNL A   1      38.571  33.902  36.120  1.00  0.00     0.031 C 
ATOM     54  C   UNL A   1      38.423  30.217  30.292  1.00  0.00     0.029 A 
ATOM     55  C   UNL A   1      39.543  29.934  31.184  1.00  0.00     0.049 A 
ATOM     56  H   UNL A   1      39.877  30.723  33.083  1.00  0.00     0.167 HD
ATOM     57  C   UNL A   1      40.598  32.727  36.940  1.00  0.00     0.034 A 
ATOM     58  C   UNL A   1      40.560  29.093  30.915  1.00  0.00     0.034 A 
ATOM     59  C   UNL A   1      41.657  31.755  36.798  1.00  0.00     0.049 A 
ATOM     60  C   UNL A   1      41.641  28.907  31.948  1.00  0.00     0.074 A 
ATOM     61  C   UNL A   1      42.652  31.425  37.700  1.00  0.00     0.029 A 
ATOM     62  N   UNL A   1      41.868  30.968  35.672  1.00  0.00    -0.354 N 
ATOM     63  N   UNL A   1      41.776  29.495  33.115  1.00  0.00    -0.248 NA
ATOM     64  C   UNL A   1      42.699  27.940  31.633  1.00  0.00     0.031 C 
ATOM     65  C   UNL A   1      43.505  30.496  37.093  1.00  0.00     0.029 A 
ATOM     66  C   UNL A   1      42.998  30.182  35.841  1.00  0.00     0.049 A 
ATOM     67  H   UNL A   1      41.296  30.967  34.870  1.00  0.00     0.167 HD
ATOM     68  C   UNL A   1      42.925  28.953  33.682  1.00  0.00     0.074 A 
ATOM     69  C   UNL A   1      43.433  27.979  32.737  1.00  0.00     0.031 C 
ATOM     70  C   UNL A   1      43.507  29.233  34.877  1.00  0.00     0.034 A 
BRANCH  57  71
ATOM     71  C   UNL A   1      40.552  33.597  38.176  1.00  0.00     0.023 A 
ATOM     72  C   UNL A   1      39.642  33.346  39.219  1.00  0.00     0.031 A 
ATOM     73  C   UNL A   1      41.386  34.723  38.292  1.00  0.00     0.131 A 
ATOM     74  C   UNL A   1      39.518  34.258  40.278  1.00  0.00     0.055 A 
ATOM     75  C   UNL A   1      41.323  35.576  39.396  1.00  0.00     0.041 A 
ATOM     76  F   UNL A   1      42.262  35.029  37.322  1.00  0.00    -0.206 F 
ATOM     77  C   UNL A   1      40.369  35.358  40.387  1.00  0.00     0.022 A 
BRANCH  74  78
ATOM     78  S   UNL A   1      38.109  34.081  41.407  1.00  0.00     0.124 S 
ATOM     79  O   UNL A   1      37.750  35.475  41.653  1.00  0.00    -0.237 OA
ATOM     80  O   UNL A   1      37.162  33.307  40.611  1.00  0.00    -0.237 OA
ATOM     81  O   UNL A   1      38.677  33.380  42.557  1.00  0.00    -0.744 OA
ENDBRANCH  74  78
ENDBRANCH  57  71
BRANCH  58  82
ATOM     82  C   UNL A   1      40.619  28.390  29.601  1.00  0.00     0.023 A 
ATOM     83  C   UNL A   1      41.569  28.740  28.628  1.00  0.00     0.031 A 
ATOM     84  C   UNL A   1      39.714  27.358  29.298  1.00  0.00     0.131 A 
ATOM     85  C   UNL A   1      41.568  28.086  27.386  1.00  0.00     0.055 A 
ATOM     86  C   UNL A   1      39.750  26.676  28.081  1.00  0.00     0.041 A 
ATOM     87  F   UNL A   1      38.791  26.978  30.196  1.00  0.00    -0.206 F 
ATOM     88  C   UNL A   1      40.676  27.048  27.111  1.00  0.00     0.022 A 
BRANCH  85  89
ATOM     89  S   UNL A   1      42.716  28.657  26.102  1.00  0.00     0.124 S 
ATOM     90  O   UNL A   1      41.918  28.491  24.893  1.00  0.00    -0.237 OA
ATOM     91  O   UNL A   1      42.976  30.032  26.517  1.00  0.00    -0.237 OA
ATOM     92  O   UNL A   1      43.852  27.746  26.232  1.00  0.00    -0.744 OA
ENDBRANCH  85  89
ENDBRANCH  58  82
BRANCH  70  93
ATOM     93  C   UNL A   1      44.748  28.451  35.234  1.00  0.00     0.023 A 
ATOM     94  C   UNL A   1      44.677  27.212  35.894  1.00  0.00     0.031 A 
ATOM     95  C   UNL A   1      46.021  28.956  34.911  1.00  0.00     0.131 A 
ATOM     96  C   UNL A   1      45.856  26.544  36.255  1.00  0.00     0.055 A 
ATOM     97  C   UNL A   1      47.188  28.256  35.217  1.00  0.00     0.041 A 
ATOM     98  F   UNL A   1      46.148  30.137  34.284  1.00  0.00    -0.206 F 
ATOM     99  C   UNL A   1      47.111  27.048  35.903  1.00  0.00     0.022 A 
BRANCH  96 100
ATOM    100  S   UNL A   1      45.733  25.043  37.267  1.00  0.00     0.124 S 
ATOM    101  O   UNL A   1      45.556  24.008  36.254  1.00  0.00    -0.237 OA
ATOM    102  O   UNL A   1      47.010  25.035  37.971  1.00  0.00    -0.237 OA
ATOM    103  O   UNL A   1      44.564  25.292  38.109  1.00  0.00    -0.744 OA
ENDBRANCH  96 100
ENDBRANCH  70  93
ENDBRANCH  44  45
ENDBRANCH  36  39
ENDBRANCH  34  35
ENDBRANCH  33  34
ENDBRANCH  32  33
ENDBRANCH   1  32
TORSDOF 20
ENDMDL
MODEL 2
REMARK VINA RESULT:     -11.8      6.034     11.790
REMARK SMILES O=C(C[C@H](NC(=O)[C@]12C[C@H]3C[C@H](C[C@H](C3)C1)C2)c1ccc(Cl)cc1Cl)NCCCCCCNC(=O)c1ccc(-c2c3nc(c(-c4cc(S(=O)(=O)[O-])ccc4F)c4ccc([nH]4)c(-c4cc(S(=O)(=O)[O-])ccc4F)c4nc(c(-c5cc(S(=O)(=O)[O-])ccc5F)c5ccc2[nH]5)C=C4)C=C3)cc1
REMARK SMILES IDX 29 1 28 2 27 3 26 4 1 5 2 6 3 8 4 9 18 10 19 11 24 12 20 13
REMARK SMILES IDX 23 14 25 15 21 16 22 17 5 18 6 19 7 21 8 22 9 23 16 24 17 25
REMARK SMILES IDX 10 26 14 27 12 28 11 29 15 30 13 31 30 32 31 33 32 34 33 35
REMARK SMILES IDX 34 36 35 38 36 39 37 40 98 41 38 42 97 43 39 44 40 45 41 46
REMARK SMILES IDX 91 47 42 48 96 49 90 50 92 51 43 52 95 53 89 54 88 55 44 57
REMARK SMILES IDX 76 58 56 59 75 60 57 61 60 62 74 63 93 64 58 65 59 66 73 68
REMARK SMILES IDX 94 69 61 70 45 71 46 72 54 73 47 74 53 75 55 76 52 77 48 78
REMARK SMILES IDX 49 79 50 80 51 81 77 82 78 83 86 84 79 85 85 86 87 87 84 88
REMARK SMILES IDX 80 89 81 90 82 91 83 92 62 93 63 94 71 95 64 96 70 97 72 98
REMARK SMILES IDX 69 99 65 100 66 101 67 102 68 103
REMARK H PARENT 26 7 5 20 33 37 92 56 60 67
REMARK Flexibility Score: inf
ROOT
ATOM      1  C   UNL A   1      40.612  22.070  26.673  1.00  0.00     0.002 C 
ENDROOT
BRANCH   1   2
ATOM      2  C   UNL A   1      39.636  23.128  27.190  1.00  0.00     0.021 C 
BRANCH   2   3
ATOM      3  C   UNL A   1      38.585  23.554  26.165  1.00  0.00     0.116 C 
BRANCH   3   4
ATOM      4  N   UNL A   1      37.201  23.436  26.597  1.00  0.00    -0.356 N 
ATOM      5  O   UNL A   1      36.362  22.998  24.516  1.00  0.00    -0.275 OA
ATOM      6  C   UNL A   1      36.213  23.036  25.738  1.00  0.00     0.222 C 
ATOM      7  H   UNL A   1      36.969  23.649  27.529  1.00  0.00     0.163 HD
BRANCH   6   8
ATOM      8  C   UNL A   1      34.895  22.581  26.310  1.00  0.00     0.129 C 
BRANCH   8   9
ATOM      9  C   UNL A   1      33.572  22.739  25.544  1.00  0.00     0.123 C 
BRANCH   9  10
ATOM     10  C   UNL A   1      33.244  21.366  24.928  1.00  0.00    -0.006 A 
ATOM     11  C   UNL A   1      33.819  20.190  25.446  1.00  0.00     0.009 A 
ATOM     12  C   UNL A   1      32.471  21.253  23.749  1.00  0.00     0.047 A 
ATOM     13  C   UNL A   1      33.671  18.966  24.789  1.00  0.00     0.021 A 
ATOM     14  C   UNL A   1      32.335  20.029  23.086  1.00  0.00     0.041 A 
ATOM     15  Cl  UNL A   1      31.669  22.613  23.036  1.00  0.00    -0.084 Cl
ATOM     16  C   UNL A   1      32.946  18.894  23.604  1.00  0.00     0.042 A 
ATOM     17  Cl  UNL A   1      32.815  17.397  22.768  1.00  0.00    -0.084 Cl
ENDBRANCH   9  10
BRANCH   9  18
ATOM     18  N   UNL A   1      32.353  23.377  26.118  1.00  0.00    -0.348 N 
ATOM     19  C   UNL A   1      31.757  24.573  26.374  1.00  0.00     0.226 C 
ATOM     20  H   UNL A   1      31.751  22.662  26.432  1.00  0.00     0.164 HD
ATOM     21  O   UNL A   1      30.813  24.514  27.171  1.00  0.00    -0.274 OA
BRANCH  19  22
ATOM     22  C   UNL A   1      32.127  25.918  25.736  1.00  0.00     0.050 C 
ATOM     23  C   UNL A   1      31.776  25.933  24.239  1.00  0.00     0.020 C 
ATOM     24  C   UNL A   1      33.653  26.245  25.813  1.00  0.00     0.020 C 
ATOM     25  C   UNL A   1      31.474  27.036  26.553  1.00  0.00     0.020 C 
ATOM     26  C   UNL A   1      31.992  27.327  23.643  1.00  0.00    -0.010 C 
ATOM     27  C   UNL A   1      33.939  27.647  25.203  1.00  0.00    -0.010 C 
ATOM     28  C   UNL A   1      31.654  28.404  25.903  1.00  0.00    -0.010 C 
ATOM     29  C   UNL A   1      31.176  28.356  24.442  1.00  0.00     0.007 C 
ATOM     30  C   UNL A   1      33.487  27.671  23.733  1.00  0.00     0.007 C 
ATOM     31  C   UNL A   1      33.148  28.735  25.956  1.00  0.00     0.007 C 
ENDBRANCH  19  22
ENDBRANCH   9  18
ENDBRANCH   8   9
ENDBRANCH   6   8
ENDBRANCH   3   4
ENDBRANCH   2   3
ENDBRANCH   1   2
BRANCH   1  32
ATOM     32  C   UNL A   1      41.203  21.181  27.767  1.00  0.00     0.002 C 
BRANCH  32  33
ATOM     33  C   UNL A   1      41.846  19.894  27.249  1.00  0.00     0.021 C 
BRANCH  33  34
ATOM     34  C   UNL A   1      41.836  19.761  25.731  1.00  0.00     0.116 C 
BRANCH  34  35
ATOM     35  N   UNL A   1      43.150  19.406  25.214  1.00  0.00    -0.352 N 
ATOM     36  C   UNL A   1      44.216  20.229  24.954  1.00  0.00     0.251 C 
ATOM     37  H   UNL A   1      43.292  18.450  25.024  1.00  0.00     0.163 HD
ATOM     38  O   UNL A   1      45.173  19.821  24.302  1.00  0.00    -0.269 OA
BRANCH  36  39
ATOM     39  C   UNL A   1      44.177  21.617  25.453  1.00  0.00     0.039 A 
ATOM     40  C   UNL A   1      44.604  21.886  26.754  1.00  0.00     0.014 A 
ATOM     41  C   UNL A   1      43.764  22.652  24.608  1.00  0.00     0.014 A 
ATOM     42  C   UNL A   1      44.678  23.210  27.189  1.00  0.00     0.010 A 
ATOM     43  C   UNL A   1      43.908  23.972  25.018  1.00  0.00     0.010 A 
ATOM     44  C   UNL A   1      44.368  24.264  26.312  1.00  0.00    -0.014 A 
BRANCH  44  45
ATOM     45  C   UNL A   1      44.528  25.681  26.725  1.00  0.00     0.031 A 
ATOM     46  C   UNL A   1      45.888  26.317  26.709  1.00  0.00     0.074 A 
ATOM     47  C   UNL A   1      43.461  26.362  27.187  1.00  0.00     0.049 A 
ATOM     48  N   UNL A   1      46.251  27.507  27.114  1.00  0.00    -0.248 NA
ATOM     49  C   UNL A   1      46.992  25.491  26.201  1.00  0.00     0.031 C 
ATOM     50  C   UNL A   1      42.102  25.827  27.297  1.00  0.00     0.029 A 
ATOM     51  N   UNL A   1      43.353  27.642  27.668  1.00  0.00    -0.354 N 
ATOM     52  C   UNL A   1      47.625  27.571  26.914  1.00  0.00     0.074 A 
ATOM     53  C   UNL A   1      48.036  26.272  26.424  1.00  0.00     0.031 C 
ATOM     54  C   UNL A   1      41.297  26.776  27.801  1.00  0.00     0.029 A 
ATOM     55  C   UNL A   1      42.087  27.967  28.095  1.00  0.00     0.049 A 
ATOM     56  H   UNL A   1      44.111  28.270  27.702  1.00  0.00     0.167 HD
ATOM     57  C   UNL A   1      48.461  28.624  27.096  1.00  0.00     0.034 A 
ATOM     58  C   UNL A   1      41.620  29.088  28.678  1.00  0.00     0.034 A 
ATOM     59  C   UNL A   1      48.028  29.909  27.594  1.00  0.00     0.049 A 
ATOM     60  C   UNL A   1      42.569  30.235  28.909  1.00  0.00     0.074 A 
ATOM     61  C   UNL A   1      48.771  31.062  27.769  1.00  0.00     0.029 A 
ATOM     62  N   UNL A   1      46.736  30.204  28.014  1.00  0.00    -0.354 N 
ATOM     63  N   UNL A   1      43.855  30.306  28.654  1.00  0.00    -0.248 NA
ATOM     64  C   UNL A   1      42.002  31.456  29.495  1.00  0.00     0.031 C 
ATOM     65  C   UNL A   1      47.950  32.028  28.362  1.00  0.00     0.029 A 
ATOM     66  C   UNL A   1      46.670  31.508  28.483  1.00  0.00     0.049 A 
ATOM     67  H   UNL A   1      45.975  29.579  27.981  1.00  0.00     0.167 HD
ATOM     68  C   UNL A   1      44.248  31.586  29.033  1.00  0.00     0.074 A 
ATOM     69  C   UNL A   1      43.057  32.258  29.514  1.00  0.00     0.031 C 
ATOM     70  C   UNL A   1      45.480  32.156  28.985  1.00  0.00     0.034 A 
BRANCH  57  71
ATOM     71  C   UNL A   1      49.924  28.407  26.780  1.00  0.00     0.023 A 
ATOM     72  C   UNL A   1      50.446  28.670  25.501  1.00  0.00     0.031 A 
ATOM     73  C   UNL A   1      50.796  27.881  27.748  1.00  0.00     0.131 A 
ATOM     74  C   UNL A   1      51.769  28.313  25.196  1.00  0.00     0.055 A 
ATOM     75  C   UNL A   1      52.138  27.616  27.465  1.00  0.00     0.041 A 
ATOM     76  F   UNL A   1      50.355  27.590  28.982  1.00  0.00    -0.206 F 
ATOM     77  C   UNL A   1      52.626  27.812  26.176  1.00  0.00     0.022 A 
BRANCH  74  78
ATOM     78  S   UNL A   1      52.291  28.346  23.459  1.00  0.00     0.124 S 
ATOM     79  O   UNL A   1      52.410  26.922  23.158  1.00  0.00    -0.237 OA
ATOM     80  O   UNL A   1      51.189  29.047  22.811  1.00  0.00    -0.237 OA
ATOM     81  O   UNL A   1      53.558  29.074  23.496  1.00  0.00    -0.744 OA
ENDBRANCH  74  78
ENDBRANCH  57  71
BRANCH  58  82
ATOM     82  C   UNL A   1      40.195  29.165  29.109  1.00  0.00     0.023 A 
ATOM     83  C   UNL A   1      39.836  29.062  30.462  1.00  0.00     0.031 A 
ATOM     84  C   UNL A   1      39.167  29.336  28.165  1.00  0.00     0.131 A 
ATOM     85  C   UNL A   1      38.481  29.097  30.829  1.00  0.00     0.055 A 
ATOM     86  C   UNL A   1      37.825  29.420  28.539  1.00  0.00     0.041 A 
ATOM     87  F   UNL A   1      39.456  29.448  26.858  1.00  0.00    -0.206 F 
ATOM     88  C   UNL A   1      37.475  29.290  29.880  1.00  0.00     0.022 A 
BRANCH  85  89
ATOM     89  S   UNL A   1      38.043  28.823  32.568  1.00  0.00     0.124 S 
ATOM     90  O   UNL A   1      39.067  29.598  33.258  1.00  0.00    -0.237 OA
ATOM     91  O   UNL A   1      36.686  29.354  32.627  1.00  0.00    -0.237 OA
ATOM     92  O   UNL A   1      38.148  27.372  32.721  1.00  0.00    -0.744 OA
ENDBRANCH  85  89
ENDBRANCH  58  82
BRANCH  70  93
ATOM     93  C   UNL A   1      45.589  33.590  29.445  1.00  0.00     0.023 A 
ATOM     94  C   UNL A   1      45.403  34.666  28.560  1.00  0.00     0.031 A 
ATOM     95  C   UNL A   1      45.887  33.881  30.788  1.00  0.00     0.131 A 
ATOM     96  C   UNL A   1      45.566  35.982  29.018  1.00  0.00     0.055 A 
ATOM     97  C   UNL A   1      45.986  35.194  31.250  1.00  0.00     0.041 A 
ATOM     98  F   UNL A   1      46.079  32.892  31.676  1.00  0.00    -0.206 F 
ATOM     99  C   UNL A   1      45.837  36.254  30.361  1.00  0.00     0.022 A 
BRANCH  96 100
ATOM    100  S   UNL A   1      45.502  37.338  27.813  1.00  0.00     0.124 S 
ATOM    101  O   UNL A   1      45.655  36.626  26.549  1.00  0.00    -0.237 OA
ATOM    102  O   UNL A   1      44.187  37.917  28.064  1.00  0.00    -0.237 OA
ATOM    103  O   UNL A   1      46.633  38.184  28.189  1.00  0.00    -0.744 OA
ENDBRANCH  96 100
ENDBRANCH  70  93
ENDBRANCH  44  45
ENDBRANCH  36  39
ENDBRANCH  34  35
ENDBRANCH  33  34
ENDBRANCH  32  33
ENDBRANCH   1  32
TORSDOF 20
ENDMDL
MODEL 3
REMARK VINA RESULT:     -11.5      1.358      1.743
REMARK SMILES O=C(C[C@H](NC(=O)[C@]12C[C@H]3C[C@H](C[C@H](C3)C1)C2)c1ccc(Cl)cc1Cl)NCCCCCCNC(=O)c1ccc(-c2c3nc(c(-c4cc(S(=O)(=O)[O-])ccc4F)c4ccc([nH]4)c(-c4cc(S(=O)(=O)[O-])ccc4F)c4nc(c(-c5cc(S(=O)(=O)[O-])ccc5F)c5ccc2[nH]5)C=C4)C=C3)cc1
REMARK SMILES IDX 29 1 28 2 27 3 26 4 1 5 2 6 3 8 4 9 18 10 19 11 24 12 20 13
REMARK SMILES IDX 23 14 25 15 21 16 22 17 5 18 6 19 7 21 8 22 9 23 16 24 17 25
REMARK SMILES IDX 10 26 14 27 12 28 11 29 15 30 13 31 30 32 31 33 32 34 33 35
REMARK SMILES IDX 34 36 35 38 36 39 37 40 98 41 38 42 97 43 39 44 40 45 41 46
REMARK SMILES IDX 91 47 42 48 96 49 90 50 92 51 43 52 95 53 89 54 88 55 44 57
REMARK SMILES IDX 76 58 56 59 75 60 57 61 60 62 74 63 93 64 58 65 59 66 73 68
REMARK SMILES IDX 94 69 61 70 45 71 46 72 54 73 47 74 53 75 55 76 52 77 48 78
REMARK SMILES IDX 49 79 50 80 51 81 77 82 78 83 86 84 79 85 85 86 87 87 84 88
REMARK SMILES IDX 80 89 81 90 82 91 83 92 62 93 63 94 71 95 64 96 70 97 72 98
REMARK SMILES IDX 69 99 65 100 66 101 67 102 68 103
REMARK H PARENT 26 7 5 20 33 37 92 56 60 67
REMARK Flexibility Score: inf
ROOT
ATOM      1  C   UNL A   1      35.445  31.998  28.963  1.00  0.00     0.002 C 
ENDROOT
BRANCH   1   2
ATOM      2  C   UNL A   1      35.675  30.815  28.022  1.00  0.00     0.021 C 
BRANCH   2   3
ATOM      3  C   UNL A   1      34.388  30.206  27.467  1.00  0.00     0.116 C 
BRANCH   3   4
ATOM      4  N   UNL A   1      34.505  29.563  26.167  1.00  0.00    -0.356 N 
ATOM      5  O   UNL A   1      33.269  27.722  26.724  1.00  0.00    -0.275 OA
ATOM      6  C   UNL A   1      33.816  28.418  25.868  1.00  0.00     0.222 C 
ATOM      7  H   UNL A   1      35.095  29.960  25.487  1.00  0.00     0.163 HD
BRANCH   6   8
ATOM      8  C   UNL A   1      33.685  28.008  24.424  1.00  0.00     0.129 C 
BRANCH   8   9
ATOM      9  C   UNL A   1      32.744  26.878  23.976  1.00  0.00     0.123 C 
BRANCH   9  10
ATOM     10  C   UNL A   1      31.483  27.547  23.397  1.00  0.00    -0.006 A 
ATOM     11  C   UNL A   1      31.585  28.694  22.589  1.00  0.00     0.009 A 
ATOM     12  C   UNL A   1      30.187  27.117  23.766  1.00  0.00     0.047 A 
ATOM     13  C   UNL A   1      30.447  29.410  22.207  1.00  0.00     0.021 A 
ATOM     14  C   UNL A   1      29.051  27.843  23.393  1.00  0.00     0.041 A 
ATOM     15  Cl  UNL A   1      29.920  25.693  24.716  1.00  0.00    -0.084 Cl
ATOM     16  C   UNL A   1      29.189  28.992  22.625  1.00  0.00     0.042 A 
ATOM     17  Cl  UNL A   1      27.796  29.908  22.201  1.00  0.00    -0.084 Cl
ENDBRANCH   9  10
BRANCH   9  18
ATOM     18  N   UNL A   1      33.176  25.725  23.136  1.00  0.00    -0.348 N 
ATOM     19  C   UNL A   1      33.647  24.449  23.181  1.00  0.00     0.226 C 
ATOM     20  H   UNL A   1      33.089  25.985  22.189  1.00  0.00     0.164 HD
ATOM     21  O   UNL A   1      34.128  24.043  22.116  1.00  0.00    -0.274 OA
BRANCH  19  22
ATOM     22  C   UNL A   1      33.583  23.509  24.392  1.00  0.00     0.050 C 
ATOM     23  C   UNL A   1      32.134  23.085  24.683  1.00  0.00     0.020 C 
ATOM     24  C   UNL A   1      34.105  24.157  25.713  1.00  0.00     0.020 C 
ATOM     25  C   UNL A   1      34.549  22.345  24.151  1.00  0.00     0.020 C 
ATOM     26  C   UNL A   1      32.089  22.020  25.784  1.00  0.00    -0.010 C 
ATOM     27  C   UNL A   1      34.067  23.126  26.877  1.00  0.00    -0.010 C 
ATOM     28  C   UNL A   1      34.438  21.272  25.229  1.00  0.00    -0.010 C 
ATOM     29  C   UNL A   1      32.972  20.829  25.377  1.00  0.00     0.007 C 
ATOM     30  C   UNL A   1      32.623  22.639  27.085  1.00  0.00     0.007 C 
ATOM     31  C   UNL A   1      34.933  21.897  26.537  1.00  0.00     0.007 C 
ENDBRANCH  19  22
ENDBRANCH   9  18
ENDBRANCH   8   9
ENDBRANCH   6   8
ENDBRANCH   3   4
ENDBRANCH   2   3
ENDBRANCH   1   2
BRANCH   1  32
ATOM     32  C   UNL A   1      35.931  33.337  28.410  1.00  0.00     0.002 C 
BRANCH  32  33
ATOM     33  C   UNL A   1      34.974  34.503  28.662  1.00  0.00     0.021 C 
BRANCH  33  34
ATOM     34  C   UNL A   1      33.570  34.078  29.077  1.00  0.00     0.116 C 
BRANCH  34  35
ATOM     35  N   UNL A   1      32.953  35.053  29.963  1.00  0.00    -0.352 N 
ATOM     36  C   UNL A   1      33.189  35.263  31.298  1.00  0.00     0.251 C 
ATOM     37  H   UNL A   1      32.276  35.639  29.551  1.00  0.00     0.163 HD
ATOM     38  O   UNL A   1      32.427  35.960  31.963  1.00  0.00    -0.269 OA
BRANCH  36  39
ATOM     39  C   UNL A   1      34.361  34.618  31.920  1.00  0.00     0.039 A 
ATOM     40  C   UNL A   1      34.272  33.285  32.320  1.00  0.00     0.014 A 
ATOM     41  C   UNL A   1      35.559  35.327  32.057  1.00  0.00     0.014 A 
ATOM     42  C   UNL A   1      35.411  32.638  32.801  1.00  0.00     0.010 A 
ATOM     43  C   UNL A   1      36.707  34.661  32.467  1.00  0.00     0.010 A 
ATOM     44  C   UNL A   1      36.646  33.310  32.842  1.00  0.00    -0.014 A 
BRANCH  44  45
ATOM     45  C   UNL A   1      37.887  32.614  33.264  1.00  0.00     0.031 A 
ATOM     46  C   UNL A   1      38.481  32.894  34.615  1.00  0.00     0.074 A 
ATOM     47  C   UNL A   1      38.515  31.793  32.400  1.00  0.00     0.049 A 
ATOM     48  N   UNL A   1      39.600  32.459  35.134  1.00  0.00    -0.248 NA
ATOM     49  C   UNL A   1      37.730  33.813  35.482  1.00  0.00     0.031 C 
ATOM     50  C   UNL A   1      38.057  31.489  31.042  1.00  0.00     0.029 A 
ATOM     51  N   UNL A   1      39.680  31.081  32.524  1.00  0.00    -0.354 N 
ATOM     52  C   UNL A   1      39.691  33.055  36.387  1.00  0.00     0.074 A 
ATOM     53  C   UNL A   1      38.551  33.939  36.513  1.00  0.00     0.031 C 
ATOM     54  C   UNL A   1      38.926  30.644  30.466  1.00  0.00     0.029 A 
ATOM     55  C   UNL A   1      40.025  30.384  31.390  1.00  0.00     0.049 A 
ATOM     56  H   UNL A   1      40.218  31.069  33.349  1.00  0.00     0.167 HD
ATOM     57  C   UNL A   1      40.624  32.862  37.353  1.00  0.00     0.034 A 
ATOM     58  C   UNL A   1      41.113  29.638  31.117  1.00  0.00     0.034 A 
ATOM     59  C   UNL A   1      41.757  31.980  37.200  1.00  0.00     0.049 A 
ATOM     60  C   UNL A   1      42.160  29.462  32.187  1.00  0.00     0.074 A 
ATOM     61  C   UNL A   1      42.735  31.663  38.126  1.00  0.00     0.029 A 
ATOM     62  N   UNL A   1      42.074  31.285  36.038  1.00  0.00    -0.354 N 
ATOM     63  N   UNL A   1      42.201  29.980  33.393  1.00  0.00    -0.248 NA
ATOM     64  C   UNL A   1      43.299  28.596  31.862  1.00  0.00     0.031 C 
ATOM     65  C   UNL A   1      43.680  30.840  37.503  1.00  0.00     0.029 A 
ATOM     66  C   UNL A   1      43.252  30.574  36.211  1.00  0.00     0.049 A 
ATOM     67  H   UNL A   1      41.538  31.296  35.212  1.00  0.00     0.167 HD
ATOM     68  C   UNL A   1      43.362  29.487  33.979  1.00  0.00     0.074 A 
ATOM     69  C   UNL A   1      43.981  28.615  32.999  1.00  0.00     0.031 C 
ATOM     70  C   UNL A   1      43.871  29.729  35.215  1.00  0.00     0.034 A 
BRANCH  57  71
ATOM     71  C   UNL A   1      40.461  33.643  38.637  1.00  0.00     0.023 A 
ATOM     72  C   UNL A   1      39.578  33.221  39.648  1.00  0.00     0.031 A 
ATOM     73  C   UNL A   1      41.151  34.852  38.833  1.00  0.00     0.131 A 
ATOM     74  C   UNL A   1      39.334  34.045  40.756  1.00  0.00     0.055 A 
ATOM     75  C   UNL A   1      40.974  35.622  39.985  1.00  0.00     0.041 A 
ATOM     76  F   UNL A   1      41.993  35.319  37.898  1.00  0.00    -0.206 F 
ATOM     77  C   UNL A   1      40.045  35.231  40.945  1.00  0.00     0.022 A 
BRANCH  74  78
ATOM     78  S   UNL A   1      37.945  33.632  41.848  1.00  0.00     0.124 S 
ATOM     79  O   UNL A   1      37.268  34.920  41.967  1.00  0.00    -0.237 OA
ATOM     80  O   UNL A   1      37.241  32.606  41.088  1.00  0.00    -0.237 OA
ATOM     81  O   UNL A   1      38.598  33.166  43.070  1.00  0.00    -0.744 OA
ENDBRANCH  74  78
ENDBRANCH  57  71
BRANCH  58  82
ATOM     82  C   UNL A   1      41.280  29.029  29.766  1.00  0.00     0.023 A 
ATOM     83  C   UNL A   1      40.777  27.751  29.475  1.00  0.00     0.031 A 
ATOM     84  C   UNL A   1      41.957  29.720  28.746  1.00  0.00     0.131 A 
ATOM     85  C   UNL A   1      40.990  27.190  28.205  1.00  0.00     0.055 A 
ATOM     86  C   UNL A   1      42.121  29.179  27.470  1.00  0.00     0.041 A 
ATOM     87  F   UNL A   1      42.450  30.949  28.969  1.00  0.00    -0.206 F 
ATOM     88  C   UNL A   1      41.644  27.900  27.198  1.00  0.00     0.022 A 
BRANCH  85  89
ATOM     89  S   UNL A   1      40.449  25.485  27.906  1.00  0.00     0.124 S 
ATOM     90  O   UNL A   1      41.578  24.720  28.423  1.00  0.00    -0.237 OA
ATOM     91  O   UNL A   1      39.216  25.417  28.685  1.00  0.00    -0.237 OA
ATOM     92  O   UNL A   1      40.270  25.434  26.456  1.00  0.00    -0.744 OA
ENDBRANCH  85  89
ENDBRANCH  58  82
BRANCH  70  93
ATOM     93  C   UNL A   1      45.150  29.016  35.580  1.00  0.00     0.023 A 
ATOM     94  C   UNL A   1      45.144  27.738  36.166  1.00  0.00     0.031 A 
ATOM     95  C   UNL A   1      46.394  29.628  35.342  1.00  0.00     0.131 A 
ATOM     96  C   UNL A   1      46.353  27.134  36.538  1.00  0.00     0.055 A 
ATOM     97  C   UNL A   1      47.596  28.994  35.658  1.00  0.00     0.041 A 
ATOM     98  F   UNL A   1      46.460  30.850  34.789  1.00  0.00    -0.206 F 
ATOM     99  C   UNL A   1      47.581  27.745  36.271  1.00  0.00     0.022 A 
BRANCH  96 100
ATOM    100  S   UNL A   1      46.300  25.570  37.457  1.00  0.00     0.124 S 
ATOM    101  O   UNL A   1      46.452  24.587  36.391  1.00  0.00    -0.237 OA
ATOM    102  O   UNL A   1      47.432  25.704  38.368  1.00  0.00    -0.237 OA
ATOM    103  O   UNL A   1      44.986  25.593  38.096  1.00  0.00    -0.744 OA
ENDBRANCH  96 100
ENDBRANCH  70  93
ENDBRANCH  44  45
ENDBRANCH  36  39
ENDBRANCH  34  35
ENDBRANCH  33  34
ENDBRANCH  32  33
ENDBRANCH   1  32
TORSDOF 20
ENDMDL
