MODEL 1
REMARK VINA RESULT:     -11.2      0.000      0.000
REMARK SMILES O=C(C[C@@H](NS(=O)(=O)c1ccc(Cl)cc1)c1ccc(F)cc1)NCCCCCCNC(=O)c1ccc(-c2c3nc(c(-c4cc(S(=O)(=O)[O-])ccc4F)c4ccc([nH]4)c(-c4cc(S(=O)(=O)[O-])ccc4F)c4nc(c(-c5cc(S(=O)(=O)[O-])ccc5F)c5ccc2[nH]5)C=C4)C=C3)cc1
REMARK SMILES IDX 26 1 25 2 24 3 23 4 1 5 2 6 3 8 4 9 5 10 6 12 7 13 8 14 9 15
REMARK SMILES IDX 10 16 15 17 11 18 14 19 12 20 13 21 16 22 17 23 22 24 18 25
REMARK SMILES IDX 21 26 19 27 20 28 27 29 28 30 29 31 30 32 31 33 32 35 33 36
REMARK SMILES IDX 34 37 95 38 35 39 94 40 36 41 37 42 38 43 88 44 39 45 93 46
REMARK SMILES IDX 87 47 89 48 40 49 92 50 86 51 85 52 41 54 73 55 53 56 72 57
REMARK SMILES IDX 54 58 57 59 71 60 90 61 55 62 56 63 70 65 91 66 58 67 42 68
REMARK SMILES IDX 43 69 51 70 44 71 50 72 52 73 49 74 45 75 46 76 47 77 48 78
REMARK SMILES IDX 74 79 75 80 83 81 76 82 82 83 84 84 81 85 77 86 78 87 79 88
REMARK SMILES IDX 80 89 59 90 60 91 68 92 61 93 67 94 69 95 66 96 62 97 63 98
REMARK SMILES IDX 64 99 65 100
REMARK H PARENT 23 7 5 11 30 34 89 53 57 64
REMARK Flexibility Score: inf
ROOT
ATOM      1  C   UNL A   1      34.812  31.145  28.097  1.00  0.00     0.002 C 
ENDROOT
BRANCH   1   2
ATOM      2  C   UNL A   1      33.785  30.464  27.184  1.00  0.00     0.021 C 
BRANCH   2   3
ATOM      3  C   UNL A   1      33.730  28.942  27.296  1.00  0.00     0.116 C 
BRANCH   3   4
ATOM      4  N   UNL A   1      32.911  28.345  26.259  1.00  0.00    -0.356 N 
ATOM      5  O   UNL A   1      31.383  27.431  27.713  1.00  0.00    -0.275 OA
ATOM      6  C   UNL A   1      31.782  27.620  26.569  1.00  0.00     0.221 C 
ATOM      7  H   UNL A   1      33.166  28.461  25.315  1.00  0.00     0.163 HD
BRANCH   6   8
ATOM      8  C   UNL A   1      31.036  27.100  25.366  1.00  0.00     0.124 C 
BRANCH   8   9
ATOM      9  C   UNL A   1      31.440  27.892  24.108  1.00  0.00     0.109 C 
BRANCH   9  10
ATOM     10  N   UNL A   1      31.724  26.929  23.011  1.00  0.00    -0.203 NA
ATOM     11  H   UNL A   1      31.444  27.377  22.139  1.00  0.00     0.142 HD
BRANCH  10  12
ATOM     12  S   UNL A   1      33.308  26.373  22.795  1.00  0.00     0.241 S 
ATOM     13  O   UNL A   1      33.665  26.573  21.407  1.00  0.00    -0.207 OA
ATOM     14  O   UNL A   1      34.068  26.960  23.872  1.00  0.00    -0.207 OA
BRANCH  12  15
ATOM     15  C   UNL A   1      33.236  24.631  23.113  1.00  0.00     0.082 A 
ATOM     16  C   UNL A   1      34.357  23.951  23.596  1.00  0.00     0.023 A 
ATOM     17  C   UNL A   1      32.018  23.965  22.937  1.00  0.00     0.023 A 
ATOM     18  C   UNL A   1      34.246  22.604  23.944  1.00  0.00     0.022 A 
ATOM     19  C   UNL A   1      31.917  22.613  23.270  1.00  0.00     0.022 A 
ATOM     20  C   UNL A   1      33.027  21.943  23.785  1.00  0.00     0.041 A 
ATOM     21  Cl  UNL A   1      32.888  20.289  24.239  1.00  0.00    -0.084 Cl
ENDBRANCH  12  15
ENDBRANCH  10  12
ENDBRANCH   9  10
BRANCH   9  22
ATOM     22  C   UNL A   1      30.342  28.877  23.713  1.00  0.00    -0.029 A 
ATOM     23  C   UNL A   1      29.272  28.436  22.914  1.00  0.00     0.008 A 
ATOM     24  C   UNL A   1      30.329  30.208  24.174  1.00  0.00     0.008 A 
ATOM     25  C   UNL A   1      28.215  29.291  22.600  1.00  0.00     0.039 A 
ATOM     26  C   UNL A   1      29.280  31.067  23.842  1.00  0.00     0.039 A 
ATOM     27  C   UNL A   1      28.229  30.600  23.064  1.00  0.00     0.123 A 
ATOM     28  F   UNL A   1      27.213  31.420  22.766  1.00  0.00    -0.207 F 
ENDBRANCH   9  22
ENDBRANCH   8   9
ENDBRANCH   6   8
ENDBRANCH   3   4
ENDBRANCH   2   3
ENDBRANCH   1   2
BRANCH   1  29
ATOM     29  C   UNL A   1      34.935  32.663  27.937  1.00  0.00     0.002 C 
BRANCH  29  30
ATOM     30  C   UNL A   1      33.623  33.449  28.015  1.00  0.00     0.021 C 
BRANCH  30  31
ATOM     31  C   UNL A   1      33.755  34.937  28.338  1.00  0.00     0.116 C 
BRANCH  31  32
ATOM     32  N   UNL A   1      33.072  35.313  29.563  1.00  0.00    -0.352 N 
ATOM     33  C   UNL A   1      33.341  34.957  30.862  1.00  0.00     0.251 C 
ATOM     34  H   UNL A   1      32.300  35.913  29.445  1.00  0.00     0.163 HD
ATOM     35  O   UNL A   1      32.560  35.290  31.750  1.00  0.00    -0.269 OA
BRANCH  33  36
ATOM     36  C   UNL A   1      34.541  34.152  31.195  1.00  0.00     0.039 A 
ATOM     37  C   UNL A   1      35.801  34.712  30.971  1.00  0.00     0.014 A 
ATOM     38  C   UNL A   1      34.436  32.851  31.698  1.00  0.00     0.014 A 
ATOM     39  C   UNL A   1      36.954  33.995  31.307  1.00  0.00     0.010 A 
ATOM     40  C   UNL A   1      35.586  32.155  32.079  1.00  0.00     0.010 A 
ATOM     41  C   UNL A   1      36.856  32.723  31.892  1.00  0.00    -0.014 A 
BRANCH  41  42
ATOM     42  C   UNL A   1      38.076  31.993  32.329  1.00  0.00     0.031 A 
ATOM     43  C   UNL A   1      38.717  32.300  33.654  1.00  0.00     0.074 A 
ATOM     44  C   UNL A   1      38.621  31.069  31.513  1.00  0.00     0.049 A 
ATOM     45  N   UNL A   1      39.803  31.794  34.180  1.00  0.00    -0.248 NA
ATOM     46  C   UNL A   1      38.065  33.320  34.489  1.00  0.00     0.031 C 
ATOM     47  C   UNL A   1      38.109  30.702  30.191  1.00  0.00     0.029 A 
ATOM     48  N   UNL A   1      39.725  30.267  31.673  1.00  0.00    -0.354 N 
ATOM     49  C   UNL A   1      39.971  32.436  35.401  1.00  0.00     0.074 A 
ATOM     50  C   UNL A   1      38.895  33.397  35.521  1.00  0.00     0.031 C 
ATOM     51  C   UNL A   1      38.877  29.729  29.675  1.00  0.00     0.029 A 
ATOM     52  C   UNL A   1      39.957  29.426  30.610  1.00  0.00     0.049 A 
ATOM     53  H   UNL A   1      40.298  30.293  32.474  1.00  0.00     0.167 HD
ATOM     54  C   UNL A   1      40.925  32.231  36.341  1.00  0.00     0.034 A 
ATOM     55  C   UNL A   1      40.929  28.513  30.407  1.00  0.00     0.034 A 
ATOM     56  C   UNL A   1      41.976  31.254  36.229  1.00  0.00     0.049 A 
ATOM     57  C   UNL A   1      41.975  28.303  31.468  1.00  0.00     0.074 A 
ATOM     58  C   UNL A   1      42.962  30.942  37.150  1.00  0.00     0.029 A 
ATOM     59  N   UNL A   1      42.177  30.424  35.135  1.00  0.00    -0.354 N 
ATOM     60  N   UNL A   1      42.112  28.920  32.618  1.00  0.00    -0.248 NA
ATOM     61  C   UNL A   1      42.993  27.276  31.210  1.00  0.00     0.031 C 
ATOM     62  C   UNL A   1      43.783  29.955  36.597  1.00  0.00     0.029 A 
ATOM     63  C   UNL A   1      43.277  29.614  35.354  1.00  0.00     0.049 A 
ATOM     64  H   UNL A   1      41.618  30.413  34.325  1.00  0.00     0.167 HD
ATOM     65  C   UNL A   1      43.216  28.337  33.230  1.00  0.00     0.074 A 
ATOM     66  C   UNL A   1      43.714  27.324  32.323  1.00  0.00     0.031 C 
ATOM     67  C   UNL A   1      43.762  28.611  34.440  1.00  0.00     0.034 A 
BRANCH  54  68
ATOM     68  C   UNL A   1      40.888  33.090  37.575  1.00  0.00     0.023 A 
ATOM     69  C   UNL A   1      40.188  32.689  38.725  1.00  0.00     0.031 A 
ATOM     70  C   UNL A   1      41.596  34.304  37.616  1.00  0.00     0.131 A 
ATOM     71  C   UNL A   1      40.183  33.513  39.860  1.00  0.00     0.055 A 
ATOM     72  C   UNL A   1      41.635  35.091  38.766  1.00  0.00     0.041 A 
ATOM     73  F   UNL A   1      42.269  34.737  36.538  1.00  0.00    -0.206 F 
ATOM     74  C   UNL A   1      40.920  34.700  39.896  1.00  0.00     0.022 A 
BRANCH  71  75
ATOM     75  S   UNL A   1      39.159  33.041  41.278  1.00  0.00     0.124 S 
ATOM     76  O   UNL A   1      39.895  33.648  42.384  1.00  0.00    -0.237 OA
ATOM     77  O   UNL A   1      37.870  33.647  40.961  1.00  0.00    -0.237 OA
ATOM     78  O   UNL A   1      39.183  31.580  41.246  1.00  0.00    -0.744 OA
ENDBRANCH  71  75
ENDBRANCH  54  68
BRANCH  55  79
ATOM     79  C   UNL A   1      40.960  27.730  29.142  1.00  0.00     0.023 A 
ATOM     80  C   UNL A   1      41.913  28.000  28.150  1.00  0.00     0.031 A 
ATOM     81  C   UNL A   1      40.032  26.699  28.911  1.00  0.00     0.131 A 
ATOM     82  C   UNL A   1      41.904  27.263  26.956  1.00  0.00     0.055 A 
ATOM     83  C   UNL A   1      40.050  25.945  27.737  1.00  0.00     0.041 A 
ATOM     84  F   UNL A   1      39.109  26.398  29.837  1.00  0.00    -0.206 F 
ATOM     85  C   UNL A   1      40.986  26.231  26.747  1.00  0.00     0.022 A 
BRANCH  82  86
ATOM     86  S   UNL A   1      43.096  27.694  25.658  1.00  0.00     0.124 S 
ATOM     87  O   UNL A   1      43.936  28.671  26.339  1.00  0.00    -0.237 OA
ATOM     88  O   UNL A   1      43.713  26.405  25.369  1.00  0.00    -0.237 OA
ATOM     89  O   UNL A   1      42.254  28.232  24.589  1.00  0.00    -0.744 OA
ENDBRANCH  82  86
ENDBRANCH  55  79
BRANCH  67  90
ATOM     90  C   UNL A   1      44.933  27.779  34.879  1.00  0.00     0.023 A 
ATOM     91  C   UNL A   1      44.755  26.553  35.539  1.00  0.00     0.031 A 
ATOM     92  C   UNL A   1      46.241  28.194  34.572  1.00  0.00     0.131 A 
ATOM     93  C   UNL A   1      45.875  25.785  35.887  1.00  0.00     0.055 A 
ATOM     94  C   UNL A   1      47.349  27.410  34.892  1.00  0.00     0.041 A 
ATOM     95  F   UNL A   1      46.456  29.357  33.937  1.00  0.00    -0.206 F 
ATOM     96  C   UNL A   1      47.169  26.198  35.553  1.00  0.00     0.022 A 
BRANCH  93  97
ATOM     97  S   UNL A   1      45.627  24.223  36.776  1.00  0.00     0.124 S 
ATOM     98  O   UNL A   1      46.987  23.895  37.192  1.00  0.00    -0.237 OA
ATOM     99  O   UNL A   1      44.708  24.604  37.843  1.00  0.00    -0.237 OA
ATOM    100  O   UNL A   1      45.057  23.339  35.760  1.00  0.00    -0.744 OA
ENDBRANCH  93  97
ENDBRANCH  67  90
ENDBRANCH  41  42
ENDBRANCH  33  36
ENDBRANCH  31  32
ENDBRANCH  30  31
ENDBRANCH  29  30
ENDBRANCH   1  29
TORSDOF 21
ENDMDL
MODEL 2
REMARK VINA RESULT:     -11.1      6.066     11.512
REMARK SMILES O=C(C[C@@H](NS(=O)(=O)c1ccc(Cl)cc1)c1ccc(F)cc1)NCCCCCCNC(=O)c1ccc(-c2c3nc(c(-c4cc(S(=O)(=O)[O-])ccc4F)c4ccc([nH]4)c(-c4cc(S(=O)(=O)[O-])ccc4F)c4nc(c(-c5cc(S(=O)(=O)[O-])ccc5F)c5ccc2[nH]5)C=C4)C=C3)cc1
REMARK SMILES IDX 26 1 25 2 24 3 23 4 1 5 2 6 3 8 4 9 5 10 6 12 7 13 8 14 9 15
REMARK SMILES IDX 10 16 15 17 11 18 14 19 12 20 13 21 16 22 17 23 22 24 18 25
REMARK SMILES IDX 21 26 19 27 20 28 27 29 28 30 29 31 30 32 31 33 32 35 33 36
REMARK SMILES IDX 34 37 95 38 35 39 94 40 36 41 37 42 38 43 88 44 39 45 93 46
REMARK SMILES IDX 87 47 89 48 40 49 92 50 86 51 85 52 41 54 73 55 53 56 72 57
REMARK SMILES IDX 54 58 57 59 71 60 90 61 55 62 56 63 70 65 91 66 58 67 42 68
REMARK SMILES IDX 43 69 51 70 44 71 50 72 52 73 49 74 45 75 46 76 47 77 48 78
REMARK SMILES IDX 74 79 75 80 83 81 76 82 82 83 84 84 81 85 77 86 78 87 79 88
REMARK SMILES IDX 80 89 59 90 60 91 68 92 61 93 67 94 69 95 66 96 62 97 63 98
REMARK SMILES IDX 64 99 65 100
REMARK H PARENT 23 7 5 11 30 34 89 53 57 64
REMARK Flexibility Score: inf
ROOT
ATOM      1  C   UNL A   1      38.852  23.821  26.245  1.00  0.00     0.002 C 
ENDROOT
BRANCH   1   2
ATOM      2  C   UNL A   1      37.514  23.411  25.618  1.00  0.00     0.021 C 
BRANCH   2   3
ATOM      3  C   UNL A   1      36.316  23.462  26.564  1.00  0.00     0.116 C 
BRANCH   3   4
ATOM      4  N   UNL A   1      35.440  22.318  26.401  1.00  0.00    -0.356 N 
ATOM      5  O   UNL A   1      33.533  23.435  27.031  1.00  0.00    -0.275 OA
ATOM      6  C   UNL A   1      34.091  22.408  26.660  1.00  0.00     0.221 C 
ATOM      7  H   UNL A   1      35.817  21.460  26.099  1.00  0.00     0.163 HD
BRANCH   6   8
ATOM      8  C   UNL A   1      33.330  21.131  26.407  1.00  0.00     0.124 C 
BRANCH   8   9
ATOM      9  C   UNL A   1      32.956  21.022  24.917  1.00  0.00     0.109 C 
BRANCH   9  10
ATOM     10  N   UNL A   1      33.672  22.090  24.169  1.00  0.00    -0.203 NA
ATOM     11  H   UNL A   1      34.378  21.631  23.594  1.00  0.00     0.142 HD
BRANCH  10  12
ATOM     12  S   UNL A   1      32.788  23.110  23.148  1.00  0.00     0.241 S 
ATOM     13  O   UNL A   1      33.667  23.545  22.083  1.00  0.00    -0.207 OA
ATOM     14  O   UNL A   1      31.554  22.410  22.883  1.00  0.00    -0.207 OA
BRANCH  12  15
ATOM     15  C   UNL A   1      32.372  24.516  24.143  1.00  0.00     0.082 A 
ATOM     16  C   UNL A   1      31.143  24.579  24.805  1.00  0.00     0.023 A 
ATOM     17  C   UNL A   1      33.325  25.529  24.308  1.00  0.00     0.023 A 
ATOM     18  C   UNL A   1      30.883  25.642  25.670  1.00  0.00     0.022 A 
ATOM     19  C   UNL A   1      33.052  26.599  25.162  1.00  0.00     0.022 A 
ATOM     20  C   UNL A   1      31.839  26.644  25.850  1.00  0.00     0.041 A 
ATOM     21  Cl  UNL A   1      31.524  27.939  26.936  1.00  0.00    -0.084 Cl
ENDBRANCH  12  15
ENDBRANCH  10  12
ENDBRANCH   9  10
BRANCH   9  22
ATOM     22  C   UNL A   1      33.300  19.637  24.373  1.00  0.00    -0.029 A 
ATOM     23  C   UNL A   1      32.465  19.046  23.408  1.00  0.00     0.008 A 
ATOM     24  C   UNL A   1      34.467  18.949  24.760  1.00  0.00     0.008 A 
ATOM     25  C   UNL A   1      32.793  17.815  22.836  1.00  0.00     0.039 A 
ATOM     26  C   UNL A   1      34.783  17.709  24.201  1.00  0.00     0.039 A 
ATOM     27  C   UNL A   1      33.948  17.157  23.239  1.00  0.00     0.123 A 
ATOM     28  F   UNL A   1      34.265  15.978  22.688  1.00  0.00    -0.207 F 
ENDBRANCH   9  22
ENDBRANCH   8   9
ENDBRANCH   6   8
ENDBRANCH   3   4
ENDBRANCH   2   3
ENDBRANCH   1   2
BRANCH   1  29
ATOM     29  C   UNL A   1      39.684  22.678  26.836  1.00  0.00     0.002 C 
BRANCH  29  30
ATOM     30  C   UNL A   1      39.584  21.335  26.105  1.00  0.00     0.021 C 
BRANCH  30  31
ATOM     31  C   UNL A   1      40.153  20.128  26.849  1.00  0.00     0.116 C 
BRANCH  31  32
ATOM     32  N   UNL A   1      41.203  19.450  26.109  1.00  0.00    -0.352 N 
ATOM     33  C   UNL A   1      42.420  19.923  25.681  1.00  0.00     0.251 C 
ATOM     34  H   UNL A   1      41.015  18.511  25.880  1.00  0.00     0.163 HD
ATOM     35  O   UNL A   1      43.118  19.218  24.957  1.00  0.00    -0.269 OA
BRANCH  33  36
ATOM     36  C   UNL A   1      42.880  21.282  26.055  1.00  0.00     0.039 A 
ATOM     37  C   UNL A   1      42.992  22.246  25.050  1.00  0.00     0.014 A 
ATOM     38  C   UNL A   1      43.225  21.605  27.372  1.00  0.00     0.014 A 
ATOM     39  C   UNL A   1      43.389  23.548  25.372  1.00  0.00     0.010 A 
ATOM     40  C   UNL A   1      43.574  22.917  27.700  1.00  0.00     0.010 A 
ATOM     41  C   UNL A   1      43.653  23.903  26.705  1.00  0.00    -0.014 A 
BRANCH  41  42
ATOM     42  C   UNL A   1      43.994  25.305  27.063  1.00  0.00     0.031 A 
ATOM     43  C   UNL A   1      45.388  25.829  26.858  1.00  0.00     0.074 A 
ATOM     44  C   UNL A   1      43.046  26.099  27.602  1.00  0.00     0.049 A 
ATOM     45  N   UNL A   1      45.875  27.009  27.148  1.00  0.00    -0.248 NA
ATOM     46  C   UNL A   1      46.367  24.905  26.266  1.00  0.00     0.031 C 
ATOM     47  C   UNL A   1      41.665  25.698  27.876  1.00  0.00     0.029 A 
ATOM     48  N   UNL A   1      43.098  27.408  28.013  1.00  0.00    -0.354 N 
ATOM     49  C   UNL A   1      47.216  26.968  26.785  1.00  0.00     0.074 A 
ATOM     50  C   UNL A   1      47.475  25.634  26.285  1.00  0.00     0.031 C 
ATOM     51  C   UNL A   1      40.994  26.746  28.381  1.00  0.00     0.029 A 
ATOM     52  C   UNL A   1      41.902  27.883  28.501  1.00  0.00     0.049 A 
ATOM     53  H   UNL A   1      43.915  27.956  27.964  1.00  0.00     0.167 HD
ATOM     54  C   UNL A   1      48.140  27.957  26.846  1.00  0.00     0.034 A 
ATOM     55  C   UNL A   1      41.572  29.095  28.990  1.00  0.00     0.034 A 
ATOM     56  C   UNL A   1      47.869  29.291  27.315  1.00  0.00     0.049 A 
ATOM     57  C   UNL A   1      42.616  30.177  29.044  1.00  0.00     0.074 A 
ATOM     58  C   UNL A   1      48.731  30.374  27.372  1.00  0.00     0.029 A 
ATOM     59  N   UNL A   1      46.647  29.729  27.802  1.00  0.00    -0.354 N 
ATOM     60  N   UNL A   1      43.878  30.118  28.690  1.00  0.00    -0.248 NA
ATOM     61  C   UNL A   1      42.196  31.488  29.558  1.00  0.00     0.031 C 
ATOM     62  C   UNL A   1      48.042  31.454  27.931  1.00  0.00     0.029 A 
ATOM     63  C   UNL A   1      46.737  31.059  28.173  1.00  0.00     0.049 A 
ATOM     64  H   UNL A   1      45.836  29.176  27.871  1.00  0.00     0.167 HD
ATOM     65  C   UNL A   1      44.394  31.389  28.915  1.00  0.00     0.074 A 
ATOM     66  C   UNL A   1      43.313  32.195  29.441  1.00  0.00     0.031 C 
ATOM     67  C   UNL A   1      45.650  31.849  28.697  1.00  0.00     0.034 A 
BRANCH  54  68
ATOM     68  C   UNL A   1      49.541  27.634  26.404  1.00  0.00     0.023 A 
ATOM     69  C   UNL A   1      50.551  27.335  27.334  1.00  0.00     0.031 A 
ATOM     70  C   UNL A   1      49.860  27.583  25.036  1.00  0.00     0.131 A 
ATOM     71  C   UNL A   1      51.844  27.032  26.884  1.00  0.00     0.055 A 
ATOM     72  C   UNL A   1      51.132  27.224  24.593  1.00  0.00     0.041 A 
ATOM     73  F   UNL A   1      48.932  27.873  24.109  1.00  0.00    -0.206 F 
ATOM     74  C   UNL A   1      52.135  26.951  25.519  1.00  0.00     0.022 A 
BRANCH  71  75
ATOM     75  S   UNL A   1      53.160  26.789  28.106  1.00  0.00     0.124 S 
ATOM     76  O   UNL A   1      53.768  28.116  28.148  1.00  0.00    -0.237 OA
ATOM     77  O   UNL A   1      52.422  26.388  29.299  1.00  0.00    -0.237 OA
ATOM     78  O   UNL A   1      53.992  25.746  27.510  1.00  0.00    -0.744 OA
ENDBRANCH  71  75
ENDBRANCH  54  68
BRANCH  55  79
ATOM     79  C   UNL A   1      40.187  29.349  29.472  1.00  0.00     0.023 A 
ATOM     80  C   UNL A   1      39.890  29.351  30.843  1.00  0.00     0.031 A 
ATOM     81  C   UNL A   1      39.143  29.593  28.564  1.00  0.00     0.131 A 
ATOM     82  C   UNL A   1      38.571  29.568  31.269  1.00  0.00     0.055 A 
ATOM     83  C   UNL A   1      37.839  29.844  28.994  1.00  0.00     0.041 A 
ATOM     84  F   UNL A   1      39.382  29.612  27.244  1.00  0.00    -0.206 F 
ATOM     85  C   UNL A   1      37.546  29.825  30.355  1.00  0.00     0.022 A 
BRANCH  82  86
ATOM     86  S   UNL A   1      38.204  29.480  33.043  1.00  0.00     0.124 S 
ATOM     87  O   UNL A   1      37.373  28.284  33.115  1.00  0.00    -0.237 OA
ATOM     88  O   UNL A   1      39.537  29.372  33.626  1.00  0.00    -0.237 OA
ATOM     89  O   UNL A   1      37.511  30.740  33.310  1.00  0.00    -0.744 OA
ENDBRANCH  82  86
ENDBRANCH  55  79
BRANCH  67  90
ATOM     90  C   UNL A   1      45.920  33.299  28.982  1.00  0.00     0.023 A 
ATOM     91  C   UNL A   1      45.826  34.272  27.975  1.00  0.00     0.031 A 
ATOM     92  C   UNL A   1      46.211  33.712  30.293  1.00  0.00     0.131 A 
ATOM     93  C   UNL A   1      46.037  35.621  28.296  1.00  0.00     0.055 A 
ATOM     94  C   UNL A   1      46.387  35.058  30.612  1.00  0.00     0.041 A 
ATOM     95  F   UNL A   1      46.304  32.814  31.287  1.00  0.00    -0.206 F 
ATOM     96  C   UNL A   1      46.301  36.021  29.610  1.00  0.00     0.022 A 
BRANCH  93  97
ATOM     97  S   UNL A   1      45.952  36.862  26.974  1.00  0.00     0.124 S 
ATOM     98  O   UNL A   1      46.857  37.893  27.471  1.00  0.00    -0.237 OA
ATOM     99  O   UNL A   1      46.413  36.118  25.807  1.00  0.00    -0.237 OA
ATOM    100  O   UNL A   1      44.539  37.234  26.947  1.00  0.00    -0.744 OA
ENDBRANCH  93  97
ENDBRANCH  67  90
ENDBRANCH  41  42
ENDBRANCH  33  36
ENDBRANCH  31  32
ENDBRANCH  30  31
ENDBRANCH  29  30
ENDBRANCH   1  29
TORSDOF 21
ENDMDL
MODEL 3
REMARK VINA RESULT:     -10.9      6.473     11.048
REMARK SMILES O=C(C[C@@H](NS(=O)(=O)c1ccc(Cl)cc1)c1ccc(F)cc1)NCCCCCCNC(=O)c1ccc(-c2c3nc(c(-c4cc(S(=O)(=O)[O-])ccc4F)c4ccc([nH]4)c(-c4cc(S(=O)(=O)[O-])ccc4F)c4nc(c(-c5cc(S(=O)(=O)[O-])ccc5F)c5ccc2[nH]5)C=C4)C=C3)cc1
REMARK SMILES IDX 26 1 25 2 24 3 23 4 1 5 2 6 3 8 4 9 5 10 6 12 7 13 8 14 9 15
REMARK SMILES IDX 10 16 15 17 11 18 14 19 12 20 13 21 16 22 17 23 22 24 18 25
REMARK SMILES IDX 21 26 19 27 20 28 27 29 28 30 29 31 30 32 31 33 32 35 33 36
REMARK SMILES IDX 34 37 95 38 35 39 94 40 36 41 37 42 38 43 88 44 39 45 93 46
REMARK SMILES IDX 87 47 89 48 40 49 92 50 86 51 85 52 41 54 73 55 53 56 72 57
REMARK SMILES IDX 54 58 57 59 71 60 90 61 55 62 56 63 70 65 91 66 58 67 42 68
REMARK SMILES IDX 43 69 51 70 44 71 50 72 52 73 49 74 45 75 46 76 47 77 48 78
REMARK SMILES IDX 74 79 75 80 83 81 76 82 82 83 84 84 81 85 77 86 78 87 79 88
REMARK SMILES IDX 80 89 59 90 60 91 68 92 61 93 67 94 69 95 66 96 62 97 63 98
REMARK SMILES IDX 64 99 65 100
REMARK H PARENT 23 7 5 11 30 34 89 53 57 64
REMARK Flexibility Score: inf
ROOT
ATOM      1  C   UNL A   1      39.931  22.485  27.091  1.00  0.00     0.002 C 
ENDROOT
BRANCH   1   2
ATOM      2  C   UNL A   1      39.434  23.877  26.682  1.00  0.00     0.021 C 
BRANCH   2   3
ATOM      3  C   UNL A   1      38.015  23.915  26.119  1.00  0.00     0.116 C 
BRANCH   3   4
ATOM      4  N   UNL A   1      37.395  22.603  26.106  1.00  0.00    -0.356 N 
ATOM      5  O   UNL A   1      37.013  22.586  23.839  1.00  0.00    -0.275 OA
ATOM      6  C   UNL A   1      36.934  22.044  24.935  1.00  0.00     0.221 C 
ATOM      7  H   UNL A   1      37.303  22.103  26.949  1.00  0.00     0.163 HD
BRANCH   6   8
ATOM      8  C   UNL A   1      36.349  20.663  25.104  1.00  0.00     0.124 C 
BRANCH   8   9
ATOM      9  C   UNL A   1      34.842  20.759  25.410  1.00  0.00     0.109 C 
BRANCH   9  10
ATOM     10  N   UNL A   1      34.425  22.182  25.300  1.00  0.00    -0.203 NA
ATOM     11  H   UNL A   1      33.829  22.256  24.476  1.00  0.00     0.142 HD
BRANCH  10  12
ATOM     12  S   UNL A   1      33.583  22.893  26.584  1.00  0.00     0.241 S 
ATOM     13  O   UNL A   1      32.309  22.219  26.710  1.00  0.00    -0.207 OA
ATOM     14  O   UNL A   1      34.528  22.951  27.673  1.00  0.00    -0.207 OA
BRANCH  12  15
ATOM     15  C   UNL A   1      33.287  24.565  26.077  1.00  0.00     0.082 A 
ATOM     16  C   UNL A   1      34.165  25.207  25.200  1.00  0.00     0.023 A 
ATOM     17  C   UNL A   1      32.122  25.205  26.516  1.00  0.00     0.023 A 
ATOM     18  C   UNL A   1      33.854  26.483  24.728  1.00  0.00     0.022 A 
ATOM     19  C   UNL A   1      31.824  26.487  26.055  1.00  0.00     0.022 A 
ATOM     20  C   UNL A   1      32.684  27.115  25.152  1.00  0.00     0.041 A 
ATOM     21  Cl  UNL A   1      32.291  28.677  24.548  1.00  0.00    -0.084 Cl
ENDBRANCH  12  15
ENDBRANCH  10  12
ENDBRANCH   9  10
BRANCH   9  22
ATOM     22  C   UNL A   1      34.041  19.870  24.463  1.00  0.00    -0.029 A 
ATOM     23  C   UNL A   1      34.408  18.521  24.302  1.00  0.00     0.008 A 
ATOM     24  C   UNL A   1      32.898  20.337  23.784  1.00  0.00     0.008 A 
ATOM     25  C   UNL A   1      33.648  17.664  23.504  1.00  0.00     0.039 A 
ATOM     26  C   UNL A   1      32.152  19.483  22.969  1.00  0.00     0.039 A 
ATOM     27  C   UNL A   1      32.529  18.153  22.842  1.00  0.00     0.123 A 
ATOM     28  F   UNL A   1      31.799  17.330  22.078  1.00  0.00    -0.207 F 
ENDBRANCH   9  22
ENDBRANCH   8   9
ENDBRANCH   6   8
ENDBRANCH   3   4
ENDBRANCH   2   3
ENDBRANCH   1   2
BRANCH   1  29
ATOM     29  C   UNL A   1      40.946  21.840  26.142  1.00  0.00     0.002 C 
BRANCH  29  30
ATOM     30  C   UNL A   1      40.973  20.308  26.139  1.00  0.00     0.021 C 
BRANCH  30  31
ATOM     31  C   UNL A   1      42.296  19.664  26.550  1.00  0.00     0.116 C 
BRANCH  31  32
ATOM     32  N   UNL A   1      43.115  19.275  25.415  1.00  0.00    -0.352 N 
ATOM     33  C   UNL A   1      44.028  20.011  24.700  1.00  0.00     0.251 C 
ATOM     34  H   UNL A   1      42.996  18.345  25.113  1.00  0.00     0.163 HD
ATOM     35  O   UNL A   1      44.529  19.526  23.687  1.00  0.00    -0.269 OA
BRANCH  33  36
ATOM     36  C   UNL A   1      44.387  21.387  25.116  1.00  0.00     0.039 A 
ATOM     37  C   UNL A   1      44.004  22.452  24.295  1.00  0.00     0.014 A 
ATOM     38  C   UNL A   1      45.116  21.635  26.284  1.00  0.00     0.014 A 
ATOM     39  C   UNL A   1      44.296  23.765  24.675  1.00  0.00     0.010 A 
ATOM     40  C   UNL A   1      45.363  22.950  26.687  1.00  0.00     0.010 A 
ATOM     41  C   UNL A   1      44.950  24.028  25.889  1.00  0.00    -0.014 A 
BRANCH  41  42
ATOM     42  C   UNL A   1      45.187  25.426  26.337  1.00  0.00     0.031 A 
ATOM     43  C   UNL A   1      44.061  26.249  26.901  1.00  0.00     0.074 A 
ATOM     44  C   UNL A   1      46.416  25.964  26.207  1.00  0.00     0.049 A 
ATOM     45  N   UNL A   1      44.073  27.493  27.304  1.00  0.00    -0.248 NA
ATOM     46  C   UNL A   1      42.748  25.594  27.011  1.00  0.00     0.031 C 
ATOM     47  C   UNL A   1      47.583  25.277  25.648  1.00  0.00     0.029 A 
ATOM     48  N   UNL A   1      46.892  27.209  26.537  1.00  0.00    -0.354 N 
ATOM     49  C   UNL A   1      42.773  27.776  27.707  1.00  0.00     0.074 A 
ATOM     50  C   UNL A   1      41.989  26.583  27.465  1.00  0.00     0.031 C 
ATOM     51  C   UNL A   1      48.644  26.098  25.702  1.00  0.00     0.029 A 
ATOM     52  C   UNL A   1      48.230  27.380  26.265  1.00  0.00     0.049 A 
ATOM     53  H   UNL A   1      46.329  27.914  26.931  1.00  0.00     0.167 HD
ATOM     54  C   UNL A   1      42.283  28.919  28.244  1.00  0.00     0.034 A 
ATOM     55  C   UNL A   1      49.034  28.447  26.446  1.00  0.00     0.034 A 
ATOM     56  C   UNL A   1      43.073  30.093  28.510  1.00  0.00     0.049 A 
ATOM     57  C   UNL A   1      48.466  29.704  27.047  1.00  0.00     0.074 A 
ATOM     58  C   UNL A   1      42.675  31.284  29.094  1.00  0.00     0.029 A 
ATOM     59  N   UNL A   1      44.423  30.226  28.217  1.00  0.00    -0.354 N 
ATOM     60  N   UNL A   1      47.234  29.948  27.425  1.00  0.00    -0.248 NA
ATOM     61  C   UNL A   1      49.392  30.827  27.250  1.00  0.00     0.031 C 
ATOM     62  C   UNL A   1      43.772  32.151  29.116  1.00  0.00     0.029 A 
ATOM     63  C   UNL A   1      44.866  31.481  28.595  1.00  0.00     0.049 A 
ATOM     64  H   UNL A   1      44.982  29.530  27.804  1.00  0.00     0.167 HD
ATOM     65  C   UNL A   1      47.243  31.242  27.934  1.00  0.00     0.074 A 
ATOM     66  C   UNL A   1      48.600  31.732  27.810  1.00  0.00     0.031 C 
ATOM     67  C   UNL A   1      46.221  31.956  28.464  1.00  0.00     0.034 A 
BRANCH  54  68
ATOM     68  C   UNL A   1      40.816  28.966  28.573  1.00  0.00     0.023 A 
ATOM     69  C   UNL A   1      40.357  28.824  29.892  1.00  0.00     0.031 A 
ATOM     70  C   UNL A   1      39.870  29.199  27.560  1.00  0.00     0.131 A 
ATOM     71  C   UNL A   1      38.982  28.881  30.162  1.00  0.00     0.055 A 
ATOM     72  C   UNL A   1      38.508  29.313  27.841  1.00  0.00     0.041 A 
ATOM     73  F   UNL A   1      40.258  29.329  26.281  1.00  0.00    -0.206 F 
ATOM     74  C   UNL A   1      38.057  29.148  29.148  1.00  0.00     0.022 A 
BRANCH  71  75
ATOM     75  S   UNL A   1      38.406  28.554  31.848  1.00  0.00     0.124 S 
ATOM     76  O   UNL A   1      38.294  27.098  31.841  1.00  0.00    -0.237 OA
ATOM     77  O   UNL A   1      39.480  29.107  32.667  1.00  0.00    -0.237 OA
ATOM     78  O   UNL A   1      37.136  29.273  31.922  1.00  0.00    -0.744 OA
ENDBRANCH  71  75
ENDBRANCH  54  68
BRANCH  55  79
ATOM     79  C   UNL A   1      50.466  28.374  26.048  1.00  0.00     0.023 A 
ATOM     80  C   UNL A   1      50.887  28.816  24.786  1.00  0.00     0.031 A 
ATOM     81  C   UNL A   1      51.432  27.858  26.930  1.00  0.00     0.131 A 
ATOM     82  C   UNL A   1      52.240  28.712  24.426  1.00  0.00     0.055 A 
ATOM     83  C   UNL A   1      52.782  27.790  26.581  1.00  0.00     0.041 A 
ATOM     84  F   UNL A   1      51.077  27.434  28.152  1.00  0.00    -0.206 F 
ATOM     85  C   UNL A   1      53.192  28.212  25.320  1.00  0.00     0.022 A 
BRANCH  82  86
ATOM     86  S   UNL A   1      52.738  29.212  22.756  1.00  0.00     0.124 S 
ATOM     87  O   UNL A   1      51.626  30.066  22.358  1.00  0.00    -0.237 OA
ATOM     88  O   UNL A   1      54.008  29.885  23.004  1.00  0.00    -0.237 OA
ATOM     89  O   UNL A   1      52.840  27.943  22.037  1.00  0.00    -0.744 OA
ENDBRANCH  82  86
ENDBRANCH  55  79
BRANCH  67  90
ATOM     90  C   UNL A   1      46.530  33.327  28.993  1.00  0.00     0.023 A 
ATOM     91  C   UNL A   1      46.392  34.471  28.191  1.00  0.00     0.031 A 
ATOM     92  C   UNL A   1      46.904  33.490  30.338  1.00  0.00     0.131 A 
ATOM     93  C   UNL A   1      46.643  35.736  28.741  1.00  0.00     0.055 A 
ATOM     94  C   UNL A   1      47.120  34.753  30.888  1.00  0.00     0.041 A 
ATOM     95  F   UNL A   1      47.041  32.423  31.142  1.00  0.00    -0.206 F 
ATOM     96  C   UNL A   1      46.990  35.885  30.088  1.00  0.00     0.022 A 
BRANCH  93  97
ATOM     97  S   UNL A   1      46.500  37.200  27.678  1.00  0.00     0.124 S 
ATOM     98  O   UNL A   1      45.273  37.813  28.175  1.00  0.00    -0.237 OA
ATOM     99  O   UNL A   1      47.735  37.924  27.962  1.00  0.00    -0.237 OA
ATOM    100  O   UNL A   1      46.413  36.637  26.332  1.00  0.00    -0.744 OA
ENDBRANCH  93  97
ENDBRANCH  67  90
ENDBRANCH  41  42
ENDBRANCH  33  36
ENDBRANCH  31  32
ENDBRANCH  30  31
ENDBRANCH  29  30
ENDBRANCH   1  29
TORSDOF 21
ENDMDL
