MODEL 1
REMARK VINA RESULT:     -14.0      0.000      0.000
REMARK SMILES COC(=O)c1ccc([C@H]2CC(=O)Nc3c(C(=O)NCCCCCCNC(=O)c4ccc(-c5c6nc(c(-c7cc(S(=O)(=O)[O-])ccc7F)c7ccc([nH]7)c(-c7cc(S(=O)(=O)[O-])ccc7F)c7nc(c(-c8cc(S(=O)(=O)[O-])ccc8F)c8ccc5[nH]8)C=C7)C=C6)cc4)cn(-c4ccccc4)c32)cc1
REMARK SMILES IDX 21 1 20 2 19 3 18 4 16 5 17 6 15 8 9 9 10 10 99 11 11 12
REMARK SMILES IDX 14 13 92 14 12 15 13 16 91 17 8 19 5 20 6 21 101 22 7 23
REMARK SMILES IDX 100 24 3 25 4 26 2 27 1 28 93 29 94 30 98 31 95 32 97 33
REMARK SMILES IDX 96 34 22 35 23 36 24 37 25 38 26 39 27 41 28 42 29 43 90 44
REMARK SMILES IDX 30 45 89 46 31 47 32 48 33 49 83 50 34 51 88 52 82 53 84 54
REMARK SMILES IDX 35 55 87 56 81 57 80 58 36 60 68 61 48 62 67 63 49 64 52 65
REMARK SMILES IDX 66 66 85 67 50 68 51 69 65 71 86 72 53 73 37 74 38 75 46 76
REMARK SMILES IDX 39 77 45 78 47 79 44 80 40 81 41 82 42 83 43 84 69 85 70 86
REMARK SMILES IDX 78 87 71 88 77 89 79 90 76 91 72 92 73 93 74 94 75 95 54 96
REMARK SMILES IDX 55 97 63 98 56 99 62 100 64 101 61 102 57 103 58 104 59 105
REMARK SMILES IDX 60 106
REMARK H PARENT 18 7 13 18 25 40 84 59 52 70
REMARK Flexibility Score: inf
ROOT
ATOM      1  C   UNL A   1      32.130  28.933  25.591  1.00  0.00     0.002 C 
ENDROOT
BRANCH   1   2
ATOM      2  C   UNL A   1      31.113  29.835  24.890  1.00  0.00     0.021 C 
BRANCH   2   3
ATOM      3  C   UNL A   1      30.718  29.318  23.500  1.00  0.00     0.116 C 
BRANCH   3   4
ATOM      4  N   UNL A   1      29.602  28.421  23.604  1.00  0.00    -0.352 N 
ATOM      5  C   UNL A   1      29.499  27.066  23.708  1.00  0.00     0.254 C 
ATOM      6  O   UNL A   1      28.342  26.648  23.824  1.00  0.00    -0.269 OA
ATOM      7  H   UNL A   1      28.731  28.880  23.599  1.00  0.00     0.163 HD
BRANCH   5   8
ATOM      8  C   UNL A   1      30.632  26.130  23.739  1.00  0.00     0.081 A 
ATOM      9  C   UNL A   1      33.398  23.743  22.882  1.00  0.00     0.078 C 
ATOM     10  C   UNL A   1      33.328  23.795  21.350  1.00  0.00     0.115 C 
ATOM     11  C   UNL A   1      32.385  24.667  23.519  1.00  0.00     0.055 A 
ATOM     12  C   UNL A   1      32.752  25.057  20.773  1.00  0.00     0.225 C 
ATOM     13  C   UNL A   1      31.565  25.541  22.828  1.00  0.00     0.076 A 
ATOM     14  N   UNL A   1      32.071  24.761  24.863  1.00  0.00    -0.317 N 
ATOM     15  O   UNL A   1      33.053  25.458  19.649  1.00  0.00    -0.275 OA
ATOM     16  N   UNL A   1      31.771  25.686  21.480  1.00  0.00    -0.324 N 
ATOM     17  C   UNL A   1      30.961  25.557  24.967  1.00  0.00     0.107 A 
ATOM     18  H   UNL A   1      31.168  26.289  20.987  1.00  0.00     0.170 HD
BRANCH   9  19
ATOM     19  C   UNL A   1      33.310  22.266  23.281  1.00  0.00    -0.038 A 
ATOM     20  C   UNL A   1      33.143  19.611  24.215  1.00  0.00     0.060 A 
ATOM     21  C   UNL A   1      34.280  20.381  24.479  1.00  0.00     0.016 A 
ATOM     22  C   UNL A   1      32.130  20.139  23.412  1.00  0.00     0.016 A 
ATOM     23  C   UNL A   1      34.358  21.699  24.026  1.00  0.00     0.005 A 
ATOM     24  C   UNL A   1      32.236  21.439  22.915  1.00  0.00     0.005 A 
BRANCH  20  25
ATOM     25  C   UNL A   1      33.036  18.269  24.846  1.00  0.00     0.337 C 
ATOM     26  O   UNL A   1      32.069  17.898  25.480  1.00  0.00    -0.246 OA
BRANCH  25  27
ATOM     27  O   UNL A   1      34.143  17.532  24.566  1.00  0.00    -0.465 OA
ATOM     28  C   UNL A   1      33.863  16.270  23.964  1.00  0.00     0.282 C 
ENDBRANCH  25  27
ENDBRANCH  20  25
ENDBRANCH   9  19
BRANCH  14  29
ATOM     29  C   UNL A   1      32.659  24.065  25.948  1.00  0.00     0.045 A 
ATOM     30  C   UNL A   1      34.016  24.223  26.239  1.00  0.00     0.026 A 
ATOM     31  C   UNL A   1      31.889  23.117  26.636  1.00  0.00     0.026 A 
ATOM     32  C   UNL A   1      34.620  23.382  27.172  1.00  0.00     0.002 A 
ATOM     33  C   UNL A   1      32.510  22.257  27.541  1.00  0.00     0.002 A 
ATOM     34  C   UNL A   1      33.875  22.383  27.800  1.00  0.00     0.000 A 
ENDBRANCH  14  29
ENDBRANCH   5   8
ENDBRANCH   3   4
ENDBRANCH   2   3
ENDBRANCH   1   2
BRANCH   1  35
ATOM     35  C   UNL A   1      33.123  29.683  26.493  1.00  0.00     0.002 C 
BRANCH  35  36
ATOM     36  C   UNL A   1      34.211  28.818  27.152  1.00  0.00     0.021 C 
BRANCH  36  37
ATOM     37  C   UNL A   1      35.468  29.610  27.472  1.00  0.00     0.116 C 
BRANCH  37  38
ATOM     38  N   UNL A   1      35.524  29.943  28.894  1.00  0.00    -0.352 N 
ATOM     39  C   UNL A   1      36.433  29.538  29.845  1.00  0.00     0.251 C 
ATOM     40  H   UNL A   1      34.812  30.541  29.217  1.00  0.00     0.163 HD
ATOM     41  O   UNL A   1      36.149  29.606  31.036  1.00  0.00    -0.269 OA
BRANCH  39  42
ATOM     42  C   UNL A   1      37.743  29.029  29.407  1.00  0.00     0.039 A 
ATOM     43  C   UNL A   1      38.356  29.521  28.252  1.00  0.00     0.014 A 
ATOM     44  C   UNL A   1      38.359  28.046  30.179  1.00  0.00     0.014 A 
ATOM     45  C   UNL A   1      39.628  29.060  27.921  1.00  0.00     0.010 A 
ATOM     46  C   UNL A   1      39.664  27.703  29.935  1.00  0.00     0.010 A 
ATOM     47  C   UNL A   1      40.281  28.161  28.779  1.00  0.00    -0.014 A 
BRANCH  47  48
ATOM     48  C   UNL A   1      41.675  27.791  28.564  1.00  0.00     0.031 A 
ATOM     49  C   UNL A   1      41.844  26.508  27.832  1.00  0.00     0.074 A 
ATOM     50  C   UNL A   1      42.704  28.642  28.778  1.00  0.00     0.049 A 
ATOM     51  N   UNL A   1      42.277  25.386  28.300  1.00  0.00    -0.248 NA
ATOM     52  C   UNL A   1      41.289  26.402  26.471  1.00  0.00     0.031 C 
ATOM     53  C   UNL A   1      42.644  30.046  29.203  1.00  0.00     0.029 A 
ATOM     54  N   UNL A   1      44.032  28.465  28.549  1.00  0.00    -0.354 N 
ATOM     55  C   UNL A   1      42.310  24.511  27.219  1.00  0.00     0.074 A 
ATOM     56  C   UNL A   1      41.474  25.106  26.213  1.00  0.00     0.031 C 
ATOM     57  C   UNL A   1      43.834  30.644  28.972  1.00  0.00     0.029 A 
ATOM     58  C   UNL A   1      44.788  29.637  28.543  1.00  0.00     0.049 A 
ATOM     59  H   UNL A   1      44.430  27.577  28.398  1.00  0.00     0.167 HD
ATOM     60  C   UNL A   1      43.246  23.522  27.151  1.00  0.00     0.034 A 
ATOM     61  C   UNL A   1      46.097  29.776  28.190  1.00  0.00     0.034 A 
ATOM     62  C   UNL A   1      43.864  23.319  28.447  1.00  0.00     0.049 A 
ATOM     63  C   UNL A   1      46.708  28.429  28.315  1.00  0.00     0.074 A 
ATOM     64  C   UNL A   1      43.387  23.002  29.706  1.00  0.00     0.029 A 
ATOM     65  N   UNL A   1      45.118  23.851  28.654  1.00  0.00    -0.354 N 
ATOM     66  N   UNL A   1      46.827  27.804  29.455  1.00  0.00    -0.248 NA
ATOM     67  C   UNL A   1      46.710  27.571  27.139  1.00  0.00     0.031 C 
ATOM     68  C   UNL A   1      44.135  23.831  30.596  1.00  0.00     0.029 A 
ATOM     69  C   UNL A   1      45.093  24.523  29.852  1.00  0.00     0.049 A 
ATOM     70  H   UNL A   1      45.893  23.766  28.053  1.00  0.00     0.167 HD
ATOM     71  C   UNL A   1      46.464  26.494  29.185  1.00  0.00     0.074 A 
ATOM     72  C   UNL A   1      46.499  26.388  27.725  1.00  0.00     0.031 C 
ATOM     73  C   UNL A   1      45.886  25.706  30.141  1.00  0.00     0.034 A 
BRANCH  60  74
ATOM     74  C   UNL A   1      43.893  23.023  25.872  1.00  0.00     0.023 A 
ATOM     75  C   UNL A   1      43.858  21.634  25.645  1.00  0.00     0.031 A 
ATOM     76  C   UNL A   1      44.770  23.753  25.038  1.00  0.00     0.131 A 
ATOM     77  C   UNL A   1      44.748  21.022  24.744  1.00  0.00     0.055 A 
ATOM     78  C   UNL A   1      45.604  23.147  24.093  1.00  0.00     0.041 A 
ATOM     79  F   UNL A   1      44.943  25.074  25.136  1.00  0.00    -0.206 F 
ATOM     80  C   UNL A   1      45.626  21.771  23.968  1.00  0.00     0.022 A 
BRANCH  77  81
ATOM     81  S   UNL A   1      44.866  19.216  24.755  1.00  0.00     0.124 S 
ATOM     82  O   UNL A   1      46.002  19.005  25.646  1.00  0.00    -0.237 OA
ATOM     83  O   UNL A   1      43.558  18.833  25.276  1.00  0.00    -0.237 OA
ATOM     84  O   UNL A   1      45.101  18.885  23.352  1.00  0.00    -0.744 OA
ENDBRANCH  77  81
ENDBRANCH  60  74
BRANCH  61  85
ATOM     85  C   UNL A   1      46.734  30.904  27.447  1.00  0.00     0.023 A 
ATOM     86  C   UNL A   1      46.004  31.982  26.893  1.00  0.00     0.031 A 
ATOM     87  C   UNL A   1      48.139  31.058  27.500  1.00  0.00     0.131 A 
ATOM     88  C   UNL A   1      46.680  33.141  26.427  1.00  0.00     0.055 A 
ATOM     89  C   UNL A   1      48.796  32.203  27.044  1.00  0.00     0.041 A 
ATOM     90  F   UNL A   1      48.916  30.131  28.080  1.00  0.00    -0.206 F 
ATOM     91  C   UNL A   1      48.069  33.255  26.514  1.00  0.00     0.022 A 
BRANCH  88  92
ATOM     92  S   UNL A   1      45.750  34.570  25.771  1.00  0.00     0.124 S 
ATOM     93  O   UNL A   1      44.652  34.692  26.723  1.00  0.00    -0.237 OA
ATOM     94  O   UNL A   1      46.748  35.632  25.790  1.00  0.00    -0.237 OA
ATOM     95  O   UNL A   1      45.352  34.133  24.432  1.00  0.00    -0.744 OA
ENDBRANCH  88  92
ENDBRANCH  61  85
BRANCH  73  96
ATOM     96  C   UNL A   1      45.906  26.185  31.582  1.00  0.00     0.023 A 
ATOM     97  C   UNL A   1      44.799  26.718  32.286  1.00  0.00     0.031 A 
ATOM     98  C   UNL A   1      47.094  25.976  32.306  1.00  0.00     0.131 A 
ATOM     99  C   UNL A   1      44.918  27.029  33.657  1.00  0.00     0.055 A 
ATOM    100  C   UNL A   1      47.199  26.262  33.665  1.00  0.00     0.041 A 
ATOM    101  F   UNL A   1      48.174  25.451  31.703  1.00  0.00    -0.206 F 
ATOM    102  C   UNL A   1      46.113  26.796  34.346  1.00  0.00     0.022 A 
BRANCH  99 103
ATOM    103  S   UNL A   1      43.526  27.769  34.576  1.00  0.00     0.124 S 
ATOM    104  O   UNL A   1      44.134  28.898  35.271  1.00  0.00    -0.237 OA
ATOM    105  O   UNL A   1      42.585  28.106  33.512  1.00  0.00    -0.237 OA
ATOM    106  O   UNL A   1      43.082  26.683  35.454  1.00  0.00    -0.744 OA
ENDBRANCH  99 103
ENDBRANCH  73  96
ENDBRANCH  47  48
ENDBRANCH  39  42
ENDBRANCH  37  38
ENDBRANCH  36  37
ENDBRANCH  35  36
ENDBRANCH   1  35
TORSDOF 20
ENDMDL
MODEL 2
REMARK VINA RESULT:     -13.3      2.258      6.468
REMARK SMILES COC(=O)c1ccc([C@H]2CC(=O)Nc3c(C(=O)NCCCCCCNC(=O)c4ccc(-c5c6nc(c(-c7cc(S(=O)(=O)[O-])ccc7F)c7ccc([nH]7)c(-c7cc(S(=O)(=O)[O-])ccc7F)c7nc(c(-c8cc(S(=O)(=O)[O-])ccc8F)c8ccc5[nH]8)C=C7)C=C6)cc4)cn(-c4ccccc4)c32)cc1
REMARK SMILES IDX 21 1 20 2 19 3 18 4 16 5 17 6 15 8 9 9 10 10 99 11 11 12
REMARK SMILES IDX 14 13 92 14 12 15 13 16 91 17 8 19 5 20 6 21 101 22 7 23
REMARK SMILES IDX 100 24 3 25 4 26 2 27 1 28 93 29 94 30 98 31 95 32 97 33
REMARK SMILES IDX 96 34 22 35 23 36 24 37 25 38 26 39 27 41 28 42 29 43 90 44
REMARK SMILES IDX 30 45 89 46 31 47 32 48 33 49 83 50 34 51 88 52 82 53 84 54
REMARK SMILES IDX 35 55 87 56 81 57 80 58 36 60 68 61 48 62 67 63 49 64 52 65
REMARK SMILES IDX 66 66 85 67 50 68 51 69 65 71 86 72 53 73 37 74 38 75 46 76
REMARK SMILES IDX 39 77 45 78 47 79 44 80 40 81 41 82 42 83 43 84 69 85 70 86
REMARK SMILES IDX 78 87 71 88 77 89 79 90 76 91 72 92 73 93 74 94 75 95 54 96
REMARK SMILES IDX 55 97 63 98 56 99 62 100 64 101 61 102 57 103 58 104 59 105
REMARK SMILES IDX 60 106
REMARK H PARENT 18 7 13 18 25 40 84 59 52 70
REMARK Flexibility Score: inf
ROOT
ATOM      1  C   UNL A   1      33.374  29.000  24.160  1.00  0.00     0.002 C 
ENDROOT
BRANCH   1   2
ATOM      2  C   UNL A   1      32.073  28.902  23.360  1.00  0.00     0.021 C 
BRANCH   2   3
ATOM      3  C   UNL A   1      30.848  29.360  24.162  1.00  0.00     0.116 C 
BRANCH   3   4
ATOM      4  N   UNL A   1      29.736  28.486  23.911  1.00  0.00    -0.352 N 
ATOM      5  C   UNL A   1      29.630  27.140  23.723  1.00  0.00     0.254 C 
ATOM      6  O   UNL A   1      28.472  26.734  23.574  1.00  0.00    -0.269 OA
ATOM      7  H   UNL A   1      28.873  28.956  23.864  1.00  0.00     0.163 HD
BRANCH   5   8
ATOM      8  C   UNL A   1      30.752  26.191  23.739  1.00  0.00     0.081 A 
ATOM      9  C   UNL A   1      33.459  23.750  22.846  1.00  0.00     0.078 C 
ATOM     10  C   UNL A   1      33.338  23.767  21.317  1.00  0.00     0.115 C 
ATOM     11  C   UNL A   1      32.480  24.702  23.495  1.00  0.00     0.055 A 
ATOM     12  C   UNL A   1      32.757  25.021  20.729  1.00  0.00     0.225 C 
ATOM     13  C   UNL A   1      31.646  25.569  22.811  1.00  0.00     0.076 A 
ATOM     14  N   UNL A   1      32.213  24.831  24.845  1.00  0.00    -0.317 N 
ATOM     15  O   UNL A   1      33.024  25.392  19.587  1.00  0.00    -0.275 OA
ATOM     16  N   UNL A   1      31.809  25.679  21.454  1.00  0.00    -0.324 N 
ATOM     17  C   UNL A   1      31.116  25.644  24.968  1.00  0.00     0.107 A 
ATOM     18  H   UNL A   1      31.196  26.277  20.967  1.00  0.00     0.170 HD
BRANCH   9  19
ATOM     19  C   UNL A   1      33.368  22.284  23.284  1.00  0.00    -0.038 A 
ATOM     20  C   UNL A   1      33.193  19.655  24.286  1.00  0.00     0.060 A 
ATOM     21  C   UNL A   1      34.331  20.430  24.535  1.00  0.00     0.016 A 
ATOM     22  C   UNL A   1      32.184  20.163  23.465  1.00  0.00     0.016 A 
ATOM     23  C   UNL A   1      34.412  21.735  24.048  1.00  0.00     0.005 A 
ATOM     24  C   UNL A   1      32.295  21.449  22.935  1.00  0.00     0.005 A 
BRANCH  20  25
ATOM     25  C   UNL A   1      33.082  18.330  24.952  1.00  0.00     0.337 C 
ATOM     26  O   UNL A   1      32.168  18.021  25.689  1.00  0.00    -0.246 OA
BRANCH  25  27
ATOM     27  O   UNL A   1      34.114  17.530  24.575  1.00  0.00    -0.465 OA
ATOM     28  C   UNL A   1      33.708  16.275  24.033  1.00  0.00     0.282 C 
ENDBRANCH  25  27
ENDBRANCH  20  25
ENDBRANCH   9  19
BRANCH  14  29
ATOM     29  C   UNL A   1      32.829  24.154  25.926  1.00  0.00     0.045 A 
ATOM     30  C   UNL A   1      34.196  24.304  26.170  1.00  0.00     0.026 A 
ATOM     31  C   UNL A   1      32.073  23.230  26.661  1.00  0.00     0.026 A 
ATOM     32  C   UNL A   1      34.823  23.478  27.101  1.00  0.00     0.002 A 
ATOM     33  C   UNL A   1      32.715  22.384  27.565  1.00  0.00     0.002 A 
ATOM     34  C   UNL A   1      34.089  22.502  27.776  1.00  0.00     0.000 A 
ENDBRANCH  14  29
ENDBRANCH   5   8
ENDBRANCH   3   4
ENDBRANCH   2   3
ENDBRANCH   1   2
BRANCH   1  35
ATOM     35  C   UNL A   1      33.205  28.773  25.671  1.00  0.00     0.002 C 
BRANCH  35  36
ATOM     36  C   UNL A   1      33.283  30.034  26.547  1.00  0.00     0.021 C 
BRANCH  36  37
ATOM     37  C   UNL A   1      34.563  30.097  27.363  1.00  0.00     0.116 C 
BRANCH  37  38
ATOM     38  N   UNL A   1      34.578  31.284  28.217  1.00  0.00    -0.352 N 
ATOM     39  C   UNL A   1      35.458  31.619  29.221  1.00  0.00     0.251 C 
ATOM     40  H   UNL A   1      33.859  31.934  28.050  1.00  0.00     0.163 HD
ATOM     41  O   UNL A   1      35.139  32.448  30.067  1.00  0.00    -0.269 OA
BRANCH  39  42
ATOM     42  C   UNL A   1      36.778  30.970  29.257  1.00  0.00     0.039 A 
ATOM     43  C   UNL A   1      37.927  31.696  29.579  1.00  0.00     0.014 A 
ATOM     44  C   UNL A   1      36.851  29.609  28.968  1.00  0.00     0.014 A 
ATOM     45  C   UNL A   1      39.142  31.020  29.671  1.00  0.00     0.010 A 
ATOM     46  C   UNL A   1      38.014  28.921  29.200  1.00  0.00     0.010 A 
ATOM     47  C   UNL A   1      39.172  29.628  29.494  1.00  0.00    -0.014 A 
BRANCH  47  48
ATOM     48  C   UNL A   1      40.385  28.861  29.756  1.00  0.00     0.031 A 
ATOM     49  C   UNL A   1      40.646  28.636  31.202  1.00  0.00     0.074 A 
ATOM     50  C   UNL A   1      41.064  28.205  28.788  1.00  0.00     0.049 A 
ATOM     51  N   UNL A   1      41.579  29.160  31.924  1.00  0.00    -0.248 NA
ATOM     52  C   UNL A   1      39.643  27.894  31.986  1.00  0.00     0.031 C 
ATOM     53  C   UNL A   1      40.727  28.091  27.364  1.00  0.00     0.029 A 
ATOM     54  N   UNL A   1      42.151  27.395  28.894  1.00  0.00    -0.354 N 
ATOM     55  C   UNL A   1      41.444  28.594  33.188  1.00  0.00     0.074 A 
ATOM     56  C   UNL A   1      40.120  28.037  33.224  1.00  0.00     0.031 C 
ATOM     57  C   UNL A   1      41.439  27.088  26.804  1.00  0.00     0.029 A 
ATOM     58  C   UNL A   1      42.401  26.599  27.776  1.00  0.00     0.049 A 
ATOM     59  H   UNL A   1      42.718  27.373  29.699  1.00  0.00     0.167 HD
ATOM     60  C   UNL A   1      42.535  28.390  33.980  1.00  0.00     0.034 A 
ATOM     61  C   UNL A   1      43.315  25.595  27.664  1.00  0.00     0.034 A 
ATOM     62  C   UNL A   1      43.666  29.154  33.491  1.00  0.00     0.049 A 
ATOM     63  C   UNL A   1      44.330  25.833  28.721  1.00  0.00     0.074 A 
ATOM     64  C   UNL A   1      43.894  30.496  33.247  1.00  0.00     0.029 A 
ATOM     65  N   UNL A   1      44.639  28.484  32.781  1.00  0.00    -0.354 N 
ATOM     66  N   UNL A   1      45.113  26.878  28.733  1.00  0.00    -0.248 NA
ATOM     67  C   UNL A   1      44.124  25.203  30.016  1.00  0.00     0.031 C 
ATOM     68  C   UNL A   1      44.625  30.523  32.021  1.00  0.00     0.029 A 
ATOM     69  C   UNL A   1      44.896  29.207  31.642  1.00  0.00     0.049 A 
ATOM     70  H   UNL A   1      45.072  27.639  33.042  1.00  0.00     0.167 HD
ATOM     71  C   UNL A   1      45.126  27.301  30.053  1.00  0.00     0.074 A 
ATOM     72  C   UNL A   1      44.581  26.174  30.813  1.00  0.00     0.031 C 
ATOM     73  C   UNL A   1      45.297  28.619  30.375  1.00  0.00     0.034 A 
BRANCH  60  74
ATOM     74  C   UNL A   1      42.714  27.222  34.932  1.00  0.00     0.023 A 
ATOM     75  C   UNL A   1      43.532  26.165  34.490  1.00  0.00     0.031 A 
ATOM     76  C   UNL A   1      41.930  26.946  36.076  1.00  0.00     0.131 A 
ATOM     77  C   UNL A   1      43.451  24.889  35.076  1.00  0.00     0.055 A 
ATOM     78  C   UNL A   1      41.904  25.694  36.698  1.00  0.00     0.041 A 
ATOM     79  F   UNL A   1      41.081  27.828  36.611  1.00  0.00    -0.206 F 
ATOM     80  C   UNL A   1      42.637  24.645  36.176  1.00  0.00     0.022 A 
BRANCH  77  81
ATOM     81  S   UNL A   1      44.283  23.514  34.244  1.00  0.00     0.124 S 
ATOM     82  O   UNL A   1      43.387  23.272  33.118  1.00  0.00    -0.237 OA
ATOM     83  O   UNL A   1      45.580  24.099  33.922  1.00  0.00    -0.237 OA
ATOM     84  O   UNL A   1      44.304  22.467  35.262  1.00  0.00    -0.744 OA
ENDBRANCH  77  81
ENDBRANCH  60  74
BRANCH  61  85
ATOM     85  C   UNL A   1      43.171  24.298  26.937  1.00  0.00     0.023 A 
ATOM     86  C   UNL A   1      44.127  23.812  26.014  1.00  0.00     0.031 A 
ATOM     87  C   UNL A   1      42.177  23.381  27.352  1.00  0.00     0.131 A 
ATOM     88  C   UNL A   1      44.062  22.471  25.553  1.00  0.00     0.055 A 
ATOM     89  C   UNL A   1      42.122  22.062  26.898  1.00  0.00     0.041 A 
ATOM     90  F   UNL A   1      41.273  23.715  28.286  1.00  0.00    -0.206 F 
ATOM     91  C   UNL A   1      43.071  21.597  26.003  1.00  0.00     0.022 A 
BRANCH  88  92
ATOM     92  S   UNL A   1      45.326  21.808  24.414  1.00  0.00     0.124 S 
ATOM     93  O   UNL A   1      44.551  20.889  23.588  1.00  0.00    -0.237 OA
ATOM     94  O   UNL A   1      45.823  23.011  23.757  1.00  0.00    -0.237 OA
ATOM     95  O   UNL A   1      46.287  21.162  25.309  1.00  0.00    -0.744 OA
ENDBRANCH  88  92
ENDBRANCH  61  85
BRANCH  73  96
ATOM     96  C   UNL A   1      45.757  29.574  29.288  1.00  0.00     0.023 A 
ATOM     97  C   UNL A   1      44.907  30.321  28.437  1.00  0.00     0.031 A 
ATOM     98  C   UNL A   1      47.139  29.819  29.199  1.00  0.00     0.131 A 
ATOM     99  C   UNL A   1      45.456  31.258  27.535  1.00  0.00     0.055 A 
ATOM    100  C   UNL A   1      47.675  30.762  28.325  1.00  0.00     0.041 A 
ATOM    101  F   UNL A   1      47.998  29.161  29.995  1.00  0.00    -0.206 F 
ATOM    102  C   UNL A   1      46.836  31.482  27.485  1.00  0.00     0.022 A 
BRANCH  99 103
ATOM    103  S   UNL A   1      44.391  32.193  26.388  1.00  0.00     0.124 S 
ATOM    104  O   UNL A   1      45.287  32.540  25.291  1.00  0.00    -0.237 OA
ATOM    105  O   UNL A   1      43.339  31.230  26.073  1.00  0.00    -0.237 OA
ATOM    106  O   UNL A   1      43.945  33.335  27.191  1.00  0.00    -0.744 OA
ENDBRANCH  99 103
ENDBRANCH  73  96
ENDBRANCH  47  48
ENDBRANCH  39  42
ENDBRANCH  37  38
ENDBRANCH  36  37
ENDBRANCH  35  36
ENDBRANCH   1  35
TORSDOF 20
ENDMDL
MODEL 3
REMARK VINA RESULT:     -12.8      2.562      7.198
REMARK SMILES COC(=O)c1ccc([C@H]2CC(=O)Nc3c(C(=O)NCCCCCCNC(=O)c4ccc(-c5c6nc(c(-c7cc(S(=O)(=O)[O-])ccc7F)c7ccc([nH]7)c(-c7cc(S(=O)(=O)[O-])ccc7F)c7nc(c(-c8cc(S(=O)(=O)[O-])ccc8F)c8ccc5[nH]8)C=C7)C=C6)cc4)cn(-c4ccccc4)c32)cc1
REMARK SMILES IDX 21 1 20 2 19 3 18 4 16 5 17 6 15 8 9 9 10 10 99 11 11 12
REMARK SMILES IDX 14 13 92 14 12 15 13 16 91 17 8 19 5 20 6 21 101 22 7 23
REMARK SMILES IDX 100 24 3 25 4 26 2 27 1 28 93 29 94 30 98 31 95 32 97 33
REMARK SMILES IDX 96 34 22 35 23 36 24 37 25 38 26 39 27 41 28 42 29 43 90 44
REMARK SMILES IDX 30 45 89 46 31 47 32 48 33 49 83 50 34 51 88 52 82 53 84 54
REMARK SMILES IDX 35 55 87 56 81 57 80 58 36 60 68 61 48 62 67 63 49 64 52 65
REMARK SMILES IDX 66 66 85 67 50 68 51 69 65 71 86 72 53 73 37 74 38 75 46 76
REMARK SMILES IDX 39 77 45 78 47 79 44 80 40 81 41 82 42 83 43 84 69 85 70 86
REMARK SMILES IDX 78 87 71 88 77 89 79 90 76 91 72 92 73 93 74 94 75 95 54 96
REMARK SMILES IDX 55 97 63 98 56 99 62 100 64 101 61 102 57 103 58 104 59 105
REMARK SMILES IDX 60 106
REMARK H PARENT 18 7 13 18 25 40 84 59 52 70
REMARK Flexibility Score: inf
ROOT
ATOM      1  C   UNL A   1      34.288  31.257  28.347  1.00  0.00     0.002 C 
ENDROOT
BRANCH   1   2
ATOM      2  C   UNL A   1      35.310  30.425  27.568  1.00  0.00     0.021 C 
BRANCH   2   3
ATOM      3  C   UNL A   1      34.723  29.110  27.037  1.00  0.00     0.116 C 
BRANCH   3   4
ATOM      4  N   UNL A   1      33.433  28.871  27.620  1.00  0.00    -0.352 N 
ATOM      5  C   UNL A   1      32.449  27.962  27.371  1.00  0.00     0.254 C 
ATOM      6  O   UNL A   1      31.476  28.040  28.129  1.00  0.00    -0.269 OA
ATOM      7  H   UNL A   1      33.215  29.493  28.351  1.00  0.00     0.163 HD
BRANCH   5   8
ATOM      8  C   UNL A   1      32.502  26.917  26.338  1.00  0.00     0.081 A 
ATOM      9  C   UNL A   1      31.703  24.392  23.680  1.00  0.00     0.078 C 
ATOM     10  C   UNL A   1      30.202  24.656  23.506  1.00  0.00     0.115 C 
ATOM     11  C   UNL A   1      32.320  25.323  24.699  1.00  0.00     0.055 A 
ATOM     12  C   UNL A   1      29.742  26.036  23.879  1.00  0.00     0.225 C 
ATOM     13  C   UNL A   1      31.656  26.362  25.327  1.00  0.00     0.076 A 
ATOM     14  N   UNL A   1      33.604  25.268  25.209  1.00  0.00    -0.317 N 
ATOM     15  O   UNL A   1      28.744  26.551  23.374  1.00  0.00    -0.275 OA
ATOM     16  N   UNL A   1      30.387  26.664  24.902  1.00  0.00    -0.324 N 
ATOM     17  C   UNL A   1      33.665  26.155  26.253  1.00  0.00     0.107 A 
ATOM     18  H   UNL A   1      29.908  27.386  25.369  1.00  0.00     0.170 HD
BRANCH   9  19
ATOM     19  C   UNL A   1      31.863  22.892  23.951  1.00  0.00    -0.038 A 
ATOM     20  C   UNL A   1      32.354  20.150  24.383  1.00  0.00     0.060 A 
ATOM     21  C   UNL A   1      32.352  20.669  23.084  1.00  0.00     0.016 A 
ATOM     22  C   UNL A   1      32.025  20.983  25.454  1.00  0.00     0.016 A 
ATOM     23  C   UNL A   1      32.120  22.029  22.872  1.00  0.00     0.005 A 
ATOM     24  C   UNL A   1      31.739  22.331  25.231  1.00  0.00     0.005 A 
BRANCH  20  25
ATOM     25  C   UNL A   1      32.757  18.732  24.576  1.00  0.00     0.337 C 
ATOM     26  O   UNL A   1      31.984  17.847  24.877  1.00  0.00    -0.246 OA
BRANCH  25  27
ATOM     27  O   UNL A   1      34.085  18.586  24.323  1.00  0.00    -0.465 OA
ATOM     28  C   UNL A   1      34.538  17.234  24.364  1.00  0.00     0.282 C 
ENDBRANCH  25  27
ENDBRANCH  20  25
ENDBRANCH   9  19
BRANCH  14  29
ATOM     29  C   UNL A   1      34.646  24.376  24.857  1.00  0.00     0.045 A 
ATOM     30  C   UNL A   1      35.003  24.196  23.519  1.00  0.00     0.026 A 
ATOM     31  C   UNL A   1      35.219  23.580  25.859  1.00  0.00     0.026 A 
ATOM     32  C   UNL A   1      35.882  23.171  23.175  1.00  0.00     0.002 A 
ATOM     33  C   UNL A   1      36.069  22.535  25.502  1.00  0.00     0.002 A 
ATOM     34  C   UNL A   1      36.391  22.325  24.161  1.00  0.00     0.000 A 
ENDBRANCH  14  29
ENDBRANCH   5   8
ENDBRANCH   3   4
ENDBRANCH   2   3
ENDBRANCH   1   2
BRANCH   1  35
ATOM     35  C   UNL A   1      34.577  32.767  28.350  1.00  0.00     0.002 C 
BRANCH  35  36
ATOM     36  C   UNL A   1      36.000  33.175  27.935  1.00  0.00     0.021 C 
BRANCH  36  37
ATOM     37  C   UNL A   1      36.837  33.644  29.112  1.00  0.00     0.116 C 
BRANCH  37  38
ATOM     38  N   UNL A   1      36.213  33.262  30.379  1.00  0.00    -0.352 N 
ATOM     39  C   UNL A   1      36.434  32.146  31.153  1.00  0.00     0.251 C 
ATOM     40  H   UNL A   1      35.541  33.892  30.726  1.00  0.00     0.163 HD
ATOM     41  O   UNL A   1      35.598  31.795  31.979  1.00  0.00    -0.269 OA
BRANCH  39  42
ATOM     42  C   UNL A   1      37.684  31.391  30.974  1.00  0.00     0.039 A 
ATOM     43  C   UNL A   1      38.913  31.933  31.357  1.00  0.00     0.014 A 
ATOM     44  C   UNL A   1      37.609  30.115  30.417  1.00  0.00     0.014 A 
ATOM     45  C   UNL A   1      40.058  31.150  31.234  1.00  0.00     0.010 A 
ATOM     46  C   UNL A   1      38.708  29.296  30.432  1.00  0.00     0.010 A 
ATOM     47  C   UNL A   1      39.943  29.825  30.784  1.00  0.00    -0.014 A 
BRANCH  47  48
ATOM     48  C   UNL A   1      41.085  28.918  30.809  1.00  0.00     0.031 A 
ATOM     49  C   UNL A   1      41.507  28.531  32.182  1.00  0.00     0.074 A 
ATOM     50  C   UNL A   1      41.551  28.291  29.706  1.00  0.00     0.049 A 
ATOM     51  N   UNL A   1      42.580  28.887  32.804  1.00  0.00    -0.248 NA
ATOM     52  C   UNL A   1      40.539  27.823  33.037  1.00  0.00     0.031 C 
ATOM     53  C   UNL A   1      41.019  28.348  28.339  1.00  0.00     0.029 A 
ATOM     54  N   UNL A   1      42.545  27.369  29.592  1.00  0.00    -0.354 N 
ATOM     55  C   UNL A   1      42.550  28.220  34.024  1.00  0.00     0.074 A 
ATOM     56  C   UNL A   1      41.188  27.799  34.203  1.00  0.00     0.031 C 
ATOM     57  C   UNL A   1      41.533  27.336  27.606  1.00  0.00     0.029 A 
ATOM     58  C   UNL A   1      42.553  26.662  28.390  1.00  0.00     0.049 A 
ATOM     59  H   UNL A   1      43.206  27.214  30.304  1.00  0.00     0.167 HD
ATOM     60  C   UNL A   1      43.705  27.833  34.636  1.00  0.00     0.034 A 
ATOM     61  C   UNL A   1      43.325  25.586  28.069  1.00  0.00     0.034 A 
ATOM     62  C   UNL A   1      44.842  28.521  34.055  1.00  0.00     0.049 A 
ATOM     63  C   UNL A   1      44.491  25.619  28.987  1.00  0.00     0.074 A 
ATOM     64  C   UNL A   1      45.185  29.851  33.889  1.00  0.00     0.029 A 
ATOM     65  N   UNL A   1      45.630  27.826  33.162  1.00  0.00    -0.354 N 
ATOM     66  N   UNL A   1      45.382  26.573  28.972  1.00  0.00    -0.248 NA
ATOM     67  C   UNL A   1      44.387  24.892  30.244  1.00  0.00     0.031 C 
ATOM     68  C   UNL A   1      45.746  29.920  32.578  1.00  0.00     0.029 A 
ATOM     69  C   UNL A   1      45.815  28.625  32.060  1.00  0.00     0.049 A 
ATOM     70  H   UNL A   1      45.995  26.921  33.291  1.00  0.00     0.167 HD
ATOM     71  C   UNL A   1      45.616  26.865  30.307  1.00  0.00     0.074 A 
ATOM     72  C   UNL A   1      45.053  25.733  31.044  1.00  0.00     0.031 C 
ATOM     73  C   UNL A   1      45.976  28.123  30.706  1.00  0.00     0.034 A 
BRANCH  60  74
ATOM     74  C   UNL A   1      43.875  26.567  35.456  1.00  0.00     0.023 A 
ATOM     75  C   UNL A   1      44.378  26.721  36.762  1.00  0.00     0.031 A 
ATOM     76  C   UNL A   1      43.859  25.242  34.963  1.00  0.00     0.131 A 
ATOM     77  C   UNL A   1      44.952  25.638  37.452  1.00  0.00     0.055 A 
ATOM     78  C   UNL A   1      44.368  24.156  35.681  1.00  0.00     0.041 A 
ATOM     79  F   UNL A   1      43.437  24.922  33.736  1.00  0.00    -0.206 F 
ATOM     80  C   UNL A   1      44.954  24.355  36.917  1.00  0.00     0.022 A 
BRANCH  77  81
ATOM     81  S   UNL A   1      45.867  25.985  38.974  1.00  0.00     0.124 S 
ATOM     82  O   UNL A   1      45.093  25.233  39.955  1.00  0.00    -0.237 OA
ATOM     83  O   UNL A   1      47.190  25.458  38.654  1.00  0.00    -0.237 OA
ATOM     84  O   UNL A   1      45.785  27.438  39.093  1.00  0.00    -0.744 OA
ENDBRANCH  77  81
ENDBRANCH  60  74
BRANCH  61  85
ATOM     85  C   UNL A   1      42.941  24.385  27.268  1.00  0.00     0.023 A 
ATOM     86  C   UNL A   1      43.821  23.731  26.374  1.00  0.00     0.031 A 
ATOM     87  C   UNL A   1      41.741  23.704  27.579  1.00  0.00     0.131 A 
ATOM     88  C   UNL A   1      43.486  22.459  25.840  1.00  0.00     0.055 A 
ATOM     89  C   UNL A   1      41.420  22.450  27.053  1.00  0.00     0.041 A 
ATOM     90  F   UNL A   1      40.876  24.199  28.478  1.00  0.00    -0.206 F 
ATOM     91  C   UNL A   1      42.296  21.817  26.188  1.00  0.00     0.022 A 
BRANCH  88  92
ATOM     92  S   UNL A   1      44.640  21.569  24.739  1.00  0.00     0.124 S 
ATOM     93  O   UNL A   1      45.921  21.757  25.411  1.00  0.00    -0.237 OA
ATOM     94  O   UNL A   1      44.097  20.216  24.739  1.00  0.00    -0.237 OA
ATOM     95  O   UNL A   1      44.509  22.277  23.464  1.00  0.00    -0.744 OA
ENDBRANCH  88  92
ENDBRANCH  61  85
BRANCH  73  96
ATOM     96  C   UNL A   1      46.394  29.125  29.646  1.00  0.00     0.023 A 
ATOM     97  C   UNL A   1      45.514  29.828  28.787  1.00  0.00     0.031 A 
ATOM     98  C   UNL A   1      47.758  29.464  29.592  1.00  0.00     0.131 A 
ATOM     99  C   UNL A   1      46.018  30.816  27.914  1.00  0.00     0.055 A 
ATOM    100  C   UNL A   1      48.248  30.457  28.746  1.00  0.00     0.041 A 
ATOM    101  F   UNL A   1      48.642  28.852  30.398  1.00  0.00    -0.206 F 
ATOM    102  C   UNL A   1      47.381  31.133  27.899  1.00  0.00     0.022 A 
BRANCH  99 103
ATOM    103  S   UNL A   1      44.917  31.697  26.757  1.00  0.00     0.124 S 
ATOM    104  O   UNL A   1      44.600  32.935  27.460  1.00  0.00    -0.237 OA
ATOM    105  O   UNL A   1      45.750  31.834  25.566  1.00  0.00    -0.237 OA
ATOM    106  O   UNL A   1      43.784  30.780  26.601  1.00  0.00    -0.744 OA
ENDBRANCH  99 103
ENDBRANCH  73  96
ENDBRANCH  47  48
ENDBRANCH  39  42
ENDBRANCH  37  38
ENDBRANCH  36  37
ENDBRANCH  35  36
ENDBRANCH   1  35
TORSDOF 20
ENDMDL
