MODEL 1
REMARK VINA RESULT:     -10.9      0.000      0.000
REMARK SMILES C[NH2+][C@]1(C(=O)NCCCCCCNC(=O)c2ccc(-c3c4nc(c(-c5cc(S(=O)(=O)[O-])ccc5F)c5ccc([nH]5)c(-c5cc(S(=O)(=O)[O-])ccc5F)c5nc(c(-c6cc(S(=O)(=O)[O-])ccc6F)c6ccc3[nH]6)C=C5)C=C4)cc2)CC[C@H](SC2CCCCC2)C1
REMARK SMILES IDX 10 1 9 2 8 3 7 4 6 5 4 6 5 7 3 9 79 10 89 11 80 12 81 13
REMARK SMILES IDX 2 14 1 15 82 18 83 19 84 20 88 21 85 22 87 23 86 24 11 25
REMARK SMILES IDX 12 26 13 27 14 28 15 30 16 31 17 32 78 33 18 34 77 35 19 36
REMARK SMILES IDX 20 37 21 38 71 39 22 40 76 41 70 42 72 43 23 44 75 45 69 46
REMARK SMILES IDX 68 47 24 49 56 50 36 51 55 52 37 53 40 54 54 55 73 56 38 57
REMARK SMILES IDX 39 58 53 60 74 61 41 62 25 63 26 64 34 65 27 66 33 67 35 68
REMARK SMILES IDX 32 69 28 70 29 71 30 72 31 73 57 74 58 75 66 76 59 77 65 78
REMARK SMILES IDX 67 79 64 80 60 81 61 82 62 83 63 84 42 85 43 86 51 87 44 88
REMARK SMILES IDX 50 89 52 90 49 91 45 92 46 93 47 94 48 95
REMARK H PARENT 6 8 2 16 2 17 13 29 72 48 40 59
REMARK Flexibility Score: inf
ROOT
ATOM      1  C   UNL A   1      31.747  30.331  26.683  1.00  0.00     0.002 C 
ENDROOT
BRANCH   1   2
ATOM      2  C   UNL A   1      33.160  29.739  26.728  1.00  0.00     0.002 C 
BRANCH   2   3
ATOM      3  C   UNL A   1      33.225  28.215  26.587  1.00  0.00     0.021 C 
BRANCH   3   4
ATOM      4  C   UNL A   1      32.224  27.637  25.592  1.00  0.00     0.116 C 
BRANCH   4   5
ATOM      5  N   UNL A   1      31.275  26.753  26.248  1.00  0.00    -0.351 N 
ATOM      6  C   UNL A   1      30.746  25.540  25.920  1.00  0.00     0.281 C 
ATOM      7  O   UNL A   1      29.955  25.087  26.755  1.00  0.00    -0.268 OA
ATOM      8  H   UNL A   1      30.946  27.103  27.107  1.00  0.00     0.163 HD
BRANCH   6   9
ATOM      9  C   UNL A   1      31.139  24.797  24.606  1.00  0.00     0.176 C 
ATOM     10  C   UNL A   1      30.605  25.495  23.349  1.00  0.00     0.080 C 
ATOM     11  C   UNL A   1      32.675  24.821  24.422  1.00  0.00     0.093 C 
ATOM     12  C   UNL A   1      31.593  25.140  22.246  1.00  0.00     0.022 C 
ATOM     13  C   UNL A   1      32.945  24.852  22.908  1.00  0.00     0.054 C 
BRANCH   9  14
ATOM     14  N   UNL A   1      30.727  23.365  24.501  1.00  0.00    -0.336 N 
ATOM     15  C   UNL A   1      31.111  22.465  25.571  1.00  0.00     0.331 C 
ATOM     16  H   UNL A   1      29.709  23.347  24.440  1.00  0.00     0.346 HD
ATOM     17  H   UNL A   1      31.227  23.017  23.684  1.00  0.00     0.346 HD
ENDBRANCH   9  14
BRANCH  13  18
ATOM     18  S   UNL A   1      33.702  23.259  22.396  1.00  0.00    -0.155 SA
BRANCH  18  19
ATOM     19  C   UNL A   1      34.766  22.794  23.822  1.00  0.00     0.047 C 
ATOM     20  C   UNL A   1      34.471  21.396  24.372  1.00  0.00     0.014 C 
ATOM     21  C   UNL A   1      36.260  22.994  23.555  1.00  0.00     0.014 C 
ATOM     22  C   UNL A   1      35.286  21.111  25.630  1.00  0.00     0.001 C 
ATOM     23  C   UNL A   1      37.082  22.684  24.811  1.00  0.00     0.001 C 
ATOM     24  C   UNL A   1      36.776  21.292  25.361  1.00  0.00     0.000 C 
ENDBRANCH  18  19
ENDBRANCH  13  18
ENDBRANCH   6   9
ENDBRANCH   4   5
ENDBRANCH   3   4
ENDBRANCH   2   3
ENDBRANCH   1   2
BRANCH   1  25
ATOM     25  C   UNL A   1      31.688  31.860  26.728  1.00  0.00     0.021 C 
BRANCH  25  26
ATOM     26  C   UNL A   1      32.907  32.515  27.362  1.00  0.00     0.116 C 
BRANCH  26  27
ATOM     27  N   UNL A   1      32.675  33.920  27.656  1.00  0.00    -0.352 N 
ATOM     28  C   UNL A   1      33.226  34.694  28.644  1.00  0.00     0.251 C 
ATOM     29  H   UNL A   1      32.034  34.377  27.064  1.00  0.00     0.163 HD
ATOM     30  O   UNL A   1      32.750  35.800  28.893  1.00  0.00    -0.269 OA
BRANCH  28  31
ATOM     31  C   UNL A   1      34.373  34.177  29.419  1.00  0.00     0.039 A 
ATOM     32  C   UNL A   1      34.130  33.379  30.538  1.00  0.00     0.014 A 
ATOM     33  C   UNL A   1      35.685  34.470  29.031  1.00  0.00     0.014 A 
ATOM     34  C   UNL A   1      35.207  32.826  31.234  1.00  0.00     0.010 A 
ATOM     35  C   UNL A   1      36.750  33.853  29.677  1.00  0.00     0.010 A 
ATOM     36  C   UNL A   1      36.524  33.029  30.791  1.00  0.00    -0.014 A 
BRANCH  36  37
ATOM     37  C   UNL A   1      37.675  32.395  31.485  1.00  0.00     0.031 A 
ATOM     38  C   UNL A   1      38.413  31.257  30.835  1.00  0.00     0.074 A 
ATOM     39  C   UNL A   1      38.018  32.808  32.721  1.00  0.00     0.049 A 
ATOM     40  N   UNL A   1      39.397  30.533  31.303  1.00  0.00    -0.248 NA
ATOM     41  C   UNL A   1      37.962  30.862  29.491  1.00  0.00     0.031 C 
ATOM     42  C   UNL A   1      37.350  33.876  33.470  1.00  0.00     0.029 A 
ATOM     43  N   UNL A   1      39.007  32.379  33.571  1.00  0.00    -0.354 N 
ATOM     44  C   UNL A   1      39.676  29.591  30.319  1.00  0.00     0.074 A 
ATOM     45  C   UNL A   1      38.710  29.794  29.259  1.00  0.00     0.031 C 
ATOM     46  C   UNL A   1      37.964  34.034  34.653  1.00  0.00     0.029 A 
ATOM     47  C   UNL A   1      39.033  33.047  34.773  1.00  0.00     0.049 A 
ATOM     48  H   UNL A   1      39.638  31.659  33.341  1.00  0.00     0.167 HD
ATOM     49  C   UNL A   1      40.662  28.659  30.290  1.00  0.00     0.034 A 
ATOM     50  C   UNL A   1      39.815  32.874  35.857  1.00  0.00     0.034 A 
ATOM     51  C   UNL A   1      41.617  28.477  31.355  1.00  0.00     0.049 A 
ATOM     52  C   UNL A   1      40.882  31.809  35.819  1.00  0.00     0.074 A 
ATOM     53  C   UNL A   1      42.690  27.604  31.409  1.00  0.00     0.029 A 
ATOM     54  N   UNL A   1      41.610  29.168  32.562  1.00  0.00    -0.354 N 
ATOM     55  N   UNL A   1      41.172  30.964  34.856  1.00  0.00    -0.248 NA
ATOM     56  C   UNL A   1      41.735  31.681  37.007  1.00  0.00     0.031 C 
ATOM     57  C   UNL A   1      43.277  27.707  32.675  1.00  0.00     0.029 A 
ATOM     58  C   UNL A   1      42.632  28.711  33.380  1.00  0.00     0.049 A 
ATOM     59  H   UNL A   1      40.971  29.878  32.800  1.00  0.00     0.167 HD
ATOM     60  C   UNL A   1      42.261  30.227  35.312  1.00  0.00     0.074 A 
ATOM     61  C   UNL A   1      42.584  30.738  36.629  1.00  0.00     0.031 C 
ATOM     62  C   UNL A   1      42.936  29.221  34.698  1.00  0.00     0.034 A 
BRANCH  49  63
ATOM     63  C   UNL A   1      40.728  27.750  29.084  1.00  0.00     0.023 A 
ATOM     64  C   UNL A   1      41.675  27.944  28.063  1.00  0.00     0.031 A 
ATOM     65  C   UNL A   1      39.812  26.695  28.935  1.00  0.00     0.131 A 
ATOM     66  C   UNL A   1      41.630  27.152  26.905  1.00  0.00     0.055 A 
ATOM     67  C   UNL A   1      39.831  25.851  27.823  1.00  0.00     0.041 A 
ATOM     68  F   UNL A   1      38.868  26.473  29.864  1.00  0.00    -0.206 F 
ATOM     69  C   UNL A   1      40.733  26.089  26.790  1.00  0.00     0.022 A 
BRANCH  66  70
ATOM     70  S   UNL A   1      42.649  27.639  25.485  1.00  0.00     0.124 S 
ATOM     71  O   UNL A   1      42.553  26.455  24.633  1.00  0.00    -0.237 OA
ATOM     72  O   UNL A   1      41.964  28.832  25.000  1.00  0.00    -0.237 OA
ATOM     73  O   UNL A   1      43.967  27.869  26.072  1.00  0.00    -0.744 OA
ENDBRANCH  66  70
ENDBRANCH  49  63
BRANCH  50  74
ATOM     74  C   UNL A   1      39.611  33.710  37.076  1.00  0.00     0.023 A 
ATOM     75  C   UNL A   1      39.084  33.161  38.255  1.00  0.00     0.031 A 
ATOM     76  C   UNL A   1      39.904  35.086  37.065  1.00  0.00     0.131 A 
ATOM     77  C   UNL A   1      38.820  33.991  39.357  1.00  0.00     0.055 A 
ATOM     78  C   UNL A   1      39.698  35.895  38.184  1.00  0.00     0.041 A 
ATOM     79  F   UNL A   1      40.413  35.663  35.964  1.00  0.00    -0.206 F 
ATOM     80  C   UNL A   1      39.140  35.350  39.334  1.00  0.00     0.022 A 
BRANCH  77  81
ATOM     81  S   UNL A   1      37.966  33.285  40.792  1.00  0.00     0.124 S 
ATOM     82  O   UNL A   1      38.537  31.945  40.847  1.00  0.00    -0.237 OA
ATOM     83  O   UNL A   1      38.362  34.196  41.860  1.00  0.00    -0.237 OA
ATOM     84  O   UNL A   1      36.556  33.347  40.413  1.00  0.00    -0.744 OA
ENDBRANCH  77  81
ENDBRANCH  50  74
BRANCH  62  85
ATOM     85  C   UNL A   1      44.125  28.641  35.430  1.00  0.00     0.023 A 
ATOM     86  C   UNL A   1      43.992  27.573  36.335  1.00  0.00     0.031 A 
ATOM     87  C   UNL A   1      45.410  29.173  35.220  1.00  0.00     0.131 A 
ATOM     88  C   UNL A   1      45.114  27.111  37.040  1.00  0.00     0.055 A 
ATOM     89  C   UNL A   1      46.534  28.663  35.873  1.00  0.00     0.041 A 
ATOM     90  F   UNL A   1      45.597  30.197  34.372  1.00  0.00    -0.206 F 
ATOM     91  C   UNL A   1      46.387  27.635  36.799  1.00  0.00     0.022 A 
BRANCH  88  92
ATOM     92  S   UNL A   1      44.873  25.884  38.354  1.00  0.00     0.124 S 
ATOM     93  O   UNL A   1      44.155  26.658  39.362  1.00  0.00    -0.237 OA
ATOM     94  O   UNL A   1      44.099  24.849  37.676  1.00  0.00    -0.237 OA
ATOM     95  O   UNL A   1      46.235  25.501  38.719  1.00  0.00    -0.744 OA
ENDBRANCH  88  92
ENDBRANCH  62  85
ENDBRANCH  36  37
ENDBRANCH  28  31
ENDBRANCH  26  27
ENDBRANCH  25  26
ENDBRANCH   1  25
TORSDOF 19
ENDMDL
MODEL 2
REMARK VINA RESULT:     -10.9      5.047      8.158
REMARK SMILES C[NH2+][C@]1(C(=O)NCCCCCCNC(=O)c2ccc(-c3c4nc(c(-c5cc(S(=O)(=O)[O-])ccc5F)c5ccc([nH]5)c(-c5cc(S(=O)(=O)[O-])ccc5F)c5nc(c(-c6cc(S(=O)(=O)[O-])ccc6F)c6ccc3[nH]6)C=C5)C=C4)cc2)CC[C@H](SC2CCCCC2)C1
REMARK SMILES IDX 10 1 9 2 8 3 7 4 6 5 4 6 5 7 3 9 79 10 89 11 80 12 81 13
REMARK SMILES IDX 2 14 1 15 82 18 83 19 84 20 88 21 85 22 87 23 86 24 11 25
REMARK SMILES IDX 12 26 13 27 14 28 15 30 16 31 17 32 78 33 18 34 77 35 19 36
REMARK SMILES IDX 20 37 21 38 71 39 22 40 76 41 70 42 72 43 23 44 75 45 69 46
REMARK SMILES IDX 68 47 24 49 56 50 36 51 55 52 37 53 40 54 54 55 73 56 38 57
REMARK SMILES IDX 39 58 53 60 74 61 41 62 25 63 26 64 34 65 27 66 33 67 35 68
REMARK SMILES IDX 32 69 28 70 29 71 30 72 31 73 57 74 58 75 66 76 59 77 65 78
REMARK SMILES IDX 67 79 64 80 60 81 61 82 62 83 63 84 42 85 43 86 51 87 44 88
REMARK SMILES IDX 50 89 52 90 49 91 45 92 46 93 47 94 48 95
REMARK H PARENT 6 8 2 16 2 17 13 29 72 48 40 59
REMARK Flexibility Score: inf
ROOT
ATOM      1  C   UNL A   1      35.333  21.694  25.694  1.00  0.00     0.002 C 
ENDROOT
BRANCH   1   2
ATOM      2  C   UNL A   1      34.393  20.691  25.018  1.00  0.00     0.002 C 
BRANCH   2   3
ATOM      3  C   UNL A   1      33.050  20.487  25.728  1.00  0.00     0.021 C 
BRANCH   3   4
ATOM      4  C   UNL A   1      31.896  21.274  25.116  1.00  0.00     0.116 C 
BRANCH   4   5
ATOM      5  N   UNL A   1      31.273  22.150  26.095  1.00  0.00    -0.351 N 
ATOM      6  C   UNL A   1      31.055  23.496  26.141  1.00  0.00     0.281 C 
ATOM      7  O   UNL A   1      30.475  23.881  27.162  1.00  0.00    -0.268 OA
ATOM      8  H   UNL A   1      30.941  21.673  26.888  1.00  0.00     0.163 HD
BRANCH   6   9
ATOM      9  C   UNL A   1      31.491  24.442  24.980  1.00  0.00     0.176 C 
ATOM     10  C   UNL A   1      30.840  24.075  23.642  1.00  0.00     0.080 C 
ATOM     11  C   UNL A   1      30.995  25.882  25.254  1.00  0.00     0.093 C 
ATOM     12  C   UNL A   1      30.758  25.382  22.866  1.00  0.00     0.022 C 
ATOM     13  C   UNL A   1      30.710  26.525  23.887  1.00  0.00     0.054 C 
BRANCH   9  14
ATOM     14  N   UNL A   1      32.958  24.546  24.722  1.00  0.00    -0.336 N 
ATOM     15  C   UNL A   1      33.804  25.048  25.787  1.00  0.00     0.331 C 
ATOM     16  H   UNL A   1      33.291  23.612  24.485  1.00  0.00     0.346 HD
ATOM     17  H   UNL A   1      33.037  25.246  23.985  1.00  0.00     0.346 HD
ENDBRANCH   9  14
BRANCH  13  18
ATOM     18  S   UNL A   1      31.940  27.854  23.577  1.00  0.00    -0.155 SA
BRANCH  18  19
ATOM     19  C   UNL A   1      32.361  28.471  25.256  1.00  0.00     0.047 C 
ATOM     20  C   UNL A   1      33.865  28.480  25.544  1.00  0.00     0.014 C 
ATOM     21  C   UNL A   1      31.712  29.818  25.589  1.00  0.00     0.014 C 
ATOM     22  C   UNL A   1      34.151  28.874  26.989  1.00  0.00     0.001 C 
ATOM     23  C   UNL A   1      32.022  30.227  27.033  1.00  0.00     0.001 C 
ATOM     24  C   UNL A   1      33.522  30.224  27.317  1.00  0.00     0.000 C 
ENDBRANCH  18  19
ENDBRANCH  13  18
ENDBRANCH   6   9
ENDBRANCH   4   5
ENDBRANCH   3   4
ENDBRANCH   2   3
ENDBRANCH   1   2
BRANCH   1  25
ATOM     25  C   UNL A   1      36.002  22.689  24.742  1.00  0.00     0.021 C 
BRANCH  25  26
ATOM     26  C   UNL A   1      37.225  23.386  25.322  1.00  0.00     0.116 C 
BRANCH  26  27
ATOM     27  N   UNL A   1      38.109  22.452  26.000  1.00  0.00    -0.352 N 
ATOM     28  C   UNL A   1      39.240  22.715  26.729  1.00  0.00     0.251 C 
ATOM     29  H   UNL A   1      37.862  21.503  25.925  1.00  0.00     0.163 HD
ATOM     30  O   UNL A   1      39.994  21.796  27.042  1.00  0.00    -0.269 OA
BRANCH  28  31
ATOM     31  C   UNL A   1      39.554  24.108  27.109  1.00  0.00     0.039 A 
ATOM     32  C   UNL A   1      39.302  24.528  28.416  1.00  0.00     0.014 A 
ATOM     33  C   UNL A   1      40.110  24.992  26.178  1.00  0.00     0.014 A 
ATOM     34  C   UNL A   1      39.660  25.820  28.804  1.00  0.00     0.010 A 
ATOM     35  C   UNL A   1      40.539  26.249  26.590  1.00  0.00     0.010 A 
ATOM     36  C   UNL A   1      40.313  26.680  27.906  1.00  0.00    -0.014 A 
BRANCH  36  37
ATOM     37  C   UNL A   1      40.758  28.035  28.325  1.00  0.00     0.031 A 
ATOM     38  C   UNL A   1      42.225  28.340  28.453  1.00  0.00     0.074 A 
ATOM     39  C   UNL A   1      39.840  28.970  28.642  1.00  0.00     0.049 A 
ATOM     40  N   UNL A   1      42.811  29.436  28.865  1.00  0.00    -0.248 NA
ATOM     41  C   UNL A   1      43.157  27.257  28.101  1.00  0.00     0.031 C 
ATOM     42  C   UNL A   1      38.389  28.777  28.596  1.00  0.00     0.029 A 
ATOM     43  N   UNL A   1      39.987  30.265  29.072  1.00  0.00    -0.354 N 
ATOM     44  C   UNL A   1      44.176  29.172  28.831  1.00  0.00     0.074 A 
ATOM     45  C   UNL A   1      44.324  27.789  28.426  1.00  0.00     0.031 C 
ATOM     46  C   UNL A   1      37.782  29.918  28.956  1.00  0.00     0.029 A 
ATOM     47  C   UNL A   1      38.795  30.908  29.312  1.00  0.00     0.049 A 
ATOM     48  H   UNL A   1      40.865  30.693  29.198  1.00  0.00     0.167 HD
ATOM     49  C   UNL A   1      45.210  30.011  29.091  1.00  0.00     0.034 A 
ATOM     50  C   UNL A   1      38.543  32.146  29.781  1.00  0.00     0.034 A 
ATOM     51  C   UNL A   1      45.039  31.387  29.489  1.00  0.00     0.049 A 
ATOM     52  C   UNL A   1      39.707  33.052  30.097  1.00  0.00     0.074 A 
ATOM     53  C   UNL A   1      46.012  32.343  29.723  1.00  0.00     0.029 A 
ATOM     54  N   UNL A   1      43.815  32.003  29.727  1.00  0.00    -0.354 N 
ATOM     55  N   UNL A   1      40.994  32.806  30.004  1.00  0.00    -0.248 NA
ATOM     56  C   UNL A   1      39.385  34.404  30.570  1.00  0.00     0.031 C 
ATOM     57  C   UNL A   1      45.384  33.505  30.182  1.00  0.00     0.029 A 
ATOM     58  C   UNL A   1      44.012  33.311  30.145  1.00  0.00     0.049 A 
ATOM     59  H   UNL A   1      42.937  31.573  29.616  1.00  0.00     0.167 HD
ATOM     60  C   UNL A   1      41.634  33.985  30.377  1.00  0.00     0.074 A 
ATOM     61  C   UNL A   1      40.590  34.943  30.681  1.00  0.00     0.031 C 
ATOM     62  C   UNL A   1      42.962  34.254  30.458  1.00  0.00     0.034 A 
BRANCH  49  63
ATOM     63  C   UNL A   1      46.609  29.449  28.983  1.00  0.00     0.023 A 
ATOM     64  C   UNL A   1      47.268  29.335  27.746  1.00  0.00     0.031 A 
ATOM     65  C   UNL A   1      47.282  28.989  30.128  1.00  0.00     0.131 A 
ATOM     66  C   UNL A   1      48.518  28.702  27.673  1.00  0.00     0.055 A 
ATOM     67  C   UNL A   1      48.566  28.444  30.060  1.00  0.00     0.041 A 
ATOM     68  F   UNL A   1      46.698  29.047  31.335  1.00  0.00    -0.206 F 
ATOM     69  C   UNL A   1      49.185  28.281  28.824  1.00  0.00     0.022 A 
BRANCH  66  70
ATOM     70  S   UNL A   1      49.182  28.288  26.035  1.00  0.00     0.124 S 
ATOM     71  O   UNL A   1      49.731  26.954  26.269  1.00  0.00    -0.237 OA
ATOM     72  O   UNL A   1      47.996  28.352  25.189  1.00  0.00    -0.237 OA
ATOM     73  O   UNL A   1      50.179  29.330  25.797  1.00  0.00    -0.744 OA
ENDBRANCH  66  70
ENDBRANCH  49  63
BRANCH  50  74
ATOM     74  C   UNL A   1      37.139  32.599  30.001  1.00  0.00     0.023 A 
ATOM     75  C   UNL A   1      36.664  32.900  31.286  1.00  0.00     0.031 A 
ATOM     76  C   UNL A   1      36.236  32.698  28.925  1.00  0.00     0.131 A 
ATOM     77  C   UNL A   1      35.313  33.238  31.472  1.00  0.00     0.055 A 
ATOM     78  C   UNL A   1      34.910  33.094  29.108  1.00  0.00     0.041 A 
ATOM     79  F   UNL A   1      36.638  32.424  27.674  1.00  0.00    -0.206 F 
ATOM     80  C   UNL A   1      34.438  33.353  30.390  1.00  0.00     0.022 A 
BRANCH  77  81
ATOM     81  S   UNL A   1      34.692  33.435  33.164  1.00  0.00     0.124 S 
ATOM     82  O   UNL A   1      34.876  34.865  33.382  1.00  0.00    -0.237 OA
ATOM     83  O   UNL A   1      33.313  32.977  33.036  1.00  0.00    -0.237 OA
ATOM     84  O   UNL A   1      35.565  32.567  33.951  1.00  0.00    -0.744 OA
ENDBRANCH  77  81
ENDBRANCH  50  74
BRANCH  62  85
ATOM     85  C   UNL A   1      43.359  35.659  30.847  1.00  0.00     0.023 A 
ATOM     86  C   UNL A   1      43.409  36.073  32.190  1.00  0.00     0.031 A 
ATOM     87  C   UNL A   1      43.687  36.600  29.853  1.00  0.00     0.131 A 
ATOM     88  C   UNL A   1      43.719  37.406  32.499  1.00  0.00     0.055 A 
ATOM     89  C   UNL A   1      44.063  37.906  30.171  1.00  0.00     0.041 A 
ATOM     90  F   UNL A   1      43.652  36.263  28.554  1.00  0.00    -0.206 F 
ATOM     91  C   UNL A   1      44.067  38.319  31.500  1.00  0.00     0.022 A 
BRANCH  88  92
ATOM     92  S   UNL A   1      43.562  37.961  34.219  1.00  0.00     0.124 S 
ATOM     93  O   UNL A   1      44.939  37.869  34.692  1.00  0.00    -0.237 OA
ATOM     94  O   UNL A   1      43.030  39.311  34.064  1.00  0.00    -0.237 OA
ATOM     95  O   UNL A   1      42.637  36.994  34.807  1.00  0.00    -0.744 OA
ENDBRANCH  88  92
ENDBRANCH  62  85
ENDBRANCH  36  37
ENDBRANCH  28  31
ENDBRANCH  26  27
ENDBRANCH  25  26
ENDBRANCH   1  25
TORSDOF 19
ENDMDL
MODEL 3
REMARK VINA RESULT:     -10.9      2.033      2.710
REMARK SMILES C[NH2+][C@]1(C(=O)NCCCCCCNC(=O)c2ccc(-c3c4nc(c(-c5cc(S(=O)(=O)[O-])ccc5F)c5ccc([nH]5)c(-c5cc(S(=O)(=O)[O-])ccc5F)c5nc(c(-c6cc(S(=O)(=O)[O-])ccc6F)c6ccc3[nH]6)C=C5)C=C4)cc2)CC[C@H](SC2CCCCC2)C1
REMARK SMILES IDX 10 1 9 2 8 3 7 4 6 5 4 6 5 7 3 9 79 10 89 11 80 12 81 13
REMARK SMILES IDX 2 14 1 15 82 18 83 19 84 20 88 21 85 22 87 23 86 24 11 25
REMARK SMILES IDX 12 26 13 27 14 28 15 30 16 31 17 32 78 33 18 34 77 35 19 36
REMARK SMILES IDX 20 37 21 38 71 39 22 40 76 41 70 42 72 43 23 44 75 45 69 46
REMARK SMILES IDX 68 47 24 49 56 50 36 51 55 52 37 53 40 54 54 55 73 56 38 57
REMARK SMILES IDX 39 58 53 60 74 61 41 62 25 63 26 64 34 65 27 66 33 67 35 68
REMARK SMILES IDX 32 69 28 70 29 71 30 72 31 73 57 74 58 75 66 76 59 77 65 78
REMARK SMILES IDX 67 79 64 80 60 81 61 82 62 83 63 84 42 85 43 86 51 87 44 88
REMARK SMILES IDX 50 89 52 90 49 91 45 92 46 93 47 94 48 95
REMARK H PARENT 6 8 2 16 2 17 13 29 72 48 40 59
REMARK Flexibility Score: inf
ROOT
ATOM      1  C   UNL A   1      31.305  30.409  25.394  1.00  0.00     0.002 C 
ENDROOT
BRANCH   1   2
ATOM      2  C   UNL A   1      31.560  29.195  26.292  1.00  0.00     0.002 C 
BRANCH   2   3
ATOM      3  C   UNL A   1      32.824  28.398  25.954  1.00  0.00     0.021 C 
BRANCH   3   4
ATOM      4  C   UNL A   1      32.642  26.885  26.016  1.00  0.00     0.116 C 
BRANCH   4   5
ATOM      5  N   UNL A   1      32.269  26.342  24.720  1.00  0.00    -0.351 N 
ATOM      6  C   UNL A   1      32.410  25.113  24.145  1.00  0.00     0.281 C 
ATOM      7  O   UNL A   1      31.949  25.032  23.001  1.00  0.00    -0.268 OA
ATOM      8  H   UNL A   1      31.823  26.997  24.137  1.00  0.00     0.163 HD
BRANCH   6   9
ATOM      9  C   UNL A   1      33.079  23.922  24.898  1.00  0.00     0.176 C 
ATOM     10  C   UNL A   1      32.394  23.606  26.232  1.00  0.00     0.080 C 
ATOM     11  C   UNL A   1      32.920  22.619  24.079  1.00  0.00     0.093 C 
ATOM     12  C   UNL A   1      32.632  22.120  26.461  1.00  0.00     0.022 C 
ATOM     13  C   UNL A   1      32.823  21.465  25.089  1.00  0.00     0.054 C 
BRANCH   9  14
ATOM     14  N   UNL A   1      34.537  24.056  25.193  1.00  0.00    -0.336 N 
ATOM     15  C   UNL A   1      35.471  23.923  24.092  1.00  0.00     0.331 C 
ATOM     16  H   UNL A   1      34.680  24.980  25.601  1.00  0.00     0.346 HD
ATOM     17  H   UNL A   1      34.746  23.265  25.801  1.00  0.00     0.346 HD
ENDBRANCH   9  14
BRANCH  13  18
ATOM     18  S   UNL A   1      34.332  20.424  24.963  1.00  0.00    -0.155 SA
BRANCH  18  19
ATOM     19  C   UNL A   1      33.682  18.739  24.618  1.00  0.00     0.047 C 
ATOM     20  C   UNL A   1      34.765  17.743  24.195  1.00  0.00     0.014 C 
ATOM     21  C   UNL A   1      32.810  18.182  25.747  1.00  0.00     0.014 C 
ATOM     22  C   UNL A   1      34.159  16.401  23.795  1.00  0.00     0.001 C 
ATOM     23  C   UNL A   1      32.221  16.822  25.357  1.00  0.00     0.001 C 
ATOM     24  C   UNL A   1      33.305  15.835  24.925  1.00  0.00     0.000 C 
ENDBRANCH  18  19
ENDBRANCH  13  18
ENDBRANCH   6   9
ENDBRANCH   4   5
ENDBRANCH   3   4
ENDBRANCH   2   3
ENDBRANCH   1   2
BRANCH   1  25
ATOM     25  C   UNL A   1      31.179  31.743  26.136  1.00  0.00     0.021 C 
BRANCH  25  26
ATOM     26  C   UNL A   1      32.425  32.150  26.909  1.00  0.00     0.116 C 
BRANCH  26  27
ATOM     27  N   UNL A   1      32.386  33.549  27.300  1.00  0.00    -0.352 N 
ATOM     28  C   UNL A   1      33.153  34.204  28.229  1.00  0.00     0.251 C 
ATOM     29  H   UNL A   1      31.717  34.102  26.835  1.00  0.00     0.163 HD
ATOM     30  O   UNL A   1      32.837  35.333  28.599  1.00  0.00    -0.269 OA
BRANCH  28  31
ATOM     31  C   UNL A   1      34.341  33.532  28.796  1.00  0.00     0.039 A 
ATOM     32  C   UNL A   1      35.600  34.098  28.596  1.00  0.00     0.014 A 
ATOM     33  C   UNL A   1      34.206  32.352  29.536  1.00  0.00     0.014 A 
ATOM     34  C   UNL A   1      36.720  33.511  29.187  1.00  0.00     0.010 A 
ATOM     35  C   UNL A   1      35.310  31.816  30.189  1.00  0.00     0.010 A 
ATOM     36  C   UNL A   1      36.582  32.385  30.017  1.00  0.00    -0.014 A 
BRANCH  36  37
ATOM     37  C   UNL A   1      37.756  31.788  30.704  1.00  0.00     0.031 A 
ATOM     38  C   UNL A   1      38.591  30.751  30.004  1.00  0.00     0.074 A 
ATOM     39  C   UNL A   1      38.035  32.138  31.975  1.00  0.00     0.049 A 
ATOM     40  N   UNL A   1      39.612  30.067  30.454  1.00  0.00    -0.248 NA
ATOM     41  C   UNL A   1      38.207  30.418  28.623  1.00  0.00     0.031 C 
ATOM     42  C   UNL A   1      37.272  33.103  32.771  1.00  0.00     0.029 A 
ATOM     43  N   UNL A   1      39.029  31.722  32.826  1.00  0.00    -0.354 N 
ATOM     44  C   UNL A   1      39.985  29.216  29.419  1.00  0.00     0.074 A 
ATOM     45  C   UNL A   1      39.036  29.423  28.345  1.00  0.00     0.031 C 
ATOM     46  C   UNL A   1      37.841  33.222  33.981  1.00  0.00     0.029 A 
ATOM     47  C   UNL A   1      38.974  32.307  34.070  1.00  0.00     0.049 A 
ATOM     48  H   UNL A   1      39.716  31.066  32.569  1.00  0.00     0.167 HD
ATOM     49  C   UNL A   1      41.035  28.360  29.361  1.00  0.00     0.034 A 
ATOM     50  C   UNL A   1      39.737  32.115  35.164  1.00  0.00     0.034 A 
ATOM     51  C   UNL A   1      41.972  28.172  30.441  1.00  0.00     0.049 A 
ATOM     52  C   UNL A   1      40.879  31.132  35.090  1.00  0.00     0.074 A 
ATOM     53  C   UNL A   1      43.104  27.375  30.472  1.00  0.00     0.029 A 
ATOM     54  N   UNL A   1      41.882  28.777  31.690  1.00  0.00    -0.354 N 
ATOM     55  N   UNL A   1      41.255  30.378  34.083  1.00  0.00    -0.248 NA
ATOM     56  C   UNL A   1      41.705  30.984  36.294  1.00  0.00     0.031 C 
ATOM     57  C   UNL A   1      43.647  27.433  31.759  1.00  0.00     0.029 A 
ATOM     58  C   UNL A   1      42.913  28.339  32.509  1.00  0.00     0.049 A 
ATOM     59  H   UNL A   1      41.188  29.423  31.955  1.00  0.00     0.167 HD
ATOM     60  C   UNL A   1      42.381  29.689  34.524  1.00  0.00     0.074 A 
ATOM     61  C   UNL A   1      42.631  30.131  35.881  1.00  0.00     0.031 C 
ATOM     62  C   UNL A   1      43.143  28.777  33.867  1.00  0.00     0.034 A 
BRANCH  49  63
ATOM     63  C   UNL A   1      41.200  27.542  28.100  1.00  0.00     0.023 A 
ATOM     64  C   UNL A   1      40.888  26.172  28.059  1.00  0.00     0.031 A 
ATOM     65  C   UNL A   1      41.706  28.133  26.929  1.00  0.00     0.131 A 
ATOM     66  C   UNL A   1      41.164  25.423  26.905  1.00  0.00     0.055 A 
ATOM     67  C   UNL A   1      41.892  27.402  25.754  1.00  0.00     0.041 A 
ATOM     68  F   UNL A   1      42.046  29.431  26.910  1.00  0.00    -0.206 F 
ATOM     69  C   UNL A   1      41.637  26.034  25.742  1.00  0.00     0.022 A 
BRANCH  66  70
ATOM     70  S   UNL A   1      41.053  23.615  27.001  1.00  0.00     0.124 S 
ATOM     71  O   UNL A   1      41.577  23.359  28.341  1.00  0.00    -0.237 OA
ATOM     72  O   UNL A   1      39.626  23.376  26.816  1.00  0.00    -0.237 OA
ATOM     73  O   UNL A   1      41.910  23.160  25.908  1.00  0.00    -0.744 OA
ENDBRANCH  66  70
ENDBRANCH  49  63
BRANCH  50  74
ATOM     74  C   UNL A   1      39.440  32.850  36.429  1.00  0.00     0.023 A 
ATOM     75  C   UNL A   1      38.575  32.314  37.395  1.00  0.00     0.031 A 
ATOM     76  C   UNL A   1      39.989  34.123  36.670  1.00  0.00     0.131 A 
ATOM     77  C   UNL A   1      38.245  33.068  38.534  1.00  0.00     0.055 A 
ATOM     78  C   UNL A   1      39.707  34.841  37.833  1.00  0.00     0.041 A 
ATOM     79  F   UNL A   1      40.825  34.681  35.780  1.00  0.00    -0.206 F 
ATOM     80  C   UNL A   1      38.819  34.320  38.767  1.00  0.00     0.022 A 
BRANCH  77  81
ATOM     81  S   UNL A   1      36.982  32.426  39.665  1.00  0.00     0.124 S 
ATOM     82  O   UNL A   1      35.759  32.663  38.907  1.00  0.00    -0.237 OA
ATOM     83  O   UNL A   1      37.386  31.032  39.813  1.00  0.00    -0.237 OA
ATOM     84  O   UNL A   1      37.145  33.250  40.860  1.00  0.00    -0.744 OA
ENDBRANCH  77  81
ENDBRANCH  50  74
BRANCH  62  85
ATOM     85  C   UNL A   1      44.350  28.233  34.596  1.00  0.00     0.023 A 
ATOM     86  C   UNL A   1      44.296  27.039  35.335  1.00  0.00     0.031 A 
ATOM     87  C   UNL A   1      45.573  28.929  34.553  1.00  0.00     0.131 A 
ATOM     88  C   UNL A   1      45.424  26.608  36.050  1.00  0.00     0.055 A 
ATOM     89  C   UNL A   1      46.711  28.457  35.209  1.00  0.00     0.041 A 
ATOM     90  F   UNL A   1      45.682  30.078  33.867  1.00  0.00    -0.206 F 
ATOM     91  C   UNL A   1      46.636  27.298  35.974  1.00  0.00     0.022 A 
BRANCH  88  92
ATOM     92  S   UNL A   1      45.258  25.186  37.164  1.00  0.00     0.124 S 
ATOM     93  O   UNL A   1      44.620  24.198  36.301  1.00  0.00    -0.237 OA
ATOM     94  O   UNL A   1      46.644  24.912  37.530  1.00  0.00    -0.237 OA
ATOM     95  O   UNL A   1      44.421  25.697  38.248  1.00  0.00    -0.744 OA
ENDBRANCH  88  92
ENDBRANCH  62  85
ENDBRANCH  36  37
ENDBRANCH  28  31
ENDBRANCH  26  27
ENDBRANCH  25  26
ENDBRANCH   1  25
TORSDOF 19
ENDMDL
