MODEL 1
REMARK VINA RESULT:     -10.7      0.000      0.000
REMARK SMILES C[C@@H](C(=O)NCCCCCCNC(=O)c1ccc(-c2c3nc(c(-c4cc(S(=O)(=O)[O-])ccc4F)c4ccc([nH]4)c(-c4cc(S(=O)(=O)[O-])ccc4F)c4nc(c(-c5cc(S(=O)(=O)[O-])ccc5F)c5ccc2[nH]5)C=C4)C=C3)cc1)c1ccc(-c2cccc(OC(=O)NCCCc3ccccc3)c2)c(F)c1
REMARK SMILES IDX 6 1 5 2 3 3 4 4 2 6 1 7 78 8 79 9 103 10 80 11 101 12 81 13
REMARK SMILES IDX 102 14 82 15 83 16 100 17 84 18 86 19 85 20 87 21 88 22
REMARK SMILES IDX 89 23 90 24 91 26 92 27 93 28 94 29 95 30 99 31 96 32 98 33
REMARK SMILES IDX 97 34 7 35 8 36 9 37 10 38 11 39 12 40 13 41 14 43 15 44
REMARK SMILES IDX 16 45 77 46 17 47 76 48 18 49 19 50 20 51 70 52 21 53 75 54
REMARK SMILES IDX 69 55 71 56 22 57 74 58 68 59 67 60 23 62 55 63 35 64 54 65
REMARK SMILES IDX 36 66 39 67 53 68 72 69 37 70 38 71 52 73 73 74 40 75 24 76
REMARK SMILES IDX 25 77 33 78 26 79 32 80 34 81 31 82 27 83 28 84 29 85 30 86
REMARK SMILES IDX 56 87 57 88 65 89 58 90 64 91 66 92 63 93 59 94 60 95 61 96
REMARK SMILES IDX 62 97 41 98 42 99 50 100 43 101 49 102 51 103 48 104 44 105
REMARK SMILES IDX 45 106 46 107 47 108
REMARK H PARENT 5 5 90 25 12 42 71 61 39 72
REMARK Flexibility Score: inf
ROOT
ATOM      1  C   UNL A   1      43.832  23.367  28.019  1.00  0.00     0.116 C 
ENDROOT
BRANCH   1   2
ATOM      2  N   UNL A   1      43.696  22.913  26.651  1.00  0.00    -0.356 N 
ATOM      3  C   UNL A   1      43.061  21.804  26.173  1.00  0.00     0.227 C 
ATOM      4  O   UNL A   1      43.343  21.452  25.026  1.00  0.00    -0.274 OA
ATOM      5  H   UNL A   1      44.121  23.485  25.971  1.00  0.00     0.163 HD
BRANCH   3   6
ATOM      6  C   UNL A   1      42.007  21.095  27.048  1.00  0.00     0.105 C 
ATOM      7  C   UNL A   1      42.235  19.578  27.022  1.00  0.00     0.023 C 
BRANCH   6   8
ATOM      8  C   UNL A   1      40.577  21.492  26.668  1.00  0.00    -0.033 A 
ATOM      9  C   UNL A   1      39.698  20.606  26.025  1.00  0.00     0.005 A 
ATOM     10  C   UNL A   1      40.106  22.784  26.957  1.00  0.00     0.044 A 
ATOM     11  C   UNL A   1      38.428  21.016  25.617  1.00  0.00     0.012 A 
ATOM     12  C   UNL A   1      38.842  23.192  26.531  1.00  0.00     0.131 A 
ATOM     13  C   UNL A   1      37.990  22.327  25.835  1.00  0.00     0.018 A 
ATOM     14  F   UNL A   1      38.467  24.458  26.775  1.00  0.00    -0.206 F 
BRANCH  13  15
ATOM     15  C   UNL A   1      36.733  22.777  25.233  1.00  0.00    -0.012 A 
ATOM     16  C   UNL A   1      36.653  23.164  23.886  1.00  0.00     0.009 A 
ATOM     17  C   UNL A   1      35.597  22.924  26.045  1.00  0.00     0.056 A 
ATOM     18  C   UNL A   1      35.475  23.699  23.365  1.00  0.00     0.004 A 
ATOM     19  C   UNL A   1      34.433  23.478  25.529  1.00  0.00     0.133 A 
ATOM     20  C   UNL A   1      34.363  23.863  24.191  1.00  0.00     0.047 A 
BRANCH  19  21
ATOM     21  O   UNL A   1      33.254  23.672  26.281  1.00  0.00    -0.410 OA
BRANCH  21  22
ATOM     22  C   UNL A   1      32.667  22.736  27.129  1.00  0.00     0.412 C 
ATOM     23  O   UNL A   1      32.771  22.677  28.346  1.00  0.00    -0.224 OA
ATOM     24  N   UNL A   1      31.890  21.833  26.459  1.00  0.00    -0.321 N 
ATOM     25  H   UNL A   1      31.540  21.068  26.971  1.00  0.00     0.167 HD
BRANCH  24  26
ATOM     26  C   UNL A   1      31.540  21.910  25.062  1.00  0.00     0.120 C 
BRANCH  26  27
ATOM     27  C   UNL A   1      32.288  20.922  24.170  1.00  0.00     0.026 C 
BRANCH  27  28
ATOM     28  C   UNL A   1      33.418  20.093  24.790  1.00  0.00     0.037 C 
BRANCH  28  29
ATOM     29  C   UNL A   1      33.347  18.583  24.811  1.00  0.00    -0.048 A 
ATOM     30  C   UNL A   1      32.651  17.829  25.760  1.00  0.00     0.004 A 
ATOM     31  C   UNL A   1      34.092  17.886  23.840  1.00  0.00     0.004 A 
ATOM     32  C   UNL A   1      32.705  16.432  25.751  1.00  0.00     0.000 A 
ATOM     33  C   UNL A   1      34.137  16.492  23.821  1.00  0.00     0.000 A 
ATOM     34  C   UNL A   1      33.446  15.762  24.783  1.00  0.00     0.000 A 
ENDBRANCH  28  29
ENDBRANCH  27  28
ENDBRANCH  26  27
ENDBRANCH  24  26
ENDBRANCH  21  22
ENDBRANCH  19  21
ENDBRANCH  13  15
ENDBRANCH   6   8
ENDBRANCH   3   6
ENDBRANCH   1   2
BRANCH   1  35
ATOM     35  C   UNL A   1      45.311  23.599  28.341  1.00  0.00     0.021 C 
BRANCH  35  36
ATOM     36  C   UNL A   1      45.884  24.875  27.711  1.00  0.00     0.002 C 
BRANCH  36  37
ATOM     37  C   UNL A   1      46.771  24.636  26.486  1.00  0.00     0.002 C 
BRANCH  37  38
ATOM     38  C   UNL A   1      46.091  24.932  25.149  1.00  0.00     0.021 C 
BRANCH  38  39
ATOM     39  C   UNL A   1      45.196  26.165  25.171  1.00  0.00     0.116 C 
BRANCH  39  40
ATOM     40  N   UNL A   1      43.821  25.836  24.830  1.00  0.00    -0.352 N 
ATOM     41  C   UNL A   1      42.667  26.246  25.453  1.00  0.00     0.251 C 
ATOM     42  H   UNL A   1      43.702  25.244  24.052  1.00  0.00     0.163 HD
ATOM     43  O   UNL A   1      41.597  25.705  25.200  1.00  0.00    -0.269 OA
BRANCH  41  44
ATOM     44  C   UNL A   1      42.751  27.333  26.450  1.00  0.00     0.039 A 
ATOM     45  C   UNL A   1      43.145  27.038  27.757  1.00  0.00     0.014 A 
ATOM     46  C   UNL A   1      42.487  28.649  26.065  1.00  0.00     0.014 A 
ATOM     47  C   UNL A   1      43.337  28.081  28.667  1.00  0.00     0.010 A 
ATOM     48  C   UNL A   1      42.756  29.688  26.946  1.00  0.00     0.010 A 
ATOM     49  C   UNL A   1      43.179  29.414  28.258  1.00  0.00    -0.014 A 
BRANCH  49  50
ATOM     50  C   UNL A   1      43.414  30.556  29.178  1.00  0.00     0.031 A 
ATOM     51  C   UNL A   1      42.308  31.000  30.094  1.00  0.00     0.074 A 
ATOM     52  C   UNL A   1      44.563  31.256  29.113  1.00  0.00     0.049 A 
ATOM     53  N   UNL A   1      42.220  32.077  30.831  1.00  0.00    -0.248 NA
ATOM     54  C   UNL A   1      41.121  30.134  30.143  1.00  0.00     0.031 C 
ATOM     55  C   UNL A   1      45.698  30.938  28.246  1.00  0.00     0.029 A 
ATOM     56  N   UNL A   1      44.953  32.399  29.766  1.00  0.00    -0.354 N 
ATOM     57  C   UNL A   1      40.956  32.031  31.410  1.00  0.00     0.074 A 
ATOM     58  C   UNL A   1      40.295  30.857  30.880  1.00  0.00     0.031 C 
ATOM     59  C   UNL A   1      46.655  31.863  28.419  1.00  0.00     0.029 A 
ATOM     60  C   UNL A   1      46.180  32.871  29.364  1.00  0.00     0.049 A 
ATOM     61  H   UNL A   1      44.406  32.838  30.457  1.00  0.00     0.167 HD
ATOM     62  C   UNL A   1      40.407  32.882  32.313  1.00  0.00     0.034 A 
ATOM     63  C   UNL A   1      46.835  34.006  29.687  1.00  0.00     0.034 A 
ATOM     64  C   UNL A   1      41.092  34.043  32.828  1.00  0.00     0.049 A 
ATOM     65  C   UNL A   1      46.200  34.963  30.663  1.00  0.00     0.074 A 
ATOM     66  C   UNL A   1      40.662  34.940  33.789  1.00  0.00     0.029 A 
ATOM     67  N   UNL A   1      42.345  34.477  32.412  1.00  0.00    -0.354 N 
ATOM     68  N   UNL A   1      45.021  34.892  31.238  1.00  0.00    -0.248 NA
ATOM     69  C   UNL A   1      46.982  36.148  31.041  1.00  0.00     0.031 C 
ATOM     70  C   UNL A   1      41.613  35.962  33.890  1.00  0.00     0.029 A 
ATOM     71  C   UNL A   1      42.685  35.651  33.066  1.00  0.00     0.049 A 
ATOM     72  H   UNL A   1      42.909  34.019  31.748  1.00  0.00     0.167 HD
ATOM     73  C   UNL A   1      44.936  36.002  32.074  1.00  0.00     0.074 A 
ATOM     74  C   UNL A   1      46.179  36.730  31.922  1.00  0.00     0.031 C 
ATOM     75  C   UNL A   1      43.927  36.372  32.904  1.00  0.00     0.034 A 
BRANCH  62  76
ATOM     76  C   UNL A   1      38.987  32.602  32.752  1.00  0.00     0.023 A 
ATOM     77  C   UNL A   1      37.881  33.010  31.984  1.00  0.00     0.031 A 
ATOM     78  C   UNL A   1      38.731  31.983  33.988  1.00  0.00     0.131 A 
ATOM     79  C   UNL A   1      36.586  32.908  32.512  1.00  0.00     0.055 A 
ATOM     80  C   UNL A   1      37.432  31.785  34.459  1.00  0.00     0.041 A 
ATOM     81  F   UNL A   1      39.741  31.587  34.779  1.00  0.00    -0.206 F 
ATOM     82  C   UNL A   1      36.350  32.272  33.733  1.00  0.00     0.022 A 
BRANCH  79  83
ATOM     83  S   UNL A   1      35.247  33.808  31.683  1.00  0.00     0.124 S 
ATOM     84  O   UNL A   1      34.109  32.919  31.911  1.00  0.00    -0.237 OA
ATOM     85  O   UNL A   1      35.223  35.074  32.404  1.00  0.00    -0.237 OA
ATOM     86  O   UNL A   1      35.695  33.886  30.294  1.00  0.00    -0.744 OA
ENDBRANCH  79  83
ENDBRANCH  62  76
BRANCH  63  87
ATOM     87  C   UNL A   1      48.150  34.305  29.051  1.00  0.00     0.023 A 
ATOM     88  C   UNL A   1      48.230  34.927  27.797  1.00  0.00     0.031 A 
ATOM     89  C   UNL A   1      49.353  33.981  29.706  1.00  0.00     0.131 A 
ATOM     90  C   UNL A   1      49.486  35.187  27.225  1.00  0.00     0.055 A 
ATOM     91  C   UNL A   1      50.599  34.285  29.156  1.00  0.00     0.041 A 
ATOM     92  F   UNL A   1      49.332  33.390  30.912  1.00  0.00    -0.206 F 
ATOM     93  C   UNL A   1      50.670  34.886  27.903  1.00  0.00     0.022 A 
BRANCH  90  94
ATOM     94  S   UNL A   1      49.555  35.885  25.552  1.00  0.00     0.124 S 
ATOM     95  O   UNL A   1      50.984  35.827  25.266  1.00  0.00    -0.237 OA
ATOM     96  O   UNL A   1      48.712  34.961  24.802  1.00  0.00    -0.237 OA
ATOM     97  O   UNL A   1      49.006  37.228  25.721  1.00  0.00    -0.744 OA
ENDBRANCH  90  94
ENDBRANCH  63  87
BRANCH  75  98
ATOM     98  C   UNL A   1      44.145  37.587  33.774  1.00  0.00     0.023 A 
ATOM     99  C   UNL A   1      43.690  38.864  33.410  1.00  0.00     0.031 A 
ATOM    100  C   UNL A   1      44.774  37.439  35.025  1.00  0.00     0.131 A 
ATOM    101  C   UNL A   1      43.892  39.950  34.278  1.00  0.00     0.055 A 
ATOM    102  C   UNL A   1      44.923  38.509  35.906  1.00  0.00     0.041 A 
ATOM    103  F   UNL A   1      45.232  36.240  35.420  1.00  0.00    -0.206 F 
ATOM    104  C   UNL A   1      44.486  39.775  35.532  1.00  0.00     0.022 A 
BRANCH 101 105
ATOM    105  S   UNL A   1      43.416  41.613  33.731  1.00  0.00     0.124 S 
ATOM    106  O   UNL A   1      43.677  41.546  32.297  1.00  0.00    -0.237 OA
ATOM    107  O   UNL A   1      42.012  41.682  34.122  1.00  0.00    -0.237 OA
ATOM    108  O   UNL A   1      44.311  42.491  34.484  1.00  0.00    -0.744 OA
ENDBRANCH 101 105
ENDBRANCH  75  98
ENDBRANCH  49  50
ENDBRANCH  41  44
ENDBRANCH  39  40
ENDBRANCH  38  39
ENDBRANCH  37  38
ENDBRANCH  36  37
ENDBRANCH  35  36
ENDBRANCH   1  35
TORSDOF 24
ENDMDL
MODEL 2
REMARK VINA RESULT:     -10.5      5.838     13.035
REMARK SMILES C[C@@H](C(=O)NCCCCCCNC(=O)c1ccc(-c2c3nc(c(-c4cc(S(=O)(=O)[O-])ccc4F)c4ccc([nH]4)c(-c4cc(S(=O)(=O)[O-])ccc4F)c4nc(c(-c5cc(S(=O)(=O)[O-])ccc5F)c5ccc2[nH]5)C=C4)C=C3)cc1)c1ccc(-c2cccc(OC(=O)NCCCc3ccccc3)c2)c(F)c1
REMARK SMILES IDX 6 1 5 2 3 3 4 4 2 6 1 7 78 8 79 9 103 10 80 11 101 12 81 13
REMARK SMILES IDX 102 14 82 15 83 16 100 17 84 18 86 19 85 20 87 21 88 22
REMARK SMILES IDX 89 23 90 24 91 26 92 27 93 28 94 29 95 30 99 31 96 32 98 33
REMARK SMILES IDX 97 34 7 35 8 36 9 37 10 38 11 39 12 40 13 41 14 43 15 44
REMARK SMILES IDX 16 45 77 46 17 47 76 48 18 49 19 50 20 51 70 52 21 53 75 54
REMARK SMILES IDX 69 55 71 56 22 57 74 58 68 59 67 60 23 62 55 63 35 64 54 65
REMARK SMILES IDX 36 66 39 67 53 68 72 69 37 70 38 71 52 73 73 74 40 75 24 76
REMARK SMILES IDX 25 77 33 78 26 79 32 80 34 81 31 82 27 83 28 84 29 85 30 86
REMARK SMILES IDX 56 87 57 88 65 89 58 90 64 91 66 92 63 93 59 94 60 95 61 96
REMARK SMILES IDX 62 97 41 98 42 99 50 100 43 101 49 102 51 103 48 104 44 105
REMARK SMILES IDX 45 106 46 107 47 108
REMARK H PARENT 5 5 90 25 12 42 71 61 39 72
REMARK Flexibility Score: inf
ROOT
ATOM      1  C   UNL A   1      41.062  33.535  40.876  1.00  0.00     0.116 C 
ENDROOT
BRANCH   1   2
ATOM      2  N   UNL A   1      39.672  33.257  40.580  1.00  0.00    -0.356 N 
ATOM      3  C   UNL A   1      38.876  33.794  39.611  1.00  0.00     0.227 C 
ATOM      4  O   UNL A   1      37.660  33.649  39.746  1.00  0.00    -0.274 OA
ATOM      5  H   UNL A   1      39.242  32.585  41.158  1.00  0.00     0.163 HD
BRANCH   3   6
ATOM      6  C   UNL A   1      39.523  34.491  38.396  1.00  0.00     0.105 C 
ATOM      7  C   UNL A   1      39.282  36.005  38.467  1.00  0.00     0.023 C 
BRANCH   6   8
ATOM      8  C   UNL A   1      39.072  33.875  37.067  1.00  0.00    -0.033 A 
ATOM      9  C   UNL A   1      38.857  34.649  35.916  1.00  0.00     0.005 A 
ATOM     10  C   UNL A   1      38.855  32.490  36.973  1.00  0.00     0.044 A 
ATOM     11  C   UNL A   1      38.370  34.076  34.741  1.00  0.00     0.012 A 
ATOM     12  C   UNL A   1      38.352  31.927  35.801  1.00  0.00     0.131 A 
ATOM     13  C   UNL A   1      38.079  32.709  34.673  1.00  0.00     0.018 A 
ATOM     14  F   UNL A   1      38.100  30.608  35.785  1.00  0.00    -0.206 F 
BRANCH  13  15
ATOM     15  C   UNL A   1      37.397  32.175  33.492  1.00  0.00    -0.012 A 
ATOM     16  C   UNL A   1      36.493  32.947  32.746  1.00  0.00     0.009 A 
ATOM     17  C   UNL A   1      37.572  30.824  33.151  1.00  0.00     0.056 A 
ATOM     18  C   UNL A   1      35.768  32.382  31.695  1.00  0.00     0.004 A 
ATOM     19  C   UNL A   1      36.833  30.259  32.119  1.00  0.00     0.133 A 
ATOM     20  C   UNL A   1      35.934  31.032  31.385  1.00  0.00     0.047 A 
BRANCH  19  21
ATOM     21  O   UNL A   1      36.940  28.908  31.723  1.00  0.00    -0.410 OA
BRANCH  21  22
ATOM     22  C   UNL A   1      38.014  28.064  31.994  1.00  0.00     0.412 C 
ATOM     23  O   UNL A   1      38.246  27.481  33.043  1.00  0.00    -0.224 OA
ATOM     24  N   UNL A   1      38.841  27.903  30.917  1.00  0.00    -0.321 N 
ATOM     25  H   UNL A   1      39.686  27.420  31.064  1.00  0.00     0.167 HD
BRANCH  24  26
ATOM     26  C   UNL A   1      38.574  28.382  29.583  1.00  0.00     0.120 C 
BRANCH  26  27
ATOM     27  C   UNL A   1      39.306  29.671  29.219  1.00  0.00     0.026 C 
BRANCH  27  28
ATOM     28  C   UNL A   1      40.135  30.369  30.304  1.00  0.00     0.037 C 
BRANCH  28  29
ATOM     29  C   UNL A   1      39.963  31.845  30.577  1.00  0.00    -0.048 A 
ATOM     30  C   UNL A   1      40.633  32.556  31.576  1.00  0.00     0.004 A 
ATOM     31  C   UNL A   1      39.006  32.538  29.810  1.00  0.00     0.004 A 
ATOM     32  C   UNL A   1      40.352  33.906  31.812  1.00  0.00     0.000 A 
ATOM     33  C   UNL A   1      38.733  33.888  30.036  1.00  0.00     0.000 A 
ATOM     34  C   UNL A   1      39.404  34.573  31.044  1.00  0.00     0.000 A 
ENDBRANCH  28  29
ENDBRANCH  27  28
ENDBRANCH  26  27
ENDBRANCH  24  26
ENDBRANCH  21  22
ENDBRANCH  19  21
ENDBRANCH  13  15
ENDBRANCH   6   8
ENDBRANCH   3   6
ENDBRANCH   1   2
BRANCH   1  35
ATOM     35  C   UNL A   1      41.917  32.312  40.530  1.00  0.00     0.021 C 
BRANCH  35  36
ATOM     36  C   UNL A   1      42.571  32.390  39.145  1.00  0.00     0.002 C 
BRANCH  36  37
ATOM     37  C   UNL A   1      44.069  32.706  39.167  1.00  0.00     0.002 C 
BRANCH  37  38
ATOM     38  C   UNL A   1      44.500  33.641  40.297  1.00  0.00     0.021 C 
BRANCH  38  39
ATOM     39  C   UNL A   1      45.141  34.936  39.815  1.00  0.00     0.116 C 
BRANCH  39  40
ATOM     40  N   UNL A   1      44.163  36.006  39.693  1.00  0.00    -0.352 N 
ATOM     41  C   UNL A   1      43.546  36.471  38.557  1.00  0.00     0.251 C 
ATOM     42  H   UNL A   1      43.910  36.453  40.533  1.00  0.00     0.163 HD
ATOM     43  O   UNL A   1      42.924  37.526  38.574  1.00  0.00    -0.269 OA
BRANCH  41  44
ATOM     44  C   UNL A   1      43.673  35.685  37.313  1.00  0.00     0.039 A 
ATOM     45  C   UNL A   1      44.941  35.432  36.785  1.00  0.00     0.014 A 
ATOM     46  C   UNL A   1      42.531  35.159  36.705  1.00  0.00     0.014 A 
ATOM     47  C   UNL A   1      45.068  34.593  35.676  1.00  0.00     0.010 A 
ATOM     48  C   UNL A   1      42.666  34.261  35.654  1.00  0.00     0.010 A 
ATOM     49  C   UNL A   1      43.935  33.973  35.125  1.00  0.00    -0.014 A 
BRANCH  49  50
ATOM     50  C   UNL A   1      44.027  33.039  33.974  1.00  0.00     0.031 A 
ATOM     51  C   UNL A   1      44.033  33.595  32.577  1.00  0.00     0.074 A 
ATOM     52  C   UNL A   1      43.989  31.708  34.174  1.00  0.00     0.049 A 
ATOM     53  N   UNL A   1      43.912  32.972  31.434  1.00  0.00    -0.248 NA
ATOM     54  C   UNL A   1      44.142  35.056  32.463  1.00  0.00     0.031 C 
ATOM     55  C   UNL A   1      43.954  31.050  35.481  1.00  0.00     0.029 A 
ATOM     56  N   UNL A   1      43.942  30.669  33.278  1.00  0.00    -0.354 N 
ATOM     57  C   UNL A   1      43.901  33.970  30.465  1.00  0.00     0.074 A 
ATOM     58  C   UNL A   1      43.958  35.235  31.165  1.00  0.00     0.031 C 
ATOM     59  C   UNL A   1      43.890  29.722  35.302  1.00  0.00     0.029 A 
ATOM     60  C   UNL A   1      43.819  29.434  33.871  1.00  0.00     0.049 A 
ATOM     61  H   UNL A   1      43.990  30.795  32.303  1.00  0.00     0.167 HD
ATOM     62  C   UNL A   1      43.865  33.839  29.114  1.00  0.00     0.034 A 
ATOM     63  C   UNL A   1      43.632  28.213  33.330  1.00  0.00     0.034 A 
ATOM     64  C   UNL A   1      43.814  32.563  28.442  1.00  0.00     0.049 A 
ATOM     65  C   UNL A   1      43.556  28.082  31.831  1.00  0.00     0.074 A 
ATOM     66  C   UNL A   1      43.835  32.304  27.083  1.00  0.00     0.029 A 
ATOM     67  N   UNL A   1      43.712  31.331  29.079  1.00  0.00    -0.354 N 
ATOM     68  N   UNL A   1      43.588  29.027  30.918  1.00  0.00    -0.248 NA
ATOM     69  C   UNL A   1      43.426  26.725  31.284  1.00  0.00     0.031 C 
ATOM     70  C   UNL A   1      43.659  30.929  26.897  1.00  0.00     0.029 A 
ATOM     71  C   UNL A   1      43.630  30.315  28.141  1.00  0.00     0.049 A 
ATOM     72  H   UNL A   1      43.700  31.200  30.054  1.00  0.00     0.167 HD
ATOM     73  C   UNL A   1      43.520  28.375  29.690  1.00  0.00     0.074 A 
ATOM     74  C   UNL A   1      43.437  26.957  29.978  1.00  0.00     0.031 C 
ATOM     75  C   UNL A   1      43.543  28.903  28.439  1.00  0.00     0.034 A 
BRANCH  62  76
ATOM     76  C   UNL A   1      43.832  35.111  28.297  1.00  0.00     0.023 A 
ATOM     77  C   UNL A   1      45.012  35.745  27.868  1.00  0.00     0.031 A 
ATOM     78  C   UNL A   1      42.609  35.739  28.004  1.00  0.00     0.131 A 
ATOM     79  C   UNL A   1      44.950  37.019  27.284  1.00  0.00     0.055 A 
ATOM     80  C   UNL A   1      42.550  36.958  27.324  1.00  0.00     0.041 A 
ATOM     81  F   UNL A   1      41.447  35.197  28.402  1.00  0.00    -0.206 F 
ATOM     82  C   UNL A   1      43.726  37.619  26.983  1.00  0.00     0.022 A 
BRANCH  79  83
ATOM     83  S   UNL A   1      46.489  37.967  27.126  1.00  0.00     0.124 S 
ATOM     84  O   UNL A   1      46.840  37.726  25.726  1.00  0.00    -0.237 OA
ATOM     85  O   UNL A   1      46.061  39.321  27.454  1.00  0.00    -0.237 OA
ATOM     86  O   UNL A   1      47.380  37.338  28.098  1.00  0.00    -0.744 OA
ENDBRANCH  79  83
ENDBRANCH  62  76
BRANCH  63  87
ATOM     87  C   UNL A   1      43.473  27.028  34.221  1.00  0.00     0.023 A 
ATOM     88  C   UNL A   1      44.573  26.242  34.594  1.00  0.00     0.031 A 
ATOM     89  C   UNL A   1      42.207  26.674  34.725  1.00  0.00     0.131 A 
ATOM     90  C   UNL A   1      44.384  25.128  35.429  1.00  0.00     0.055 A 
ATOM     91  C   UNL A   1      42.032  25.596  35.592  1.00  0.00     0.041 A 
ATOM     92  F   UNL A   1      41.122  27.398  34.403  1.00  0.00    -0.206 F 
ATOM     93  C   UNL A   1      43.125  24.811  35.943  1.00  0.00     0.022 A 
BRANCH  90  94
ATOM     94  S   UNL A   1      45.807  24.064  35.798  1.00  0.00     0.124 S 
ATOM     95  O   UNL A   1      46.555  24.888  36.740  1.00  0.00    -0.237 OA
ATOM     96  O   UNL A   1      45.163  22.877  36.351  1.00  0.00    -0.237 OA
ATOM     97  O   UNL A   1      46.438  23.876  34.493  1.00  0.00    -0.744 OA
ENDBRANCH  90  94
ENDBRANCH  63  87
BRANCH  75  98
ATOM     98  C   UNL A   1      43.549  27.944  27.273  1.00  0.00     0.023 A 
ATOM     99  C   UNL A   1      44.715  27.291  26.842  1.00  0.00     0.031 A 
ATOM    100  C   UNL A   1      42.339  27.639  26.621  1.00  0.00     0.131 A 
ATOM    101  C   UNL A   1      44.650  26.382  25.772  1.00  0.00     0.055 A 
ATOM    102  C   UNL A   1      42.271  26.696  25.597  1.00  0.00     0.041 A 
ATOM    103  F   UNL A   1      41.195  28.239  26.991  1.00  0.00    -0.206 F 
ATOM    104  C   UNL A   1      43.432  26.066  25.163  1.00  0.00     0.022 A 
BRANCH 101 105
ATOM    105  S   UNL A   1      46.188  25.652  25.146  1.00  0.00     0.124 S 
ATOM    106  O   UNL A   1      46.675  26.694  24.248  1.00  0.00    -0.237 OA
ATOM    107  O   UNL A   1      46.960  25.450  26.368  1.00  0.00    -0.237 OA
ATOM    108  O   UNL A   1      45.742  24.424  24.487  1.00  0.00    -0.744 OA
ENDBRANCH 101 105
ENDBRANCH  75  98
ENDBRANCH  49  50
ENDBRANCH  41  44
ENDBRANCH  39  40
ENDBRANCH  38  39
ENDBRANCH  37  38
ENDBRANCH  36  37
ENDBRANCH  35  36
ENDBRANCH   1  35
TORSDOF 24
ENDMDL
MODEL 3
REMARK VINA RESULT:     -10.1      5.538      9.715
REMARK SMILES C[C@@H](C(=O)NCCCCCCNC(=O)c1ccc(-c2c3nc(c(-c4cc(S(=O)(=O)[O-])ccc4F)c4ccc([nH]4)c(-c4cc(S(=O)(=O)[O-])ccc4F)c4nc(c(-c5cc(S(=O)(=O)[O-])ccc5F)c5ccc2[nH]5)C=C4)C=C3)cc1)c1ccc(-c2cccc(OC(=O)NCCCc3ccccc3)c2)c(F)c1
REMARK SMILES IDX 6 1 5 2 3 3 4 4 2 6 1 7 78 8 79 9 103 10 80 11 101 12 81 13
REMARK SMILES IDX 102 14 82 15 83 16 100 17 84 18 86 19 85 20 87 21 88 22
REMARK SMILES IDX 89 23 90 24 91 26 92 27 93 28 94 29 95 30 99 31 96 32 98 33
REMARK SMILES IDX 97 34 7 35 8 36 9 37 10 38 11 39 12 40 13 41 14 43 15 44
REMARK SMILES IDX 16 45 77 46 17 47 76 48 18 49 19 50 20 51 70 52 21 53 75 54
REMARK SMILES IDX 69 55 71 56 22 57 74 58 68 59 67 60 23 62 55 63 35 64 54 65
REMARK SMILES IDX 36 66 39 67 53 68 72 69 37 70 38 71 52 73 73 74 40 75 24 76
REMARK SMILES IDX 25 77 33 78 26 79 32 80 34 81 31 82 27 83 28 84 29 85 30 86
REMARK SMILES IDX 56 87 57 88 65 89 58 90 64 91 66 92 63 93 59 94 60 95 61 96
REMARK SMILES IDX 62 97 41 98 42 99 50 100 43 101 49 102 51 103 48 104 44 105
REMARK SMILES IDX 45 106 46 107 47 108
REMARK H PARENT 5 5 90 25 12 42 71 61 39 72
REMARK Flexibility Score: inf
ROOT
ATOM      1  C   UNL A   1      51.711  28.050  22.530  1.00  0.00     0.116 C 
ENDROOT
BRANCH   1   2
ATOM      2  N   UNL A   1      50.297  27.758  22.416  1.00  0.00    -0.356 N 
ATOM      3  C   UNL A   1      49.471  27.145  23.314  1.00  0.00     0.227 C 
ATOM      4  O   UNL A   1      48.398  26.722  22.883  1.00  0.00    -0.274 OA
ATOM      5  H   UNL A   1      49.872  28.042  21.575  1.00  0.00     0.163 HD
BRANCH   3   6
ATOM      6  C   UNL A   1      49.888  27.065  24.797  1.00  0.00     0.105 C 
ATOM      7  C   UNL A   1      51.044  26.070  24.966  1.00  0.00     0.023 C 
BRANCH   6   8
ATOM      8  C   UNL A   1      48.700  26.763  25.716  1.00  0.00    -0.033 A 
ATOM      9  C   UNL A   1      48.416  25.468  26.175  1.00  0.00     0.005 A 
ATOM     10  C   UNL A   1      47.847  27.803  26.126  1.00  0.00     0.044 A 
ATOM     11  C   UNL A   1      47.283  25.206  26.946  1.00  0.00     0.012 A 
ATOM     12  C   UNL A   1      46.707  27.531  26.881  1.00  0.00     0.131 A 
ATOM     13  C   UNL A   1      46.391  26.229  27.286  1.00  0.00     0.018 A 
ATOM     14  F   UNL A   1      45.890  28.551  27.190  1.00  0.00    -0.206 F 
BRANCH  13  15
ATOM     15  C   UNL A   1      45.121  25.894  27.934  1.00  0.00    -0.012 A 
ATOM     16  C   UNL A   1      45.063  25.450  29.264  1.00  0.00     0.009 A 
ATOM     17  C   UNL A   1      43.938  25.919  27.179  1.00  0.00     0.056 A 
ATOM     18  C   UNL A   1      43.857  25.025  29.824  1.00  0.00     0.004 A 
ATOM     19  C   UNL A   1      42.744  25.475  27.732  1.00  0.00     0.133 A 
ATOM     20  C   UNL A   1      42.695  25.031  29.053  1.00  0.00     0.047 A 
BRANCH  19  21
ATOM     21  O   UNL A   1      41.515  25.455  27.037  1.00  0.00    -0.410 OA
BRANCH  21  22
ATOM     22  C   UNL A   1      40.251  25.489  27.620  1.00  0.00     0.412 C 
ATOM     23  O   UNL A   1      39.596  24.536  28.017  1.00  0.00    -0.224 OA
ATOM     24  N   UNL A   1      39.765  26.761  27.750  1.00  0.00    -0.321 N 
ATOM     25  H   UNL A   1      38.830  26.861  28.039  1.00  0.00     0.167 HD
BRANCH  24  26
ATOM     26  C   UNL A   1      40.513  27.967  27.496  1.00  0.00     0.120 C 
BRANCH  26  27
ATOM     27  C   UNL A   1      39.788  29.252  27.889  1.00  0.00     0.026 C 
BRANCH  27  28
ATOM     28  C   UNL A   1      38.258  29.284  27.790  1.00  0.00     0.037 C 
BRANCH  28  29
ATOM     29  C   UNL A   1      37.459  30.339  28.521  1.00  0.00    -0.048 A 
ATOM     30  C   UNL A   1      36.071  30.325  28.673  1.00  0.00     0.004 A 
ATOM     31  C   UNL A   1      38.162  31.449  29.025  1.00  0.00     0.004 A 
ATOM     32  C   UNL A   1      35.403  31.385  29.295  1.00  0.00     0.000 A 
ATOM     33  C   UNL A   1      37.500  32.503  29.658  1.00  0.00     0.000 A 
ATOM     34  C   UNL A   1      36.116  32.473  29.787  1.00  0.00     0.000 A 
ENDBRANCH  28  29
ENDBRANCH  27  28
ENDBRANCH  26  27
ENDBRANCH  24  26
ENDBRANCH  21  22
ENDBRANCH  19  21
ENDBRANCH  13  15
ENDBRANCH   6   8
ENDBRANCH   3   6
ENDBRANCH   1   2
BRANCH   1  35
ATOM     35  C   UNL A   1      51.910  29.548  22.774  1.00  0.00     0.021 C 
BRANCH  35  36
ATOM     36  C   UNL A   1      53.177  29.878  23.573  1.00  0.00     0.002 C 
BRANCH  36  37
ATOM     37  C   UNL A   1      53.606  28.791  24.562  1.00  0.00     0.002 C 
BRANCH  37  38
ATOM     38  C   UNL A   1      53.749  29.273  26.006  1.00  0.00     0.021 C 
BRANCH  38  39
ATOM     39  C   UNL A   1      52.808  28.581  26.983  1.00  0.00     0.116 C 
BRANCH  39  40
ATOM     40  N   UNL A   1      53.464  27.478  27.669  1.00  0.00    -0.352 N 
ATOM     41  C   UNL A   1      53.105  26.877  28.852  1.00  0.00     0.251 C 
ATOM     42  H   UNL A   1      54.267  27.117  27.229  1.00  0.00     0.163 HD
ATOM     43  O   UNL A   1      53.880  26.120  29.424  1.00  0.00    -0.269 OA
BRANCH  41  44
ATOM     44  C   UNL A   1      51.780  27.185  29.426  1.00  0.00     0.039 A 
ATOM     45  C   UNL A   1      51.663  28.192  30.387  1.00  0.00     0.014 A 
ATOM     46  C   UNL A   1      50.650  26.504  28.968  1.00  0.00     0.014 A 
ATOM     47  C   UNL A   1      50.396  28.561  30.843  1.00  0.00     0.010 A 
ATOM     48  C   UNL A   1      49.388  26.927  29.362  1.00  0.00     0.010 A 
ATOM     49  C   UNL A   1      49.248  27.956  30.308  1.00  0.00    -0.014 A 
BRANCH  49  50
ATOM     50  C   UNL A   1      47.879  28.347  30.732  1.00  0.00     0.031 A 
ATOM     51  C   UNL A   1      47.141  27.485  31.717  1.00  0.00     0.074 A 
ATOM     52  C   UNL A   1      47.263  29.397  30.154  1.00  0.00     0.049 A 
ATOM     53  N   UNL A   1      45.885  27.521  32.078  1.00  0.00    -0.248 NA
ATOM     54  C   UNL A   1      47.920  26.405  32.342  1.00  0.00     0.031 C 
ATOM     55  C   UNL A   1      47.865  30.292  29.165  1.00  0.00     0.029 A 
ATOM     56  N   UNL A   1      45.981  29.869  30.293  1.00  0.00    -0.354 N 
ATOM     57  C   UNL A   1      45.715  26.451  32.950  1.00  0.00     0.074 A 
ATOM     58  C   UNL A   1      46.981  25.751  33.004  1.00  0.00     0.031 C 
ATOM     59  C   UNL A   1      46.956  31.202  28.786  1.00  0.00     0.029 A 
ATOM     60  C   UNL A   1      45.689  30.922  29.458  1.00  0.00     0.049 A 
ATOM     61  H   UNL A   1      45.332  29.490  30.929  1.00  0.00     0.167 HD
ATOM     62  C   UNL A   1      44.609  26.098  33.653  1.00  0.00     0.034 A 
ATOM     63  C   UNL A   1      44.526  31.566  29.229  1.00  0.00     0.034 A 
ATOM     64  C   UNL A   1      43.361  26.819  33.583  1.00  0.00     0.049 A 
ATOM     65  C   UNL A   1      43.295  31.143  29.987  1.00  0.00     0.074 A 
ATOM     66  C   UNL A   1      42.196  26.593  34.292  1.00  0.00     0.029 A 
ATOM     67  N   UNL A   1      43.110  27.896  32.740  1.00  0.00    -0.354 N 
ATOM     68  N   UNL A   1      43.152  30.156  30.842  1.00  0.00    -0.248 NA
ATOM     69  C   UNL A   1      42.069  31.921  29.759  1.00  0.00     0.031 C 
ATOM     70  C   UNL A   1      41.217  27.474  33.818  1.00  0.00     0.029 A 
ATOM     71  C   UNL A   1      41.798  28.318  32.883  1.00  0.00     0.049 A 
ATOM     72  H   UNL A   1      43.769  28.300  32.130  1.00  0.00     0.167 HD
ATOM     73  C   UNL A   1      41.832  30.218  31.281  1.00  0.00     0.074 A 
ATOM     74  C   UNL A   1      41.219  31.334  30.591  1.00  0.00     0.031 C 
ATOM     75  C   UNL A   1      41.195  29.432  32.187  1.00  0.00     0.034 A 
BRANCH  62  76
ATOM     76  C   UNL A   1      44.703  24.856  34.511  1.00  0.00     0.023 A 
ATOM     77  C   UNL A   1      45.122  24.914  35.853  1.00  0.00     0.031 A 
ATOM     78  C   UNL A   1      44.441  23.589  33.962  1.00  0.00     0.131 A 
ATOM     79  C   UNL A   1      45.383  23.730  36.556  1.00  0.00     0.055 A 
ATOM     80  C   UNL A   1      44.599  22.417  34.705  1.00  0.00     0.041 A 
ATOM     81  F   UNL A   1      44.057  23.462  32.682  1.00  0.00    -0.206 F 
ATOM     82  C   UNL A   1      45.098  22.480  36.002  1.00  0.00     0.022 A 
BRANCH  79  83
ATOM     83  S   UNL A   1      46.301  23.843  38.117  1.00  0.00     0.124 S 
ATOM     84  O   UNL A   1      45.560  22.908  38.963  1.00  0.00    -0.237 OA
ATOM     85  O   UNL A   1      47.642  23.426  37.726  1.00  0.00    -0.237 OA
ATOM     86  O   UNL A   1      46.166  25.249  38.493  1.00  0.00    -0.744 OA
ENDBRANCH  79  83
ENDBRANCH  62  76
BRANCH  63  87
ATOM     87  C   UNL A   1      44.475  32.656  28.212  1.00  0.00     0.023 A 
ATOM     88  C   UNL A   1      44.740  33.990  28.557  1.00  0.00     0.031 A 
ATOM     89  C   UNL A   1      44.169  32.369  26.868  1.00  0.00     0.131 A 
ATOM     90  C   UNL A   1      44.675  34.991  27.575  1.00  0.00     0.055 A 
ATOM     91  C   UNL A   1      44.153  33.361  25.887  1.00  0.00     0.041 A 
ATOM     92  F   UNL A   1      43.913  31.108  26.485  1.00  0.00    -0.206 F 
ATOM     93  C   UNL A   1      44.400  34.683  26.240  1.00  0.00     0.022 A 
BRANCH  90  94
ATOM     94  S   UNL A   1      44.908  36.719  28.075  1.00  0.00     0.124 S 
ATOM     95  O   UNL A   1      46.361  36.838  28.059  1.00  0.00    -0.237 OA
ATOM     96  O   UNL A   1      44.193  37.438  27.026  1.00  0.00    -0.237 OA
ATOM     97  O   UNL A   1      44.291  36.776  29.398  1.00  0.00    -0.744 OA
ENDBRANCH  90  94
ENDBRANCH  63  87
BRANCH  75  98
ATOM     98  C   UNL A   1      39.772  29.788  32.546  1.00  0.00     0.023 A 
ATOM     99  C   UNL A   1      39.460  30.775  33.496  1.00  0.00     0.031 A 
ATOM    100  C   UNL A   1      38.709  29.158  31.871  1.00  0.00     0.131 A 
ATOM    101  C   UNL A   1      38.116  31.087  33.762  1.00  0.00     0.055 A 
ATOM    102  C   UNL A   1      37.380  29.510  32.099  1.00  0.00     0.041 A 
ATOM    103  F   UNL A   1      38.952  28.205  30.957  1.00  0.00    -0.206 F 
ATOM    104  C   UNL A   1      37.077  30.475  33.054  1.00  0.00     0.022 A 
BRANCH 101 105
ATOM    105  S   UNL A   1      37.734  32.267  35.085  1.00  0.00     0.124 S 
ATOM    106  O   UNL A   1      37.678  31.400  36.257  1.00  0.00    -0.237 OA
ATOM    107  O   UNL A   1      38.866  33.185  35.022  1.00  0.00    -0.237 OA
ATOM    108  O   UNL A   1      36.451  32.838  34.675  1.00  0.00    -0.744 OA
ENDBRANCH 101 105
ENDBRANCH  75  98
ENDBRANCH  49  50
ENDBRANCH  41  44
ENDBRANCH  39  40
ENDBRANCH  38  39
ENDBRANCH  37  38
ENDBRANCH  36  37
ENDBRANCH  35  36
ENDBRANCH   1  35
TORSDOF 24
ENDMDL
