MODEL 1
REMARK VINA RESULT:     -14.0      0.000      0.000
REMARK SMILES Cc1c(C(=O)NCCCCCCNC(=O)c2ccc(-c3c4nc(c(-c5cc(S(=O)(=O)[O-])ccc5F)c5ccc([nH]5)c(-c5cc(S(=O)(=O)[O-])ccc5F)c5nc(c(-c6cc(S(=O)(=O)[O-])ccc6F)c6ccc3[nH]6)C=C5)C=C4)cc2)cccc1-n1c(C)cc(/C=C2/C(=O)NC(=S)N=C2O)c1C
REMARK SMILES IDX 9 1 8 2 7 3 6 4 4 5 5 6 3 8 1 9 2 10 82 11 79 12 81 13 80 14
REMARK SMILES IDX 83 15 84 16 98 17 85 18 86 19 87 20 99 21 88 22 89 23 90 24
REMARK SMILES IDX 96 25 91 26 92 27 95 28 93 29 94 31 97 32 10 34 11 35 12 36
REMARK SMILES IDX 13 37 14 38 15 40 16 41 17 42 78 43 18 44 77 45 19 46 20 47
REMARK SMILES IDX 21 48 71 49 22 50 76 51 70 52 72 53 23 54 75 55 69 56 68 57
REMARK SMILES IDX 24 59 56 60 36 61 55 62 37 63 40 64 54 65 73 66 38 67 39 68
REMARK SMILES IDX 53 70 74 71 41 72 25 73 26 74 34 75 27 76 33 77 35 78 32 79
REMARK SMILES IDX 28 80 29 81 30 82 31 83 57 84 58 85 66 86 59 87 65 88 67 89
REMARK SMILES IDX 64 90 60 91 61 92 62 93 63 94 42 95 43 96 51 97 44 98 50 99
REMARK SMILES IDX 52 100 49 101 45 102 46 103 47 104 48 105
REMARK H PARENT 6 7 92 30 97 33 13 39 72 58 40 69
REMARK Flexibility Score: inf
ROOT
ATOM      1  C   UNL A   1      31.798  29.657  26.905  1.00  0.00     0.002 C 
ENDROOT
BRANCH   1   2
ATOM      2  C   UNL A   1      31.352  28.782  25.727  1.00  0.00     0.021 C 
BRANCH   2   3
ATOM      3  C   UNL A   1      30.967  29.545  24.447  1.00  0.00     0.116 C 
BRANCH   3   4
ATOM      4  N   UNL A   1      31.984  29.370  23.425  1.00  0.00    -0.352 N 
ATOM      5  C   UNL A   1      32.938  28.444  23.118  1.00  0.00     0.251 C 
ATOM      6  O   UNL A   1      33.556  28.654  22.067  1.00  0.00    -0.269 OA
ATOM      7  H   UNL A   1      31.986  30.118  22.785  1.00  0.00     0.163 HD
BRANCH   5   8
ATOM      8  C   UNL A   1      33.276  27.189  23.870  1.00  0.00     0.044 A 
ATOM      9  C   UNL A   1      31.821  25.515  22.584  1.00  0.00     0.047 C 
ATOM     10  C   UNL A   1      32.764  25.886  23.689  1.00  0.00    -0.014 A 
ATOM     11  C   UNL A   1      33.142  24.892  24.635  1.00  0.00     0.049 A 
ATOM     12  C   UNL A   1      34.081  27.441  25.013  1.00  0.00     0.014 A 
ATOM     13  C   UNL A   1      33.932  25.168  25.757  1.00  0.00     0.027 A 
ATOM     14  C   UNL A   1      34.396  26.455  25.949  1.00  0.00     0.003 A 
BRANCH  11  15
ATOM     15  N   UNL A   1      32.634  23.574  24.547  1.00  0.00    -0.318 N 
ATOM     16  C   UNL A   1      31.491  23.119  25.175  1.00  0.00     0.020 A 
ATOM     17  C   UNL A   1      33.226  22.532  23.839  1.00  0.00     0.027 A 
ATOM     18  C   UNL A   1      30.700  23.940  26.131  1.00  0.00     0.065 C 
ATOM     19  C   UNL A   1      31.298  21.813  24.776  1.00  0.00     0.031 A 
ATOM     20  C   UNL A   1      32.375  21.441  23.928  1.00  0.00    -0.003 A 
ATOM     21  C   UNL A   1      34.568  22.703  23.202  1.00  0.00     0.065 C 
BRANCH  20  22
ATOM     22  C   UNL A   1      32.569  20.107  23.453  1.00  0.00     0.029 C 
ATOM     23  C   UNL A   1      32.769  18.939  24.091  1.00  0.00     0.102 C 
ATOM     24  C   UNL A   1      32.754  17.723  23.237  1.00  0.00     0.262 C 
ATOM     25  C   UNL A   1      32.928  18.650  25.515  1.00  0.00     0.226 C 
ATOM     26  O   UNL A   1      32.909  17.731  22.022  1.00  0.00    -0.269 OA
ATOM     27  N   UNL A   1      32.547  16.562  23.934  1.00  0.00    -0.297 N 
ATOM     28  N   UNL A   1      32.815  17.508  26.085  1.00  0.00    -0.184 NA
ATOM     29  C   UNL A   1      32.527  16.422  25.300  1.00  0.00     0.203 C 
ATOM     30  H   UNL A   1      32.398  15.747  23.402  1.00  0.00     0.172 HD
ATOM     31  S   UNL A   1      32.236  14.895  25.924  1.00  0.00    -0.038 S 
BRANCH  25  32
ATOM     32  O   UNL A   1      33.306  19.666  26.293  1.00  0.00    -0.493 OA
ATOM     33  H   UNL A   1      33.948  20.277  25.989  1.00  0.00     0.295 HD
ENDBRANCH  25  32
ENDBRANCH  20  22
ENDBRANCH  11  15
ENDBRANCH   5   8
ENDBRANCH   3   4
ENDBRANCH   2   3
ENDBRANCH   1   2
BRANCH   1  34
ATOM     34  C   UNL A   1      33.014  30.558  26.652  1.00  0.00     0.002 C 
BRANCH  34  35
ATOM     35  C   UNL A   1      34.173  30.386  27.633  1.00  0.00     0.021 C 
BRANCH  35  36
ATOM     36  C   UNL A   1      35.166  31.542  27.613  1.00  0.00     0.116 C 
BRANCH  36  37
ATOM     37  N   UNL A   1      35.582  31.966  28.947  1.00  0.00    -0.352 N 
ATOM     38  C   UNL A   1      36.383  31.303  29.863  1.00  0.00     0.251 C 
ATOM     39  H   UNL A   1      35.246  32.845  29.236  1.00  0.00     0.163 HD
ATOM     40  O   UNL A   1      36.581  31.737  30.983  1.00  0.00    -0.269 OA
BRANCH  38  41
ATOM     41  C   UNL A   1      37.120  30.108  29.393  1.00  0.00     0.039 A 
ATOM     42  C   UNL A   1      37.246  29.052  30.303  1.00  0.00     0.014 A 
ATOM     43  C   UNL A   1      37.885  30.150  28.231  1.00  0.00     0.014 A 
ATOM     44  C   UNL A   1      38.310  28.168  30.170  1.00  0.00     0.010 A 
ATOM     45  C   UNL A   1      38.991  29.326  28.145  1.00  0.00     0.010 A 
ATOM     46  C   UNL A   1      39.241  28.388  29.156  1.00  0.00    -0.014 A 
BRANCH  46  47
ATOM     47  C   UNL A   1      40.577  27.803  29.181  1.00  0.00     0.031 A 
ATOM     48  C   UNL A   1      40.806  26.415  28.743  1.00  0.00     0.074 A 
ATOM     49  C   UNL A   1      41.623  28.560  29.580  1.00  0.00     0.049 A 
ATOM     50  N   UNL A   1      41.809  25.688  29.106  1.00  0.00    -0.248 NA
ATOM     51  C   UNL A   1      39.861  25.705  27.893  1.00  0.00     0.031 C 
ATOM     52  C   UNL A   1      43.043  28.260  29.441  1.00  0.00     0.029 A 
ATOM     53  N   UNL A   1      41.581  29.658  30.435  1.00  0.00    -0.354 N 
ATOM     54  C   UNL A   1      41.813  24.556  28.322  1.00  0.00     0.074 A 
ATOM     55  C   UNL A   1      40.531  24.574  27.658  1.00  0.00     0.031 C 
ATOM     56  C   UNL A   1      43.726  28.966  30.356  1.00  0.00     0.029 A 
ATOM     57  C   UNL A   1      42.754  29.632  31.206  1.00  0.00     0.049 A 
ATOM     58  H   UNL A   1      40.862  30.329  30.489  1.00  0.00     0.167 HD
ATOM     59  C   UNL A   1      42.962  23.825  28.216  1.00  0.00     0.034 A 
ATOM     60  C   UNL A   1      42.697  29.525  32.565  1.00  0.00     0.034 A 
ATOM     61  C   UNL A   1      43.990  24.307  29.146  1.00  0.00     0.049 A 
ATOM     62  C   UNL A   1      43.371  28.282  33.104  1.00  0.00     0.074 A 
ATOM     63  C   UNL A   1      45.128  25.081  28.982  1.00  0.00     0.029 A 
ATOM     64  N   UNL A   1      43.770  24.227  30.519  1.00  0.00    -0.354 N 
ATOM     65  N   UNL A   1      43.697  27.247  32.377  1.00  0.00    -0.248 NA
ATOM     66  C   UNL A   1      43.719  28.104  34.510  1.00  0.00     0.031 C 
ATOM     67  C   UNL A   1      45.549  25.524  30.264  1.00  0.00     0.029 A 
ATOM     68  C   UNL A   1      44.690  24.992  31.211  1.00  0.00     0.049 A 
ATOM     69  H   UNL A   1      43.056  23.697  30.940  1.00  0.00     0.167 HD
ATOM     70  C   UNL A   1      44.261  26.280  33.173  1.00  0.00     0.074 A 
ATOM     71  C   UNL A   1      44.276  26.880  34.496  1.00  0.00     0.031 C 
ATOM     72  C   UNL A   1      44.654  25.069  32.668  1.00  0.00     0.034 A 
BRANCH  59  73
ATOM     73  C   UNL A   1      43.267  22.894  27.052  1.00  0.00     0.023 A 
ATOM     74  C   UNL A   1      42.758  21.576  27.073  1.00  0.00     0.031 A 
ATOM     75  C   UNL A   1      44.096  23.190  25.952  1.00  0.00     0.131 A 
ATOM     76  C   UNL A   1      43.163  20.612  26.128  1.00  0.00     0.055 A 
ATOM     77  C   UNL A   1      44.546  22.219  25.046  1.00  0.00     0.041 A 
ATOM     78  F   UNL A   1      44.463  24.441  25.657  1.00  0.00    -0.206 F 
ATOM     79  C   UNL A   1      44.092  20.914  25.140  1.00  0.00     0.022 A 
BRANCH  76  80
ATOM     80  S   UNL A   1      42.461  18.940  26.210  1.00  0.00     0.124 S 
ATOM     81  O   UNL A   1      41.090  19.158  25.760  1.00  0.00    -0.237 OA
ATOM     82  O   UNL A   1      43.330  18.196  25.305  1.00  0.00    -0.237 OA
ATOM     83  O   UNL A   1      42.598  18.585  27.622  1.00  0.00    -0.744 OA
ENDBRANCH  76  80
ENDBRANCH  59  73
BRANCH  60  84
ATOM     84  C   UNL A   1      41.508  30.201  33.159  1.00  0.00     0.023 A 
ATOM     85  C   UNL A   1      41.549  31.611  33.252  1.00  0.00     0.031 A 
ATOM     86  C   UNL A   1      40.260  29.574  33.251  1.00  0.00     0.131 A 
ATOM     87  C   UNL A   1      40.360  32.354  33.268  1.00  0.00     0.055 A 
ATOM     88  C   UNL A   1      39.076  30.320  33.332  1.00  0.00     0.041 A 
ATOM     89  F   UNL A   1      40.153  28.242  33.137  1.00  0.00    -0.206 F 
ATOM     90  C   UNL A   1      39.120  31.714  33.294  1.00  0.00     0.022 A 
BRANCH  87  91
ATOM     91  S   UNL A   1      40.434  34.148  32.981  1.00  0.00     0.124 S 
ATOM     92  O   UNL A   1      41.196  34.229  31.740  1.00  0.00    -0.237 OA
ATOM     93  O   UNL A   1      39.026  34.528  32.886  1.00  0.00    -0.237 OA
ATOM     94  O   UNL A   1      41.112  34.648  34.175  1.00  0.00    -0.744 OA
ENDBRANCH  87  91
ENDBRANCH  60  84
BRANCH  72  95
ATOM     95  C   UNL A   1      45.120  23.871  33.477  1.00  0.00     0.023 A 
ATOM     96  C   UNL A   1      46.444  23.680  33.900  1.00  0.00     0.031 A 
ATOM     97  C   UNL A   1      44.195  22.891  33.922  1.00  0.00     0.131 A 
ATOM     98  C   UNL A   1      46.821  22.540  34.637  1.00  0.00     0.055 A 
ATOM     99  C   UNL A   1      44.556  21.802  34.722  1.00  0.00     0.041 A 
ATOM    100  F   UNL A   1      42.893  22.952  33.606  1.00  0.00    -0.206 F 
ATOM    101  C   UNL A   1      45.882  21.610  35.071  1.00  0.00     0.022 A 
BRANCH  98 102
ATOM    102  S   UNL A   1      48.584  22.271  34.965  1.00  0.00     0.124 S 
ATOM    103  O   UNL A   1      48.578  21.949  36.389  1.00  0.00    -0.237 OA
ATOM    104  O   UNL A   1      48.905  21.167  34.067  1.00  0.00    -0.237 OA
ATOM    105  O   UNL A   1      49.199  23.552  34.622  1.00  0.00    -0.744 OA
ENDBRANCH  98 102
ENDBRANCH  72  95
ENDBRANCH  46  47
ENDBRANCH  38  41
ENDBRANCH  36  37
ENDBRANCH  35  36
ENDBRANCH  34  35
ENDBRANCH   1  34
TORSDOF 19
ENDMDL
MODEL 2
REMARK VINA RESULT:     -13.6      2.438      3.329
REMARK SMILES Cc1c(C(=O)NCCCCCCNC(=O)c2ccc(-c3c4nc(c(-c5cc(S(=O)(=O)[O-])ccc5F)c5ccc([nH]5)c(-c5cc(S(=O)(=O)[O-])ccc5F)c5nc(c(-c6cc(S(=O)(=O)[O-])ccc6F)c6ccc3[nH]6)C=C5)C=C4)cc2)cccc1-n1c(C)cc(/C=C2/C(=O)NC(=S)N=C2O)c1C
REMARK SMILES IDX 9 1 8 2 7 3 6 4 4 5 5 6 3 8 1 9 2 10 82 11 79 12 81 13 80 14
REMARK SMILES IDX 83 15 84 16 98 17 85 18 86 19 87 20 99 21 88 22 89 23 90 24
REMARK SMILES IDX 96 25 91 26 92 27 95 28 93 29 94 31 97 32 10 34 11 35 12 36
REMARK SMILES IDX 13 37 14 38 15 40 16 41 17 42 78 43 18 44 77 45 19 46 20 47
REMARK SMILES IDX 21 48 71 49 22 50 76 51 70 52 72 53 23 54 75 55 69 56 68 57
REMARK SMILES IDX 24 59 56 60 36 61 55 62 37 63 40 64 54 65 73 66 38 67 39 68
REMARK SMILES IDX 53 70 74 71 41 72 25 73 26 74 34 75 27 76 33 77 35 78 32 79
REMARK SMILES IDX 28 80 29 81 30 82 31 83 57 84 58 85 66 86 59 87 65 88 67 89
REMARK SMILES IDX 64 90 60 91 61 92 62 93 63 94 42 95 43 96 51 97 44 98 50 99
REMARK SMILES IDX 52 100 49 101 45 102 46 103 47 104 48 105
REMARK H PARENT 6 7 92 30 97 33 13 39 72 58 40 69
REMARK Flexibility Score: inf
ROOT
ATOM      1  C   UNL A   1      31.382  28.255  26.962  1.00  0.00     0.002 C 
ENDROOT
BRANCH   1   2
ATOM      2  C   UNL A   1      31.179  27.153  25.916  1.00  0.00     0.021 C 
BRANCH   2   3
ATOM      3  C   UNL A   1      30.724  27.637  24.528  1.00  0.00     0.116 C 
BRANCH   3   4
ATOM      4  N   UNL A   1      31.872  27.939  23.692  1.00  0.00    -0.352 N 
ATOM      5  C   UNL A   1      32.825  27.233  23.018  1.00  0.00     0.251 C 
ATOM      6  O   UNL A   1      33.598  27.915  22.333  1.00  0.00    -0.269 OA
ATOM      7  H   UNL A   1      31.996  28.909  23.585  1.00  0.00     0.163 HD
BRANCH   5   8
ATOM      8  C   UNL A   1      33.003  25.743  22.968  1.00  0.00     0.044 A 
ATOM      9  C   UNL A   1      34.451  25.417  25.059  1.00  0.00     0.047 C 
ATOM     10  C   UNL A   1      33.755  24.915  23.829  1.00  0.00    -0.014 A 
ATOM     11  C   UNL A   1      33.882  23.542  23.479  1.00  0.00     0.049 A 
ATOM     12  C   UNL A   1      32.475  25.172  21.780  1.00  0.00     0.014 A 
ATOM     13  C   UNL A   1      33.357  23.004  22.298  1.00  0.00     0.027 A 
ATOM     14  C   UNL A   1      32.656  23.830  21.439  1.00  0.00     0.003 A 
BRANCH  11  15
ATOM     15  N   UNL A   1      34.657  22.658  24.267  1.00  0.00    -0.318 N 
ATOM     16  C   UNL A   1      34.221  22.030  25.418  1.00  0.00     0.020 A 
ATOM     17  C   UNL A   1      35.982  22.314  24.018  1.00  0.00     0.027 A 
ATOM     18  C   UNL A   1      32.900  22.298  26.047  1.00  0.00     0.065 C 
ATOM     19  C   UNL A   1      35.239  21.199  25.840  1.00  0.00     0.031 A 
ATOM     20  C   UNL A   1      36.341  21.362  24.960  1.00  0.00    -0.003 A 
ATOM     21  C   UNL A   1      36.757  22.982  22.927  1.00  0.00     0.065 C 
BRANCH  20  22
ATOM     22  C   UNL A   1      37.617  20.759  25.189  1.00  0.00     0.029 C 
ATOM     23  C   UNL A   1      38.743  21.216  25.768  1.00  0.00     0.102 C 
ATOM     24  C   UNL A   1      39.820  20.212  25.974  1.00  0.00     0.262 C 
ATOM     25  C   UNL A   1      39.065  22.536  26.306  1.00  0.00     0.226 C 
ATOM     26  O   UNL A   1      39.890  19.144  25.379  1.00  0.00    -0.269 OA
ATOM     27  N   UNL A   1      40.751  20.586  26.906  1.00  0.00    -0.297 N 
ATOM     28  N   UNL A   1      40.025  22.828  27.104  1.00  0.00    -0.184 NA
ATOM     29  C   UNL A   1      40.860  21.817  27.504  1.00  0.00     0.203 C 
ATOM     30  H   UNL A   1      41.409  19.904  27.173  1.00  0.00     0.172 HD
ATOM     31  S   UNL A   1      42.077  22.032  28.634  1.00  0.00    -0.038 S 
BRANCH  25  32
ATOM     32  O   UNL A   1      38.334  23.559  25.860  1.00  0.00    -0.493 OA
ATOM     33  H   UNL A   1      38.007  23.554  24.982  1.00  0.00     0.295 HD
ENDBRANCH  25  32
ENDBRANCH  20  22
ENDBRANCH  11  15
ENDBRANCH   5   8
ENDBRANCH   3   4
ENDBRANCH   2   3
ENDBRANCH   1   2
BRANCH   1  34
ATOM     34  C   UNL A   1      32.836  28.650  27.251  1.00  0.00     0.002 C 
BRANCH  34  35
ATOM     35  C   UNL A   1      33.090  30.149  27.410  1.00  0.00     0.021 C 
BRANCH  35  36
ATOM     36  C   UNL A   1      34.567  30.526  27.368  1.00  0.00     0.116 C 
BRANCH  36  37
ATOM     37  N   UNL A   1      34.999  31.286  28.536  1.00  0.00    -0.352 N 
ATOM     38  C   UNL A   1      36.073  31.053  29.379  1.00  0.00     0.251 C 
ATOM     39  H   UNL A   1      34.452  32.075  28.755  1.00  0.00     0.163 HD
ATOM     40  O   UNL A   1      36.271  31.723  30.377  1.00  0.00    -0.269 OA
BRANCH  38  41
ATOM     41  C   UNL A   1      37.072  30.046  28.957  1.00  0.00     0.039 A 
ATOM     42  C   UNL A   1      37.217  28.923  29.781  1.00  0.00     0.014 A 
ATOM     43  C   UNL A   1      38.010  30.336  27.970  1.00  0.00     0.014 A 
ATOM     44  C   UNL A   1      38.421  28.231  29.778  1.00  0.00     0.010 A 
ATOM     45  C   UNL A   1      39.237  29.704  28.026  1.00  0.00     0.010 A 
ATOM     46  C   UNL A   1      39.463  28.704  28.981  1.00  0.00    -0.014 A 
BRANCH  46  47
ATOM     47  C   UNL A   1      40.854  28.329  29.210  1.00  0.00     0.031 A 
ATOM     48  C   UNL A   1      41.435  27.138  28.564  1.00  0.00     0.074 A 
ATOM     49  C   UNL A   1      41.628  29.106  29.999  1.00  0.00     0.049 A 
ATOM     50  N   UNL A   1      42.465  26.496  29.002  1.00  0.00    -0.248 NA
ATOM     51  C   UNL A   1      40.841  26.531  27.382  1.00  0.00     0.031 C 
ATOM     52  C   UNL A   1      43.077  29.056  30.151  1.00  0.00     0.029 A 
ATOM     53  N   UNL A   1      41.199  29.943  31.026  1.00  0.00    -0.354 N 
ATOM     54  C   UNL A   1      42.850  25.604  28.027  1.00  0.00     0.074 A 
ATOM     55  C   UNL A   1      41.752  25.600  27.088  1.00  0.00     0.031 C 
ATOM     56  C   UNL A   1      43.408  29.606  31.330  1.00  0.00     0.029 A 
ATOM     57  C   UNL A   1      42.172  29.897  32.036  1.00  0.00     0.049 A 
ATOM     58  H   UNL A   1      40.367  30.470  31.040  1.00  0.00     0.167 HD
ATOM     59  C   UNL A   1      44.117  25.093  28.055  1.00  0.00     0.034 A 
ATOM     60  C   UNL A   1      41.862  29.452  33.288  1.00  0.00     0.034 A 
ATOM     61  C   UNL A   1      44.819  25.474  29.285  1.00  0.00     0.049 A 
ATOM     62  C   UNL A   1      42.641  28.224  33.706  1.00  0.00     0.074 A 
ATOM     63  C   UNL A   1      45.793  26.420  29.567  1.00  0.00     0.029 A 
ATOM     64  N   UNL A   1      44.344  25.029  30.517  1.00  0.00    -0.354 N 
ATOM     65  N   UNL A   1      43.305  27.458  32.883  1.00  0.00    -0.248 NA
ATOM     66  C   UNL A   1      42.723  27.758  35.087  1.00  0.00     0.031 C 
ATOM     67  C   UNL A   1      45.849  26.590  30.976  1.00  0.00     0.029 A 
ATOM     68  C   UNL A   1      44.936  25.725  31.555  1.00  0.00     0.049 A 
ATOM     69  H   UNL A   1      43.677  24.315  30.633  1.00  0.00     0.167 HD
ATOM     70  C   UNL A   1      43.872  26.416  33.575  1.00  0.00     0.074 A 
ATOM     71  C   UNL A   1      43.500  26.669  34.956  1.00  0.00     0.031 C 
ATOM     72  C   UNL A   1      44.589  25.435  32.942  1.00  0.00     0.034 A 
BRANCH  59  73
ATOM     73  C   UNL A   1      44.829  24.531  26.834  1.00  0.00     0.023 A 
ATOM     74  C   UNL A   1      44.551  23.207  26.425  1.00  0.00     0.031 A 
ATOM     75  C   UNL A   1      45.827  25.183  26.085  1.00  0.00     0.131 A 
ATOM     76  C   UNL A   1      45.314  22.565  25.428  1.00  0.00     0.055 A 
ATOM     77  C   UNL A   1      46.626  24.530  25.135  1.00  0.00     0.041 A 
ATOM     78  F   UNL A   1      46.042  26.499  26.185  1.00  0.00    -0.206 F 
ATOM     79  C   UNL A   1      46.382  23.206  24.812  1.00  0.00     0.022 A 
BRANCH  76  80
ATOM     80  S   UNL A   1      44.895  20.866  24.947  1.00  0.00     0.124 S 
ATOM     81  O   UNL A   1      44.541  21.022  23.540  1.00  0.00    -0.237 OA
ATOM     82  O   UNL A   1      46.136  20.152  25.227  1.00  0.00    -0.237 OA
ATOM     83  O   UNL A   1      43.781  20.530  25.830  1.00  0.00    -0.744 OA
ENDBRANCH  76  80
ENDBRANCH  59  73
BRANCH  60  84
ATOM     84  C   UNL A   1      40.467  29.784  33.701  1.00  0.00     0.023 A 
ATOM     85  C   UNL A   1      40.230  31.098  34.164  1.00  0.00     0.031 A 
ATOM     86  C   UNL A   1      39.365  29.023  33.294  1.00  0.00     0.131 A 
ATOM     87  C   UNL A   1      38.952  31.665  34.058  1.00  0.00     0.055 A 
ATOM     88  C   UNL A   1      38.077  29.575  33.249  1.00  0.00     0.041 A 
ATOM     89  F   UNL A   1      39.531  27.782  32.813  1.00  0.00    -0.206 F 
ATOM     90  C   UNL A   1      37.875  30.913  33.589  1.00  0.00     0.022 A 
BRANCH  87  91
ATOM     91  S   UNL A   1      38.759  33.460  34.278  1.00  0.00     0.124 S 
ATOM     92  O   UNL A   1      39.332  33.983  33.043  1.00  0.00    -0.237 OA
ATOM     93  O   UNL A   1      37.314  33.624  34.426  1.00  0.00    -0.237 OA
ATOM     94  O   UNL A   1      39.523  33.730  35.494  1.00  0.00    -0.744 OA
ENDBRANCH  87  91
ENDBRANCH  60  84
BRANCH  72  95
ATOM     95  C   UNL A   1      45.105  24.155  33.576  1.00  0.00     0.023 A 
ATOM     96  C   UNL A   1      46.395  24.010  34.109  1.00  0.00     0.031 A 
ATOM     97  C   UNL A   1      44.257  23.028  33.729  1.00  0.00     0.131 A 
ATOM     98  C   UNL A   1      46.824  22.792  34.671  1.00  0.00     0.055 A 
ATOM     99  C   UNL A   1      44.659  21.846  34.361  1.00  0.00     0.041 A 
ATOM    100  F   UNL A   1      42.994  23.026  33.281  1.00  0.00    -0.206 F 
ATOM    101  C   UNL A   1      45.957  21.715  34.822  1.00  0.00     0.022 A 
BRANCH  98 102
ATOM    102  S   UNL A   1      48.566  22.630  35.148  1.00  0.00     0.124 S 
ATOM    103  O   UNL A   1      49.218  23.542  34.212  1.00  0.00    -0.237 OA
ATOM    104  O   UNL A   1      48.551  23.059  36.543  1.00  0.00    -0.237 OA
ATOM    105  O   UNL A   1      48.853  21.214  34.936  1.00  0.00    -0.744 OA
ENDBRANCH  98 102
ENDBRANCH  72  95
ENDBRANCH  46  47
ENDBRANCH  38  41
ENDBRANCH  36  37
ENDBRANCH  35  36
ENDBRANCH  34  35
ENDBRANCH   1  34
TORSDOF 19
ENDMDL
MODEL 3
REMARK VINA RESULT:     -13.4      4.356     10.920
REMARK SMILES Cc1c(C(=O)NCCCCCCNC(=O)c2ccc(-c3c4nc(c(-c5cc(S(=O)(=O)[O-])ccc5F)c5ccc([nH]5)c(-c5cc(S(=O)(=O)[O-])ccc5F)c5nc(c(-c6cc(S(=O)(=O)[O-])ccc6F)c6ccc3[nH]6)C=C5)C=C4)cc2)cccc1-n1c(C)cc(/C=C2/C(=O)NC(=S)N=C2O)c1C
REMARK SMILES IDX 9 1 8 2 7 3 6 4 4 5 5 6 3 8 1 9 2 10 82 11 79 12 81 13 80 14
REMARK SMILES IDX 83 15 84 16 98 17 85 18 86 19 87 20 99 21 88 22 89 23 90 24
REMARK SMILES IDX 96 25 91 26 92 27 95 28 93 29 94 31 97 32 10 34 11 35 12 36
REMARK SMILES IDX 13 37 14 38 15 40 16 41 17 42 78 43 18 44 77 45 19 46 20 47
REMARK SMILES IDX 21 48 71 49 22 50 76 51 70 52 72 53 23 54 75 55 69 56 68 57
REMARK SMILES IDX 24 59 56 60 36 61 55 62 37 63 40 64 54 65 73 66 38 67 39 68
REMARK SMILES IDX 53 70 74 71 41 72 25 73 26 74 34 75 27 76 33 77 35 78 32 79
REMARK SMILES IDX 28 80 29 81 30 82 31 83 57 84 58 85 66 86 59 87 65 88 67 89
REMARK SMILES IDX 64 90 60 91 61 92 62 93 63 94 42 95 43 96 51 97 44 98 50 99
REMARK SMILES IDX 52 100 49 101 45 102 46 103 47 104 48 105
REMARK H PARENT 6 7 92 30 97 33 13 39 72 58 40 69
REMARK Flexibility Score: inf
ROOT
ATOM      1  C   UNL A   1      36.762  23.293  24.560  1.00  0.00     0.002 C 
ENDROOT
BRANCH   1   2
ATOM      2  C   UNL A   1      36.430  21.842  24.193  1.00  0.00     0.021 C 
BRANCH   2   3
ATOM      3  C   UNL A   1      36.527  20.830  25.349  1.00  0.00     0.116 C 
BRANCH   3   4
ATOM      4  N   UNL A   1      35.444  19.866  25.275  1.00  0.00    -0.352 N 
ATOM      5  C   UNL A   1      34.140  19.863  24.871  1.00  0.00     0.251 C 
ATOM      6  O   UNL A   1      33.584  18.759  24.899  1.00  0.00    -0.269 OA
ATOM      7  H   UNL A   1      35.723  18.982  25.603  1.00  0.00     0.163 HD
BRANCH   5   8
ATOM      8  C   UNL A   1      33.337  21.020  24.350  1.00  0.00     0.044 A 
ATOM      9  C   UNL A   1      33.536  22.613  26.349  1.00  0.00     0.047 C 
ATOM     10  C   UNL A   1      33.011  22.231  24.997  1.00  0.00    -0.014 A 
ATOM     11  C   UNL A   1      32.107  23.109  24.337  1.00  0.00     0.049 A 
ATOM     12  C   UNL A   1      32.697  20.725  23.116  1.00  0.00     0.014 A 
ATOM     13  C   UNL A   1      31.485  22.792  23.124  1.00  0.00     0.027 A 
ATOM     14  C   UNL A   1      31.778  21.586  22.515  1.00  0.00     0.003 A 
BRANCH  11  15
ATOM     15  N   UNL A   1      31.697  24.321  24.942  1.00  0.00    -0.318 N 
ATOM     16  C   UNL A   1      30.750  24.430  25.942  1.00  0.00     0.020 A 
ATOM     17  C   UNL A   1      32.164  25.586  24.599  1.00  0.00     0.027 A 
ATOM     18  C   UNL A   1      29.945  23.280  26.436  1.00  0.00     0.065 C 
ATOM     19  C   UNL A   1      30.695  25.758  26.310  1.00  0.00     0.031 A 
ATOM     20  C   UNL A   1      31.589  26.488  25.482  1.00  0.00    -0.003 A 
ATOM     21  C   UNL A   1      33.075  25.777  23.428  1.00  0.00     0.065 C 
BRANCH  20  22
ATOM     22  C   UNL A   1      31.674  27.915  25.494  1.00  0.00     0.029 C 
ATOM     23  C   UNL A   1      31.083  28.863  24.745  1.00  0.00     0.102 C 
ATOM     24  C   UNL A   1      31.299  30.267  25.186  1.00  0.00     0.262 C 
ATOM     25  C   UNL A   1      30.188  28.745  23.596  1.00  0.00     0.226 C 
ATOM     26  O   UNL A   1      32.203  30.624  25.930  1.00  0.00    -0.269 OA
ATOM     27  N   UNL A   1      30.383  31.151  24.680  1.00  0.00    -0.297 N 
ATOM     28  N   UNL A   1      29.426  29.657  23.115  1.00  0.00    -0.184 NA
ATOM     29  C   UNL A   1      29.440  30.888  23.717  1.00  0.00     0.203 C 
ATOM     30  H   UNL A   1      30.403  32.065  25.044  1.00  0.00     0.172 HD
ATOM     31  S   UNL A   1      28.412  32.134  23.271  1.00  0.00    -0.038 S 
BRANCH  25  32
ATOM     32  O   UNL A   1      30.224  27.590  22.926  1.00  0.00    -0.493 OA
ATOM     33  H   UNL A   1      29.566  26.940  23.077  1.00  0.00     0.295 HD
ENDBRANCH  25  32
ENDBRANCH  20  22
ENDBRANCH  11  15
ENDBRANCH   5   8
ENDBRANCH   3   4
ENDBRANCH   2   3
ENDBRANCH   1   2
BRANCH   1  34
ATOM     34  C   UNL A   1      37.767  23.486  25.703  1.00  0.00     0.002 C 
BRANCH  34  35
ATOM     35  C   UNL A   1      38.854  22.417  25.809  1.00  0.00     0.021 C 
BRANCH  35  36
ATOM     36  C   UNL A   1      39.738  22.565  27.042  1.00  0.00     0.116 C 
BRANCH  36  37
ATOM     37  N   UNL A   1      41.104  22.969  26.725  1.00  0.00    -0.352 N 
ATOM     38  C   UNL A   1      41.621  24.244  26.559  1.00  0.00     0.251 C 
ATOM     39  H   UNL A   1      41.748  22.233  26.613  1.00  0.00     0.163 HD
ATOM     40  O   UNL A   1      42.771  24.436  26.207  1.00  0.00    -0.269 OA
BRANCH  38  41
ATOM     41  C   UNL A   1      40.772  25.387  26.963  1.00  0.00     0.039 A 
ATOM     42  C   UNL A   1      40.921  26.569  26.229  1.00  0.00     0.014 A 
ATOM     43  C   UNL A   1      40.087  25.377  28.175  1.00  0.00     0.014 A 
ATOM     44  C   UNL A   1      40.597  27.782  26.824  1.00  0.00     0.010 A 
ATOM     45  C   UNL A   1      39.844  26.585  28.800  1.00  0.00     0.010 A 
ATOM     46  C   UNL A   1      40.171  27.784  28.152  1.00  0.00    -0.014 A 
BRANCH  46  47
ATOM     47  C   UNL A   1      40.211  28.981  28.984  1.00  0.00     0.031 A 
ATOM     48  C   UNL A   1      39.136  29.987  28.919  1.00  0.00     0.074 A 
ATOM     49  C   UNL A   1      41.233  29.150  29.851  1.00  0.00     0.049 A 
ATOM     50  N   UNL A   1      39.267  31.223  29.265  1.00  0.00    -0.248 NA
ATOM     51  C   UNL A   1      37.818  29.678  28.382  1.00  0.00     0.031 C 
ATOM     52  C   UNL A   1      41.332  30.124  30.932  1.00  0.00     0.029 A 
ATOM     53  N   UNL A   1      42.515  28.615  29.746  1.00  0.00    -0.354 N 
ATOM     54  C   UNL A   1      38.011  31.787  29.292  1.00  0.00     0.074 A 
ATOM     55  C   UNL A   1      37.165  30.813  28.642  1.00  0.00     0.031 C 
ATOM     56  C   UNL A   1      42.628  30.311  31.228  1.00  0.00     0.029 A 
ATOM     57  C   UNL A   1      43.409  29.572  30.252  1.00  0.00     0.049 A 
ATOM     58  H   UNL A   1      42.750  27.730  29.384  1.00  0.00     0.167 HD
ATOM     59  C   UNL A   1      37.816  32.941  29.997  1.00  0.00     0.034 A 
ATOM     60  C   UNL A   1      44.384  30.106  29.462  1.00  0.00     0.034 A 
ATOM     61  C   UNL A   1      39.086  33.494  30.479  1.00  0.00     0.049 A 
ATOM     62  C   UNL A   1      44.267  31.604  29.283  1.00  0.00     0.074 A 
ATOM     63  C   UNL A   1      39.707  33.501  31.719  1.00  0.00     0.029 A 
ATOM     64  N   UNL A   1      40.045  33.922  29.563  1.00  0.00    -0.354 N 
ATOM     65  N   UNL A   1      43.198  32.298  29.566  1.00  0.00    -0.248 NA
ATOM     66  C   UNL A   1      45.346  32.436  28.760  1.00  0.00     0.031 C 
ATOM     67  C   UNL A   1      41.067  33.868  31.530  1.00  0.00     0.029 A 
ATOM     68  C   UNL A   1      41.265  34.119  30.182  1.00  0.00     0.049 A 
ATOM     69  H   UNL A   1      39.876  34.065  28.605  1.00  0.00     0.167 HD
ATOM     70  C   UNL A   1      43.409  33.620  29.261  1.00  0.00     0.074 A 
ATOM     71  C   UNL A   1      44.781  33.656  28.787  1.00  0.00     0.031 C 
ATOM     72  C   UNL A   1      42.427  34.562  29.419  1.00  0.00     0.034 A 
BRANCH  59  73
ATOM     73  C   UNL A   1      36.462  33.389  30.526  1.00  0.00     0.023 A 
ATOM     74  C   UNL A   1      35.608  34.139  29.686  1.00  0.00     0.031 A 
ATOM     75  C   UNL A   1      35.980  33.195  31.835  1.00  0.00     0.131 A 
ATOM     76  C   UNL A   1      34.434  34.746  30.176  1.00  0.00     0.055 A 
ATOM     77  C   UNL A   1      34.845  33.845  32.340  1.00  0.00     0.041 A 
ATOM     78  F   UNL A   1      36.543  32.321  32.676  1.00  0.00    -0.206 F 
ATOM     79  C   UNL A   1      34.071  34.641  31.513  1.00  0.00     0.022 A 
BRANCH  76  80
ATOM     80  S   UNL A   1      33.381  35.689  29.037  1.00  0.00     0.124 S 
ATOM     81  O   UNL A   1      32.662  36.576  29.944  1.00  0.00    -0.237 OA
ATOM     82  O   UNL A   1      34.362  36.317  28.159  1.00  0.00    -0.237 OA
ATOM     83  O   UNL A   1      32.561  34.658  28.404  1.00  0.00    -0.744 OA
ENDBRANCH  76  80
ENDBRANCH  59  73
BRANCH  60  84
ATOM     84  C   UNL A   1      44.916  29.145  28.452  1.00  0.00     0.023 A 
ATOM     85  C   UNL A   1      45.792  28.140  28.920  1.00  0.00     0.031 A 
ATOM     86  C   UNL A   1      44.304  28.955  27.207  1.00  0.00     0.131 A 
ATOM     87  C   UNL A   1      45.909  26.926  28.229  1.00  0.00     0.055 A 
ATOM     88  C   UNL A   1      44.474  27.763  26.489  1.00  0.00     0.041 A 
ATOM     89  F   UNL A   1      43.437  29.858  26.725  1.00  0.00    -0.206 F 
ATOM     90  C   UNL A   1      45.241  26.726  27.020  1.00  0.00     0.022 A 
BRANCH  87  91
ATOM     91  S   UNL A   1      46.714  25.515  29.048  1.00  0.00     0.124 S 
ATOM     92  O   UNL A   1      47.765  26.169  29.820  1.00  0.00    -0.237 OA
ATOM     93  O   UNL A   1      45.631  24.920  29.828  1.00  0.00    -0.237 OA
ATOM     94  O   UNL A   1      47.168  24.695  27.927  1.00  0.00    -0.744 OA
ENDBRANCH  87  91
ENDBRANCH  60  84
BRANCH  72  95
ATOM     95  C   UNL A   1      42.490  36.007  28.952  1.00  0.00     0.023 A 
ATOM     96  C   UNL A   1      43.181  37.020  29.634  1.00  0.00     0.031 A 
ATOM     97  C   UNL A   1      41.894  36.400  27.726  1.00  0.00     0.131 A 
ATOM     98  C   UNL A   1      43.192  38.346  29.161  1.00  0.00     0.055 A 
ATOM     99  C   UNL A   1      41.974  37.700  27.217  1.00  0.00     0.041 A 
ATOM    100  F   UNL A   1      41.213  35.536  26.961  1.00  0.00    -0.206 F 
ATOM    101  C   UNL A   1      42.613  38.690  27.944  1.00  0.00     0.022 A 
BRANCH  98 102
ATOM    102  S   UNL A   1      43.934  39.628  30.208  1.00  0.00     0.124 S 
ATOM    103  O   UNL A   1      44.725  38.831  31.141  1.00  0.00    -0.237 OA
ATOM    104  O   UNL A   1      44.695  40.418  29.246  1.00  0.00    -0.237 OA
ATOM    105  O   UNL A   1      42.780  40.306  30.795  1.00  0.00    -0.744 OA
ENDBRANCH  98 102
ENDBRANCH  72  95
ENDBRANCH  46  47
ENDBRANCH  38  41
ENDBRANCH  36  37
ENDBRANCH  35  36
ENDBRANCH  34  35
ENDBRANCH   1  34
TORSDOF 19
ENDMDL
