MODEL 1
REMARK VINA RESULT:     -12.5      0.000      0.000
REMARK SMILES CCn1nc(C(=O)NCCCCCCNC(=O)c2ccc(-c3c4nc(c(-c5cc(S(=O)(=O)[O-])ccc5F)c5ccc([nH]5)c(-c5cc(S(=O)(=O)[O-])ccc5F)c5nc(c(-c6cc(S(=O)(=O)[O-])ccc6F)c6ccc3[nH]6)C=C5)C=C4)cc2)c2c1CC[C@H]([NH2+]Cc1nn(CC)c3ccccc13)C2
REMARK SMILES IDX 11 1 10 2 9 3 8 4 6 5 7 6 5 8 3 9 4 10 82 11 81 12 83 13
REMARK SMILES IDX 99 14 84 15 85 16 2 17 1 18 86 19 87 22 88 23 89 24 98 25
REMARK SMILES IDX 90 26 93 27 97 28 94 29 96 30 95 31 91 32 92 33 12 34 13 35
REMARK SMILES IDX 14 36 15 37 16 38 17 40 18 41 19 42 80 43 20 44 79 45 21 46
REMARK SMILES IDX 22 47 23 48 73 49 24 50 78 51 72 52 74 53 25 54 77 55 71 56
REMARK SMILES IDX 70 57 26 59 58 60 38 61 57 62 39 63 42 64 56 65 75 66 40 67
REMARK SMILES IDX 41 68 55 70 76 71 43 72 27 73 28 74 36 75 29 76 35 77 37 78
REMARK SMILES IDX 34 79 30 80 31 81 32 82 33 83 59 84 60 85 68 86 61 87 67 88
REMARK SMILES IDX 69 89 66 90 62 91 63 92 64 93 65 94 44 95 45 96 53 97 46 98
REMARK SMILES IDX 52 99 54 100 51 101 47 102 48 103 49 104 50 105
REMARK H PARENT 8 7 86 20 86 21 15 39 74 58 42 69
REMARK Flexibility Score: inf
ROOT
ATOM      1  C   UNL A   1      34.881  33.395  29.469  1.00  0.00     0.002 C 
ENDROOT
BRANCH   1   2
ATOM      2  C   UNL A   1      34.543  32.849  28.028  1.00  0.00     0.021 C 
BRANCH   2   3
ATOM      3  C   UNL A   1      33.459  31.898  27.437  1.00  0.00     0.116 C 
BRANCH   3   4
ATOM      4  N   UNL A   1      33.248  30.471  27.702  1.00  0.00    -0.351 N 
ATOM      5  C   UNL A   1      32.538  29.458  27.002  1.00  0.00     0.272 C 
ATOM      6  O   UNL A   1      32.600  28.347  27.552  1.00  0.00    -0.267 OA
ATOM      7  H   UNL A   1      33.682  30.153  28.527  1.00  0.00     0.163 HD
BRANCH   5   8
ATOM      8  C   UNL A   1      31.745  29.619  25.706  1.00  0.00     0.153 A 
ATOM      9  N   UNL A   1      30.296  30.472  24.293  1.00  0.00    -0.269 N 
ATOM     10  N   UNL A   1      30.849  30.631  25.537  1.00  0.00    -0.167 NA
ATOM     11  C   UNL A   1      30.755  29.350  23.672  1.00  0.00     0.043 A 
ATOM     12  C   UNL A   1      31.674  28.817  24.538  1.00  0.00     0.012 A 
ATOM     13  C   UNL A   1      30.438  28.728  22.357  1.00  0.00     0.062 C 
ATOM     14  C   UNL A   1      32.330  27.555  24.266  1.00  0.00     0.105 C 
ATOM     15  C   UNL A   1      30.542  27.183  22.443  1.00  0.00     0.072 C 
ATOM     16  C   UNL A   1      31.726  26.597  23.258  1.00  0.00     0.187 C 
BRANCH   9  17
ATOM     17  C   UNL A   1      29.369  31.501  23.841  1.00  0.00     0.141 C 
ATOM     18  C   UNL A   1      27.891  31.160  23.688  1.00  0.00     0.029 C 
ENDBRANCH   9  17
BRANCH  16  19
ATOM     19  N   UNL A   1      31.345  25.283  23.863  1.00  0.00    -0.338 N 
ATOM     20  H   UNL A   1      30.344  25.313  24.056  1.00  0.00     0.346 HD
ATOM     21  H   UNL A   1      31.945  25.192  24.683  1.00  0.00     0.346 HD
BRANCH  19  22
ATOM     22  C   UNL A   1      31.608  24.057  23.062  1.00  0.00     0.320 C 
BRANCH  22  23
ATOM     23  C   UNL A   1      32.470  22.951  23.728  1.00  0.00     0.124 A 
ATOM     24  N   UNL A   1      33.305  23.290  24.729  1.00  0.00    -0.171 NA
ATOM     25  C   UNL A   1      32.533  21.547  23.527  1.00  0.00     0.029 A 
ATOM     26  N   UNL A   1      33.769  22.144  25.256  1.00  0.00    -0.265 N 
ATOM     27  C   UNL A   1      33.251  21.050  24.621  1.00  0.00     0.069 A 
ATOM     28  C   UNL A   1      32.029  20.629  22.594  1.00  0.00     0.012 A 
ATOM     29  C   UNL A   1      33.358  19.692  24.918  1.00  0.00     0.028 A 
ATOM     30  C   UNL A   1      32.268  19.265  22.800  1.00  0.00     0.001 A 
ATOM     31  C   UNL A   1      32.885  18.804  23.960  1.00  0.00     0.002 A 
BRANCH  26  32
ATOM     32  C   UNL A   1      34.616  22.131  26.447  1.00  0.00     0.141 C 
ATOM     33  C   UNL A   1      33.925  22.173  27.810  1.00  0.00     0.029 C 
ENDBRANCH  26  32
ENDBRANCH  22  23
ENDBRANCH  19  22
ENDBRANCH  16  19
ENDBRANCH   5   8
ENDBRANCH   3   4
ENDBRANCH   2   3
ENDBRANCH   1   2
BRANCH   1  34
ATOM     34  C   UNL A   1      36.054  33.293  30.508  1.00  0.00     0.002 C 
BRANCH  34  35
ATOM     35  C   UNL A   1      37.517  32.851  30.347  1.00  0.00     0.021 C 
BRANCH  35  36
ATOM     36  C   UNL A   1      37.875  31.392  30.482  1.00  0.00     0.116 C 
BRANCH  36  37
ATOM     37  N   UNL A   1      36.802  30.510  30.029  1.00  0.00    -0.352 N 
ATOM     38  C   UNL A   1      36.830  29.596  28.990  1.00  0.00     0.251 C 
ATOM     39  H   UNL A   1      35.954  30.575  30.524  1.00  0.00     0.163 HD
ATOM     40  O   UNL A   1      35.809  29.253  28.427  1.00  0.00    -0.269 OA
BRANCH  38  41
ATOM     41  C   UNL A   1      38.143  29.050  28.606  1.00  0.00     0.039 A 
ATOM     42  C   UNL A   1      38.800  29.441  27.441  1.00  0.00     0.014 A 
ATOM     43  C   UNL A   1      38.734  28.162  29.501  1.00  0.00     0.014 A 
ATOM     44  C   UNL A   1      40.087  28.959  27.222  1.00  0.00     0.010 A 
ATOM     45  C   UNL A   1      40.067  27.904  29.409  1.00  0.00     0.010 A 
ATOM     46  C   UNL A   1      40.713  28.197  28.223  1.00  0.00    -0.014 A 
BRANCH  46  47
ATOM     47  C   UNL A   1      42.102  27.779  28.126  1.00  0.00     0.031 A 
ATOM     48  C   UNL A   1      42.263  26.500  27.402  1.00  0.00     0.074 A 
ATOM     49  C   UNL A   1      43.132  28.586  28.464  1.00  0.00     0.049 A 
ATOM     50  N   UNL A   1      42.414  25.329  27.924  1.00  0.00    -0.248 NA
ATOM     51  C   UNL A   1      41.961  26.469  25.961  1.00  0.00     0.031 C 
ATOM     52  C   UNL A   1      43.093  29.986  28.914  1.00  0.00     0.029 A 
ATOM     53  N   UNL A   1      44.468  28.347  28.389  1.00  0.00    -0.354 N 
ATOM     54  C   UNL A   1      42.560  24.466  26.846  1.00  0.00     0.074 A 
ATOM     55  C   UNL A   1      41.980  25.154  25.728  1.00  0.00     0.031 C 
ATOM     56  C   UNL A   1      44.331  30.525  28.860  1.00  0.00     0.029 A 
ATOM     57  C   UNL A   1      45.278  29.469  28.555  1.00  0.00     0.049 A 
ATOM     58  H   UNL A   1      44.835  27.447  28.229  1.00  0.00     0.167 HD
ATOM     59  C   UNL A   1      43.456  23.442  26.914  1.00  0.00     0.034 A 
ATOM     60  C   UNL A   1      46.636  29.523  28.475  1.00  0.00     0.034 A 
ATOM     61  C   UNL A   1      43.861  23.223  28.293  1.00  0.00     0.049 A 
ATOM     62  C   UNL A   1      47.107  28.141  28.740  1.00  0.00     0.074 A 
ATOM     63  C   UNL A   1      43.205  22.908  29.468  1.00  0.00     0.029 A 
ATOM     64  N   UNL A   1      45.075  23.753  28.679  1.00  0.00    -0.354 N 
ATOM     65  N   UNL A   1      46.916  27.532  29.880  1.00  0.00    -0.248 NA
ATOM     66  C   UNL A   1      47.330  27.264  27.602  1.00  0.00     0.031 C 
ATOM     67  C   UNL A   1      43.851  23.688  30.477  1.00  0.00     0.029 A 
ATOM     68  C   UNL A   1      44.927  24.366  29.898  1.00  0.00     0.049 A 
ATOM     69  H   UNL A   1      45.913  23.698  28.164  1.00  0.00     0.167 HD
ATOM     70  C   UNL A   1      46.553  26.237  29.540  1.00  0.00     0.074 A 
ATOM     71  C   UNL A   1      46.938  26.101  28.135  1.00  0.00     0.031 C 
ATOM     72  C   UNL A   1      45.718  25.507  30.340  1.00  0.00     0.034 A 
BRANCH  59  73
ATOM     73  C   UNL A   1      44.318  22.980  25.748  1.00  0.00     0.023 A 
ATOM     74  C   UNL A   1      44.349  21.593  25.512  1.00  0.00     0.031 A 
ATOM     75  C   UNL A   1      45.310  23.729  25.075  1.00  0.00     0.131 A 
ATOM     76  C   UNL A   1      45.405  21.001  24.799  1.00  0.00     0.055 A 
ATOM     77  C   UNL A   1      46.329  23.140  24.320  1.00  0.00     0.041 A 
ATOM     78  F   UNL A   1      45.408  25.060  25.149  1.00  0.00    -0.206 F 
ATOM     79  C   UNL A   1      46.406  21.765  24.213  1.00  0.00     0.022 A 
BRANCH  76  80
ATOM     80  S   UNL A   1      45.543  19.198  24.828  1.00  0.00     0.124 S 
ATOM     81  O   UNL A   1      46.767  19.016  25.601  1.00  0.00    -0.237 OA
ATOM     82  O   UNL A   1      44.298  18.817  25.487  1.00  0.00    -0.237 OA
ATOM     83  O   UNL A   1      45.636  18.845  23.415  1.00  0.00    -0.744 OA
ENDBRANCH  76  80
ENDBRANCH  59  73
BRANCH  60  84
ATOM     84  C   UNL A   1      47.460  30.565  27.793  1.00  0.00     0.023 A 
ATOM     85  C   UNL A   1      46.902  31.687  27.137  1.00  0.00     0.031 A 
ATOM     86  C   UNL A   1      48.857  30.595  28.011  1.00  0.00     0.131 A 
ATOM     87  C   UNL A   1      47.728  32.771  26.743  1.00  0.00     0.055 A 
ATOM     88  C   UNL A   1      49.663  31.670  27.629  1.00  0.00     0.041 A 
ATOM     89  F   UNL A   1      49.475  29.612  28.685  1.00  0.00    -0.206 F 
ATOM     90  C   UNL A   1      49.099  32.769  27.001  1.00  0.00     0.022 A 
BRANCH  87  91
ATOM     91  S   UNL A   1      47.015  34.251  25.944  1.00  0.00     0.124 S 
ATOM     92  O   UNL A   1      45.773  33.733  25.382  1.00  0.00    -0.237 OA
ATOM     93  O   UNL A   1      46.886  35.181  27.059  1.00  0.00    -0.237 OA
ATOM     94  O   UNL A   1      48.024  34.624  24.951  1.00  0.00    -0.744 OA
ENDBRANCH  87  91
ENDBRANCH  60  84
BRANCH  72  95
ATOM     95  C   UNL A   1      45.475  26.002  31.757  1.00  0.00     0.023 A 
ATOM     96  C   UNL A   1      44.315  26.672  32.214  1.00  0.00     0.031 A 
ATOM     97  C   UNL A   1      46.453  25.673  32.713  1.00  0.00     0.131 A 
ATOM     98  C   UNL A   1      44.177  26.989  33.584  1.00  0.00     0.055 A 
ATOM     99  C   UNL A   1      46.303  25.968  34.066  1.00  0.00     0.041 A 
ATOM    100  F   UNL A   1      47.568  25.019  32.346  1.00  0.00    -0.206 F 
ATOM    101  C   UNL A   1      45.165  26.631  34.508  1.00  0.00     0.022 A 
BRANCH  98 102
ATOM    102  S   UNL A   1      42.714  27.892  34.200  1.00  0.00     0.124 S 
ATOM    103  O   UNL A   1      43.277  28.858  35.135  1.00  0.00    -0.237 OA
ATOM    104  O   UNL A   1      42.141  28.446  32.976  1.00  0.00    -0.237 OA
ATOM    105  O   UNL A   1      41.904  26.844  34.826  1.00  0.00    -0.744 OA
ENDBRANCH  98 102
ENDBRANCH  72  95
ENDBRANCH  46  47
ENDBRANCH  38  41
ENDBRANCH  36  37
ENDBRANCH  35  36
ENDBRANCH  34  35
ENDBRANCH   1  34
TORSDOF 21
ENDMDL
MODEL 2
REMARK VINA RESULT:     -12.2      2.782      7.229
REMARK SMILES CCn1nc(C(=O)NCCCCCCNC(=O)c2ccc(-c3c4nc(c(-c5cc(S(=O)(=O)[O-])ccc5F)c5ccc([nH]5)c(-c5cc(S(=O)(=O)[O-])ccc5F)c5nc(c(-c6cc(S(=O)(=O)[O-])ccc6F)c6ccc3[nH]6)C=C5)C=C4)cc2)c2c1CC[C@H]([NH2+]Cc1nn(CC)c3ccccc13)C2
REMARK SMILES IDX 11 1 10 2 9 3 8 4 6 5 7 6 5 8 3 9 4 10 82 11 81 12 83 13
REMARK SMILES IDX 99 14 84 15 85 16 2 17 1 18 86 19 87 22 88 23 89 24 98 25
REMARK SMILES IDX 90 26 93 27 97 28 94 29 96 30 95 31 91 32 92 33 12 34 13 35
REMARK SMILES IDX 14 36 15 37 16 38 17 40 18 41 19 42 80 43 20 44 79 45 21 46
REMARK SMILES IDX 22 47 23 48 73 49 24 50 78 51 72 52 74 53 25 54 77 55 71 56
REMARK SMILES IDX 70 57 26 59 58 60 38 61 57 62 39 63 42 64 56 65 75 66 40 67
REMARK SMILES IDX 41 68 55 70 76 71 43 72 27 73 28 74 36 75 29 76 35 77 37 78
REMARK SMILES IDX 34 79 30 80 31 81 32 82 33 83 59 84 60 85 68 86 61 87 67 88
REMARK SMILES IDX 69 89 66 90 62 91 63 92 64 93 65 94 44 95 45 96 53 97 46 98
REMARK SMILES IDX 52 99 54 100 51 101 47 102 48 103 49 104 50 105
REMARK H PARENT 8 7 86 20 86 21 15 39 74 58 42 69
REMARK Flexibility Score: inf
ROOT
ATOM      1  C   UNL A   1      32.191  29.389  24.528  1.00  0.00     0.002 C 
ENDROOT
BRANCH   1   2
ATOM      2  C   UNL A   1      33.166  29.385  23.287  1.00  0.00     0.021 C 
BRANCH   2   3
ATOM      3  C   UNL A   1      34.064  28.315  22.596  1.00  0.00     0.116 C 
BRANCH   3   4
ATOM      4  N   UNL A   1      33.669  27.230  21.691  1.00  0.00    -0.351 N 
ATOM      5  C   UNL A   1      32.458  26.504  21.532  1.00  0.00     0.272 C 
ATOM      6  O   UNL A   1      32.513  25.650  20.634  1.00  0.00    -0.267 OA
ATOM      7  H   UNL A   1      34.383  26.951  21.074  1.00  0.00     0.163 HD
BRANCH   5   8
ATOM      8  C   UNL A   1      31.170  26.676  22.338  1.00  0.00     0.153 A 
ATOM      9  N   UNL A   1      29.297  27.600  23.018  1.00  0.00    -0.269 N 
ATOM     10  N   UNL A   1      30.326  27.723  22.121  1.00  0.00    -0.167 NA
ATOM     11  C   UNL A   1      29.478  26.541  23.857  1.00  0.00     0.043 A 
ATOM     12  C   UNL A   1      30.636  25.946  23.430  1.00  0.00     0.012 A 
ATOM     13  C   UNL A   1      28.685  26.020  25.003  1.00  0.00     0.062 C 
ATOM     14  C   UNL A   1      31.214  24.819  24.133  1.00  0.00     0.105 C 
ATOM     15  C   UNL A   1      29.614  25.396  26.075  1.00  0.00     0.072 C 
ATOM     16  C   UNL A   1      30.806  24.539  25.567  1.00  0.00     0.187 C 
BRANCH   9  17
ATOM     17  C   UNL A   1      28.206  28.560  22.916  1.00  0.00     0.141 C 
ATOM     18  C   UNL A   1      28.366  29.777  22.012  1.00  0.00     0.029 C 
ENDBRANCH   9  17
BRANCH  16  19
ATOM     19  N   UNL A   1      31.954  24.620  26.523  1.00  0.00    -0.338 N 
ATOM     20  H   UNL A   1      31.694  25.275  27.259  1.00  0.00     0.346 HD
ATOM     21  H   UNL A   1      32.749  24.901  25.949  1.00  0.00     0.346 HD
BRANCH  19  22
ATOM     22  C   UNL A   1      32.387  23.358  27.181  1.00  0.00     0.320 C 
BRANCH  22  23
ATOM     23  C   UNL A   1      33.414  22.481  26.416  1.00  0.00     0.124 A 
ATOM     24  N   UNL A   1      33.096  21.203  26.131  1.00  0.00    -0.171 NA
ATOM     25  C   UNL A   1      34.691  22.774  25.868  1.00  0.00     0.029 A 
ATOM     26  N   UNL A   1      34.049  20.739  25.305  1.00  0.00    -0.265 N 
ATOM     27  C   UNL A   1      34.992  21.690  25.035  1.00  0.00     0.069 A 
ATOM     28  C   UNL A   1      35.602  23.839  25.924  1.00  0.00     0.012 A 
ATOM     29  C   UNL A   1      36.063  21.680  24.143  1.00  0.00     0.028 A 
ATOM     30  C   UNL A   1      36.765  23.767  25.149  1.00  0.00     0.001 A 
ATOM     31  C   UNL A   1      36.971  22.727  24.245  1.00  0.00     0.002 A 
BRANCH  26  32
ATOM     32  C   UNL A   1      33.961  19.413  24.695  1.00  0.00     0.141 C 
ATOM     33  C   UNL A   1      32.723  19.099  23.855  1.00  0.00     0.029 C 
ENDBRANCH  26  32
ENDBRANCH  22  23
ENDBRANCH  19  22
ENDBRANCH  16  19
ENDBRANCH   5   8
ENDBRANCH   3   4
ENDBRANCH   2   3
ENDBRANCH   1   2
BRANCH   1  34
ATOM     34  C   UNL A   1      32.132  28.759  25.965  1.00  0.00     0.002 C 
BRANCH  34  35
ATOM     35  C   UNL A   1      33.241  28.226  26.886  1.00  0.00     0.021 C 
BRANCH  35  36
ATOM     36  C   UNL A   1      34.587  28.905  26.901  1.00  0.00     0.116 C 
BRANCH  36  37
ATOM     37  N   UNL A   1      34.491  30.328  27.218  1.00  0.00    -0.352 N 
ATOM     38  C   UNL A   1      35.098  31.014  28.256  1.00  0.00     0.251 C 
ATOM     39  H   UNL A   1      33.925  30.864  26.619  1.00  0.00     0.163 HD
ATOM     40  O   UNL A   1      34.626  32.048  28.685  1.00  0.00    -0.269 OA
BRANCH  38  41
ATOM     41  C   UNL A   1      36.342  30.446  28.805  1.00  0.00     0.039 A 
ATOM     42  C   UNL A   1      36.356  29.665  29.960  1.00  0.00     0.014 A 
ATOM     43  C   UNL A   1      37.506  30.674  28.077  1.00  0.00     0.014 A 
ATOM     44  C   UNL A   1      37.559  29.077  30.336  1.00  0.00     0.010 A 
ATOM     45  C   UNL A   1      38.602  29.901  28.304  1.00  0.00     0.010 A 
ATOM     46  C   UNL A   1      38.675  29.195  29.491  1.00  0.00    -0.014 A 
BRANCH  46  47
ATOM     47  C   UNL A   1      39.922  28.493  29.746  1.00  0.00     0.031 A 
ATOM     48  C   UNL A   1      40.193  28.320  31.190  1.00  0.00     0.074 A 
ATOM     49  C   UNL A   1      40.626  27.877  28.770  1.00  0.00     0.049 A 
ATOM     50  N   UNL A   1      40.970  29.043  31.923  1.00  0.00    -0.248 NA
ATOM     51  C   UNL A   1      39.315  27.426  31.964  1.00  0.00     0.031 C 
ATOM     52  C   UNL A   1      40.289  27.734  27.346  1.00  0.00     0.029 A 
ATOM     53  N   UNL A   1      41.774  27.158  28.867  1.00  0.00    -0.354 N 
ATOM     54  C   UNL A   1      40.922  28.466  33.184  1.00  0.00     0.074 A 
ATOM     55  C   UNL A   1      39.701  27.712  33.210  1.00  0.00     0.031 C 
ATOM     56  C   UNL A   1      41.086  26.805  26.772  1.00  0.00     0.029 A 
ATOM     57  C   UNL A   1      42.108  26.425  27.729  1.00  0.00     0.049 A 
ATOM     58  H   UNL A   1      42.328  27.154  29.681  1.00  0.00     0.167 HD
ATOM     59  C   UNL A   1      42.056  28.380  33.935  1.00  0.00     0.034 A 
ATOM     60  C   UNL A   1      43.166  25.583  27.573  1.00  0.00     0.034 A 
ATOM     61  C   UNL A   1      43.080  29.260  33.395  1.00  0.00     0.049 A 
ATOM     62  C   UNL A   1      44.168  26.010  28.581  1.00  0.00     0.074 A 
ATOM     63  C   UNL A   1      43.178  30.617  33.156  1.00  0.00     0.029 A 
ATOM     64  N   UNL A   1      44.056  28.676  32.614  1.00  0.00    -0.354 N 
ATOM     65  N   UNL A   1      44.738  27.186  28.561  1.00  0.00    -0.248 NA
ATOM     66  C   UNL A   1      44.162  25.350  29.876  1.00  0.00     0.031 C 
ATOM     67  C   UNL A   1      43.875  30.728  31.913  1.00  0.00     0.029 A 
ATOM     68  C   UNL A   1      44.256  29.449  31.498  1.00  0.00     0.049 A 
ATOM     69  H   UNL A   1      44.534  27.841  32.824  1.00  0.00     0.167 HD
ATOM     70  C   UNL A   1      44.756  27.600  29.886  1.00  0.00     0.074 A 
ATOM     71  C   UNL A   1      44.496  26.384  30.657  1.00  0.00     0.031 C 
ATOM     72  C   UNL A   1      44.690  28.927  30.209  1.00  0.00     0.034 A 
BRANCH  59  73
ATOM     73  C   UNL A   1      42.411  27.192  34.817  1.00  0.00     0.023 A 
ATOM     74  C   UNL A   1      43.324  26.269  34.274  1.00  0.00     0.031 A 
ATOM     75  C   UNL A   1      41.720  26.751  35.969  1.00  0.00     0.131 A 
ATOM     76  C   UNL A   1      43.395  24.950  34.754  1.00  0.00     0.055 A 
ATOM     77  C   UNL A   1      41.834  25.454  36.477  1.00  0.00     0.041 A 
ATOM     78  F   UNL A   1      40.846  27.507  36.640  1.00  0.00    -0.206 F 
ATOM     79  C   UNL A   1      42.643  24.530  35.844  1.00  0.00     0.022 A 
BRANCH  76  80
ATOM     80  S   UNL A   1      44.344  23.748  33.792  1.00  0.00     0.124 S 
ATOM     81  O   UNL A   1      44.539  22.685  34.773  1.00  0.00    -0.237 OA
ATOM     82  O   UNL A   1      43.427  23.457  32.696  1.00  0.00    -0.237 OA
ATOM     83  O   UNL A   1      45.547  24.487  33.422  1.00  0.00    -0.744 OA
ENDBRANCH  76  80
ENDBRANCH  59  73
BRANCH  60  84
ATOM     84  C   UNL A   1      43.164  24.238  26.923  1.00  0.00     0.023 A 
ATOM     85  C   UNL A   1      44.102  23.852  25.937  1.00  0.00     0.031 A 
ATOM     86  C   UNL A   1      42.370  23.205  27.473  1.00  0.00     0.131 A 
ATOM     87  C   UNL A   1      44.220  22.492  25.553  1.00  0.00     0.055 A 
ATOM     88  C   UNL A   1      42.497  21.866  27.097  1.00  0.00     0.041 A 
ATOM     89  F   UNL A   1      41.498  23.454  28.464  1.00  0.00    -0.206 F 
ATOM     90  C   UNL A   1      43.431  21.501  26.141  1.00  0.00     0.022 A 
BRANCH  87  91
ATOM     91  S   UNL A   1      45.463  21.970  24.320  1.00  0.00     0.124 S 
ATOM     92  O   UNL A   1      46.076  23.238  23.941  1.00  0.00    -0.237 OA
ATOM     93  O   UNL A   1      46.295  21.048  25.084  1.00  0.00    -0.237 OA
ATOM     94  O   UNL A   1      44.660  21.341  23.269  1.00  0.00    -0.744 OA
ENDBRANCH  87  91
ENDBRANCH  60  84
BRANCH  72  95
ATOM     95  C   UNL A   1      44.943  29.943  29.106  1.00  0.00     0.023 A 
ATOM     96  C   UNL A   1      46.211  30.409  28.683  1.00  0.00     0.031 A 
ATOM     97  C   UNL A   1      43.817  30.379  28.384  1.00  0.00     0.131 A 
ATOM     98  C   UNL A   1      46.308  31.281  27.576  1.00  0.00     0.055 A 
ATOM     99  C   UNL A   1      43.920  31.221  27.279  1.00  0.00     0.041 A 
ATOM    100  F   UNL A   1      42.588  29.957  28.723  1.00  0.00    -0.206 F 
ATOM    101  C   UNL A   1      45.167  31.679  26.872  1.00  0.00     0.022 A 
BRANCH  98 102
ATOM    102  S   UNL A   1      47.924  31.935  27.031  1.00  0.00     0.124 S 
ATOM    103  O   UNL A   1      48.462  32.561  28.233  1.00  0.00    -0.237 OA
ATOM    104  O   UNL A   1      48.617  30.734  26.571  1.00  0.00    -0.237 OA
ATOM    105  O   UNL A   1      47.570  32.875  25.964  1.00  0.00    -0.744 OA
ENDBRANCH  98 102
ENDBRANCH  72  95
ENDBRANCH  46  47
ENDBRANCH  38  41
ENDBRANCH  36  37
ENDBRANCH  35  36
ENDBRANCH  34  35
ENDBRANCH   1  34
TORSDOF 21
ENDMDL
MODEL 3
REMARK VINA RESULT:     -12.1      2.736      8.690
REMARK SMILES CCn1nc(C(=O)NCCCCCCNC(=O)c2ccc(-c3c4nc(c(-c5cc(S(=O)(=O)[O-])ccc5F)c5ccc([nH]5)c(-c5cc(S(=O)(=O)[O-])ccc5F)c5nc(c(-c6cc(S(=O)(=O)[O-])ccc6F)c6ccc3[nH]6)C=C5)C=C4)cc2)c2c1CC[C@H]([NH2+]Cc1nn(CC)c3ccccc13)C2
REMARK SMILES IDX 11 1 10 2 9 3 8 4 6 5 7 6 5 8 3 9 4 10 82 11 81 12 83 13
REMARK SMILES IDX 99 14 84 15 85 16 2 17 1 18 86 19 87 22 88 23 89 24 98 25
REMARK SMILES IDX 90 26 93 27 97 28 94 29 96 30 95 31 91 32 92 33 12 34 13 35
REMARK SMILES IDX 14 36 15 37 16 38 17 40 18 41 19 42 80 43 20 44 79 45 21 46
REMARK SMILES IDX 22 47 23 48 73 49 24 50 78 51 72 52 74 53 25 54 77 55 71 56
REMARK SMILES IDX 70 57 26 59 58 60 38 61 57 62 39 63 42 64 56 65 75 66 40 67
REMARK SMILES IDX 41 68 55 70 76 71 43 72 27 73 28 74 36 75 29 76 35 77 37 78
REMARK SMILES IDX 34 79 30 80 31 81 32 82 33 83 59 84 60 85 68 86 61 87 67 88
REMARK SMILES IDX 69 89 66 90 62 91 63 92 64 93 65 94 44 95 45 96 53 97 46 98
REMARK SMILES IDX 52 99 54 100 51 101 47 102 48 103 49 104 50 105
REMARK H PARENT 8 7 86 20 86 21 15 39 74 58 42 69
REMARK Flexibility Score: inf
ROOT
ATOM      1  C   UNL A   1      39.948  21.723  26.714  1.00  0.00     0.002 C 
ENDROOT
BRANCH   1   2
ATOM      2  C   UNL A   1      38.698  21.862  25.762  1.00  0.00     0.021 C 
BRANCH   2   3
ATOM      3  C   UNL A   1      37.519  22.873  25.632  1.00  0.00     0.116 C 
BRANCH   3   4
ATOM      4  N   UNL A   1      36.904  23.416  24.417  1.00  0.00    -0.351 N 
ATOM      5  C   UNL A   1      35.608  23.276  23.849  1.00  0.00     0.272 C 
ATOM      6  O   UNL A   1      35.465  23.911  22.794  1.00  0.00    -0.267 OA
ATOM      7  H   UNL A   1      37.508  23.989  23.891  1.00  0.00     0.163 HD
BRANCH   5   8
ATOM      8  C   UNL A   1      34.448  22.448  24.400  1.00  0.00     0.153 A 
ATOM      9  N   UNL A   1      33.015  20.791  24.552  1.00  0.00    -0.269 N 
ATOM     10  N   UNL A   1      34.099  21.251  23.852  1.00  0.00    -0.167 NA
ATOM     11  C   UNL A   1      32.605  21.682  25.498  1.00  0.00     0.043 A 
ATOM     12  C   UNL A   1      33.503  22.714  25.424  1.00  0.00     0.012 A 
ATOM     13  C   UNL A   1      31.475  21.670  26.467  1.00  0.00     0.062 C 
ATOM     14  C   UNL A   1      33.352  23.910  26.226  1.00  0.00     0.105 C 
ATOM     15  C   UNL A   1      30.947  23.107  26.710  1.00  0.00     0.072 C 
ATOM     16  C   UNL A   1      32.004  24.237  26.840  1.00  0.00     0.187 C 
BRANCH   9  17
ATOM     17  C   UNL A   1      32.515  19.466  24.209  1.00  0.00     0.141 C 
ATOM     18  C   UNL A   1      32.701  18.320  25.197  1.00  0.00     0.029 C 
ENDBRANCH   9  17
BRANCH  16  19
ATOM     19  N   UNL A   1      31.445  25.536  26.351  1.00  0.00    -0.338 N 
ATOM     20  H   UNL A   1      31.649  26.243  27.057  1.00  0.00     0.346 HD
ATOM     21  H   UNL A   1      30.454  25.350  26.194  1.00  0.00     0.346 HD
BRANCH  19  22
ATOM     22  C   UNL A   1      31.945  26.050  25.047  1.00  0.00     0.320 C 
BRANCH  22  23
ATOM     23  C   UNL A   1      31.653  27.539  24.719  1.00  0.00     0.124 A 
ATOM     24  N   UNL A   1      31.045  27.843  23.556  1.00  0.00    -0.171 NA
ATOM     25  C   UNL A   1      31.859  28.733  25.460  1.00  0.00     0.029 A 
ATOM     26  N   UNL A   1      30.731  29.148  23.609  1.00  0.00    -0.265 N 
ATOM     27  C   UNL A   1      31.119  29.714  24.791  1.00  0.00     0.069 A 
ATOM     28  C   UNL A   1      32.529  29.096  26.638  1.00  0.00     0.012 A 
ATOM     29  C   UNL A   1      30.881  30.986  25.311  1.00  0.00     0.028 A 
ATOM     30  C   UNL A   1      32.426  30.419  27.086  1.00  0.00     0.001 A 
ATOM     31  C   UNL A   1      31.585  31.334  26.457  1.00  0.00     0.002 A 
BRANCH  26  32
ATOM     32  C   UNL A   1      29.951  29.796  22.556  1.00  0.00     0.141 C 
ATOM     33  C   UNL A   1      28.452  29.500  22.500  1.00  0.00     0.029 C 
ENDBRANCH  26  32
ENDBRANCH  22  23
ENDBRANCH  19  22
ENDBRANCH  16  19
ENDBRANCH   5   8
ENDBRANCH   3   4
ENDBRANCH   2   3
ENDBRANCH   1   2
BRANCH   1  34
ATOM     34  C   UNL A   1      41.269  20.878  26.788  1.00  0.00     0.002 C 
BRANCH  34  35
ATOM     35  C   UNL A   1      41.775  19.709  25.928  1.00  0.00     0.021 C 
BRANCH  35  36
ATOM     36  C   UNL A   1      43.071  19.026  26.286  1.00  0.00     0.116 C 
BRANCH  36  37
ATOM     37  N   UNL A   1      43.972  18.906  25.142  1.00  0.00    -0.352 N 
ATOM     38  C   UNL A   1      44.395  19.902  24.279  1.00  0.00     0.251 C 
ATOM     39  H   UNL A   1      44.322  18.003  24.963  1.00  0.00     0.163 HD
ATOM     40  O   UNL A   1      44.761  19.642  23.151  1.00  0.00    -0.269 OA
BRANCH  38  41
ATOM     41  C   UNL A   1      44.392  21.284  24.791  1.00  0.00     0.039 A 
ATOM     42  C   UNL A   1      43.536  22.262  24.287  1.00  0.00     0.014 A 
ATOM     43  C   UNL A   1      45.248  21.556  25.854  1.00  0.00     0.014 A 
ATOM     44  C   UNL A   1      43.526  23.505  24.911  1.00  0.00     0.010 A 
ATOM     45  C   UNL A   1      45.050  22.671  26.608  1.00  0.00     0.010 A 
ATOM     46  C   UNL A   1      44.282  23.693  26.080  1.00  0.00    -0.014 A 
BRANCH  46  47
ATOM     47  C   UNL A   1      44.211  24.915  26.864  1.00  0.00     0.031 A 
ATOM     48  C   UNL A   1      45.329  25.840  26.580  1.00  0.00     0.074 A 
ATOM     49  C   UNL A   1      43.125  25.252  27.595  1.00  0.00     0.049 A 
ATOM     50  N   UNL A   1      46.407  25.988  27.274  1.00  0.00    -0.248 NA
ATOM     51  C   UNL A   1      45.391  26.476  25.253  1.00  0.00     0.031 C 
ATOM     52  C   UNL A   1      41.840  24.545  27.709  1.00  0.00     0.029 A 
ATOM     53  N   UNL A   1      42.904  26.368  28.337  1.00  0.00    -0.354 N 
ATOM     54  C   UNL A   1      47.121  26.989  26.631  1.00  0.00     0.074 A 
ATOM     55  C   UNL A   1      46.613  27.014  25.288  1.00  0.00     0.031 C 
ATOM     56  C   UNL A   1      40.919  25.348  28.286  1.00  0.00     0.029 A 
ATOM     57  C   UNL A   1      41.586  26.548  28.753  1.00  0.00     0.049 A 
ATOM     58  H   UNL A   1      43.623  27.002  28.563  1.00  0.00     0.167 HD
ATOM     59  C   UNL A   1      47.792  27.922  27.362  1.00  0.00     0.034 A 
ATOM     60  C   UNL A   1      41.081  27.599  29.457  1.00  0.00     0.034 A 
ATOM     61  C   UNL A   1      47.929  27.473  28.738  1.00  0.00     0.049 A 
ATOM     62  C   UNL A   1      42.240  28.201  30.162  1.00  0.00     0.074 A 
ATOM     63  C   UNL A   1      48.498  26.378  29.359  1.00  0.00     0.029 A 
ATOM     64  N   UNL A   1      47.045  28.000  29.658  1.00  0.00    -0.354 N 
ATOM     65  N   UNL A   1      42.930  27.561  31.068  1.00  0.00    -0.248 NA
ATOM     66  C   UNL A   1      42.939  29.300  29.515  1.00  0.00     0.031 C 
ATOM     67  C   UNL A   1      47.597  26.036  30.415  1.00  0.00     0.029 A 
ATOM     68  C   UNL A   1      46.574  26.987  30.455  1.00  0.00     0.049 A 
ATOM     69  H   UNL A   1      46.795  28.950  29.731  1.00  0.00     0.167 HD
ATOM     70  C   UNL A   1      44.256  27.870  30.795  1.00  0.00     0.074 A 
ATOM     71  C   UNL A   1      44.190  29.032  29.907  1.00  0.00     0.031 C 
ATOM     72  C   UNL A   1      45.258  26.984  31.079  1.00  0.00     0.034 A 
BRANCH  59  73
ATOM     73  C   UNL A   1      47.888  29.395  26.992  1.00  0.00     0.023 A 
ATOM     74  C   UNL A   1      49.156  29.988  27.132  1.00  0.00     0.031 A 
ATOM     75  C   UNL A   1      46.814  30.298  26.815  1.00  0.00     0.131 A 
ATOM     76  C   UNL A   1      49.295  31.380  27.262  1.00  0.00     0.055 A 
ATOM     77  C   UNL A   1      46.966  31.686  26.891  1.00  0.00     0.041 A 
ATOM     78  F   UNL A   1      45.549  29.913  26.627  1.00  0.00    -0.206 F 
ATOM     79  C   UNL A   1      48.204  32.235  27.158  1.00  0.00     0.022 A 
BRANCH  76  80
ATOM     80  S   UNL A   1      50.907  32.027  27.770  1.00  0.00     0.124 S 
ATOM     81  O   UNL A   1      50.708  32.197  29.205  1.00  0.00    -0.237 OA
ATOM     82  O   UNL A   1      51.800  30.948  27.363  1.00  0.00    -0.237 OA
ATOM     83  O   UNL A   1      51.028  33.263  27.003  1.00  0.00    -0.744 OA
ENDBRANCH  76  80
ENDBRANCH  59  73
BRANCH  60  84
ATOM     84  C   UNL A   1      39.794  28.316  29.211  1.00  0.00     0.023 A 
ATOM     85  C   UNL A   1      39.005  28.866  30.248  1.00  0.00     0.031 A 
ATOM     86  C   UNL A   1      39.454  28.697  27.893  1.00  0.00     0.131 A 
ATOM     87  C   UNL A   1      37.944  29.758  29.946  1.00  0.00     0.055 A 
ATOM     88  C   UNL A   1      38.415  29.584  27.602  1.00  0.00     0.041 A 
ATOM     89  F   UNL A   1      40.183  28.286  26.843  1.00  0.00    -0.206 F 
ATOM     90  C   UNL A   1      37.660  30.127  28.629  1.00  0.00     0.022 A 
BRANCH  87  91
ATOM     91  S   UNL A   1      36.950  30.519  31.276  1.00  0.00     0.124 S 
ATOM     92  O   UNL A   1      36.622  29.372  32.114  1.00  0.00    -0.237 OA
ATOM     93  O   UNL A   1      37.874  31.495  31.841  1.00  0.00    -0.237 OA
ATOM     94  O   UNL A   1      35.810  31.100  30.562  1.00  0.00    -0.744 OA
ENDBRANCH  87  91
ENDBRANCH  60  84
BRANCH  72  95
ATOM     95  C   UNL A   1      44.938  25.817  32.000  1.00  0.00     0.023 A 
ATOM     96  C   UNL A   1      44.797  25.887  33.407  1.00  0.00     0.031 A 
ATOM     97  C   UNL A   1      44.663  24.585  31.381  1.00  0.00     0.131 A 
ATOM     98  C   UNL A   1      44.398  24.742  34.133  1.00  0.00     0.055 A 
ATOM     99  C   UNL A   1      44.249  23.465  32.099  1.00  0.00     0.041 A 
ATOM    100  F   UNL A   1      44.759  24.460  30.047  1.00  0.00    -0.206 F 
ATOM    101  C   UNL A   1      44.118  23.538  33.480  1.00  0.00     0.022 A 
BRANCH  98 102
ATOM    102  S   UNL A   1      44.249  24.785  35.954  1.00  0.00     0.124 S 
ATOM    103  O   UNL A   1      42.814  24.663  36.182  1.00  0.00    -0.237 OA
ATOM    104  O   UNL A   1      45.062  23.645  36.368  1.00  0.00    -0.237 OA
ATOM    105  O   UNL A   1      44.811  26.090  36.312  1.00  0.00    -0.744 OA
ENDBRANCH  98 102
ENDBRANCH  72  95
ENDBRANCH  46  47
ENDBRANCH  38  41
ENDBRANCH  36  37
ENDBRANCH  35  36
ENDBRANCH  34  35
ENDBRANCH   1  34
TORSDOF 21
ENDMDL
