MODEL 1
REMARK VINA RESULT:     -12.7      0.000      0.000
REMARK SMILES Cc1ccnc(C(=O)c2[nH]c3cc(Cl)c(F)cc3c2CC(=O)NCCCCCCNC(=O)c2ccc(-c3c4nc(c(-c5cc(S(=O)(=O)[O-])ccc5F)c5ccc([nH]5)c(-c5cc(S(=O)(=O)[O-])ccc5F)c5nc(c(-c6cc(S(=O)(=O)[O-])ccc6F)c6ccc3[nH]6)C=C5)C=C4)cc2)c1
REMARK SMILES IDX 26 1 25 2 24 3 23 4 21 5 22 6 20 8 19 9 9 10 10 11 11 12
REMARK SMILES IDX 18 14 12 15 17 16 13 17 15 18 14 19 16 20 7 21 8 22 6 23
REMARK SMILES IDX 1 24 2 25 3 26 96 27 4 28 5 29 27 30 28 31 29 32 30 33 31 34
REMARK SMILES IDX 32 36 33 37 34 38 95 39 35 40 94 41 36 42 37 43 38 44 88 45
REMARK SMILES IDX 39 46 93 47 87 48 89 49 40 50 92 51 86 52 85 53 41 55 73 56
REMARK SMILES IDX 53 57 72 58 54 59 57 60 71 61 90 62 55 63 56 64 70 66 91 67
REMARK SMILES IDX 58 68 42 69 43 70 51 71 44 72 50 73 52 74 49 75 45 76 46 77
REMARK SMILES IDX 47 78 48 79 74 80 75 81 83 82 76 83 82 84 84 85 81 86 77 87
REMARK SMILES IDX 78 88 79 89 80 90 59 91 60 92 68 93 61 94 67 95 69 96 66 97
REMARK SMILES IDX 62 98 63 99 64 100 65 101
REMARK H PARENT 23 7 10 13 30 35 89 54 57 65
REMARK Flexibility Score: inf
ROOT
ATOM      1  C   UNL A   1      37.136  22.212  25.102  1.00  0.00     0.002 C 
ENDROOT
BRANCH   1   2
ATOM      2  C   UNL A   1      35.881  22.320  24.232  1.00  0.00     0.021 C 
BRANCH   2   3
ATOM      3  C   UNL A   1      35.045  23.597  24.395  1.00  0.00     0.116 C 
BRANCH   3   4
ATOM      4  N   UNL A   1      34.566  24.168  23.150  1.00  0.00    -0.356 N 
ATOM      5  C   UNL A   1      33.821  25.282  22.895  1.00  0.00     0.224 C 
ATOM      6  O   UNL A   1      33.680  25.606  21.711  1.00  0.00    -0.275 OA
ATOM      7  H   UNL A   1      34.824  23.662  22.346  1.00  0.00     0.163 HD
BRANCH   5   8
ATOM      8  C   UNL A   1      33.226  26.144  23.990  1.00  0.00     0.138 C 
BRANCH   8   9
ATOM      9  C   UNL A   1      31.731  26.132  24.129  1.00  0.00    -0.002 A 
ATOM     10  C   UNL A   1      30.897  25.186  24.735  1.00  0.00     0.093 A 
ATOM     11  N   UNL A   1      29.598  25.584  24.472  1.00  0.00    -0.351 N 
ATOM     12  C   UNL A   1      29.556  26.790  23.825  1.00  0.00     0.048 A 
ATOM     13  H   UNL A   1      28.801  25.063  24.721  1.00  0.00     0.167 HD
ATOM     14  C   UNL A   1      30.871  27.127  23.526  1.00  0.00     0.007 A 
ATOM     15  C   UNL A   1      28.460  27.590  23.467  1.00  0.00     0.050 A 
ATOM     16  C   UNL A   1      31.103  28.303  22.776  1.00  0.00     0.051 A 
ATOM     17  C   UNL A   1      28.725  28.781  22.782  1.00  0.00     0.078 A 
ATOM     18  C   UNL A   1      30.026  29.124  22.436  1.00  0.00     0.142 A 
ATOM     19  Cl  UNL A   1      27.411  29.819  22.376  1.00  0.00    -0.081 Cl
ATOM     20  F   UNL A   1      30.281  30.265  21.778  1.00  0.00    -0.205 F 
BRANCH  10  21
ATOM     21  C   UNL A   1      31.105  23.912  25.424  1.00  0.00     0.227 C 
ATOM     22  O   UNL A   1      30.981  23.874  26.649  1.00  0.00    -0.285 OA
BRANCH  21  23
ATOM     23  C   UNL A   1      31.599  22.672  24.723  1.00  0.00     0.113 A 
ATOM     24  C   UNL A   1      32.886  19.150  25.373  1.00  0.00     0.044 C 
ATOM     25  C   UNL A   1      32.400  20.395  24.694  1.00  0.00    -0.047 A 
ATOM     26  C   UNL A   1      32.408  20.460  23.304  1.00  0.00     0.023 A 
ATOM     27  C   UNL A   1      31.924  21.506  25.407  1.00  0.00     0.036 A 
ATOM     28  C   UNL A   1      32.001  21.633  22.694  1.00  0.00     0.112 A 
ATOM     29  N   UNL A   1      31.612  22.737  23.364  1.00  0.00    -0.253 NA
ENDBRANCH  21  23
ENDBRANCH  10  21
ENDBRANCH   8   9
ENDBRANCH   5   8
ENDBRANCH   3   4
ENDBRANCH   2   3
ENDBRANCH   1   2
BRANCH   1  30
ATOM     30  C   UNL A   1      37.616  23.519  25.728  1.00  0.00     0.002 C 
BRANCH  30  31
ATOM     31  C   UNL A   1      38.827  23.357  26.651  1.00  0.00     0.021 C 
BRANCH  31  32
ATOM     32  C   UNL A   1      39.513  21.994  26.520  1.00  0.00     0.116 C 
BRANCH  32  33
ATOM     33  N   UNL A   1      40.776  22.071  25.818  1.00  0.00    -0.352 N 
ATOM     34  C   UNL A   1      41.815  22.962  25.811  1.00  0.00     0.251 C 
ATOM     35  H   UNL A   1      40.921  21.311  25.209  1.00  0.00     0.163 HD
ATOM     36  O   UNL A   1      42.776  22.656  25.100  1.00  0.00    -0.269 OA
BRANCH  34  37
ATOM     37  C   UNL A   1      41.834  24.261  26.540  1.00  0.00     0.039 A 
ATOM     38  C   UNL A   1      42.273  24.448  27.850  1.00  0.00     0.014 A 
ATOM     39  C   UNL A   1      41.310  25.370  25.847  1.00  0.00     0.014 A 
ATOM     40  C   UNL A   1      42.103  25.672  28.484  1.00  0.00     0.010 A 
ATOM     41  C   UNL A   1      41.157  26.605  26.470  1.00  0.00     0.010 A 
ATOM     42  C   UNL A   1      41.507  26.737  27.808  1.00  0.00    -0.014 A 
BRANCH  42  43
ATOM     43  C   UNL A   1      41.330  27.976  28.559  1.00  0.00     0.031 A 
ATOM     44  C   UNL A   1      42.312  29.052  28.243  1.00  0.00     0.074 A 
ATOM     45  C   UNL A   1      40.334  28.173  29.443  1.00  0.00     0.049 A 
ATOM     46  N   UNL A   1      43.244  29.544  28.995  1.00  0.00    -0.248 NA
ATOM     47  C   UNL A   1      42.341  29.539  26.857  1.00  0.00     0.031 C 
ATOM     48  C   UNL A   1      39.129  27.364  29.646  1.00  0.00     0.029 A 
ATOM     49  N   UNL A   1      40.152  29.218  30.296  1.00  0.00    -0.354 N 
ATOM     50  C   UNL A   1      43.865  30.538  28.237  1.00  0.00     0.074 A 
ATOM     51  C   UNL A   1      43.372  30.383  26.893  1.00  0.00     0.031 C 
ATOM     52  C   UNL A   1      38.240  28.069  30.382  1.00  0.00     0.029 A 
ATOM     53  C   UNL A   1      38.879  29.290  30.839  1.00  0.00     0.049 A 
ATOM     54  H   UNL A   1      40.862  29.866  30.509  1.00  0.00     0.167 HD
ATOM     55  C   UNL A   1      44.598  31.539  28.805  1.00  0.00     0.034 A 
ATOM     56  C   UNL A   1      38.363  30.320  31.550  1.00  0.00     0.034 A 
ATOM     57  C   UNL A   1      44.933  31.236  30.168  1.00  0.00     0.049 A 
ATOM     58  C   UNL A   1      39.487  31.129  32.071  1.00  0.00     0.074 A 
ATOM     59  C   UNL A   1      45.756  30.336  30.807  1.00  0.00     0.029 A 
ATOM     60  N   UNL A   1      44.102  31.755  31.127  1.00  0.00    -0.354 N 
ATOM     61  N   UNL A   1      40.327  30.725  32.981  1.00  0.00    -0.248 NA
ATOM     62  C   UNL A   1      39.912  32.287  31.299  1.00  0.00     0.031 C 
ATOM     63  C   UNL A   1      45.111  30.055  32.044  1.00  0.00     0.029 A 
ATOM     64  C   UNL A   1      43.943  30.822  32.115  1.00  0.00     0.049 A 
ATOM     65  H   UNL A   1      43.689  32.648  31.109  1.00  0.00     0.167 HD
ATOM     66  C   UNL A   1      41.541  31.280  32.606  1.00  0.00     0.074 A 
ATOM     67  C   UNL A   1      41.196  32.337  31.662  1.00  0.00     0.031 C 
ATOM     68  C   UNL A   1      42.721  30.652  32.882  1.00  0.00     0.034 A 
BRANCH  55  69
ATOM     69  C   UNL A   1      44.708  32.944  28.249  1.00  0.00     0.023 A 
ATOM     70  C   UNL A   1      43.642  33.861  28.277  1.00  0.00     0.031 A 
ATOM     71  C   UNL A   1      45.964  33.482  27.896  1.00  0.00     0.131 A 
ATOM     72  C   UNL A   1      43.823  35.216  27.968  1.00  0.00     0.055 A 
ATOM     73  C   UNL A   1      46.161  34.849  27.652  1.00  0.00     0.041 A 
ATOM     74  F   UNL A   1      47.059  32.707  27.837  1.00  0.00    -0.206 F 
ATOM     75  C   UNL A   1      45.085  35.725  27.689  1.00  0.00     0.022 A 
BRANCH  72  76
ATOM     76  S   UNL A   1      42.398  36.338  27.945  1.00  0.00     0.124 S 
ATOM     77  O   UNL A   1      42.843  37.400  28.849  1.00  0.00    -0.237 OA
ATOM     78  O   UNL A   1      42.337  36.705  26.529  1.00  0.00    -0.237 OA
ATOM     79  O   UNL A   1      41.302  35.513  28.418  1.00  0.00    -0.744 OA
ENDBRANCH  72  76
ENDBRANCH  55  69
BRANCH  56  80
ATOM     80  C   UNL A   1      37.017  30.907  31.348  1.00  0.00     0.023 A 
ATOM     81  C   UNL A   1      36.559  31.157  30.040  1.00  0.00     0.031 A 
ATOM     82  C   UNL A   1      36.327  31.519  32.407  1.00  0.00     0.131 A 
ATOM     83  C   UNL A   1      35.489  32.031  29.817  1.00  0.00     0.055 A 
ATOM     84  C   UNL A   1      35.246  32.380  32.183  1.00  0.00     0.041 A 
ATOM     85  F   UNL A   1      36.737  31.351  33.673  1.00  0.00    -0.206 F 
ATOM     86  C   UNL A   1      34.833  32.652  30.881  1.00  0.00     0.022 A 
BRANCH  83  87
ATOM     87  S   UNL A   1      34.986  32.454  28.127  1.00  0.00     0.124 S 
ATOM     88  O   UNL A   1      34.767  31.137  27.533  1.00  0.00    -0.237 OA
ATOM     89  O   UNL A   1      33.783  33.244  28.366  1.00  0.00    -0.237 OA
ATOM     90  O   UNL A   1      36.134  33.185  27.601  1.00  0.00    -0.744 OA
ENDBRANCH  83  87
ENDBRANCH  56  80
BRANCH  68  91
ATOM     91  C   UNL A   1      42.730  29.523  33.887  1.00  0.00     0.023 A 
ATOM     92  C   UNL A   1      43.309  29.793  35.140  1.00  0.00     0.031 A 
ATOM     93  C   UNL A   1      42.420  28.183  33.588  1.00  0.00     0.131 A 
ATOM     94  C   UNL A   1      43.619  28.750  36.017  1.00  0.00     0.055 A 
ATOM     95  C   UNL A   1      42.659  27.151  34.503  1.00  0.00     0.041 A 
ATOM     96  F   UNL A   1      41.966  27.820  32.382  1.00  0.00    -0.206 F 
ATOM     97  C   UNL A   1      43.281  27.429  35.716  1.00  0.00     0.022 A 
BRANCH  94  98
ATOM     98  S   UNL A   1      44.628  29.065  37.487  1.00  0.00     0.124 S 
ATOM     99  O   UNL A   1      45.939  29.346  36.910  1.00  0.00    -0.237 OA
ATOM    100  O   UNL A   1      43.948  30.212  38.088  1.00  0.00    -0.237 OA
ATOM    101  O   UNL A   1      44.536  27.825  38.253  1.00  0.00    -0.744 OA
ENDBRANCH  94  98
ENDBRANCH  68  91
ENDBRANCH  42  43
ENDBRANCH  34  37
ENDBRANCH  32  33
ENDBRANCH  31  32
ENDBRANCH  30  31
ENDBRANCH   1  30
TORSDOF 19
ENDMDL
MODEL 2
REMARK VINA RESULT:     -12.0      5.587      9.533
REMARK SMILES Cc1ccnc(C(=O)c2[nH]c3cc(Cl)c(F)cc3c2CC(=O)NCCCCCCNC(=O)c2ccc(-c3c4nc(c(-c5cc(S(=O)(=O)[O-])ccc5F)c5ccc([nH]5)c(-c5cc(S(=O)(=O)[O-])ccc5F)c5nc(c(-c6cc(S(=O)(=O)[O-])ccc6F)c6ccc3[nH]6)C=C5)C=C4)cc2)c1
REMARK SMILES IDX 26 1 25 2 24 3 23 4 21 5 22 6 20 8 19 9 9 10 10 11 11 12
REMARK SMILES IDX 18 14 12 15 17 16 13 17 15 18 14 19 16 20 7 21 8 22 6 23
REMARK SMILES IDX 1 24 2 25 3 26 96 27 4 28 5 29 27 30 28 31 29 32 30 33 31 34
REMARK SMILES IDX 32 36 33 37 34 38 95 39 35 40 94 41 36 42 37 43 38 44 88 45
REMARK SMILES IDX 39 46 93 47 87 48 89 49 40 50 92 51 86 52 85 53 41 55 73 56
REMARK SMILES IDX 53 57 72 58 54 59 57 60 71 61 90 62 55 63 56 64 70 66 91 67
REMARK SMILES IDX 58 68 42 69 43 70 51 71 44 72 50 73 52 74 49 75 45 76 46 77
REMARK SMILES IDX 47 78 48 79 74 80 75 81 83 82 76 83 82 84 84 85 81 86 77 87
REMARK SMILES IDX 78 88 79 89 80 90 59 91 60 92 68 93 61 94 67 95 69 96 66 97
REMARK SMILES IDX 62 98 63 99 64 100 65 101
REMARK H PARENT 23 7 10 13 30 35 89 54 57 65
REMARK Flexibility Score: inf
ROOT
ATOM      1  C   UNL A   1      43.722  25.486  25.134  1.00  0.00     0.002 C 
ENDROOT
BRANCH   1   2
ATOM      2  C   UNL A   1      44.294  26.458  26.169  1.00  0.00     0.021 C 
BRANCH   2   3
ATOM      3  C   UNL A   1      45.099  27.644  25.620  1.00  0.00     0.116 C 
BRANCH   3   4
ATOM      4  N   UNL A   1      45.922  27.333  24.466  1.00  0.00    -0.356 N 
ATOM      5  C   UNL A   1      47.259  27.487  24.242  1.00  0.00     0.224 C 
ATOM      6  O   UNL A   1      47.716  26.997  23.204  1.00  0.00    -0.275 OA
ATOM      7  H   UNL A   1      45.428  26.940  23.711  1.00  0.00     0.163 HD
BRANCH   5   8
ATOM      8  C   UNL A   1      48.186  28.170  25.227  1.00  0.00     0.138 C 
BRANCH   8   9
ATOM      9  C   UNL A   1      49.021  27.282  26.104  1.00  0.00    -0.002 A 
ATOM     10  C   UNL A   1      48.830  26.909  27.439  1.00  0.00     0.093 A 
ATOM     11  N   UNL A   1      49.952  26.188  27.808  1.00  0.00    -0.351 N 
ATOM     12  C   UNL A   1      50.799  25.987  26.750  1.00  0.00     0.048 A 
ATOM     13  H   UNL A   1      50.120  25.859  28.720  1.00  0.00     0.167 HD
ATOM     14  C   UNL A   1      50.287  26.720  25.686  1.00  0.00     0.007 A 
ATOM     15  C   UNL A   1      51.979  25.233  26.664  1.00  0.00     0.050 A 
ATOM     16  C   UNL A   1      51.027  26.750  24.482  1.00  0.00     0.051 A 
ATOM     17  C   UNL A   1      52.656  25.229  25.439  1.00  0.00     0.078 A 
ATOM     18  C   UNL A   1      52.189  25.984  24.371  1.00  0.00     0.142 A 
ATOM     19  Cl  UNL A   1      54.077  24.270  25.275  1.00  0.00    -0.081 Cl
ATOM     20  F   UNL A   1      52.837  25.982  23.196  1.00  0.00    -0.205 F 
BRANCH  10  21
ATOM     21  C   UNL A   1      47.830  27.206  28.465  1.00  0.00     0.227 C 
ATOM     22  O   UNL A   1      47.877  28.294  29.041  1.00  0.00    -0.285 OA
BRANCH  21  23
ATOM     23  C   UNL A   1      46.828  26.190  28.951  1.00  0.00     0.113 A 
ATOM     24  C   UNL A   1      44.224  25.579  31.658  1.00  0.00     0.044 C 
ATOM     25  C   UNL A   1      45.082  25.435  30.437  1.00  0.00    -0.047 A 
ATOM     26  C   UNL A   1      44.991  24.276  29.673  1.00  0.00     0.023 A 
ATOM     27  C   UNL A   1      45.976  26.433  30.023  1.00  0.00     0.036 A 
ATOM     28  C   UNL A   1      45.823  24.138  28.577  1.00  0.00     0.112 A 
ATOM     29  N   UNL A   1      46.742  25.055  28.207  1.00  0.00    -0.253 NA
ENDBRANCH  21  23
ENDBRANCH  10  21
ENDBRANCH   8   9
ENDBRANCH   5   8
ENDBRANCH   3   4
ENDBRANCH   2   3
ENDBRANCH   1   2
BRANCH   1  30
ATOM     30  C   UNL A   1      44.469  24.162  24.991  1.00  0.00     0.002 C 
BRANCH  30  31
ATOM     31  C   UNL A   1      43.565  22.974  24.651  1.00  0.00     0.021 C 
BRANCH  31  32
ATOM     32  C   UNL A   1      43.374  22.001  25.818  1.00  0.00     0.116 C 
BRANCH  32  33
ATOM     33  N   UNL A   1      41.980  21.721  26.089  1.00  0.00    -0.352 N 
ATOM     34  C   UNL A   1      40.934  22.454  26.578  1.00  0.00     0.251 C 
ATOM     35  H   UNL A   1      41.728  20.794  25.872  1.00  0.00     0.163 HD
ATOM     36  O   UNL A   1      39.847  21.871  26.621  1.00  0.00    -0.269 OA
BRANCH  34  37
ATOM     37  C   UNL A   1      41.032  23.846  27.098  1.00  0.00     0.039 A 
ATOM     38  C   UNL A   1      41.811  24.254  28.181  1.00  0.00     0.014 A 
ATOM     39  C   UNL A   1      40.218  24.806  26.464  1.00  0.00     0.014 A 
ATOM     40  C   UNL A   1      41.709  25.546  28.678  1.00  0.00     0.010 A 
ATOM     41  C   UNL A   1      40.128  26.108  26.944  1.00  0.00     0.010 A 
ATOM     42  C   UNL A   1      40.837  26.460  28.086  1.00  0.00    -0.014 A 
BRANCH  42  43
ATOM     43  C   UNL A   1      40.761  27.785  28.694  1.00  0.00     0.031 A 
ATOM     44  C   UNL A   1      41.751  28.774  28.181  1.00  0.00     0.074 A 
ATOM     45  C   UNL A   1      39.844  28.126  29.619  1.00  0.00     0.049 A 
ATOM     46  N   UNL A   1      42.754  29.310  28.800  1.00  0.00    -0.248 NA
ATOM     47  C   UNL A   1      41.689  29.094  26.749  1.00  0.00     0.031 C 
ATOM     48  C   UNL A   1      38.631  27.398  30.005  1.00  0.00     0.029 A 
ATOM     49  N   UNL A   1      39.764  29.270  30.353  1.00  0.00    -0.354 N 
ATOM     50  C   UNL A   1      43.348  30.182  27.884  1.00  0.00     0.074 A 
ATOM     51  C   UNL A   1      42.747  29.892  26.608  1.00  0.00     0.031 C 
ATOM     52  C   UNL A   1      37.826  28.221  30.714  1.00  0.00     0.029 A 
ATOM     53  C   UNL A   1      38.539  29.460  30.974  1.00  0.00     0.049 A 
ATOM     54  H   UNL A   1      40.509  29.908  30.433  1.00  0.00     0.167 HD
ATOM     55  C   UNL A   1      44.156  31.210  28.274  1.00  0.00     0.034 A 
ATOM     56  C   UNL A   1      38.115  30.587  31.592  1.00  0.00     0.034 A 
ATOM     57  C   UNL A   1      44.585  31.054  29.634  1.00  0.00     0.049 A 
ATOM     58  C   UNL A   1      39.303  31.402  31.929  1.00  0.00     0.074 A 
ATOM     59  C   UNL A   1      45.425  30.200  30.315  1.00  0.00     0.029 A 
ATOM     60  N   UNL A   1      43.849  31.716  30.583  1.00  0.00    -0.354 N 
ATOM     61  N   UNL A   1      40.197  31.072  32.818  1.00  0.00    -0.248 NA
ATOM     62  C   UNL A   1      39.706  32.443  30.996  1.00  0.00     0.031 C 
ATOM     63  C   UNL A   1      44.868  30.093  31.620  1.00  0.00     0.029 A 
ATOM     64  C   UNL A   1      43.736  30.912  31.685  1.00  0.00     0.049 A 
ATOM     65  H   UNL A   1      43.466  32.618  30.488  1.00  0.00     0.167 HD
ATOM     66  C   UNL A   1      41.396  31.527  32.291  1.00  0.00     0.074 A 
ATOM     67  C   UNL A   1      41.014  32.480  31.255  1.00  0.00     0.031 C 
ATOM     68  C   UNL A   1      42.572  30.885  32.553  1.00  0.00     0.034 A 
BRANCH  55  69
ATOM     69  C   UNL A   1      44.270  32.534  27.547  1.00  0.00     0.023 A 
ATOM     70  C   UNL A   1      43.522  33.669  27.908  1.00  0.00     0.031 A 
ATOM     71  C   UNL A   1      45.314  32.762  26.624  1.00  0.00     0.131 A 
ATOM     72  C   UNL A   1      43.799  34.937  27.378  1.00  0.00     0.055 A 
ATOM     73  C   UNL A   1      45.635  34.039  26.145  1.00  0.00     0.041 A 
ATOM     74  F   UNL A   1      46.100  31.757  26.205  1.00  0.00    -0.206 F 
ATOM     75  C   UNL A   1      44.876  35.138  26.524  1.00  0.00     0.022 A 
BRANCH  72  76
ATOM     76  S   UNL A   1      42.754  36.352  27.821  1.00  0.00     0.124 S 
ATOM     77  O   UNL A   1      41.448  35.714  27.991  1.00  0.00    -0.237 OA
ATOM     78  O   UNL A   1      43.393  36.813  29.055  1.00  0.00    -0.237 OA
ATOM     79  O   UNL A   1      42.886  37.246  26.685  1.00  0.00    -0.744 OA
ENDBRANCH  72  76
ENDBRANCH  55  69
BRANCH  56  80
ATOM     80  C   UNL A   1      36.779  31.203  31.421  1.00  0.00     0.023 A 
ATOM     81  C   UNL A   1      36.276  31.416  30.123  1.00  0.00     0.031 A 
ATOM     82  C   UNL A   1      36.147  31.873  32.481  1.00  0.00     0.131 A 
ATOM     83  C   UNL A   1      35.221  32.311  29.909  1.00  0.00     0.055 A 
ATOM     84  C   UNL A   1      35.081  32.754  32.267  1.00  0.00     0.041 A 
ATOM     85  F   UNL A   1      36.603  31.740  33.736  1.00  0.00    -0.206 F 
ATOM     86  C   UNL A   1      34.624  32.989  30.972  1.00  0.00     0.022 A 
BRANCH  83  87
ATOM     87  S   UNL A   1      34.662  32.685  28.224  1.00  0.00     0.124 S 
ATOM     88  O   UNL A   1      33.563  33.618  28.466  1.00  0.00    -0.237 OA
ATOM     89  O   UNL A   1      35.864  33.267  27.636  1.00  0.00    -0.237 OA
ATOM     90  O   UNL A   1      34.262  31.383  27.700  1.00  0.00    -0.744 OA
ENDBRANCH  83  87
ENDBRANCH  56  80
BRANCH  68  91
ATOM     91  C   UNL A   1      42.621  29.882  33.683  1.00  0.00     0.023 A 
ATOM     92  C   UNL A   1      43.127  30.337  34.914  1.00  0.00     0.031 A 
ATOM     93  C   UNL A   1      42.421  28.497  33.532  1.00  0.00     0.131 A 
ATOM     94  C   UNL A   1      43.476  29.426  35.916  1.00  0.00     0.055 A 
ATOM     95  C   UNL A   1      42.696  27.597  34.568  1.00  0.00     0.041 A 
ATOM     96  F   UNL A   1      42.045  27.966  32.362  1.00  0.00    -0.206 F 
ATOM     97  C   UNL A   1      43.246  28.058  35.760  1.00  0.00     0.022 A 
BRANCH  94  98
ATOM     98  S   UNL A   1      44.398  29.983  37.372  1.00  0.00     0.124 S 
ATOM     99  O   UNL A   1      43.441  30.871  38.025  1.00  0.00    -0.237 OA
ATOM    100  O   UNL A   1      44.663  28.724  38.068  1.00  0.00    -0.237 OA
ATOM    101  O   UNL A   1      45.578  30.638  36.815  1.00  0.00    -0.744 OA
ENDBRANCH  94  98
ENDBRANCH  68  91
ENDBRANCH  42  43
ENDBRANCH  34  37
ENDBRANCH  32  33
ENDBRANCH  31  32
ENDBRANCH  30  31
ENDBRANCH   1  30
TORSDOF 19
ENDMDL
MODEL 3
REMARK VINA RESULT:     -11.9      2.778      8.038
REMARK SMILES Cc1ccnc(C(=O)c2[nH]c3cc(Cl)c(F)cc3c2CC(=O)NCCCCCCNC(=O)c2ccc(-c3c4nc(c(-c5cc(S(=O)(=O)[O-])ccc5F)c5ccc([nH]5)c(-c5cc(S(=O)(=O)[O-])ccc5F)c5nc(c(-c6cc(S(=O)(=O)[O-])ccc6F)c6ccc3[nH]6)C=C5)C=C4)cc2)c1
REMARK SMILES IDX 26 1 25 2 24 3 23 4 21 5 22 6 20 8 19 9 9 10 10 11 11 12
REMARK SMILES IDX 18 14 12 15 17 16 13 17 15 18 14 19 16 20 7 21 8 22 6 23
REMARK SMILES IDX 1 24 2 25 3 26 96 27 4 28 5 29 27 30 28 31 29 32 30 33 31 34
REMARK SMILES IDX 32 36 33 37 34 38 95 39 35 40 94 41 36 42 37 43 38 44 88 45
REMARK SMILES IDX 39 46 93 47 87 48 89 49 40 50 92 51 86 52 85 53 41 55 73 56
REMARK SMILES IDX 53 57 72 58 54 59 57 60 71 61 90 62 55 63 56 64 70 66 91 67
REMARK SMILES IDX 58 68 42 69 43 70 51 71 44 72 50 73 52 74 49 75 45 76 46 77
REMARK SMILES IDX 47 78 48 79 74 80 75 81 83 82 76 83 82 84 84 85 81 86 77 87
REMARK SMILES IDX 78 88 79 89 80 90 59 91 60 92 68 93 61 94 67 95 69 96 66 97
REMARK SMILES IDX 62 98 63 99 64 100 65 101
REMARK H PARENT 23 7 10 13 30 35 89 54 57 65
REMARK Flexibility Score: inf
ROOT
ATOM      1  C   UNL A   1      35.428  29.332  27.519  1.00  0.00     0.002 C 
ENDROOT
BRANCH   1   2
ATOM      2  C   UNL A   1      33.971  28.883  27.655  1.00  0.00     0.021 C 
BRANCH   2   3
ATOM      3  C   UNL A   1      33.420  28.002  26.525  1.00  0.00     0.116 C 
BRANCH   3   4
ATOM      4  N   UNL A   1      33.938  28.317  25.207  1.00  0.00    -0.356 N 
ATOM      5  C   UNL A   1      33.800  27.684  24.006  1.00  0.00     0.224 C 
ATOM      6  O   UNL A   1      34.242  28.264  23.010  1.00  0.00    -0.275 OA
ATOM      7  H   UNL A   1      34.487  29.133  25.172  1.00  0.00     0.163 HD
BRANCH   5   8
ATOM      8  C   UNL A   1      33.090  26.354  23.854  1.00  0.00     0.138 C 
BRANCH   8   9
ATOM      9  C   UNL A   1      31.599  26.354  24.033  1.00  0.00    -0.002 A 
ATOM     10  C   UNL A   1      30.779  25.436  24.698  1.00  0.00     0.093 A 
ATOM     11  N   UNL A   1      29.475  25.830  24.455  1.00  0.00    -0.351 N 
ATOM     12  C   UNL A   1      29.419  27.011  23.764  1.00  0.00     0.048 A 
ATOM     13  H   UNL A   1      28.682  25.323  24.745  1.00  0.00     0.167 HD
ATOM     14  C   UNL A   1      30.727  27.331  23.417  1.00  0.00     0.007 A 
ATOM     15  C   UNL A   1      28.317  27.803  23.406  1.00  0.00     0.050 A 
ATOM     16  C   UNL A   1      30.943  28.476  22.617  1.00  0.00     0.051 A 
ATOM     17  C   UNL A   1      28.568  28.966  22.670  1.00  0.00     0.078 A 
ATOM     18  C   UNL A   1      29.860  29.289  22.276  1.00  0.00     0.142 A 
ATOM     19  Cl  UNL A   1      27.248  29.994  22.261  1.00  0.00    -0.081 Cl
ATOM     20  F   UNL A   1      30.101  30.403  21.569  1.00  0.00    -0.205 F 
BRANCH  10  21
ATOM     21  C   UNL A   1      31.000  24.188  25.428  1.00  0.00     0.227 C 
ATOM     22  O   UNL A   1      30.856  24.184  26.652  1.00  0.00    -0.285 OA
BRANCH  21  23
ATOM     23  C   UNL A   1      31.530  22.938  24.773  1.00  0.00     0.113 A 
ATOM     24  C   UNL A   1      32.937  19.489  25.553  1.00  0.00     0.044 C 
ATOM     25  C   UNL A   1      32.405  20.689  24.828  1.00  0.00    -0.047 A 
ATOM     26  C   UNL A   1      32.401  20.698  23.437  1.00  0.00     0.023 A 
ATOM     27  C   UNL A   1      31.899  21.811  25.500  1.00  0.00     0.036 A 
ATOM     28  C   UNL A   1      31.952  21.831  22.784  1.00  0.00     0.112 A 
ATOM     29  N   UNL A   1      31.530  22.948  23.413  1.00  0.00    -0.253 NA
ENDBRANCH  21  23
ENDBRANCH  10  21
ENDBRANCH   8   9
ENDBRANCH   5   8
ENDBRANCH   3   4
ENDBRANCH   2   3
ENDBRANCH   1   2
BRANCH   1  30
ATOM     30  C   UNL A   1      35.651  30.843  27.492  1.00  0.00     0.002 C 
BRANCH  30  31
ATOM     31  C   UNL A   1      34.377  31.661  27.723  1.00  0.00     0.021 C 
BRANCH  31  32
ATOM     32  C   UNL A   1      34.614  32.938  28.534  1.00  0.00     0.116 C 
BRANCH  32  33
ATOM     33  N   UNL A   1      34.297  32.776  29.937  1.00  0.00    -0.352 N 
ATOM     34  C   UNL A   1      34.974  32.289  31.021  1.00  0.00     0.251 C 
ATOM     35  H   UNL A   1      33.390  33.085  30.161  1.00  0.00     0.163 HD
ATOM     36  O   UNL A   1      34.378  32.360  32.099  1.00  0.00    -0.269 OA
BRANCH  34  37
ATOM     37  C   UNL A   1      36.317  31.647  30.976  1.00  0.00     0.039 A 
ATOM     38  C   UNL A   1      37.532  32.319  30.842  1.00  0.00     0.014 A 
ATOM     39  C   UNL A   1      36.336  30.239  31.017  1.00  0.00     0.014 A 
ATOM     40  C   UNL A   1      38.713  31.614  30.655  1.00  0.00     0.010 A 
ATOM     41  C   UNL A   1      37.520  29.527  30.851  1.00  0.00     0.010 A 
ATOM     42  C   UNL A   1      38.701  30.219  30.617  1.00  0.00    -0.014 A 
BRANCH  42  43
ATOM     43  C   UNL A   1      39.979  29.556  30.377  1.00  0.00     0.031 A 
ATOM     44  C   UNL A   1      40.790  29.286  31.598  1.00  0.00     0.074 A 
ATOM     45  C   UNL A   1      40.396  29.167  29.158  1.00  0.00     0.049 A 
ATOM     46  N   UNL A   1      41.919  29.812  31.952  1.00  0.00    -0.248 NA
ATOM     47  C   UNL A   1      40.186  28.419  32.618  1.00  0.00     0.031 C 
ATOM     48  C   UNL A   1      39.616  29.073  27.920  1.00  0.00     0.029 A 
ATOM     49  N   UNL A   1      41.612  28.675  28.794  1.00  0.00    -0.354 N 
ATOM     50  C   UNL A   1      42.263  29.203  33.161  1.00  0.00     0.074 A 
ATOM     51  C   UNL A   1      41.096  28.478  33.590  1.00  0.00     0.031 C 
ATOM     52  C   UNL A   1      40.304  28.340  27.017  1.00  0.00     0.029 A 
ATOM     53  C   UNL A   1      41.628  28.068  27.549  1.00  0.00     0.049 A 
ATOM     54  H   UNL A   1      42.410  28.744  29.366  1.00  0.00     0.167 HD
ATOM     55  C   UNL A   1      43.545  29.184  33.630  1.00  0.00     0.034 A 
ATOM     56  C   UNL A   1      42.633  27.327  27.026  1.00  0.00     0.034 A 
ATOM     57  C   UNL A   1      44.370  30.136  32.942  1.00  0.00     0.049 A 
ATOM     58  C   UNL A   1      43.877  27.659  27.755  1.00  0.00     0.074 A 
ATOM     59  C   UNL A   1      44.461  31.510  32.889  1.00  0.00     0.029 A 
ATOM     60  N   UNL A   1      45.103  29.655  31.889  1.00  0.00    -0.354 N 
ATOM     61  N   UNL A   1      44.487  28.808  27.688  1.00  0.00    -0.248 NA
ATOM     62  C   UNL A   1      44.260  26.814  28.875  1.00  0.00     0.031 C 
ATOM     63  C   UNL A   1      44.907  31.802  31.570  1.00  0.00     0.029 A 
ATOM     64  C   UNL A   1      45.101  30.593  30.893  1.00  0.00     0.049 A 
ATOM     65  H   UNL A   1      45.557  28.782  31.854  1.00  0.00     0.167 HD
ATOM     66  C   UNL A   1      44.984  29.014  28.965  1.00  0.00     0.074 A 
ATOM     67  C   UNL A   1      44.941  27.702  29.602  1.00  0.00     0.031 C 
ATOM     68  C   UNL A   1      45.122  30.273  29.476  1.00  0.00     0.034 A 
BRANCH  55  69
ATOM     69  C   UNL A   1      44.138  28.063  34.458  1.00  0.00     0.023 A 
ATOM     70  C   UNL A   1      44.356  28.170  35.843  1.00  0.00     0.031 A 
ATOM     71  C   UNL A   1      44.274  26.765  33.919  1.00  0.00     0.131 A 
ATOM     72  C   UNL A   1      44.690  27.058  36.627  1.00  0.00     0.055 A 
ATOM     73  C   UNL A   1      44.542  25.641  34.712  1.00  0.00     0.041 A 
ATOM     74  F   UNL A   1      44.087  26.535  32.609  1.00  0.00    -0.206 F 
ATOM     75  C   UNL A   1      44.751  25.784  36.077  1.00  0.00     0.022 A 
BRANCH  72  76
ATOM     76  S   UNL A   1      45.035  27.267  38.396  1.00  0.00     0.124 S 
ATOM     77  O   UNL A   1      43.974  26.462  39.003  1.00  0.00    -0.237 OA
ATOM     78  O   UNL A   1      46.384  26.708  38.500  1.00  0.00    -0.237 OA
ATOM     79  O   UNL A   1      44.944  28.701  38.597  1.00  0.00    -0.744 OA
ENDBRANCH  72  76
ENDBRANCH  55  69
BRANCH  56  80
ATOM     80  C   UNL A   1      42.465  26.026  26.337  1.00  0.00     0.023 A 
ATOM     81  C   UNL A   1      41.677  25.023  26.933  1.00  0.00     0.031 A 
ATOM     82  C   UNL A   1      43.318  25.645  25.288  1.00  0.00     0.131 A 
ATOM     83  C   UNL A   1      41.793  23.690  26.521  1.00  0.00     0.055 A 
ATOM     84  C   UNL A   1      43.421  24.314  24.866  1.00  0.00     0.041 A 
ATOM     85  F   UNL A   1      44.122  26.548  24.705  1.00  0.00    -0.206 F 
ATOM     86  C   UNL A   1      42.667  23.327  25.495  1.00  0.00     0.022 A 
BRANCH  83  87
ATOM     87  S   UNL A   1      40.876  22.381  27.378  1.00  0.00     0.124 S 
ATOM     88  O   UNL A   1      39.490  22.721  27.062  1.00  0.00    -0.237 OA
ATOM     89  O   UNL A   1      41.394  21.182  26.727  1.00  0.00    -0.237 OA
ATOM     90  O   UNL A   1      41.251  22.559  28.776  1.00  0.00    -0.744 OA
ENDBRANCH  83  87
ENDBRANCH  56  80
BRANCH  68  91
ATOM     91  C   UNL A   1      45.054  31.454  28.536  1.00  0.00     0.023 A 
ATOM     92  C   UNL A   1      46.249  31.826  27.895  1.00  0.00     0.031 A 
ATOM     93  C   UNL A   1      43.960  32.334  28.436  1.00  0.00     0.131 A 
ATOM     94  C   UNL A   1      46.349  33.058  27.243  1.00  0.00     0.055 A 
ATOM     95  C   UNL A   1      44.041  33.530  27.714  1.00  0.00     0.041 A 
ATOM     96  F   UNL A   1      42.819  32.114  29.102  1.00  0.00    -0.206 F 
ATOM     97  C   UNL A   1      45.247  33.907  27.130  1.00  0.00     0.022 A 
BRANCH  94  98
ATOM     98  S   UNL A   1      47.961  33.663  26.681  1.00  0.00     0.124 S 
ATOM     99  O   UNL A   1      48.707  32.423  26.486  1.00  0.00    -0.237 OA
ATOM    100  O   UNL A   1      47.610  34.383  25.457  1.00  0.00    -0.237 OA
ATOM    101  O   UNL A   1      48.426  34.506  27.779  1.00  0.00    -0.744 OA
ENDBRANCH  94  98
ENDBRANCH  68  91
ENDBRANCH  42  43
ENDBRANCH  34  37
ENDBRANCH  32  33
ENDBRANCH  31  32
ENDBRANCH  30  31
ENDBRANCH   1  30
TORSDOF 19
ENDMDL
