MODEL 1
REMARK VINA RESULT:     -11.8      0.000      0.000
REMARK SMILES N#Cc1ccn2cc(C(=O)NCCCCCCNC(=O)c3ccc(-c4c5nc(c(-c6cc(S(=O)(=O)[O-])ccc6F)c6ccc([nH]6)c(-c6cc(S(=O)(=O)[O-])ccc6F)c6nc(c(-c7cc(S(=O)(=O)[O-])ccc7F)c7ccc4[nH]7)C=C6)C=C5)cc3)nc2c1
REMARK SMILES IDX 15 1 14 2 13 3 12 4 11 5 9 6 10 7 8 9 3 10 4 11 86 12 5 13
REMARK SMILES IDX 85 14 6 15 84 16 7 17 2 18 1 19 16 20 17 21 18 22 19 23
REMARK SMILES IDX 20 25 21 26 22 27 83 28 23 29 82 30 24 31 25 32 26 33 76 34
REMARK SMILES IDX 27 35 81 36 75 37 77 38 28 39 80 40 74 41 73 42 29 44 61 45
REMARK SMILES IDX 41 46 60 47 42 48 45 49 59 50 78 51 43 52 44 53 58 55 79 56
REMARK SMILES IDX 46 57 30 58 31 59 39 60 32 61 38 62 40 63 37 64 33 65 34 66
REMARK SMILES IDX 35 67 36 68 62 69 63 70 71 71 64 72 70 73 72 74 69 75 65 76
REMARK SMILES IDX 66 77 67 78 68 79 47 80 48 81 56 82 49 83 55 84 57 85 54 86
REMARK SMILES IDX 50 87 51 88 52 89 53 90
REMARK H PARENT 11 8 18 24 77 43 45 54
REMARK Flexibility Score: inf
ROOT
ATOM      1  C   UNL A   1      35.874  23.152  24.391  1.00  0.00     0.002 C 
ENDROOT
BRANCH   1   2
ATOM      2  C   UNL A   1      35.687  24.060  25.613  1.00  0.00     0.002 C 
BRANCH   2   3
ATOM      3  C   UNL A   1      34.264  24.592  25.811  1.00  0.00     0.021 C 
BRANCH   3   4
ATOM      4  C   UNL A   1      33.186  23.685  25.223  1.00  0.00     0.116 C 
BRANCH   4   5
ATOM      5  N   UNL A   1      32.062  23.540  26.139  1.00  0.00    -0.351 N 
ATOM      6  C   UNL A   1      30.976  24.345  26.369  1.00  0.00     0.271 C 
ATOM      7  O   UNL A   1      30.168  23.990  27.239  1.00  0.00    -0.267 OA
ATOM      8  H   UNL A   1      32.088  22.724  26.688  1.00  0.00     0.163 HD
BRANCH   6   9
ATOM      9  C   UNL A   1      30.769  25.574  25.603  1.00  0.00     0.147 A 
ATOM     10  C   UNL A   1      29.483  28.985  22.995  1.00  0.00     0.057 A 
ATOM     11  C   UNL A   1      30.455  29.707  23.819  1.00  0.00     0.038 A 
ATOM     12  C   UNL A   1      29.251  27.671  23.165  1.00  0.00     0.067 A 
ATOM     13  C   UNL A   1      31.118  29.037  24.779  1.00  0.00     0.094 A 
ATOM     14  C   UNL A   1      29.962  26.969  24.173  1.00  0.00     0.138 A 
ATOM     15  N   UNL A   1      30.863  27.679  24.953  1.00  0.00    -0.306 N 
ATOM     16  N   UNL A   1      29.919  25.709  24.524  1.00  0.00    -0.223 NA
ATOM     17  C   UNL A   1      31.383  26.792  25.856  1.00  0.00     0.127 A 
BRANCH  10  18
ATOM     18  C   UNL A   1      28.740  29.748  21.911  1.00  0.00     0.099 C 
ATOM     19  N   UNL A   1      28.124  30.382  21.011  1.00  0.00    -0.192 NA
ENDBRANCH  10  18
ENDBRANCH   6   9
ENDBRANCH   4   5
ENDBRANCH   3   4
ENDBRANCH   2   3
ENDBRANCH   1   2
BRANCH   1  20
ATOM     20  C   UNL A   1      37.181  22.344  24.359  1.00  0.00     0.021 C 
BRANCH  20  21
ATOM     21  C   UNL A   1      37.722  21.964  25.739  1.00  0.00     0.116 C 
BRANCH  21  22
ATOM     22  N   UNL A   1      39.160  21.806  25.758  1.00  0.00    -0.352 N 
ATOM     23  C   UNL A   1      40.203  22.478  26.330  1.00  0.00     0.251 C 
ATOM     24  H   UNL A   1      39.459  21.030  25.232  1.00  0.00     0.163 HD
ATOM     25  O   UNL A   1      41.313  21.956  26.184  1.00  0.00    -0.269 OA
BRANCH  23  26
ATOM     26  C   UNL A   1      40.110  23.780  27.051  1.00  0.00     0.039 A 
ATOM     27  C   UNL A   1      39.106  24.732  26.883  1.00  0.00     0.014 A 
ATOM     28  C   UNL A   1      41.191  24.090  27.901  1.00  0.00     0.014 A 
ATOM     29  C   UNL A   1      39.232  25.993  27.461  1.00  0.00     0.010 A 
ATOM     30  C   UNL A   1      41.314  25.345  28.490  1.00  0.00     0.010 A 
ATOM     31  C   UNL A   1      40.364  26.320  28.218  1.00  0.00    -0.014 A 
BRANCH  31  32
ATOM     32  C   UNL A   1      40.501  27.703  28.667  1.00  0.00     0.031 A 
ATOM     33  C   UNL A   1      41.682  28.451  28.151  1.00  0.00     0.074 A 
ATOM     34  C   UNL A   1      39.646  28.307  29.516  1.00  0.00     0.049 A 
ATOM     35  N   UNL A   1      42.755  28.785  28.794  1.00  0.00    -0.248 NA
ATOM     36  C   UNL A   1      41.714  28.772  26.720  1.00  0.00     0.031 C 
ATOM     37  C   UNL A   1      38.314  27.882  29.956  1.00  0.00     0.029 A 
ATOM     38  N   UNL A   1      39.806  29.507  30.139  1.00  0.00    -0.354 N 
ATOM     39  C   UNL A   1      43.547  29.497  27.893  1.00  0.00     0.074 A 
ATOM     40  C   UNL A   1      42.907  29.359  26.607  1.00  0.00     0.031 C 
ATOM     41  C   UNL A   1      37.709  28.904  30.606  1.00  0.00     0.029 A 
ATOM     42  C   UNL A   1      38.672  29.978  30.776  1.00  0.00     0.049 A 
ATOM     43  H   UNL A   1      40.658  30.000  30.135  1.00  0.00     0.167 HD
ATOM     44  C   UNL A   1      44.605  30.262  28.293  1.00  0.00     0.034 A 
ATOM     45  C   UNL A   1      38.519  31.185  31.373  1.00  0.00     0.034 A 
ATOM     46  C   UNL A   1      44.971  29.993  29.656  1.00  0.00     0.049 A 
ATOM     47  C   UNL A   1      39.869  31.691  31.721  1.00  0.00     0.074 A 
ATOM     48  C   UNL A   1      45.512  28.915  30.326  1.00  0.00     0.029 A 
ATOM     49  N   UNL A   1      44.488  30.834  30.628  1.00  0.00    -0.354 N 
ATOM     50  N   UNL A   1      40.628  31.167  32.641  1.00  0.00    -0.248 NA
ATOM     51  C   UNL A   1      40.553  32.528  30.748  1.00  0.00     0.031 C 
ATOM     52  C   UNL A   1      44.896  28.936  31.610  1.00  0.00     0.029 A 
ATOM     53  C   UNL A   1      44.047  30.045  31.659  1.00  0.00     0.049 A 
ATOM     54  H   UNL A   1      44.461  31.817  30.590  1.00  0.00     0.167 HD
ATOM     55  C   UNL A   1      41.910  31.234  32.118  1.00  0.00     0.074 A 
ATOM     56  C   UNL A   1      41.814  32.172  31.001  1.00  0.00     0.031 C 
ATOM     57  C   UNL A   1      42.874  30.330  32.462  1.00  0.00     0.034 A 
BRANCH  44  58
ATOM     58  C   UNL A   1      45.153  31.449  27.540  1.00  0.00     0.023 A 
ATOM     59  C   UNL A   1      44.492  32.689  27.500  1.00  0.00     0.031 A 
ATOM     60  C   UNL A   1      46.468  31.433  27.027  1.00  0.00     0.131 A 
ATOM     61  C   UNL A   1      45.108  33.830  26.967  1.00  0.00     0.055 A 
ATOM     62  C   UNL A   1      47.107  32.587  26.554  1.00  0.00     0.041 A 
ATOM     63  F   UNL A   1      47.195  30.305  27.019  1.00  0.00    -0.206 F 
ATOM     64  C   UNL A   1      46.426  33.796  26.521  1.00  0.00     0.022 A 
BRANCH  61  65
ATOM     65  S   UNL A   1      44.199  35.394  26.852  1.00  0.00     0.124 S 
ATOM     66  O   UNL A   1      45.267  36.340  26.547  1.00  0.00    -0.237 OA
ATOM     67  O   UNL A   1      43.268  35.117  25.762  1.00  0.00    -0.237 OA
ATOM     68  O   UNL A   1      43.585  35.527  28.170  1.00  0.00    -0.744 OA
ENDBRANCH  61  65
ENDBRANCH  44  58
BRANCH  45  69
ATOM     69  C   UNL A   1      37.389  32.107  31.102  1.00  0.00     0.023 A 
ATOM     70  C   UNL A   1      36.641  32.624  32.179  1.00  0.00     0.031 A 
ATOM     71  C   UNL A   1      36.846  32.237  29.814  1.00  0.00     0.131 A 
ATOM     72  C   UNL A   1      35.383  33.196  31.961  1.00  0.00     0.055 A 
ATOM     73  C   UNL A   1      35.595  32.827  29.596  1.00  0.00     0.041 A 
ATOM     74  F   UNL A   1      37.491  31.731  28.751  1.00  0.00    -0.206 F 
ATOM     75  C   UNL A   1      34.850  33.296  30.676  1.00  0.00     0.022 A 
BRANCH  72  76
ATOM     76  S   UNL A   1      34.369  33.740  33.363  1.00  0.00     0.124 S 
ATOM     77  O   UNL A   1      34.205  35.166  33.087  1.00  0.00    -0.237 OA
ATOM     78  O   UNL A   1      33.171  32.926  33.197  1.00  0.00    -0.237 OA
ATOM     79  O   UNL A   1      35.196  33.429  34.525  1.00  0.00    -0.744 OA
ENDBRANCH  72  76
ENDBRANCH  45  69
BRANCH  57  80
ATOM     80  C   UNL A   1      42.600  29.358  33.590  1.00  0.00     0.023 A 
ATOM     81  C   UNL A   1      43.317  29.530  34.786  1.00  0.00     0.031 A 
ATOM     82  C   UNL A   1      41.872  28.161  33.435  1.00  0.00     0.131 A 
ATOM     83  C   UNL A   1      43.338  28.515  35.751  1.00  0.00     0.055 A 
ATOM     84  C   UNL A   1      41.838  27.181  34.433  1.00  0.00     0.041 A 
ATOM     85  F   UNL A   1      41.252  27.863  32.287  1.00  0.00    -0.206 F 
ATOM     86  C   UNL A   1      42.588  27.347  35.591  1.00  0.00     0.022 A 
BRANCH  83  87
ATOM     87  S   UNL A   1      44.468  28.615  37.163  1.00  0.00     0.124 S 
ATOM     88  O   UNL A   1      44.202  27.362  37.863  1.00  0.00    -0.237 OA
ATOM     89  O   UNL A   1      45.772  28.701  36.508  1.00  0.00    -0.237 OA
ATOM     90  O   UNL A   1      44.050  29.824  37.868  1.00  0.00    -0.744 OA
ENDBRANCH  83  87
ENDBRANCH  57  80
ENDBRANCH  31  32
ENDBRANCH  23  26
ENDBRANCH  21  22
ENDBRANCH  20  21
ENDBRANCH   1  20
TORSDOF 17
ENDMDL
MODEL 2
REMARK VINA RESULT:     -11.6      3.554      8.139
REMARK SMILES N#Cc1ccn2cc(C(=O)NCCCCCCNC(=O)c3ccc(-c4c5nc(c(-c6cc(S(=O)(=O)[O-])ccc6F)c6ccc([nH]6)c(-c6cc(S(=O)(=O)[O-])ccc6F)c6nc(c(-c7cc(S(=O)(=O)[O-])ccc7F)c7ccc4[nH]7)C=C6)C=C5)cc3)nc2c1
REMARK SMILES IDX 15 1 14 2 13 3 12 4 11 5 9 6 10 7 8 9 3 10 4 11 86 12 5 13
REMARK SMILES IDX 85 14 6 15 84 16 7 17 2 18 1 19 16 20 17 21 18 22 19 23
REMARK SMILES IDX 20 25 21 26 22 27 83 28 23 29 82 30 24 31 25 32 26 33 76 34
REMARK SMILES IDX 27 35 81 36 75 37 77 38 28 39 80 40 74 41 73 42 29 44 61 45
REMARK SMILES IDX 41 46 60 47 42 48 45 49 59 50 78 51 43 52 44 53 58 55 79 56
REMARK SMILES IDX 46 57 30 58 31 59 39 60 32 61 38 62 40 63 37 64 33 65 34 66
REMARK SMILES IDX 35 67 36 68 62 69 63 70 71 71 64 72 70 73 72 74 69 75 65 76
REMARK SMILES IDX 66 77 67 78 68 79 47 80 48 81 56 82 49 83 55 84 57 85 54 86
REMARK SMILES IDX 50 87 51 88 52 89 53 90
REMARK H PARENT 11 8 18 24 77 43 45 54
REMARK Flexibility Score: inf
ROOT
ATOM      1  C   UNL A   1      30.677  29.714  23.981  1.00  0.00     0.002 C 
ENDROOT
BRANCH   1   2
ATOM      2  C   UNL A   1      30.364  28.654  22.917  1.00  0.00     0.002 C 
BRANCH   2   3
ATOM      3  C   UNL A   1      29.763  27.353  23.458  1.00  0.00     0.021 C 
BRANCH   3   4
ATOM      4  C   UNL A   1      30.761  26.198  23.518  1.00  0.00     0.116 C 
BRANCH   4   5
ATOM      5  N   UNL A   1      31.630  26.192  22.349  1.00  0.00    -0.351 N 
ATOM      6  C   UNL A   1      32.604  25.313  21.953  1.00  0.00     0.271 C 
ATOM      7  O   UNL A   1      33.221  25.564  20.908  1.00  0.00    -0.267 OA
ATOM      8  H   UNL A   1      31.496  26.953  21.739  1.00  0.00     0.163 HD
BRANCH   6   9
ATOM      9  C   UNL A   1      32.895  24.106  22.729  1.00  0.00     0.147 A 
ATOM     10  C   UNL A   1      33.181  20.099  24.717  1.00  0.00     0.057 A 
ATOM     11  C   UNL A   1      34.506  20.606  25.078  1.00  0.00     0.038 A 
ATOM     12  C   UNL A   1      32.311  20.839  24.006  1.00  0.00     0.067 A 
ATOM     13  C   UNL A   1      34.864  21.839  24.672  1.00  0.00     0.094 A 
ATOM     14  C   UNL A   1      32.692  22.141  23.590  1.00  0.00     0.138 A 
ATOM     15  N   UNL A   1      33.959  22.592  23.928  1.00  0.00    -0.306 N 
ATOM     16  N   UNL A   1      32.033  23.043  22.907  1.00  0.00    -0.223 NA
ATOM     17  C   UNL A   1      34.087  23.844  23.389  1.00  0.00     0.127 A 
BRANCH  10  18
ATOM     18  C   UNL A   1      32.784  18.708  25.182  1.00  0.00     0.099 C 
ATOM     19  N   UNL A   1      32.455  17.553  25.568  1.00  0.00    -0.192 NA
ENDBRANCH  10  18
ENDBRANCH   6   9
ENDBRANCH   4   5
ENDBRANCH   3   4
ENDBRANCH   2   3
ENDBRANCH   1   2
BRANCH   1  20
ATOM     20  C   UNL A   1      31.960  29.480  24.793  1.00  0.00     0.021 C 
BRANCH  20  21
ATOM     21  C   UNL A   1      31.859  29.882  26.265  1.00  0.00     0.116 C 
BRANCH  21  22
ATOM     22  N   UNL A   1      31.536  31.280  26.449  1.00  0.00    -0.352 N 
ATOM     23  C   UNL A   1      32.191  32.372  26.944  1.00  0.00     0.251 C 
ATOM     24  H   UNL A   1      30.625  31.497  26.145  1.00  0.00     0.163 HD
ATOM     25  O   UNL A   1      31.589  33.444  26.837  1.00  0.00    -0.269 OA
BRANCH  23  26
ATOM     26  C   UNL A   1      33.515  32.356  27.628  1.00  0.00     0.039 A 
ATOM     27  C   UNL A   1      34.413  33.420  27.687  1.00  0.00     0.014 A 
ATOM     28  C   UNL A   1      33.909  31.118  28.176  1.00  0.00     0.014 A 
ATOM     29  C   UNL A   1      35.701  33.224  28.180  1.00  0.00     0.010 A 
ATOM     30  C   UNL A   1      35.191  30.922  28.681  1.00  0.00     0.010 A 
ATOM     31  C   UNL A   1      36.110  31.962  28.625  1.00  0.00    -0.014 A 
BRANCH  31  32
ATOM     32  C   UNL A   1      37.515  31.794  28.987  1.00  0.00     0.031 A 
ATOM     33  C   UNL A   1      38.100  30.444  28.754  1.00  0.00     0.074 A 
ATOM     34  C   UNL A   1      38.275  32.768  29.525  1.00  0.00     0.049 A 
ATOM     35  N   UNL A   1      38.405  29.546  29.635  1.00  0.00    -0.248 NA
ATOM     36  C   UNL A   1      38.268  30.004  27.365  1.00  0.00     0.031 C 
ATOM     37  C   UNL A   1      38.014  34.208  29.619  1.00  0.00     0.029 A 
ATOM     38  N   UNL A   1      39.515  32.645  30.074  1.00  0.00    -0.354 N 
ATOM     39  C   UNL A   1      38.948  28.471  28.931  1.00  0.00     0.074 A 
ATOM     40  C   UNL A   1      38.735  28.764  27.534  1.00  0.00     0.031 C 
ATOM     41  C   UNL A   1      39.147  34.844  30.001  1.00  0.00     0.029 A 
ATOM     42  C   UNL A   1      40.145  33.846  30.343  1.00  0.00     0.049 A 
ATOM     43  H   UNL A   1      39.929  31.772  30.263  1.00  0.00     0.167 HD
ATOM     44  C   UNL A   1      39.657  27.476  29.542  1.00  0.00     0.034 A 
ATOM     45  C   UNL A   1      41.416  34.015  30.782  1.00  0.00     0.034 A 
ATOM     46  C   UNL A   1      39.498  27.512  30.970  1.00  0.00     0.049 A 
ATOM     47  C   UNL A   1      41.837  32.755  31.442  1.00  0.00     0.074 A 
ATOM     48  C   UNL A   1      38.453  27.288  31.842  1.00  0.00     0.029 A 
ATOM     49  N   UNL A   1      40.474  28.136  31.707  1.00  0.00    -0.354 N 
ATOM     50  N   UNL A   1      41.347  32.326  32.571  1.00  0.00    -0.248 NA
ATOM     51  C   UNL A   1      42.506  31.752  30.629  1.00  0.00     0.031 C 
ATOM     52  C   UNL A   1      38.660  28.212  32.906  1.00  0.00     0.029 A 
ATOM     53  C   UNL A   1      39.838  28.915  32.639  1.00  0.00     0.049 A 
ATOM     54  H   UNL A   1      41.446  28.042  31.589  1.00  0.00     0.167 HD
ATOM     55  C   UNL A   1      41.248  30.952  32.411  1.00  0.00     0.074 A 
ATOM     56  C   UNL A   1      42.070  30.649  31.240  1.00  0.00     0.031 C 
ATOM     57  C   UNL A   1      40.304  30.218  33.070  1.00  0.00     0.034 A 
BRANCH  44  58
ATOM     58  C   UNL A   1      40.707  26.623  28.877  1.00  0.00     0.023 A 
ATOM     59  C   UNL A   1      40.447  25.317  28.428  1.00  0.00     0.031 A 
ATOM     60  C   UNL A   1      41.939  27.181  28.472  1.00  0.00     0.131 A 
ATOM     61  C   UNL A   1      41.371  24.616  27.640  1.00  0.00     0.055 A 
ATOM     62  C   UNL A   1      42.833  26.505  27.631  1.00  0.00     0.041 A 
ATOM     63  F   UNL A   1      42.291  28.424  28.838  1.00  0.00    -0.206 F 
ATOM     64  C   UNL A   1      42.551  25.213  27.210  1.00  0.00     0.022 A 
BRANCH  61  65
ATOM     65  S   UNL A   1      41.042  22.902  27.148  1.00  0.00     0.124 S 
ATOM     66  O   UNL A   1      41.881  22.765  25.962  1.00  0.00    -0.237 OA
ATOM     67  O   UNL A   1      41.487  22.164  28.328  1.00  0.00    -0.237 OA
ATOM     68  O   UNL A   1      39.601  22.885  26.918  1.00  0.00    -0.744 OA
ENDBRANCH  61  65
ENDBRANCH  44  58
BRANCH  45  69
ATOM     69  C   UNL A   1      42.399  34.925  30.146  1.00  0.00     0.023 A 
ATOM     70  C   UNL A   1      42.689  34.787  28.775  1.00  0.00     0.031 A 
ATOM     71  C   UNL A   1      43.272  35.709  30.918  1.00  0.00     0.131 A 
ATOM     72  C   UNL A   1      43.837  35.371  28.228  1.00  0.00     0.055 A 
ATOM     73  C   UNL A   1      44.410  36.308  30.365  1.00  0.00     0.041 A 
ATOM     74  F   UNL A   1      43.073  35.849  32.238  1.00  0.00    -0.206 F 
ATOM     75  C   UNL A   1      44.706  36.128  29.015  1.00  0.00     0.022 A 
BRANCH  72  76
ATOM     76  S   UNL A   1      44.274  35.081  26.492  1.00  0.00     0.124 S 
ATOM     77  O   UNL A   1      42.992  35.271  25.817  1.00  0.00    -0.237 OA
ATOM     78  O   UNL A   1      45.268  36.122  26.258  1.00  0.00    -0.237 OA
ATOM     79  O   UNL A   1      44.774  33.709  26.489  1.00  0.00    -0.744 OA
ENDBRANCH  72  76
ENDBRANCH  45  69
BRANCH  57  80
ATOM     80  C   UNL A   1      39.481  30.884  34.153  1.00  0.00     0.023 A 
ATOM     81  C   UNL A   1      38.395  31.680  33.747  1.00  0.00     0.031 A 
ATOM     82  C   UNL A   1      39.877  30.964  35.502  1.00  0.00     0.131 A 
ATOM     83  C   UNL A   1      37.779  32.550  34.655  1.00  0.00     0.055 A 
ATOM     84  C   UNL A   1      39.211  31.781  36.422  1.00  0.00     0.041 A 
ATOM     85  F   UNL A   1      40.966  30.329  35.951  1.00  0.00    -0.206 F 
ATOM     86  C   UNL A   1      38.168  32.595  35.996  1.00  0.00     0.022 A 
BRANCH  83  87
ATOM     87  S   UNL A   1      36.566  33.767  34.079  1.00  0.00     0.124 S 
ATOM     88  O   UNL A   1      35.474  33.591  35.031  1.00  0.00    -0.237 OA
ATOM     89  O   UNL A   1      37.306  35.021  34.200  1.00  0.00    -0.237 OA
ATOM     90  O   UNL A   1      36.272  33.353  32.709  1.00  0.00    -0.744 OA
ENDBRANCH  83  87
ENDBRANCH  57  80
ENDBRANCH  31  32
ENDBRANCH  23  26
ENDBRANCH  21  22
ENDBRANCH  20  21
ENDBRANCH   1  20
TORSDOF 17
ENDMDL
MODEL 3
REMARK VINA RESULT:     -11.6      3.297      8.591
REMARK SMILES N#Cc1ccn2cc(C(=O)NCCCCCCNC(=O)c3ccc(-c4c5nc(c(-c6cc(S(=O)(=O)[O-])ccc6F)c6ccc([nH]6)c(-c6cc(S(=O)(=O)[O-])ccc6F)c6nc(c(-c7cc(S(=O)(=O)[O-])ccc7F)c7ccc4[nH]7)C=C6)C=C5)cc3)nc2c1
REMARK SMILES IDX 15 1 14 2 13 3 12 4 11 5 9 6 10 7 8 9 3 10 4 11 86 12 5 13
REMARK SMILES IDX 85 14 6 15 84 16 7 17 2 18 1 19 16 20 17 21 18 22 19 23
REMARK SMILES IDX 20 25 21 26 22 27 83 28 23 29 82 30 24 31 25 32 26 33 76 34
REMARK SMILES IDX 27 35 81 36 75 37 77 38 28 39 80 40 74 41 73 42 29 44 61 45
REMARK SMILES IDX 41 46 60 47 42 48 45 49 59 50 78 51 43 52 44 53 58 55 79 56
REMARK SMILES IDX 46 57 30 58 31 59 39 60 32 61 38 62 40 63 37 64 33 65 34 66
REMARK SMILES IDX 35 67 36 68 62 69 63 70 71 71 64 72 70 73 72 74 69 75 65 76
REMARK SMILES IDX 66 77 67 78 68 79 47 80 48 81 56 82 49 83 55 84 57 85 54 86
REMARK SMILES IDX 50 87 51 88 52 89 53 90
REMARK H PARENT 11 8 18 24 77 43 45 54
REMARK Flexibility Score: inf
ROOT
ATOM      1  C   UNL A   1      32.025  29.204  26.048  1.00  0.00     0.002 C 
ENDROOT
BRANCH   1   2
ATOM      2  C   UNL A   1      33.409  28.670  25.655  1.00  0.00     0.002 C 
BRANCH   2   3
ATOM      3  C   UNL A   1      33.621  27.174  25.910  1.00  0.00     0.021 C 
BRANCH   3   4
ATOM      4  C   UNL A   1      32.370  26.330  25.673  1.00  0.00     0.116 C 
BRANCH   4   5
ATOM      5  N   UNL A   1      32.435  25.642  24.391  1.00  0.00    -0.351 N 
ATOM      6  C   UNL A   1      31.756  25.853  23.219  1.00  0.00     0.271 C 
ATOM      7  O   UNL A   1      31.990  25.091  22.270  1.00  0.00    -0.267 OA
ATOM      8  H   UNL A   1      33.077  24.896  24.362  1.00  0.00     0.163 HD
BRANCH   6   9
ATOM      9  C   UNL A   1      30.799  26.952  23.085  1.00  0.00     0.147 A 
ATOM     10  C   UNL A   1      28.372  30.601  22.148  1.00  0.00     0.057 A 
ATOM     11  C   UNL A   1      27.327  29.821  22.813  1.00  0.00     0.038 A 
ATOM     12  C   UNL A   1      29.625  30.132  22.011  1.00  0.00     0.067 A 
ATOM     13  C   UNL A   1      27.630  28.597  23.284  1.00  0.00     0.094 A 
ATOM     14  C   UNL A   1      29.939  28.844  22.519  1.00  0.00     0.138 A 
ATOM     15  N   UNL A   1      28.927  28.117  23.128  1.00  0.00    -0.306 N 
ATOM     16  N   UNL A   1      31.067  28.180  22.515  1.00  0.00    -0.223 NA
ATOM     17  C   UNL A   1      29.474  26.917  23.496  1.00  0.00     0.127 A 
BRANCH  10  18
ATOM     18  C   UNL A   1      28.022  31.984  21.621  1.00  0.00     0.099 C 
ATOM     19  N   UNL A   1      27.732  33.130  21.184  1.00  0.00    -0.192 NA
ENDBRANCH  10  18
ENDBRANCH   6   9
ENDBRANCH   4   5
ENDBRANCH   3   4
ENDBRANCH   2   3
ENDBRANCH   1   2
BRANCH   1  20
ATOM     20  C   UNL A   1      32.025  30.499  26.875  1.00  0.00     0.021 C 
BRANCH  20  21
ATOM     21  C   UNL A   1      33.358  31.251  26.869  1.00  0.00     0.116 C 
BRANCH  21  22
ATOM     22  N   UNL A   1      33.642  31.907  28.128  1.00  0.00    -0.352 N 
ATOM     23  C   UNL A   1      34.733  32.013  28.943  1.00  0.00     0.251 C 
ATOM     24  H   UNL A   1      32.862  32.391  28.482  1.00  0.00     0.163 HD
ATOM     25  O   UNL A   1      34.597  32.764  29.914  1.00  0.00    -0.269 OA
BRANCH  23  26
ATOM     26  C   UNL A   1      36.016  31.272  28.781  1.00  0.00     0.039 A 
ATOM     27  C   UNL A   1      36.151  29.978  28.281  1.00  0.00     0.014 A 
ATOM     28  C   UNL A   1      37.167  31.923  29.269  1.00  0.00     0.014 A 
ATOM     29  C   UNL A   1      37.375  29.318  28.364  1.00  0.00     0.010 A 
ATOM     30  C   UNL A   1      38.395  31.271  29.343  1.00  0.00     0.010 A 
ATOM     31  C   UNL A   1      38.483  29.943  28.947  1.00  0.00    -0.014 A 
BRANCH  31  32
ATOM     32  C   UNL A   1      39.689  29.141  29.137  1.00  0.00     0.031 A 
ATOM     33  C   UNL A   1      40.016  28.762  30.540  1.00  0.00     0.074 A 
ATOM     34  C   UNL A   1      40.505  28.760  28.134  1.00  0.00     0.049 A 
ATOM     35  N   UNL A   1      40.956  29.235  31.294  1.00  0.00    -0.248 NA
ATOM     36  C   UNL A   1      39.121  27.818  31.217  1.00  0.00     0.031 C 
ATOM     37  C   UNL A   1      40.278  28.792  26.686  1.00  0.00     0.029 A 
ATOM     38  N   UNL A   1      41.739  28.195  28.239  1.00  0.00    -0.354 N 
ATOM     39  C   UNL A   1      40.877  28.544  32.502  1.00  0.00     0.074 A 
ATOM     40  C   UNL A   1      39.663  27.767  32.436  1.00  0.00     0.031 C 
ATOM     41  C   UNL A   1      41.251  28.083  26.065  1.00  0.00     0.029 A 
ATOM     42  C   UNL A   1      42.248  27.704  27.050  1.00  0.00     0.049 A 
ATOM     43  H   UNL A   1      42.229  28.140  29.091  1.00  0.00     0.167 HD
ATOM     44  C   UNL A   1      41.887  28.555  33.422  1.00  0.00     0.034 A 
ATOM     45  C   UNL A   1      43.395  27.000  26.888  1.00  0.00     0.034 A 
ATOM     46  C   UNL A   1      42.853  29.581  33.137  1.00  0.00     0.049 A 
ATOM     47  C   UNL A   1      44.277  27.301  28.042  1.00  0.00     0.074 A 
ATOM     48  C   UNL A   1      42.843  30.960  33.146  1.00  0.00     0.029 A 
ATOM     49  N   UNL A   1      43.990  29.219  32.458  1.00  0.00    -0.354 N 
ATOM     50  N   UNL A   1      44.842  28.459  28.244  1.00  0.00    -0.248 NA
ATOM     51  C   UNL A   1      44.193  26.434  29.207  1.00  0.00     0.031 C 
ATOM     52  C   UNL A   1      43.697  31.339  32.071  1.00  0.00     0.029 A 
ATOM     53  C   UNL A   1      44.205  30.172  31.496  1.00  0.00     0.049 A 
ATOM     54  H   UNL A   1      44.546  28.425  32.630  1.00  0.00     0.167 HD
ATOM     55  C   UNL A   1      44.777  28.644  29.617  1.00  0.00     0.074 A 
ATOM     56  C   UNL A   1      44.463  27.325  30.162  1.00  0.00     0.031 C 
ATOM     57  C   UNL A   1      44.720  29.892  30.170  1.00  0.00     0.034 A 
BRANCH  44  58
ATOM     58  C   UNL A   1      42.150  27.472  34.438  1.00  0.00     0.023 A 
ATOM     59  C   UNL A   1      42.893  26.318  34.136  1.00  0.00     0.031 A 
ATOM     60  C   UNL A   1      41.852  27.676  35.803  1.00  0.00     0.131 A 
ATOM     61  C   UNL A   1      43.294  25.423  35.138  1.00  0.00     0.055 A 
ATOM     62  C   UNL A   1      42.309  26.816  36.811  1.00  0.00     0.041 A 
ATOM     63  F   UNL A   1      41.153  28.748  36.207  1.00  0.00    -0.206 F 
ATOM     64  C   UNL A   1      43.035  25.680  36.481  1.00  0.00     0.022 A 
BRANCH  61  65
ATOM     65  S   UNL A   1      44.177  23.899  34.707  1.00  0.00     0.124 S 
ATOM     66  O   UNL A   1      45.001  23.686  35.892  1.00  0.00    -0.237 OA
ATOM     67  O   UNL A   1      43.075  22.959  34.523  1.00  0.00    -0.237 OA
ATOM     68  O   UNL A   1      44.894  24.256  33.486  1.00  0.00    -0.744 OA
ENDBRANCH  61  65
ENDBRANCH  44  58
BRANCH  45  69
ATOM     69  C   UNL A   1      43.481  25.711  26.159  1.00  0.00     0.023 A 
ATOM     70  C   UNL A   1      42.596  24.666  26.489  1.00  0.00     0.031 A 
ATOM     71  C   UNL A   1      44.601  25.390  25.376  1.00  0.00     0.131 A 
ATOM     72  C   UNL A   1      42.865  23.353  26.088  1.00  0.00     0.055 A 
ATOM     73  C   UNL A   1      44.859  24.079  24.960  1.00  0.00     0.041 A 
ATOM     74  F   UNL A   1      45.503  26.333  25.060  1.00  0.00    -0.206 F 
ATOM     75  C   UNL A   1      43.996  23.049  25.329  1.00  0.00     0.022 A 
BRANCH  72  76
ATOM     76  S   UNL A   1      41.793  21.993  26.626  1.00  0.00     0.124 S 
ATOM     77  O   UNL A   1      42.215  20.904  25.747  1.00  0.00    -0.237 OA
ATOM     78  O   UNL A   1      42.172  21.852  28.027  1.00  0.00    -0.237 OA
ATOM     79  O   UNL A   1      40.446  22.499  26.378  1.00  0.00    -0.744 OA
ENDBRANCH  72  76
ENDBRANCH  45  69
BRANCH  57  80
ATOM     80  C   UNL A   1      44.935  31.099  29.282  1.00  0.00     0.023 A 
ATOM     81  C   UNL A   1      46.183  31.744  29.353  1.00  0.00     0.031 A 
ATOM     82  C   UNL A   1      43.901  31.760  28.590  1.00  0.00     0.131 A 
ATOM     83  C   UNL A   1      46.353  33.017  28.795  1.00  0.00     0.055 A 
ATOM     84  C   UNL A   1      44.097  33.000  27.973  1.00  0.00     0.041 A 
ATOM     85  F   UNL A   1      42.654  31.275  28.568  1.00  0.00    -0.206 F 
ATOM     86  C   UNL A   1      45.323  33.644  28.090  1.00  0.00     0.022 A 
BRANCH  83  87
ATOM     87  S   UNL A   1      47.866  33.962  29.113  1.00  0.00     0.124 S 
ATOM     88  O   UNL A   1      47.919  34.860  27.964  1.00  0.00    -0.237 OA
ATOM     89  O   UNL A   1      47.565  34.602  30.393  1.00  0.00    -0.237 OA
ATOM     90  O   UNL A   1      48.915  32.948  29.161  1.00  0.00    -0.744 OA
ENDBRANCH  83  87
ENDBRANCH  57  80
ENDBRANCH  31  32
ENDBRANCH  23  26
ENDBRANCH  21  22
ENDBRANCH  20  21
ENDBRANCH   1  20
TORSDOF 17
ENDMDL
