MODEL 1
REMARK VINA RESULT:     -11.6      0.000      0.000
REMARK SMILES COc1ccc([C@H](C)NC(=O)c2cnn(C)c2C(=O)NCCCCCCNC(=O)c2ccc(-c3c4nc(c(-c5cc(S(=O)(=O)[O-])ccc5F)c5ccc([nH]5)c(-c5cc(S(=O)(=O)[O-])ccc5F)c5nc(c(-c6cc(S(=O)(=O)[O-])ccc6F)c6ccc3[nH]6)C=C5)C=C4)cc2)cc1
REMARK SMILES IDX 23 1 22 2 21 3 20 4 18 5 19 6 17 8 12 9 13 10 14 11 15 12
REMARK SMILES IDX 16 13 10 14 9 15 11 17 7 18 8 19 6 20 3 21 4 22 94 23 5 24
REMARK SMILES IDX 93 25 2 26 1 27 24 28 25 29 26 30 27 31 28 32 29 34 30 35
REMARK SMILES IDX 31 36 92 37 32 38 91 39 33 40 34 41 35 42 85 43 36 44 90 45
REMARK SMILES IDX 84 46 86 47 37 48 89 49 83 50 82 51 38 53 70 54 50 55 69 56
REMARK SMILES IDX 51 57 54 58 68 59 87 60 52 61 53 62 67 64 88 65 55 66 39 67
REMARK SMILES IDX 40 68 48 69 41 70 47 71 49 72 46 73 42 74 43 75 44 76 45 77
REMARK SMILES IDX 71 78 72 79 80 80 73 81 79 82 81 83 78 84 74 85 75 86 76 87
REMARK SMILES IDX 77 88 56 89 57 90 65 91 58 92 64 93 66 94 63 95 59 96 60 97
REMARK SMILES IDX 61 98 62 99
REMARK H PARENT 20 7 9 16 27 33 86 52 54 63
REMARK Flexibility Score: inf
ROOT
ATOM      1  C   UNL A   1      35.177  23.646  23.456  1.00  0.00     0.002 C 
ENDROOT
BRANCH   1   2
ATOM      2  C   UNL A   1      34.068  22.948  22.657  1.00  0.00     0.021 C 
BRANCH   2   3
ATOM      3  C   UNL A   1      33.138  23.889  21.892  1.00  0.00     0.116 C 
BRANCH   3   4
ATOM      4  N   UNL A   1      31.842  24.019  22.509  1.00  0.00    -0.351 N 
ATOM      5  C   UNL A   1      31.299  24.632  23.600  1.00  0.00     0.270 C 
ATOM      6  O   UNL A   1      30.065  24.560  23.589  1.00  0.00    -0.268 OA
ATOM      7  H   UNL A   1      31.156  23.527  22.002  1.00  0.00     0.163 HD
BRANCH   5   8
ATOM      8  C   UNL A   1      31.979  25.298  24.702  1.00  0.00     0.138 A 
ATOM      9  C   UNL A   1      31.832  24.881  26.042  1.00  0.00     0.090 A 
ATOM     10  C   UNL A   1      32.344  25.923  26.826  1.00  0.00     0.149 A 
ATOM     11  N   UNL A   1      32.935  26.851  26.089  1.00  0.00    -0.180 NA
ATOM     12  N   UNL A   1      32.795  26.406  24.819  1.00  0.00    -0.262 N 
ATOM     13  C   UNL A   1      33.567  27.142  23.852  1.00  0.00     0.174 C 
BRANCH   9  14
ATOM     14  C   UNL A   1      31.175  23.707  26.575  1.00  0.00     0.255 C 
ATOM     15  N   UNL A   1      31.856  22.524  26.656  1.00  0.00    -0.345 N 
ATOM     16  H   UNL A   1      31.328  21.769  27.005  1.00  0.00     0.164 HD
ATOM     17  O   UNL A   1      30.045  23.770  27.070  1.00  0.00    -0.269 OA
BRANCH  15  18
ATOM     18  C   UNL A   1      33.236  22.194  26.312  1.00  0.00     0.109 C 
ATOM     19  C   UNL A   1      34.059  21.958  27.579  1.00  0.00     0.036 C 
BRANCH  18  20
ATOM     20  C   UNL A   1      33.260  20.987  25.389  1.00  0.00    -0.026 A 
ATOM     21  C   UNL A   1      33.150  18.620  23.868  1.00  0.00     0.118 A 
ATOM     22  C   UNL A   1      32.126  19.561  23.778  1.00  0.00     0.047 A 
ATOM     23  C   UNL A   1      34.266  18.891  24.656  1.00  0.00     0.047 A 
ATOM     24  C   UNL A   1      32.178  20.734  24.534  1.00  0.00     0.009 A 
ATOM     25  C   UNL A   1      34.321  20.067  25.411  1.00  0.00     0.009 A 
BRANCH  21  26
ATOM     26  O   UNL A   1      32.979  17.480  23.131  1.00  0.00    -0.497 OA
ATOM     27  C   UNL A   1      34.100  16.600  23.141  1.00  0.00     0.278 C 
ENDBRANCH  21  26
ENDBRANCH  18  20
ENDBRANCH  15  18
ENDBRANCH   9  14
ENDBRANCH   5   8
ENDBRANCH   3   4
ENDBRANCH   2   3
ENDBRANCH   1   2
BRANCH   1  28
ATOM     28  C   UNL A   1      36.586  23.056  23.315  1.00  0.00     0.002 C 
BRANCH  28  29
ATOM     29  C   UNL A   1      36.891  21.832  24.185  1.00  0.00     0.021 C 
BRANCH  29  30
ATOM     30  C   UNL A   1      37.351  22.149  25.605  1.00  0.00     0.116 C 
BRANCH  30  31
ATOM     31  N   UNL A   1      38.344  21.197  26.076  1.00  0.00    -0.352 N 
ATOM     32  C   UNL A   1      39.610  21.421  26.559  1.00  0.00     0.251 C 
ATOM     33  H   UNL A   1      38.068  20.253  26.044  1.00  0.00     0.163 HD
ATOM     34  O   UNL A   1      40.380  20.471  26.687  1.00  0.00    -0.269 OA
BRANCH  32  35
ATOM     35  C   UNL A   1      40.057  22.790  26.907  1.00  0.00     0.039 A 
ATOM     36  C   UNL A   1      40.935  22.964  27.981  1.00  0.00     0.014 A 
ATOM     37  C   UNL A   1      39.580  23.905  26.210  1.00  0.00     0.014 A 
ATOM     38  C   UNL A   1      41.374  24.246  28.323  1.00  0.00     0.010 A 
ATOM     39  C   UNL A   1      40.066  25.178  26.514  1.00  0.00     0.010 A 
ATOM     40  C   UNL A   1      40.963  25.363  27.578  1.00  0.00    -0.014 A 
BRANCH  40  41
ATOM     41  C   UNL A   1      41.445  26.731  27.905  1.00  0.00     0.031 A 
ATOM     42  C   UNL A   1      42.852  27.139  27.560  1.00  0.00     0.074 A 
ATOM     43  C   UNL A   1      40.639  27.584  28.569  1.00  0.00     0.049 A 
ATOM     44  N   UNL A   1      43.483  28.252  27.832  1.00  0.00    -0.248 NA
ATOM     45  C   UNL A   1      43.664  26.147  26.841  1.00  0.00     0.031 C 
ATOM     46  C   UNL A   1      39.266  27.294  28.987  1.00  0.00     0.029 A 
ATOM     47  N   UNL A   1      40.859  28.862  29.016  1.00  0.00    -0.354 N 
ATOM     48  C   UNL A   1      44.774  28.088  27.336  1.00  0.00     0.074 A 
ATOM     49  C   UNL A   1      44.845  26.746  26.796  1.00  0.00     0.031 C 
ATOM     50  C   UNL A   1      38.761  28.371  29.611  1.00  0.00     0.029 A 
ATOM     51  C   UNL A   1      39.783  29.411  29.673  1.00  0.00     0.049 A 
ATOM     52  H   UNL A   1      41.708  29.341  28.878  1.00  0.00     0.167 HD
ATOM     53  C   UNL A   1      45.797  28.979  27.318  1.00  0.00     0.034 A 
ATOM     54  C   UNL A   1      39.639  30.612  30.267  1.00  0.00     0.034 A 
ATOM     55  C   UNL A   1      45.704  30.322  27.840  1.00  0.00     0.049 A 
ATOM     56  C   UNL A   1      40.793  31.582  30.245  1.00  0.00     0.074 A 
ATOM     57  C   UNL A   1      46.652  31.329  27.806  1.00  0.00     0.029 A 
ATOM     58  N   UNL A   1      44.597  30.843  28.498  1.00  0.00    -0.354 N 
ATOM     59  N   UNL A   1      41.991  31.430  29.727  1.00  0.00    -0.248 NA
ATOM     60  C   UNL A   1      40.573  32.887  30.881  1.00  0.00     0.031 C 
ATOM     61  C   UNL A   1      46.144  32.436  28.496  1.00  0.00     0.029 A 
ATOM     62  C   UNL A   1      44.851  32.145  28.903  1.00  0.00     0.049 A 
ATOM     63  H   UNL A   1      43.754  30.359  28.656  1.00  0.00     0.167 HD
ATOM     64  C   UNL A   1      42.653  32.634  29.946  1.00  0.00     0.074 A 
ATOM     65  C   UNL A   1      41.720  33.502  30.635  1.00  0.00     0.031 C 
ATOM     66  C   UNL A   1      43.915  32.994  29.602  1.00  0.00     0.034 A 
BRANCH  53  67
ATOM     67  C   UNL A   1      47.113  28.511  26.741  1.00  0.00     0.023 A 
ATOM     68  C   UNL A   1      47.293  28.324  25.360  1.00  0.00     0.031 A 
ATOM     69  C   UNL A   1      48.195  28.211  27.590  1.00  0.00     0.131 A 
ATOM     70  C   UNL A   1      48.488  27.771  24.876  1.00  0.00     0.055 A 
ATOM     71  C   UNL A   1      49.411  27.740  27.094  1.00  0.00     0.041 A 
ATOM     72  F   UNL A   1      48.079  28.351  28.919  1.00  0.00    -0.206 F 
ATOM     73  C   UNL A   1      49.559  27.500  25.730  1.00  0.00     0.022 A 
BRANCH  70  74
ATOM     74  S   UNL A   1      48.564  27.265  23.135  1.00  0.00     0.124 S 
ATOM     75  O   UNL A   1      48.273  25.838  23.231  1.00  0.00    -0.237 OA
ATOM     76  O   UNL A   1      47.530  28.091  22.522  1.00  0.00    -0.237 OA
ATOM     77  O   UNL A   1      49.935  27.589  22.744  1.00  0.00    -0.744 OA
ENDBRANCH  70  74
ENDBRANCH  53  67
BRANCH  54  78
ATOM     78  C   UNL A   1      38.358  30.975  30.934  1.00  0.00     0.023 A 
ATOM     79  C   UNL A   1      37.342  31.636  30.227  1.00  0.00     0.031 A 
ATOM     80  C   UNL A   1      38.145  30.700  32.297  1.00  0.00     0.131 A 
ATOM     81  C   UNL A   1      36.175  32.039  30.894  1.00  0.00     0.055 A 
ATOM     82  C   UNL A   1      36.963  31.062  32.945  1.00  0.00     0.041 A 
ATOM     83  F   UNL A   1      39.084  30.063  33.015  1.00  0.00    -0.206 F 
ATOM     84  C   UNL A   1      35.974  31.746  32.245  1.00  0.00     0.022 A 
BRANCH  81  85
ATOM     85  S   UNL A   1      34.948  33.015  29.981  1.00  0.00     0.124 S 
ATOM     86  O   UNL A   1      34.050  33.439  31.050  1.00  0.00    -0.237 OA
ATOM     87  O   UNL A   1      35.776  34.059  29.386  1.00  0.00    -0.237 OA
ATOM     88  O   UNL A   1      34.385  32.054  29.036  1.00  0.00    -0.744 OA
ENDBRANCH  81  85
ENDBRANCH  54  78
BRANCH  66  89
ATOM     89  C   UNL A   1      44.335  34.406  29.930  1.00  0.00     0.023 A 
ATOM     90  C   UNL A   1      44.184  35.456  29.007  1.00  0.00     0.031 A 
ATOM     91  C   UNL A   1      44.913  34.698  31.177  1.00  0.00     0.131 A 
ATOM     92  C   UNL A   1      44.655  36.738  29.326  1.00  0.00     0.055 A 
ATOM     93  C   UNL A   1      45.331  35.987  31.509  1.00  0.00     0.041 A 
ATOM     94  F   UNL A   1      45.082  33.732  32.094  1.00  0.00    -0.206 F 
ATOM     95  C   UNL A   1      45.215  37.013  30.576  1.00  0.00     0.022 A 
BRANCH  92  96
ATOM     96  S   UNL A   1      44.608  38.026  28.048  1.00  0.00     0.124 S 
ATOM     97  O   UNL A   1      43.574  37.525  27.150  1.00  0.00    -0.237 OA
ATOM     98  O   UNL A   1      44.263  39.217  28.818  1.00  0.00    -0.237 OA
ATOM     99  O   UNL A   1      45.964  38.015  27.500  1.00  0.00    -0.744 OA
ENDBRANCH  92  96
ENDBRANCH  66  89
ENDBRANCH  40  41
ENDBRANCH  32  35
ENDBRANCH  30  31
ENDBRANCH  29  30
ENDBRANCH  28  29
ENDBRANCH   1  28
TORSDOF 20
ENDMDL
MODEL 2
REMARK VINA RESULT:     -11.4      5.418      8.187
REMARK SMILES COc1ccc([C@H](C)NC(=O)c2cnn(C)c2C(=O)NCCCCCCNC(=O)c2ccc(-c3c4nc(c(-c5cc(S(=O)(=O)[O-])ccc5F)c5ccc([nH]5)c(-c5cc(S(=O)(=O)[O-])ccc5F)c5nc(c(-c6cc(S(=O)(=O)[O-])ccc6F)c6ccc3[nH]6)C=C5)C=C4)cc2)cc1
REMARK SMILES IDX 23 1 22 2 21 3 20 4 18 5 19 6 17 8 12 9 13 10 14 11 15 12
REMARK SMILES IDX 16 13 10 14 9 15 11 17 7 18 8 19 6 20 3 21 4 22 94 23 5 24
REMARK SMILES IDX 93 25 2 26 1 27 24 28 25 29 26 30 27 31 28 32 29 34 30 35
REMARK SMILES IDX 31 36 92 37 32 38 91 39 33 40 34 41 35 42 85 43 36 44 90 45
REMARK SMILES IDX 84 46 86 47 37 48 89 49 83 50 82 51 38 53 70 54 50 55 69 56
REMARK SMILES IDX 51 57 54 58 68 59 87 60 52 61 53 62 67 64 88 65 55 66 39 67
REMARK SMILES IDX 40 68 48 69 41 70 47 71 49 72 46 73 42 74 43 75 44 76 45 77
REMARK SMILES IDX 71 78 72 79 80 80 73 81 79 82 81 83 78 84 74 85 75 86 76 87
REMARK SMILES IDX 77 88 56 89 57 90 65 91 58 92 64 93 66 94 63 95 59 96 60 97
REMARK SMILES IDX 61 98 62 99
REMARK H PARENT 20 7 9 16 27 33 86 52 54 63
REMARK Flexibility Score: inf
ROOT
ATOM      1  C   UNL A   1      32.183  29.547  26.676  1.00  0.00     0.002 C 
ENDROOT
BRANCH   1   2
ATOM      2  C   UNL A   1      31.988  28.078  26.279  1.00  0.00     0.021 C 
BRANCH   2   3
ATOM      3  C   UNL A   1      33.199  27.426  25.612  1.00  0.00     0.116 C 
BRANCH   3   4
ATOM      4  N   UNL A   1      33.449  26.089  26.090  1.00  0.00    -0.351 N 
ATOM      5  C   UNL A   1      33.533  24.830  25.571  1.00  0.00     0.270 C 
ATOM      6  O   UNL A   1      33.943  24.023  26.414  1.00  0.00    -0.268 OA
ATOM      7  H   UNL A   1      33.602  26.082  27.063  1.00  0.00     0.163 HD
BRANCH   5   8
ATOM      8  C   UNL A   1      33.197  24.373  24.230  1.00  0.00     0.138 A 
ATOM      9  C   UNL A   1      32.546  23.143  23.993  1.00  0.00     0.090 A 
ATOM     10  C   UNL A   1      32.686  22.896  22.621  1.00  0.00     0.149 A 
ATOM     11  N   UNL A   1      33.208  23.931  21.983  1.00  0.00    -0.180 NA
ATOM     12  N   UNL A   1      33.414  24.851  22.952  1.00  0.00    -0.262 N 
ATOM     13  C   UNL A   1      33.766  26.156  22.459  1.00  0.00     0.174 C 
BRANCH   9  14
ATOM     14  C   UNL A   1      31.962  22.213  24.935  1.00  0.00     0.255 C 
ATOM     15  N   UNL A   1      32.590  21.027  25.198  1.00  0.00    -0.345 N 
ATOM     16  H   UNL A   1      32.112  20.441  25.829  1.00  0.00     0.164 HD
ATOM     17  O   UNL A   1      30.964  22.512  25.600  1.00  0.00    -0.269 OA
BRANCH  15  18
ATOM     18  C   UNL A   1      33.850  20.485  24.699  1.00  0.00     0.109 C 
ATOM     19  C   UNL A   1      35.026  21.053  25.494  1.00  0.00     0.036 C 
BRANCH  18  20
ATOM     20  C   UNL A   1      33.813  18.967  24.753  1.00  0.00    -0.026 A 
ATOM     21  C   UNL A   1      33.811  16.175  25.119  1.00  0.00     0.118 A 
ATOM     22  C   UNL A   1      32.673  16.924  25.416  1.00  0.00     0.047 A 
ATOM     23  C   UNL A   1      34.923  16.805  24.566  1.00  0.00     0.047 A 
ATOM     24  C   UNL A   1      32.673  18.309  25.237  1.00  0.00     0.009 A 
ATOM     25  C   UNL A   1      34.924  18.192  24.384  1.00  0.00     0.009 A 
BRANCH  21  26
ATOM     26  O   UNL A   1      33.729  14.835  25.380  1.00  0.00    -0.497 OA
ATOM     27  C   UNL A   1      32.405  14.362  25.618  1.00  0.00     0.278 C 
ENDBRANCH  21  26
ENDBRANCH  18  20
ENDBRANCH  15  18
ENDBRANCH   9  14
ENDBRANCH   5   8
ENDBRANCH   3   4
ENDBRANCH   2   3
ENDBRANCH   1   2
BRANCH   1  28
ATOM     28  C   UNL A   1      31.402  30.579  25.854  1.00  0.00     0.002 C 
BRANCH  28  29
ATOM     29  C   UNL A   1      31.316  31.987  26.453  1.00  0.00     0.021 C 
BRANCH  29  30
ATOM     30  C   UNL A   1      32.584  32.469  27.153  1.00  0.00     0.116 C 
BRANCH  30  31
ATOM     31  N   UNL A   1      32.491  33.868  27.537  1.00  0.00    -0.352 N 
ATOM     32  C   UNL A   1      33.158  34.550  28.525  1.00  0.00     0.251 C 
ATOM     33  H   UNL A   1      31.857  34.406  27.010  1.00  0.00     0.163 HD
ATOM     34  O   UNL A   1      32.771  35.672  28.846  1.00  0.00    -0.269 OA
BRANCH  32  35
ATOM     35  C   UNL A   1      34.318  33.941  29.215  1.00  0.00     0.039 A 
ATOM     36  C   UNL A   1      35.604  34.392  28.904  1.00  0.00     0.014 A 
ATOM     37  C   UNL A   1      34.150  32.897  30.131  1.00  0.00     0.014 A 
ATOM     38  C   UNL A   1      36.715  33.835  29.546  1.00  0.00     0.010 A 
ATOM     39  C   UNL A   1      35.252  32.384  30.815  1.00  0.00     0.010 A 
ATOM     40  C   UNL A   1      36.547  32.844  30.526  1.00  0.00    -0.014 A 
BRANCH  40  41
ATOM     41  C   UNL A   1      37.712  32.262  31.244  1.00  0.00     0.031 A 
ATOM     42  C   UNL A   1      38.489  31.130  30.628  1.00  0.00     0.074 A 
ATOM     43  C   UNL A   1      38.032  32.708  32.475  1.00  0.00     0.049 A 
ATOM     44  N   UNL A   1      39.482  30.437  31.126  1.00  0.00    -0.248 NA
ATOM     45  C   UNL A   1      38.072  30.701  29.286  1.00  0.00     0.031 C 
ATOM     46  C   UNL A   1      37.335  33.778  33.192  1.00  0.00     0.029 A 
ATOM     47  N   UNL A   1      39.017  32.314  33.345  1.00  0.00    -0.354 N 
ATOM     48  C   UNL A   1      39.794  29.476  30.168  1.00  0.00     0.074 A 
ATOM     49  C   UNL A   1      38.848  29.647  29.085  1.00  0.00     0.031 C 
ATOM     50  C   UNL A   1      37.927  33.968  34.382  1.00  0.00     0.029 A 
ATOM     51  C   UNL A   1      39.018  33.009  34.531  1.00  0.00     0.049 A 
ATOM     52  H   UNL A   1      39.662  31.600  33.138  1.00  0.00     0.167 HD
ATOM     53  C   UNL A   1      40.787  28.552  30.183  1.00  0.00     0.034 A 
ATOM     54  C   UNL A   1      39.802  32.883  35.620  1.00  0.00     0.034 A 
ATOM     55  C   UNL A   1      41.737  28.410  31.261  1.00  0.00     0.049 A 
ATOM     56  C   UNL A   1      40.892  31.841  35.619  1.00  0.00     0.074 A 
ATOM     57  C   UNL A   1      42.826  27.559  31.346  1.00  0.00     0.029 A 
ATOM     58  N   UNL A   1      41.707  29.133  32.447  1.00  0.00    -0.354 N 
ATOM     59  N   UNL A   1      41.207  30.975  34.684  1.00  0.00    -0.248 NA
ATOM     60  C   UNL A   1      41.736  31.766  36.819  1.00  0.00     0.031 C 
ATOM     61  C   UNL A   1      43.416  27.723  32.605  1.00  0.00     0.029 A 
ATOM     62  C   UNL A   1      42.737  28.725  33.281  1.00  0.00     0.049 A 
ATOM     63  H   UNL A   1      41.051  29.833  32.665  1.00  0.00     0.167 HD
ATOM     64  C   UNL A   1      42.307  30.276  35.171  1.00  0.00     0.074 A 
ATOM     65  C   UNL A   1      42.605  30.827  36.477  1.00  0.00     0.031 C 
ATOM     66  C   UNL A   1      43.014  29.275  34.587  1.00  0.00     0.034 A 
BRANCH  53  67
ATOM     67  C   UNL A   1      40.870  27.604  29.009  1.00  0.00     0.023 A 
ATOM     68  C   UNL A   1      41.814  27.776  27.983  1.00  0.00     0.031 A 
ATOM     69  C   UNL A   1      39.965  26.533  28.895  1.00  0.00     0.131 A 
ATOM     70  C   UNL A   1      41.778  26.949  26.850  1.00  0.00     0.055 A 
ATOM     71  C   UNL A   1      39.989  25.662  27.804  1.00  0.00     0.041 A 
ATOM     72  F   UNL A   1      39.027  26.328  29.833  1.00  0.00    -0.206 F 
ATOM     73  C   UNL A   1      40.888  25.878  26.764  1.00  0.00     0.022 A 
BRANCH  70  74
ATOM     74  S   UNL A   1      42.806  27.393  25.423  1.00  0.00     0.124 S 
ATOM     75  O   UNL A   1      44.070  27.742  26.068  1.00  0.00    -0.237 OA
ATOM     76  O   UNL A   1      42.806  26.164  24.639  1.00  0.00    -0.237 OA
ATOM     77  O   UNL A   1      42.092  28.517  24.821  1.00  0.00    -0.744 OA
ENDBRANCH  70  74
ENDBRANCH  53  67
BRANCH  54  78
ATOM     78  C   UNL A   1      39.595  33.762  36.805  1.00  0.00     0.023 A 
ATOM     79  C   UNL A   1      38.998  33.264  37.973  1.00  0.00     0.031 A 
ATOM     80  C   UNL A   1      39.957  35.120  36.774  1.00  0.00     0.131 A 
ATOM     81  C   UNL A   1      38.741  34.127  39.049  1.00  0.00     0.055 A 
ATOM     82  C   UNL A   1      39.741  35.964  37.864  1.00  0.00     0.041 A 
ATOM     83  F   UNL A   1      40.539  35.642  35.682  1.00  0.00    -0.206 F 
ATOM     84  C   UNL A   1      39.118  35.471  39.006  1.00  0.00     0.022 A 
BRANCH  81  85
ATOM     85  S   UNL A   1      37.839  33.479  40.484  1.00  0.00     0.124 S 
ATOM     86  O   UNL A   1      38.725  32.413  40.936  1.00  0.00    -0.237 OA
ATOM     87  O   UNL A   1      37.757  34.655  41.344  1.00  0.00    -0.237 OA
ATOM     88  O   UNL A   1      36.568  33.037  39.914  1.00  0.00    -0.744 OA
ENDBRANCH  81  85
ENDBRANCH  54  78
BRANCH  66  89
ATOM     89  C   UNL A   1      44.206  28.749  35.349  1.00  0.00     0.023 A 
ATOM     90  C   UNL A   1      44.080  27.723  36.302  1.00  0.00     0.031 A 
ATOM     91  C   UNL A   1      45.481  29.298  35.129  1.00  0.00     0.131 A 
ATOM     92  C   UNL A   1      45.202  27.316  37.040  1.00  0.00     0.055 A 
ATOM     93  C   UNL A   1      46.603  28.851  35.828  1.00  0.00     0.041 A 
ATOM     94  F   UNL A   1      45.656  30.281  34.232  1.00  0.00    -0.206 F 
ATOM     95  C   UNL A   1      46.465  27.864  36.799  1.00  0.00     0.022 A 
BRANCH  92  96
ATOM     96  S   UNL A   1      44.973  26.120  38.385  1.00  0.00     0.124 S 
ATOM     97  O   UNL A   1      43.678  26.518  38.928  1.00  0.00    -0.237 OA
ATOM     98  O   UNL A   1      45.003  24.844  37.676  1.00  0.00    -0.237 OA
ATOM     99  O   UNL A   1      46.116  26.367  39.263  1.00  0.00    -0.744 OA
ENDBRANCH  92  96
ENDBRANCH  66  89
ENDBRANCH  40  41
ENDBRANCH  32  35
ENDBRANCH  30  31
ENDBRANCH  29  30
ENDBRANCH  28  29
ENDBRANCH   1  28
TORSDOF 20
ENDMDL
MODEL 3
REMARK VINA RESULT:     -11.0      5.469      8.333
REMARK SMILES COc1ccc([C@H](C)NC(=O)c2cnn(C)c2C(=O)NCCCCCCNC(=O)c2ccc(-c3c4nc(c(-c5cc(S(=O)(=O)[O-])ccc5F)c5ccc([nH]5)c(-c5cc(S(=O)(=O)[O-])ccc5F)c5nc(c(-c6cc(S(=O)(=O)[O-])ccc6F)c6ccc3[nH]6)C=C5)C=C4)cc2)cc1
REMARK SMILES IDX 23 1 22 2 21 3 20 4 18 5 19 6 17 8 12 9 13 10 14 11 15 12
REMARK SMILES IDX 16 13 10 14 9 15 11 17 7 18 8 19 6 20 3 21 4 22 94 23 5 24
REMARK SMILES IDX 93 25 2 26 1 27 24 28 25 29 26 30 27 31 28 32 29 34 30 35
REMARK SMILES IDX 31 36 92 37 32 38 91 39 33 40 34 41 35 42 85 43 36 44 90 45
REMARK SMILES IDX 84 46 86 47 37 48 89 49 83 50 82 51 38 53 70 54 50 55 69 56
REMARK SMILES IDX 51 57 54 58 68 59 87 60 52 61 53 62 67 64 88 65 55 66 39 67
REMARK SMILES IDX 40 68 48 69 41 70 47 71 49 72 46 73 42 74 43 75 44 76 45 77
REMARK SMILES IDX 71 78 72 79 80 80 73 81 79 82 81 83 78 84 74 85 75 86 76 87
REMARK SMILES IDX 77 88 56 89 57 90 65 91 58 92 64 93 66 94 63 95 59 96 60 97
REMARK SMILES IDX 61 98 62 99
REMARK H PARENT 20 7 9 16 27 33 86 52 54 63
REMARK Flexibility Score: inf
ROOT
ATOM      1  C   UNL A   1      34.033  29.477  26.783  1.00  0.00     0.002 C 
ENDROOT
BRANCH   1   2
ATOM      2  C   UNL A   1      33.259  28.243  27.268  1.00  0.00     0.021 C 
BRANCH   2   3
ATOM      3  C   UNL A   1      31.737  28.377  27.214  1.00  0.00     0.116 C 
BRANCH   3   4
ATOM      4  N   UNL A   1      31.071  27.113  27.018  1.00  0.00    -0.351 N 
ATOM      5  C   UNL A   1      30.737  26.299  25.977  1.00  0.00     0.270 C 
ATOM      6  O   UNL A   1      30.298  25.214  26.378  1.00  0.00    -0.268 OA
ATOM      7  H   UNL A   1      30.774  26.732  27.876  1.00  0.00     0.163 HD
BRANCH   5   8
ATOM      8  C   UNL A   1      30.822  26.565  24.549  1.00  0.00     0.138 A 
ATOM      9  C   UNL A   1      32.008  26.354  23.812  1.00  0.00     0.090 A 
ATOM     10  C   UNL A   1      31.819  27.012  22.589  1.00  0.00     0.149 A 
ATOM     11  N   UNL A   1      30.579  27.454  22.451  1.00  0.00    -0.180 NA
ATOM     12  N   UNL A   1      29.965  27.085  23.598  1.00  0.00    -0.262 N 
ATOM     13  C   UNL A   1      28.536  27.257  23.581  1.00  0.00     0.174 C 
BRANCH   9  14
ATOM     14  C   UNL A   1      33.246  25.727  24.218  1.00  0.00     0.255 C 
ATOM     15  N   UNL A   1      33.493  24.426  23.880  1.00  0.00    -0.345 N 
ATOM     16  H   UNL A   1      34.346  24.068  24.219  1.00  0.00     0.164 HD
ATOM     17  O   UNL A   1      34.145  26.374  24.767  1.00  0.00    -0.269 OA
BRANCH  15  18
ATOM     18  C   UNL A   1      32.702  23.478  23.101  1.00  0.00     0.109 C 
ATOM     19  C   UNL A   1      32.945  23.684  21.606  1.00  0.00     0.036 C 
BRANCH  18  20
ATOM     20  C   UNL A   1      33.029  22.059  23.535  1.00  0.00    -0.026 A 
ATOM     21  C   UNL A   1      33.435  19.456  24.532  1.00  0.00     0.118 A 
ATOM     22  C   UNL A   1      32.454  19.696  23.570  1.00  0.00     0.047 A 
ATOM     23  C   UNL A   1      34.266  20.497  24.940  1.00  0.00     0.047 A 
ATOM     24  C   UNL A   1      32.250  20.986  23.078  1.00  0.00     0.009 A 
ATOM     25  C   UNL A   1      34.064  21.789  24.445  1.00  0.00     0.009 A 
BRANCH  21  26
ATOM     26  O   UNL A   1      33.520  18.171  24.991  1.00  0.00    -0.497 OA
ATOM     27  C   UNL A   1      33.405  17.175  23.978  1.00  0.00     0.278 C 
ENDBRANCH  21  26
ENDBRANCH  18  20
ENDBRANCH  15  18
ENDBRANCH   9  14
ENDBRANCH   5   8
ENDBRANCH   3   4
ENDBRANCH   2   3
ENDBRANCH   1   2
BRANCH   1  28
ATOM     28  C   UNL A   1      34.170  30.627  27.787  1.00  0.00     0.002 C 
BRANCH  28  29
ATOM     29  C   UNL A   1      33.862  32.028  27.247  1.00  0.00     0.021 C 
BRANCH  29  30
ATOM     30  C   UNL A   1      32.481  32.570  27.608  1.00  0.00     0.116 C 
BRANCH  30  31
ATOM     31  N   UNL A   1      32.492  34.015  27.767  1.00  0.00    -0.352 N 
ATOM     32  C   UNL A   1      33.246  34.797  28.607  1.00  0.00     0.251 C 
ATOM     33  H   UNL A   1      31.866  34.504  27.186  1.00  0.00     0.163 HD
ATOM     34  O   UNL A   1      32.943  35.979  28.759  1.00  0.00    -0.269 OA
BRANCH  32  35
ATOM     35  C   UNL A   1      34.401  34.227  29.339  1.00  0.00     0.039 A 
ATOM     36  C   UNL A   1      34.165  33.450  30.477  1.00  0.00     0.014 A 
ATOM     37  C   UNL A   1      35.714  34.491  28.937  1.00  0.00     0.014 A 
ATOM     38  C   UNL A   1      35.239  32.896  31.180  1.00  0.00     0.010 A 
ATOM     39  C   UNL A   1      36.782  33.889  29.603  1.00  0.00     0.010 A 
ATOM     40  C   UNL A   1      36.557  33.090  30.736  1.00  0.00    -0.014 A 
BRANCH  40  41
ATOM     41  C   UNL A   1      37.711  32.483  31.451  1.00  0.00     0.031 A 
ATOM     42  C   UNL A   1      38.472  31.345  30.825  1.00  0.00     0.074 A 
ATOM     43  C   UNL A   1      38.034  32.913  32.687  1.00  0.00     0.049 A 
ATOM     44  N   UNL A   1      39.452  30.632  31.319  1.00  0.00    -0.248 NA
ATOM     45  C   UNL A   1      38.051  30.937  29.477  1.00  0.00     0.031 C 
ATOM     46  C   UNL A   1      37.352  33.986  33.412  1.00  0.00     0.029 A 
ATOM     47  N   UNL A   1      39.010  32.494  33.555  1.00  0.00    -0.354 N 
ATOM     48  C   UNL A   1      39.752  29.677  30.352  1.00  0.00     0.074 A 
ATOM     49  C   UNL A   1      38.811  29.873  29.268  1.00  0.00     0.031 C 
ATOM     50  C   UNL A   1      37.943  34.154  34.606  1.00  0.00     0.029 A 
ATOM     51  C   UNL A   1      39.019  33.177  34.748  1.00  0.00     0.049 A 
ATOM     52  H   UNL A   1      39.645  31.772  33.343  1.00  0.00     0.167 HD
ATOM     53  C   UNL A   1      40.730  28.737  30.360  1.00  0.00     0.034 A 
ATOM     54  C   UNL A   1      39.799  33.028  35.838  1.00  0.00     0.034 A 
ATOM     55  C   UNL A   1      41.675  28.569  31.439  1.00  0.00     0.049 A 
ATOM     56  C   UNL A   1      40.872  31.970  35.829  1.00  0.00     0.074 A 
ATOM     57  C   UNL A   1      42.750  27.701  31.518  1.00  0.00     0.029 A 
ATOM     58  N   UNL A   1      41.653  29.281  32.632  1.00  0.00    -0.354 N 
ATOM     59  N   UNL A   1      41.176  31.108  34.886  1.00  0.00    -0.248 NA
ATOM     60  C   UNL A   1      41.711  31.870  37.030  1.00  0.00     0.031 C 
ATOM     61  C   UNL A   1      43.340  27.844  32.780  1.00  0.00     0.029 A 
ATOM     62  C   UNL A   1      42.675  28.849  33.464  1.00  0.00     0.049 A 
ATOM     63  H   UNL A   1      41.007  29.989  32.855  1.00  0.00     0.167 HD
ATOM     64  C   UNL A   1      42.264  30.387  35.368  1.00  0.00     0.074 A 
ATOM     65  C   UNL A   1      42.567  30.921  36.681  1.00  0.00     0.031 C 
ATOM     66  C   UNL A   1      42.957  29.381  34.777  1.00  0.00     0.034 A 
BRANCH  53  67
ATOM     67  C   UNL A   1      40.802  27.800  29.177  1.00  0.00     0.023 A 
ATOM     68  C   UNL A   1      41.732  27.985  28.140  1.00  0.00     0.031 A 
ATOM     69  C   UNL A   1      39.900  26.726  29.065  1.00  0.00     0.131 A 
ATOM     70  C   UNL A   1      41.684  27.168  27.000  1.00  0.00     0.055 A 
ATOM     71  C   UNL A   1      39.913  25.864  27.967  1.00  0.00     0.041 A 
ATOM     72  F   UNL A   1      38.975  26.508  30.013  1.00  0.00    -0.206 F 
ATOM     73  C   UNL A   1      40.797  26.093  26.916  1.00  0.00     0.022 A 
BRANCH  70  74
ATOM     74  S   UNL A   1      42.691  27.629  25.563  1.00  0.00     0.124 S 
ATOM     75  O   UNL A   1      43.998  27.846  26.178  1.00  0.00    -0.237 OA
ATOM     76  O   UNL A   1      42.574  26.455  24.706  1.00  0.00    -0.237 OA
ATOM     77  O   UNL A   1      42.039  28.836  25.060  1.00  0.00    -0.744 OA
ENDBRANCH  70  74
ENDBRANCH  53  67
BRANCH  54  78
ATOM     78  C   UNL A   1      39.602  33.898  37.030  1.00  0.00     0.023 A 
ATOM     79  C   UNL A   1      38.946  33.414  38.173  1.00  0.00     0.031 A 
ATOM     80  C   UNL A   1      40.034  35.236  37.033  1.00  0.00     0.131 A 
ATOM     81  C   UNL A   1      38.702  34.272  39.255  1.00  0.00     0.055 A 
ATOM     82  C   UNL A   1      39.829  36.074  38.130  1.00  0.00     0.041 A 
ATOM     83  F   UNL A   1      40.674  35.745  35.967  1.00  0.00    -0.206 F 
ATOM     84  C   UNL A   1      39.149  35.596  39.246  1.00  0.00     0.022 A 
BRANCH  81  85
ATOM     85  S   UNL A   1      37.726  33.650  40.652  1.00  0.00     0.124 S 
ATOM     86  O   UNL A   1      38.679  32.762  41.309  1.00  0.00    -0.237 OA
ATOM     87  O   UNL A   1      37.400  34.882  41.364  1.00  0.00    -0.237 OA
ATOM     88  O   UNL A   1      36.595  32.988  40.007  1.00  0.00    -0.744 OA
ENDBRANCH  81  85
ENDBRANCH  54  78
BRANCH  66  89
ATOM     89  C   UNL A   1      44.138  28.829  35.536  1.00  0.00     0.023 A 
ATOM     90  C   UNL A   1      44.009  27.739  36.414  1.00  0.00     0.031 A 
ATOM     91  C   UNL A   1      45.407  29.418  35.391  1.00  0.00     0.131 A 
ATOM     92  C   UNL A   1      45.119  27.306  37.156  1.00  0.00     0.055 A 
ATOM     93  C   UNL A   1      46.519  28.947  36.091  1.00  0.00     0.041 A 
ATOM     94  F   UNL A   1      45.585  30.462  34.566  1.00  0.00    -0.206 F 
ATOM     95  C   UNL A   1      46.375  27.894  36.989  1.00  0.00     0.022 A 
BRANCH  92  96
ATOM     96  S   UNL A   1      44.878  26.018  38.410  1.00  0.00     0.124 S 
ATOM     97  O   UNL A   1      43.788  25.236  37.838  1.00  0.00    -0.237 OA
ATOM     98  O   UNL A   1      46.184  25.365  38.441  1.00  0.00    -0.237 OA
ATOM     99  O   UNL A   1      44.535  26.772  39.616  1.00  0.00    -0.744 OA
ENDBRANCH  92  96
ENDBRANCH  66  89
ENDBRANCH  40  41
ENDBRANCH  32  35
ENDBRANCH  30  31
ENDBRANCH  29  30
ENDBRANCH  28  29
ENDBRANCH   1  28
TORSDOF 20
ENDMDL
