MODEL 1
REMARK VINA RESULT:     -12.4      0.000      0.000
REMARK SMILES O=C(C[C@H](NC(=O)[C@]12C[C@H]3C[C@H](C[C@H](C3)C1)C2)c1cccc([N+](=O)[O-])c1)NCCCCCCNC(=O)c1ccc(-c2c3nc(c(-c4cc(S(=O)(=O)[O-])ccc4F)c4ccc([nH]4)c(-c4cc(S(=O)(=O)[O-])ccc4F)c4nc(c(-c5cc(S(=O)(=O)[O-])ccc5F)c5ccc2[nH]5)C=C4)C=C3)cc1
REMARK SMILES IDX 30 1 29 2 28 3 27 4 1 5 2 6 3 8 4 9 18 10 19 11 26 12 20 13
REMARK SMILES IDX 22 14 21 15 23 16 24 17 25 18 5 19 6 20 7 22 8 23 9 24 16 25
REMARK SMILES IDX 17 26 10 27 14 28 12 29 11 30 15 31 13 32 31 33 32 34 33 35
REMARK SMILES IDX 34 36 35 37 36 39 37 40 38 41 99 42 39 43 98 44 40 45 41 46
REMARK SMILES IDX 42 47 92 48 43 49 97 50 91 51 93 52 44 53 96 54 90 55 89 56
REMARK SMILES IDX 45 58 77 59 57 60 76 61 58 62 61 63 75 64 94 65 59 66 60 67
REMARK SMILES IDX 74 69 95 70 62 71 46 72 47 73 55 74 48 75 54 76 56 77 53 78
REMARK SMILES IDX 49 79 50 80 51 81 52 82 78 83 79 84 87 85 80 86 86 87 88 88
REMARK SMILES IDX 85 89 81 90 82 91 83 92 84 93 63 94 64 95 72 96 65 97 71 98
REMARK SMILES IDX 73 99 70 100 66 101 67 102 68 103 69 104
REMARK H PARENT 27 7 5 21 34 38 93 57 61 68
REMARK Flexibility Score: inf
ROOT
ATOM      1  C   UNL A   1      31.685  28.915  26.790  1.00  0.00     0.002 C 
ENDROOT
BRANCH   1   2
ATOM      2  C   UNL A   1      32.860  27.927  26.700  1.00  0.00     0.021 C 
BRANCH   2   3
ATOM      3  C   UNL A   1      34.029  28.425  25.843  1.00  0.00     0.116 C 
BRANCH   3   4
ATOM      4  N   UNL A   1      34.140  27.594  24.661  1.00  0.00    -0.356 N 
ATOM      5  O   UNL A   1      33.853  29.267  23.126  1.00  0.00    -0.275 OA
ATOM      6  C   UNL A   1      33.831  28.073  23.410  1.00  0.00     0.222 C 
ATOM      7  H   UNL A   1      34.444  26.662  24.756  1.00  0.00     0.163 HD
BRANCH   6   8
ATOM      8  C   UNL A   1      33.266  27.038  22.445  1.00  0.00     0.129 C 
BRANCH   8   9
ATOM      9  C   UNL A   1      32.401  25.945  23.124  1.00  0.00     0.122 C 
BRANCH   9  10
ATOM     10  C   UNL A   1      30.936  26.434  23.112  1.00  0.00    -0.018 A 
ATOM     11  C   UNL A   1      29.942  25.778  23.853  1.00  0.00     0.006 A 
ATOM     12  C   UNL A   1      30.593  27.639  22.466  1.00  0.00     0.091 A 
ATOM     13  C   UNL A   1      28.689  26.375  24.047  1.00  0.00     0.007 A 
ATOM     14  C   UNL A   1      29.391  28.287  22.766  1.00  0.00     0.269 A 
ATOM     15  C   UNL A   1      28.424  27.653  23.547  1.00  0.00     0.085 A 
BRANCH  14  16
ATOM     16  N   UNL A   1      29.236  29.702  22.399  1.00  0.00     0.062 N 
ATOM     17  O   UNL A   1      29.734  30.079  21.331  1.00  0.00    -0.258 OA
ATOM     18  O   UNL A   1      28.578  30.423  23.165  1.00  0.00    -0.258 OA
ENDBRANCH  14  16
ENDBRANCH   9  10
BRANCH   9  19
ATOM     19  N   UNL A   1      32.460  24.591  22.553  1.00  0.00    -0.348 N 
ATOM     20  C   UNL A   1      32.603  23.374  23.173  1.00  0.00     0.226 C 
ATOM     21  H   UNL A   1      32.386  24.550  21.572  1.00  0.00     0.164 HD
ATOM     22  O   UNL A   1      31.857  22.477  22.759  1.00  0.00    -0.274 OA
BRANCH  20  23
ATOM     23  C   UNL A   1      33.763  23.027  24.137  1.00  0.00     0.050 C 
ATOM     24  C   UNL A   1      35.063  23.499  23.431  1.00  0.00     0.020 C 
ATOM     25  C   UNL A   1      33.905  21.490  24.356  1.00  0.00     0.020 C 
ATOM     26  C   UNL A   1      33.660  23.628  25.540  1.00  0.00     0.020 C 
ATOM     27  C   UNL A   1      36.299  23.201  24.292  1.00  0.00    -0.010 C 
ATOM     28  C   UNL A   1      35.144  21.167  25.232  1.00  0.00    -0.010 C 
ATOM     29  C   UNL A   1      34.908  23.371  26.386  1.00  0.00    -0.010 C 
ATOM     30  C   UNL A   1      36.140  23.918  25.641  1.00  0.00     0.007 C 
ATOM     31  C   UNL A   1      36.411  21.686  24.531  1.00  0.00     0.007 C 
ATOM     32  C   UNL A   1      35.029  21.865  26.597  1.00  0.00     0.007 C 
ENDBRANCH  20  23
ENDBRANCH   9  19
ENDBRANCH   8   9
ENDBRANCH   6   8
ENDBRANCH   3   4
ENDBRANCH   2   3
ENDBRANCH   1   2
BRANCH   1  33
ATOM     33  C   UNL A   1      31.805  30.158  25.902  1.00  0.00     0.002 C 
BRANCH  33  34
ATOM     34  C   UNL A   1      31.579  31.478  26.634  1.00  0.00     0.021 C 
BRANCH  34  35
ATOM     35  C   UNL A   1      32.855  32.132  27.147  1.00  0.00     0.116 C 
BRANCH  35  36
ATOM     36  N   UNL A   1      32.672  33.547  27.436  1.00  0.00    -0.352 N 
ATOM     37  C   UNL A   1      33.300  34.306  28.395  1.00  0.00     0.251 C 
ATOM     38  H   UNL A   1      32.016  34.020  26.874  1.00  0.00     0.163 HD
ATOM     39  O   UNL A   1      32.902  35.440  28.645  1.00  0.00    -0.269 OA
BRANCH  37  40
ATOM     40  C   UNL A   1      34.432  33.717  29.140  1.00  0.00     0.039 A 
ATOM     41  C   UNL A   1      34.179  32.762  30.125  1.00  0.00     0.014 A 
ATOM     42  C   UNL A   1      35.746  34.070  28.814  1.00  0.00     0.014 A 
ATOM     43  C   UNL A   1      35.250  32.108  30.738  1.00  0.00     0.010 A 
ATOM     44  C   UNL A   1      36.806  33.359  29.366  1.00  0.00     0.010 A 
ATOM     45  C   UNL A   1      36.570  32.372  30.335  1.00  0.00    -0.014 A 
BRANCH  45  46
ATOM     46  C   UNL A   1      37.719  31.636  30.922  1.00  0.00     0.031 A 
ATOM     47  C   UNL A   1      38.181  31.957  32.318  1.00  0.00     0.074 A 
ATOM     48  C   UNL A   1      38.387  30.732  30.178  1.00  0.00     0.049 A 
ATOM     49  N   UNL A   1      39.206  31.487  32.981  1.00  0.00    -0.248 NA
ATOM     50  C   UNL A   1      37.404  32.969  33.050  1.00  0.00     0.031 C 
ATOM     51  C   UNL A   1      38.064  30.371  28.796  1.00  0.00     0.029 A 
ATOM     52  N   UNL A   1      39.481  29.959  30.473  1.00  0.00    -0.354 N 
ATOM     53  C   UNL A   1      39.206  32.156  34.201  1.00  0.00     0.074 A 
ATOM     54  C   UNL A   1      38.122  33.113  34.152  1.00  0.00     0.031 C 
ATOM     55  C   UNL A   1      38.924  29.430  28.373  1.00  0.00     0.029 A 
ATOM     56  C   UNL A   1      39.886  29.151  29.435  1.00  0.00     0.049 A 
ATOM     57  H   UNL A   1      39.935  29.980  31.347  1.00  0.00     0.167 HD
ATOM     58  C   UNL A   1      40.018  31.969  35.272  1.00  0.00     0.034 A 
ATOM     59  C   UNL A   1      40.921  28.292  29.345  1.00  0.00     0.034 A 
ATOM     60  C   UNL A   1      41.087  31.001  35.304  1.00  0.00     0.049 A 
ATOM     61  C   UNL A   1      41.824  28.114  30.539  1.00  0.00     0.074 A 
ATOM     62  C   UNL A   1      41.934  30.685  36.352  1.00  0.00     0.029 A 
ATOM     63  N   UNL A   1      41.464  30.197  34.235  1.00  0.00    -0.354 N 
ATOM     64  N   UNL A   1      41.777  28.713  31.707  1.00  0.00    -0.248 NA
ATOM     65  C   UNL A   1      42.910  27.135  30.407  1.00  0.00     0.031 C 
ATOM     66  C   UNL A   1      42.864  29.745  35.897  1.00  0.00     0.029 A 
ATOM     67  C   UNL A   1      42.550  29.410  34.590  1.00  0.00     0.049 A 
ATOM     68  H   UNL A   1      41.024  30.186  33.354  1.00  0.00     0.167 HD
ATOM     69  C   UNL A   1      42.810  28.159  32.459  1.00  0.00     0.074 A 
ATOM     70  C   UNL A   1      43.450  27.170  31.616  1.00  0.00     0.031 C 
ATOM     71  C   UNL A   1      43.188  28.438  33.733  1.00  0.00     0.034 A 
BRANCH  58  72
ATOM     72  C   UNL A   1      39.787  32.851  36.477  1.00  0.00     0.023 A 
ATOM     73  C   UNL A   1      39.015  32.421  37.570  1.00  0.00     0.031 A 
ATOM     74  C   UNL A   1      40.307  34.157  36.516  1.00  0.00     0.131 A 
ATOM     75  C   UNL A   1      38.708  33.312  38.609  1.00  0.00     0.055 A 
ATOM     76  C   UNL A   1      40.073  35.011  37.597  1.00  0.00     0.041 A 
ATOM     77  F   UNL A   1      41.034  34.635  35.494  1.00  0.00    -0.206 F 
ATOM     78  C   UNL A   1      39.254  34.597  38.643  1.00  0.00     0.022 A 
BRANCH  75  79
ATOM     79  S   UNL A   1      37.453  32.825  39.825  1.00  0.00     0.124 S 
ATOM     80  O   UNL A   1      36.278  32.640  38.976  1.00  0.00    -0.237 OA
ATOM     81  O   UNL A   1      38.024  31.613  40.399  1.00  0.00    -0.237 OA
ATOM     82  O   UNL A   1      37.385  33.973  40.726  1.00  0.00    -0.744 OA
ENDBRANCH  75  79
ENDBRANCH  58  72
BRANCH  59  83
ATOM     83  C   UNL A   1      41.166  27.539  28.081  1.00  0.00     0.023 A 
ATOM     84  C   UNL A   1      40.895  26.164  27.993  1.00  0.00     0.031 A 
ATOM     85  C   UNL A   1      41.706  28.178  26.950  1.00  0.00     0.131 A 
ATOM     86  C   UNL A   1      41.201  25.464  26.815  1.00  0.00     0.055 A 
ATOM     87  C   UNL A   1      41.960  27.488  25.763  1.00  0.00     0.041 A 
ATOM     88  F   UNL A   1      41.978  29.493  26.978  1.00  0.00    -0.206 F 
ATOM     89  C   UNL A   1      41.719  26.120  25.696  1.00  0.00     0.022 A 
BRANCH  86  90
ATOM     90  S   UNL A   1      40.979  23.665  26.791  1.00  0.00     0.124 S 
ATOM     91  O   UNL A   1      41.397  23.295  28.138  1.00  0.00    -0.237 OA
ATOM     92  O   UNL A   1      39.554  23.540  26.503  1.00  0.00    -0.237 OA
ATOM     93  O   UNL A   1      41.868  23.227  25.717  1.00  0.00    -0.744 OA
ENDBRANCH  86  90
ENDBRANCH  59  83
BRANCH  71  94
ATOM     94  C   UNL A   1      44.326  27.624  34.303  1.00  0.00     0.023 A 
ATOM     95  C   UNL A   1      44.114  26.373  34.908  1.00  0.00     0.031 A 
ATOM     96  C   UNL A   1      45.642  28.117  34.246  1.00  0.00     0.131 A 
ATOM     97  C   UNL A   1      45.193  25.682  35.479  1.00  0.00     0.055 A 
ATOM     98  C   UNL A   1      46.720  27.395  34.760  1.00  0.00     0.041 A 
ATOM     99  F   UNL A   1      45.902  29.308  33.683  1.00  0.00    -0.206 F 
ATOM    100  C   UNL A   1      46.497  26.176  35.393  1.00  0.00     0.022 A 
BRANCH  97 101
ATOM    101  S   UNL A   1      44.858  24.168  36.421  1.00  0.00     0.124 S 
ATOM    102  O   UNL A   1      44.400  24.702  37.700  1.00  0.00    -0.237 OA
ATOM    103  O   UNL A   1      43.844  23.510  35.605  1.00  0.00    -0.237 OA
ATOM    104  O   UNL A   1      46.154  23.494  36.459  1.00  0.00    -0.744 OA
ENDBRANCH  97 101
ENDBRANCH  71  94
ENDBRANCH  45  46
ENDBRANCH  37  40
ENDBRANCH  35  36
ENDBRANCH  34  35
ENDBRANCH  33  34
ENDBRANCH   1  33
TORSDOF 21
ENDMDL
MODEL 2
REMARK VINA RESULT:     -12.4      1.352      7.359
REMARK SMILES O=C(C[C@H](NC(=O)[C@]12C[C@H]3C[C@H](C[C@H](C3)C1)C2)c1cccc([N+](=O)[O-])c1)NCCCCCCNC(=O)c1ccc(-c2c3nc(c(-c4cc(S(=O)(=O)[O-])ccc4F)c4ccc([nH]4)c(-c4cc(S(=O)(=O)[O-])ccc4F)c4nc(c(-c5cc(S(=O)(=O)[O-])ccc5F)c5ccc2[nH]5)C=C4)C=C3)cc1
REMARK SMILES IDX 30 1 29 2 28 3 27 4 1 5 2 6 3 8 4 9 18 10 19 11 26 12 20 13
REMARK SMILES IDX 22 14 21 15 23 16 24 17 25 18 5 19 6 20 7 22 8 23 9 24 16 25
REMARK SMILES IDX 17 26 10 27 14 28 12 29 11 30 15 31 13 32 31 33 32 34 33 35
REMARK SMILES IDX 34 36 35 37 36 39 37 40 38 41 99 42 39 43 98 44 40 45 41 46
REMARK SMILES IDX 42 47 92 48 43 49 97 50 91 51 93 52 44 53 96 54 90 55 89 56
REMARK SMILES IDX 45 58 77 59 57 60 76 61 58 62 61 63 75 64 94 65 59 66 60 67
REMARK SMILES IDX 74 69 95 70 62 71 46 72 47 73 55 74 48 75 54 76 56 77 53 78
REMARK SMILES IDX 49 79 50 80 51 81 52 82 78 83 79 84 87 85 80 86 86 87 88 88
REMARK SMILES IDX 85 89 81 90 82 91 83 92 84 93 63 94 64 95 72 96 65 97 71 98
REMARK SMILES IDX 73 99 70 100 66 101 67 102 68 103 69 104
REMARK H PARENT 27 7 5 21 34 38 93 57 61 68
REMARK Flexibility Score: inf
ROOT
ATOM      1  C   UNL A   1      31.759  29.271  26.862  1.00  0.00     0.002 C 
ENDROOT
BRANCH   1   2
ATOM      2  C   UNL A   1      32.640  28.110  26.375  1.00  0.00     0.021 C 
BRANCH   2   3
ATOM      3  C   UNL A   1      33.989  28.551  25.796  1.00  0.00     0.116 C 
BRANCH   3   4
ATOM      4  N   UNL A   1      34.280  27.762  24.615  1.00  0.00    -0.356 N 
ATOM      5  O   UNL A   1      33.654  29.337  23.077  1.00  0.00    -0.275 OA
ATOM      6  C   UNL A   1      33.885  28.166  23.362  1.00  0.00     0.222 C 
ATOM      7  H   UNL A   1      34.774  26.916  24.713  1.00  0.00     0.163 HD
BRANCH   6   8
ATOM      8  C   UNL A   1      33.557  27.034  22.395  1.00  0.00     0.129 C 
BRANCH   8   9
ATOM      9  C   UNL A   1      32.827  25.833  23.049  1.00  0.00     0.122 C 
BRANCH   9  10
ATOM     10  C   UNL A   1      31.335  26.209  23.182  1.00  0.00    -0.018 A 
ATOM     11  C   UNL A   1      30.501  25.564  24.107  1.00  0.00     0.006 A 
ATOM     12  C   UNL A   1      30.813  27.310  22.475  1.00  0.00     0.091 A 
ATOM     13  C   UNL A   1      29.234  26.085  24.406  1.00  0.00     0.007 A 
ATOM     14  C   UNL A   1      29.605  27.897  22.867  1.00  0.00     0.269 A 
ATOM     15  C   UNL A   1      28.800  27.280  23.825  1.00  0.00     0.085 A 
BRANCH  14  16
ATOM     16  N   UNL A   1      29.285  29.250  22.389  1.00  0.00     0.062 N 
ATOM     17  O   UNL A   1      29.895  29.671  21.399  1.00  0.00    -0.258 OA
ATOM     18  O   UNL A   1      28.391  29.870  22.986  1.00  0.00    -0.258 OA
ENDBRANCH  14  16
ENDBRANCH   9  10
BRANCH   9  19
ATOM     19  N   UNL A   1      32.935  24.531  22.372  1.00  0.00    -0.348 N 
ATOM     20  C   UNL A   1      33.102  23.273  22.895  1.00  0.00     0.226 C 
ATOM     21  H   UNL A   1      32.881  24.569  21.389  1.00  0.00     0.164 HD
ATOM     22  O   UNL A   1      32.389  22.393  22.394  1.00  0.00    -0.274 OA
BRANCH  20  23
ATOM     23  C   UNL A   1      34.253  22.880  23.852  1.00  0.00     0.050 C 
ATOM     24  C   UNL A   1      34.099  23.788  25.102  1.00  0.00     0.020 C 
ATOM     25  C   UNL A   1      35.655  23.190  23.243  1.00  0.00     0.020 C 
ATOM     26  C   UNL A   1      34.305  21.406  24.256  1.00  0.00     0.020 C 
ATOM     27  C   UNL A   1      35.198  23.498  26.135  1.00  0.00    -0.010 C 
ATOM     28  C   UNL A   1      36.781  22.896  24.268  1.00  0.00    -0.010 C 
ATOM     29  C   UNL A   1      35.370  21.120  25.317  1.00  0.00    -0.010 C 
ATOM     30  C   UNL A   1      35.111  22.020  26.541  1.00  0.00     0.007 C 
ATOM     31  C   UNL A   1      36.578  23.774  25.514  1.00  0.00     0.007 C 
ATOM     32  C   UNL A   1      36.734  21.422  24.703  1.00  0.00     0.007 C 
ENDBRANCH  20  23
ENDBRANCH   9  19
ENDBRANCH   8   9
ENDBRANCH   6   8
ENDBRANCH   3   4
ENDBRANCH   2   3
ENDBRANCH   1   2
BRANCH   1  33
ATOM     33  C   UNL A   1      31.482  30.363  25.825  1.00  0.00     0.002 C 
BRANCH  33  34
ATOM     34  C   UNL A   1      31.362  31.769  26.407  1.00  0.00     0.021 C 
BRANCH  34  35
ATOM     35  C   UNL A   1      32.648  32.298  27.026  1.00  0.00     0.116 C 
BRANCH  35  36
ATOM     36  N   UNL A   1      32.514  33.673  27.486  1.00  0.00    -0.352 N 
ATOM     37  C   UNL A   1      33.244  34.319  28.455  1.00  0.00     0.251 C 
ATOM     38  H   UNL A   1      31.813  34.207  27.048  1.00  0.00     0.163 HD
ATOM     39  O   UNL A   1      32.889  35.419  28.868  1.00  0.00    -0.269 OA
BRANCH  37  40
ATOM     40  C   UNL A   1      34.437  33.648  29.014  1.00  0.00     0.039 A 
ATOM     41  C   UNL A   1      35.695  34.221  28.820  1.00  0.00     0.014 A 
ATOM     42  C   UNL A   1      34.297  32.488  29.781  1.00  0.00     0.014 A 
ATOM     43  C   UNL A   1      36.808  33.665  29.456  1.00  0.00     0.010 A 
ATOM     44  C   UNL A   1      35.391  31.986  30.478  1.00  0.00     0.010 A 
ATOM     45  C   UNL A   1      36.658  32.568  30.321  1.00  0.00    -0.014 A 
BRANCH  45  46
ATOM     46  C   UNL A   1      37.815  32.007  31.064  1.00  0.00     0.031 A 
ATOM     47  C   UNL A   1      38.607  30.872  30.472  1.00  0.00     0.074 A 
ATOM     48  C   UNL A   1      38.109  32.468  32.296  1.00  0.00     0.049 A 
ATOM     49  N   UNL A   1      39.597  30.192  30.991  1.00  0.00    -0.248 NA
ATOM     50  C   UNL A   1      38.204  30.420  29.132  1.00  0.00     0.031 C 
ATOM     51  C   UNL A   1      37.384  33.531  32.995  1.00  0.00     0.029 A 
ATOM     52  N   UNL A   1      39.089  32.098  33.183  1.00  0.00    -0.354 N 
ATOM     53  C   UNL A   1      39.926  29.225  30.047  1.00  0.00     0.074 A 
ATOM     54  C   UNL A   1      38.981  29.362  28.960  1.00  0.00     0.031 C 
ATOM     55  C   UNL A   1      37.959  33.745  34.190  1.00  0.00     0.029 A 
ATOM     56  C   UNL A   1      39.064  32.806  34.363  1.00  0.00     0.049 A 
ATOM     57  H   UNL A   1      39.747  31.392  32.994  1.00  0.00     0.167 HD
ATOM     58  C   UNL A   1      40.940  28.323  30.073  1.00  0.00     0.034 A 
ATOM     59  C   UNL A   1      39.836  32.704  35.463  1.00  0.00     0.034 A 
ATOM     60  C   UNL A   1      41.879  28.209  31.162  1.00  0.00     0.049 A 
ATOM     61  C   UNL A   1      40.944  31.682  35.480  1.00  0.00     0.074 A 
ATOM     62  C   UNL A   1      42.978  27.374  31.271  1.00  0.00     0.029 A 
ATOM     63  N   UNL A   1      41.826  28.947  32.339  1.00  0.00    -0.354 N 
ATOM     64  N   UNL A   1      41.280  30.811  34.556  1.00  0.00    -0.248 NA
ATOM     65  C   UNL A   1      41.786  31.639  36.683  1.00  0.00     0.031 C 
ATOM     66  C   UNL A   1      43.545  27.556  32.537  1.00  0.00     0.029 A 
ATOM     67  C   UNL A   1      42.852  28.563  33.189  1.00  0.00     0.049 A 
ATOM     68  H   UNL A   1      41.158  29.642  32.540  1.00  0.00     0.167 HD
ATOM     69  C   UNL A   1      42.391  30.137  35.056  1.00  0.00     0.074 A 
ATOM     70  C   UNL A   1      42.675  30.714  36.354  1.00  0.00     0.031 C 
ATOM     71  C   UNL A   1      43.115  29.138  34.489  1.00  0.00     0.034 A 
BRANCH  58  72
ATOM     72  C   UNL A   1      41.058  27.381  28.898  1.00  0.00     0.023 A 
ATOM     73  C   UNL A   1      42.052  27.545  27.916  1.00  0.00     0.031 A 
ATOM     74  C   UNL A   1      40.139  26.330  28.729  1.00  0.00     0.131 A 
ATOM     75  C   UNL A   1      42.048  26.736  26.770  1.00  0.00     0.055 A 
ATOM     76  C   UNL A   1      40.196  25.470  27.630  1.00  0.00     0.041 A 
ATOM     77  F   UNL A   1      39.154  26.134  29.620  1.00  0.00    -0.206 F 
ATOM     78  C   UNL A   1      41.143  25.682  26.633  1.00  0.00     0.022 A 
BRANCH  75  79
ATOM     79  S   UNL A   1      43.134  27.189  25.389  1.00  0.00     0.124 S 
ATOM     80  O   UNL A   1      43.368  25.890  24.761  1.00  0.00    -0.237 OA
ATOM     81  O   UNL A   1      42.310  28.125  24.634  1.00  0.00    -0.237 OA
ATOM     82  O   UNL A   1      44.301  27.773  26.047  1.00  0.00    -0.744 OA
ENDBRANCH  75  79
ENDBRANCH  58  72
BRANCH  59  83
ATOM     83  C   UNL A   1      39.589  33.585  36.641  1.00  0.00     0.023 A 
ATOM     84  C   UNL A   1      39.000  33.080  37.812  1.00  0.00     0.031 A 
ATOM     85  C   UNL A   1      39.909  34.954  36.602  1.00  0.00     0.131 A 
ATOM     86  C   UNL A   1      38.713  33.944  38.880  1.00  0.00     0.055 A 
ATOM     87  C   UNL A   1      39.669  35.799  37.687  1.00  0.00     0.041 A 
ATOM     88  F   UNL A   1      40.481  35.486  35.510  1.00  0.00    -0.206 F 
ATOM     89  C   UNL A   1      39.055  35.298  38.830  1.00  0.00     0.022 A 
BRANCH  86  90
ATOM     90  S   UNL A   1      37.815  33.288  40.313  1.00  0.00     0.124 S 
ATOM     91  O   UNL A   1      38.631  32.134  40.672  1.00  0.00    -0.237 OA
ATOM     92  O   UNL A   1      37.856  34.416  41.237  1.00  0.00    -0.237 OA
ATOM     93  O   UNL A   1      36.494  32.977  39.772  1.00  0.00    -0.744 OA
ENDBRANCH  86  90
ENDBRANCH  59  83
BRANCH  71  94
ATOM     94  C   UNL A   1      44.314  28.638  35.259  1.00  0.00     0.023 A 
ATOM     95  C   UNL A   1      44.201  27.650  36.252  1.00  0.00     0.031 A 
ATOM     96  C   UNL A   1      45.590  29.169  34.997  1.00  0.00     0.131 A 
ATOM     97  C   UNL A   1      45.333  27.261  36.984  1.00  0.00     0.055 A 
ATOM     98  C   UNL A   1      46.723  28.733  35.686  1.00  0.00     0.041 A 
ATOM     99  F   UNL A   1      45.757  30.119  34.063  1.00  0.00    -0.206 F 
ATOM    100  C   UNL A   1      46.596  27.783  36.695  1.00  0.00     0.022 A 
BRANCH  97 101
ATOM    101  S   UNL A   1      45.118  26.130  38.386  1.00  0.00     0.124 S 
ATOM    102  O   UNL A   1      45.242  24.825  37.744  1.00  0.00    -0.237 OA
ATOM    103  O   UNL A   1      46.216  26.514  39.267  1.00  0.00    -0.237 OA
ATOM    104  O   UNL A   1      43.783  26.451  38.885  1.00  0.00    -0.744 OA
ENDBRANCH  97 101
ENDBRANCH  71  94
ENDBRANCH  45  46
ENDBRANCH  37  40
ENDBRANCH  35  36
ENDBRANCH  34  35
ENDBRANCH  33  34
ENDBRANCH   1  33
TORSDOF 21
ENDMDL
MODEL 3
REMARK VINA RESULT:     -12.3      3.050      5.343
REMARK SMILES O=C(C[C@H](NC(=O)[C@]12C[C@H]3C[C@H](C[C@H](C3)C1)C2)c1cccc([N+](=O)[O-])c1)NCCCCCCNC(=O)c1ccc(-c2c3nc(c(-c4cc(S(=O)(=O)[O-])ccc4F)c4ccc([nH]4)c(-c4cc(S(=O)(=O)[O-])ccc4F)c4nc(c(-c5cc(S(=O)(=O)[O-])ccc5F)c5ccc2[nH]5)C=C4)C=C3)cc1
REMARK SMILES IDX 30 1 29 2 28 3 27 4 1 5 2 6 3 8 4 9 18 10 19 11 26 12 20 13
REMARK SMILES IDX 22 14 21 15 23 16 24 17 25 18 5 19 6 20 7 22 8 23 9 24 16 25
REMARK SMILES IDX 17 26 10 27 14 28 12 29 11 30 15 31 13 32 31 33 32 34 33 35
REMARK SMILES IDX 34 36 35 37 36 39 37 40 38 41 99 42 39 43 98 44 40 45 41 46
REMARK SMILES IDX 42 47 92 48 43 49 97 50 91 51 93 52 44 53 96 54 90 55 89 56
REMARK SMILES IDX 45 58 77 59 57 60 76 61 58 62 61 63 75 64 94 65 59 66 60 67
REMARK SMILES IDX 74 69 95 70 62 71 46 72 47 73 55 74 48 75 54 76 56 77 53 78
REMARK SMILES IDX 49 79 50 80 51 81 52 82 78 83 79 84 87 85 80 86 86 87 88 88
REMARK SMILES IDX 85 89 81 90 82 91 83 92 84 93 63 94 64 95 72 96 65 97 71 98
REMARK SMILES IDX 73 99 70 100 66 101 67 102 68 103 69 104
REMARK H PARENT 27 7 5 21 34 38 93 57 61 68
REMARK Flexibility Score: inf
ROOT
ATOM      1  C   UNL A   1      33.558  25.914  23.283  1.00  0.00     0.002 C 
ENDROOT
BRANCH   1   2
ATOM      2  C   UNL A   1      32.238  25.790  22.504  1.00  0.00     0.021 C 
BRANCH   2   3
ATOM      3  C   UNL A   1      31.147  25.011  23.246  1.00  0.00     0.116 C 
BRANCH   3   4
ATOM      4  N   UNL A   1      31.375  23.590  23.071  1.00  0.00    -0.356 N 
ATOM      5  O   UNL A   1      30.932  22.977  25.231  1.00  0.00    -0.275 OA
ATOM      6  C   UNL A   1      31.445  22.733  24.143  1.00  0.00     0.222 C 
ATOM      7  H   UNL A   1      31.482  23.230  22.160  1.00  0.00     0.163 HD
BRANCH   6   8
ATOM      8  C   UNL A   1      32.376  21.541  23.954  1.00  0.00     0.129 C 
BRANCH   8   9
ATOM      9  C   UNL A   1      32.189  20.418  25.006  1.00  0.00     0.122 C 
BRANCH   9  10
ATOM     10  C   UNL A   1      32.545  19.077  24.328  1.00  0.00    -0.018 A 
ATOM     11  C   UNL A   1      32.287  18.857  22.967  1.00  0.00     0.006 A 
ATOM     12  C   UNL A   1      33.272  18.095  25.031  1.00  0.00     0.091 A 
ATOM     13  C   UNL A   1      32.848  17.755  22.305  1.00  0.00     0.007 A 
ATOM     14  C   UNL A   1      33.931  17.071  24.342  1.00  0.00     0.269 A 
ATOM     15  C   UNL A   1      33.711  16.885  22.977  1.00  0.00     0.085 A 
BRANCH  14  16
ATOM     16  N   UNL A   1      34.983  16.313  25.034  1.00  0.00     0.062 N 
ATOM     17  O   UNL A   1      34.809  15.099  25.193  1.00  0.00    -0.258 OA
ATOM     18  O   UNL A   1      36.001  16.933  25.379  1.00  0.00    -0.258 OA
ENDBRANCH  14  16
ENDBRANCH   9  10
BRANCH   9  19
ATOM     19  N   UNL A   1      32.950  20.538  26.260  1.00  0.00    -0.348 N 
ATOM     20  C   UNL A   1      33.852  21.494  26.660  1.00  0.00     0.226 C 
ATOM     21  H   UNL A   1      32.789  19.820  26.914  1.00  0.00     0.164 HD
ATOM     22  O   UNL A   1      33.718  21.892  27.825  1.00  0.00    -0.274 OA
BRANCH  20  23
ATOM     23  C   UNL A   1      35.109  21.890  25.849  1.00  0.00     0.050 C 
ATOM     24  C   UNL A   1      36.115  22.474  26.876  1.00  0.00     0.020 C 
ATOM     25  C   UNL A   1      34.811  23.022  24.819  1.00  0.00     0.020 C 
ATOM     26  C   UNL A   1      35.754  20.765  25.038  1.00  0.00     0.020 C 
ATOM     27  C   UNL A   1      37.415  22.915  26.188  1.00  0.00    -0.010 C 
ATOM     28  C   UNL A   1      36.110  23.477  24.105  1.00  0.00    -0.010 C 
ATOM     29  C   UNL A   1      37.072  21.188  24.386  1.00  0.00    -0.010 C 
ATOM     30  C   UNL A   1      38.030  21.701  25.478  1.00  0.00     0.007 C 
ATOM     31  C   UNL A   1      37.106  24.008  25.150  1.00  0.00     0.007 C 
ATOM     32  C   UNL A   1      36.762  22.290  23.378  1.00  0.00     0.007 C 
ENDBRANCH  20  23
ENDBRANCH   9  19
ENDBRANCH   8   9
ENDBRANCH   6   8
ENDBRANCH   3   4
ENDBRANCH   2   3
ENDBRANCH   1   2
BRANCH   1  33
ATOM     33  C   UNL A   1      33.436  26.509  24.689  1.00  0.00     0.002 C 
BRANCH  33  34
ATOM     34  C   UNL A   1      33.836  27.978  24.787  1.00  0.00     0.021 C 
BRANCH  34  35
ATOM     35  C   UNL A   1      34.332  28.398  26.165  1.00  0.00     0.116 C 
BRANCH  35  36
ATOM     36  N   UNL A   1      33.896  29.740  26.523  1.00  0.00    -0.352 N 
ATOM     37  C   UNL A   1      34.449  30.594  27.447  1.00  0.00     0.251 C 
ATOM     38  H   UNL A   1      33.106  30.079  26.043  1.00  0.00     0.163 HD
ATOM     39  O   UNL A   1      33.858  31.618  27.776  1.00  0.00    -0.269 OA
BRANCH  37  40
ATOM     40  C   UNL A   1      35.746  30.237  28.060  1.00  0.00     0.039 A 
ATOM     41  C   UNL A   1      35.761  29.595  29.299  1.00  0.00     0.014 A 
ATOM     42  C   UNL A   1      36.939  30.485  27.374  1.00  0.00     0.014 A 
ATOM     43  C   UNL A   1      36.974  29.138  29.820  1.00  0.00     0.010 A 
ATOM     44  C   UNL A   1      38.132  29.956  27.856  1.00  0.00     0.010 A 
ATOM     45  C   UNL A   1      38.163  29.280  29.084  1.00  0.00    -0.014 A 
BRANCH  45  46
ATOM     46  C   UNL A   1      39.451  28.736  29.586  1.00  0.00     0.031 A 
ATOM     47  C   UNL A   1      40.172  29.434  30.707  1.00  0.00     0.074 A 
ATOM     48  C   UNL A   1      40.004  27.661  28.989  1.00  0.00     0.049 A 
ATOM     49  N   UNL A   1      41.340  29.168  31.235  1.00  0.00    -0.248 NA
ATOM     50  C   UNL A   1      39.505  30.609  31.286  1.00  0.00     0.031 C 
ATOM     51  C   UNL A   1      39.423  26.929  27.861  1.00  0.00     0.029 A 
ATOM     52  N   UNL A   1      41.180  27.001  29.240  1.00  0.00    -0.354 N 
ATOM     53  C   UNL A   1      41.552  30.150  32.197  1.00  0.00     0.074 A 
ATOM     54  C   UNL A   1      40.426  31.056  32.125  1.00  0.00     0.031 C 
ATOM     55  C   UNL A   1      40.232  25.908  27.536  1.00  0.00     0.029 A 
ATOM     56  C   UNL A   1      41.409  25.936  28.399  1.00  0.00     0.049 A 
ATOM     57  H   UNL A   1      41.804  27.265  29.955  1.00  0.00     0.167 HD
ATOM     58  C   UNL A   1      42.579  30.270  33.076  1.00  0.00     0.034 A 
ATOM     59  C   UNL A   1      42.453  25.087  28.324  1.00  0.00     0.034 A 
ATOM     60  C   UNL A   1      43.688  29.350  33.138  1.00  0.00     0.049 A 
ATOM     61  C   UNL A   1      43.593  25.249  29.297  1.00  0.00     0.074 A 
ATOM     62  C   UNL A   1      44.752  29.339  34.023  1.00  0.00     0.029 A 
ATOM     63  N   UNL A   1      43.883  28.279  32.274  1.00  0.00    -0.354 N 
ATOM     64  N   UNL A   1      43.753  26.150  30.239  1.00  0.00    -0.248 NA
ATOM     65  C   UNL A   1      44.685  24.272  29.204  1.00  0.00     0.031 C 
ATOM     66  C   UNL A   1      45.623  28.309  33.652  1.00  0.00     0.029 A 
ATOM     67  C   UNL A   1      45.064  27.623  32.585  1.00  0.00     0.049 A 
ATOM     68  H   UNL A   1      43.271  28.023  31.545  1.00  0.00     0.167 HD
ATOM     69  C   UNL A   1      44.951  25.827  30.871  1.00  0.00     0.074 A 
ATOM     70  C   UNL A   1      45.462  24.643  30.211  1.00  0.00     0.031 C 
ATOM     71  C   UNL A   1      45.569  26.451  31.908  1.00  0.00     0.034 A 
BRANCH  58  72
ATOM     72  C   UNL A   1      42.550  31.453  34.016  1.00  0.00     0.023 A 
ATOM     73  C   UNL A   1      41.916  31.385  35.269  1.00  0.00     0.031 A 
ATOM     74  C   UNL A   1      43.125  32.680  33.638  1.00  0.00     0.131 A 
ATOM     75  C   UNL A   1      41.790  32.540  36.056  1.00  0.00     0.055 A 
ATOM     76  C   UNL A   1      43.076  33.802  34.468  1.00  0.00     0.041 A 
ATOM     77  F   UNL A   1      43.727  32.815  32.446  1.00  0.00    -0.206 F 
ATOM     78  C   UNL A   1      42.389  33.742  35.676  1.00  0.00     0.022 A 
BRANCH  75  79
ATOM     79  S   UNL A   1      40.691  32.487  37.499  1.00  0.00     0.124 S 
ATOM     80  O   UNL A   1      39.556  31.728  36.977  1.00  0.00    -0.237 OA
ATOM     81  O   UNL A   1      41.511  31.808  38.495  1.00  0.00    -0.237 OA
ATOM     82  O   UNL A   1      40.415  33.896  37.772  1.00  0.00    -0.744 OA
ENDBRANCH  75  79
ENDBRANCH  58  72
BRANCH  59  83
ATOM     83  C   UNL A   1      42.475  24.012  27.290  1.00  0.00     0.023 A 
ATOM     84  C   UNL A   1      41.948  22.738  27.559  1.00  0.00     0.031 A 
ATOM     85  C   UNL A   1      43.054  24.232  26.027  1.00  0.00     0.131 A 
ATOM     86  C   UNL A   1      42.045  21.723  26.595  1.00  0.00     0.055 A 
ATOM     87  C   UNL A   1      43.101  23.234  25.053  1.00  0.00     0.041 A 
ATOM     88  F   UNL A   1      43.566  25.434  25.716  1.00  0.00    -0.206 F 
ATOM     89  C   UNL A   1      42.606  21.966  25.339  1.00  0.00     0.022 A 
BRANCH  86  90
ATOM     90  S   UNL A   1      41.491  20.052  27.032  1.00  0.00     0.124 S 
ATOM     91  O   UNL A   1      40.942  19.579  25.767  1.00  0.00    -0.237 OA
ATOM     92  O   UNL A   1      42.735  19.426  27.468  1.00  0.00    -0.237 OA
ATOM     93  O   UNL A   1      40.511  20.285  28.091  1.00  0.00    -0.744 OA
ENDBRANCH  86  90
ENDBRANCH  59  83
BRANCH  71  94
ATOM     94  C   UNL A   1      46.847  25.829  32.418  1.00  0.00     0.023 A 
ATOM     95  C   UNL A   1      46.854  24.907  33.479  1.00  0.00     0.031 A 
ATOM     96  C   UNL A   1      48.079  26.173  31.834  1.00  0.00     0.131 A 
ATOM     97  C   UNL A   1      48.071  24.403  33.960  1.00  0.00     0.055 A 
ATOM     98  C   UNL A   1      49.282  25.620  32.275  1.00  0.00     0.041 A 
ATOM     99  F   UNL A   1      48.134  27.052  30.820  1.00  0.00    -0.206 F 
ATOM    100  C   UNL A   1      49.284  24.739  33.353  1.00  0.00     0.022 A 
BRANCH  97 101
ATOM    101  S   UNL A   1      48.060  23.371  35.452  1.00  0.00     0.124 S 
ATOM    102  O   UNL A   1      47.572  22.096  34.934  1.00  0.00    -0.237 OA
ATOM    103  O   UNL A   1      49.460  23.399  35.861  1.00  0.00    -0.237 OA
ATOM    104  O   UNL A   1      47.140  24.070  36.346  1.00  0.00    -0.744 OA
ENDBRANCH  97 101
ENDBRANCH  71  94
ENDBRANCH  45  46
ENDBRANCH  37  40
ENDBRANCH  35  36
ENDBRANCH  34  35
ENDBRANCH  33  34
ENDBRANCH   1  33
TORSDOF 21
ENDMDL
