MODEL 1
REMARK VINA RESULT:     -11.4      0.000      0.000
REMARK SMILES Cc1cc(NCc2ccco2)cc(C(=O)NCCCCCCNC(=O)c2ccc(-c3c4nc(c(-c5cc(S(=O)(=O)[O-])ccc5F)c5ccc([nH]5)c(-c5cc(S(=O)(=O)[O-])ccc5F)c5nc(c(-c6cc(S(=O)(=O)[O-])ccc6F)c6ccc3[nH]6)C=C5)C=C4)cc2)c1N
REMARK SMILES IDX 19 1 18 2 17 3 16 4 14 5 15 6 13 8 1 9 2 10 3 11 89 12 4 13
REMARK SMILES IDX 12 14 90 15 5 18 6 20 7 21 8 22 11 23 9 24 10 25 20 26 21 27
REMARK SMILES IDX 22 28 23 29 24 30 25 32 26 33 27 34 88 35 28 36 87 37 29 38
REMARK SMILES IDX 30 39 31 40 81 41 32 42 86 43 80 44 82 45 33 46 85 47 79 48
REMARK SMILES IDX 78 49 34 51 66 52 46 53 65 54 47 55 50 56 64 57 83 58 48 59
REMARK SMILES IDX 49 60 63 62 84 63 51 64 35 65 36 66 44 67 37 68 43 69 45 70
REMARK SMILES IDX 42 71 38 72 39 73 40 74 41 75 67 76 68 77 76 78 69 79 75 80
REMARK SMILES IDX 77 81 74 82 70 83 71 84 72 85 73 86 52 87 53 88 61 89 54 90
REMARK SMILES IDX 60 91 62 92 59 93 55 94 56 95 57 96 58 97
REMARK H PARENT 16 7 90 16 90 17 5 19 23 31 82 50 50 61
REMARK Flexibility Score: inf
ROOT
ATOM      1  C   UNL A   1      30.612  26.034  25.682  1.00  0.00     0.002 C 
ENDROOT
BRANCH   1   2
ATOM      2  C   UNL A   1      30.367  25.924  24.170  1.00  0.00     0.021 C 
BRANCH   2   3
ATOM      3  C   UNL A   1      30.405  24.477  23.669  1.00  0.00     0.116 C 
BRANCH   3   4
ATOM      4  N   UNL A   1      31.432  24.346  22.654  1.00  0.00    -0.352 N 
ATOM      5  C   UNL A   1      32.428  23.428  22.427  1.00  0.00     0.253 C 
ATOM      6  O   UNL A   1      33.204  23.699  21.506  1.00  0.00    -0.269 OA
ATOM      7  H   UNL A   1      31.411  25.068  21.986  1.00  0.00     0.163 HD
BRANCH   5   8
ATOM      8  C   UNL A   1      32.573  22.133  23.177  1.00  0.00     0.065 A 
ATOM      9  C   UNL A   1      32.074  18.384  22.591  1.00  0.00     0.046 C 
ATOM     10  C   UNL A   1      32.342  19.713  23.245  1.00  0.00    -0.025 A 
ATOM     11  C   UNL A   1      32.674  19.743  24.612  1.00  0.00     0.031 A 
ATOM     12  C   UNL A   1      32.273  20.916  22.516  1.00  0.00     0.047 A 
ATOM     13  C   UNL A   1      32.992  20.932  25.275  1.00  0.00     0.036 A 
ATOM     14  C   UNL A   1      33.037  22.091  24.502  1.00  0.00     0.041 A 
BRANCH  12  15
ATOM     15  N   UNL A   1      31.778  20.897  21.206  1.00  0.00    -0.398 N 
ATOM     16  H   UNL A   1      31.031  21.488  20.953  1.00  0.00     0.156 HD
ATOM     17  H   UNL A   1      32.177  20.294  20.537  1.00  0.00     0.156 HD
ENDBRANCH  12  15
BRANCH  13  18
ATOM     18  N   UNL A   1      33.313  20.887  26.617  1.00  0.00    -0.378 N 
ATOM     19  H   UNL A   1      32.692  20.399  27.204  1.00  0.00     0.161 HD
BRANCH  18  20
ATOM     20  C   UNL A   1      34.479  21.492  27.254  1.00  0.00     0.188 C 
BRANCH  20  21
ATOM     21  C   UNL A   1      35.582  21.891  26.329  1.00  0.00     0.122 A 
ATOM     22  C   UNL A   1      36.429  21.186  25.499  1.00  0.00     0.047 A 
ATOM     23  O   UNL A   1      35.914  23.218  26.310  1.00  0.00    -0.467 OA
ATOM     24  C   UNL A   1      37.343  22.128  24.963  1.00  0.00     0.042 A 
ATOM     25  C   UNL A   1      36.986  23.348  25.486  1.00  0.00     0.195 A 
ENDBRANCH  20  21
ENDBRANCH  18  20
ENDBRANCH  13  18
ENDBRANCH   5   8
ENDBRANCH   3   4
ENDBRANCH   2   3
ENDBRANCH   1   2
BRANCH   1  26
ATOM     26  C   UNL A   1      31.559  27.172  26.087  1.00  0.00     0.002 C 
BRANCH  26  27
ATOM     27  C   UNL A   1      31.770  28.240  25.012  1.00  0.00     0.021 C 
BRANCH  27  28
ATOM     28  C   UNL A   1      32.918  29.200  25.308  1.00  0.00     0.116 C 
BRANCH  28  29
ATOM     29  N   UNL A   1      32.424  30.490  25.760  1.00  0.00    -0.352 N 
ATOM     30  C   UNL A   1      32.823  31.242  26.837  1.00  0.00     0.251 C 
ATOM     31  H   UNL A   1      31.701  30.880  25.217  1.00  0.00     0.163 HD
ATOM     32  O   UNL A   1      32.118  32.163  27.233  1.00  0.00    -0.269 OA
BRANCH  30  33
ATOM     33  C   UNL A   1      34.096  30.925  27.517  1.00  0.00     0.039 A 
ATOM     34  C   UNL A   1      35.052  31.930  27.674  1.00  0.00     0.014 A 
ATOM     35  C   UNL A   1      34.351  29.632  27.986  1.00  0.00     0.014 A 
ATOM     36  C   UNL A   1      36.243  31.652  28.347  1.00  0.00     0.010 A 
ATOM     37  C   UNL A   1      35.505  29.376  28.719  1.00  0.00     0.010 A 
ATOM     38  C   UNL A   1      36.467  30.381  28.903  1.00  0.00    -0.014 A 
BRANCH  38  39
ATOM     39  C   UNL A   1      37.704  30.081  29.669  1.00  0.00     0.031 A 
ATOM     40  C   UNL A   1      38.733  29.142  29.099  1.00  0.00     0.074 A 
ATOM     41  C   UNL A   1      37.871  30.611  30.897  1.00  0.00     0.049 A 
ATOM     42  N   UNL A   1      39.836  28.695  29.642  1.00  0.00    -0.248 NA
ATOM     43  C   UNL A   1      38.471  28.612  27.751  1.00  0.00     0.031 C 
ATOM     44  C   UNL A   1      36.925  31.507  31.566  1.00  0.00     0.029 A 
ATOM     45  N   UNL A   1      38.889  30.468  31.807  1.00  0.00    -0.354 N 
ATOM     46  C   UNL A   1      40.393  27.826  28.710  1.00  0.00     0.074 A 
ATOM     47  C   UNL A   1      39.474  27.762  27.595  1.00  0.00     0.031 C 
ATOM     48  C   UNL A   1      37.420  31.852  32.766  1.00  0.00     0.029 A 
ATOM     49  C   UNL A   1      38.689  31.164  32.977  1.00  0.00     0.049 A 
ATOM     50  H   UNL A   1      39.688  29.918  31.639  1.00  0.00     0.167 HD
ATOM     51  C   UNL A   1      41.573  27.160  28.772  1.00  0.00     0.034 A 
ATOM     52  C   UNL A   1      39.435  31.229  34.097  1.00  0.00     0.034 A 
ATOM     53  C   UNL A   1      42.483  27.247  29.888  1.00  0.00     0.049 A 
ATOM     54  C   UNL A   1      40.730  30.455  34.151  1.00  0.00     0.074 A 
ATOM     55  C   UNL A   1      43.728  26.658  30.031  1.00  0.00     0.029 A 
ATOM     56  N   UNL A   1      42.247  27.961  31.056  1.00  0.00    -0.354 N 
ATOM     57  N   UNL A   1      41.266  29.676  33.240  1.00  0.00    -0.248 NA
ATOM     58  C   UNL A   1      41.524  30.578  35.381  1.00  0.00     0.031 C 
ATOM     59  C   UNL A   1      44.209  26.954  31.311  1.00  0.00     0.029 A 
ATOM     60  C   UNL A   1      43.306  27.800  31.935  1.00  0.00     0.049 A 
ATOM     61  H   UNL A   1      41.444  28.503  31.232  1.00  0.00     0.167 HD
ATOM     62  C   UNL A   1      42.479  29.248  33.774  1.00  0.00     0.074 A 
ATOM     63  C   UNL A   1      42.601  29.867  35.077  1.00  0.00     0.031 C 
ATOM     64  C   UNL A   1      43.412  28.421  33.234  1.00  0.00     0.034 A 
BRANCH  51  65
ATOM     65  C   UNL A   1      41.932  26.262  27.612  1.00  0.00     0.023 A 
ATOM     66  C   UNL A   1      41.587  24.899  27.596  1.00  0.00     0.031 A 
ATOM     67  C   UNL A   1      42.634  26.774  26.506  1.00  0.00     0.131 A 
ATOM     68  C   UNL A   1      42.001  24.083  26.532  1.00  0.00     0.055 A 
ATOM     69  C   UNL A   1      42.972  25.974  25.412  1.00  0.00     0.041 A 
ATOM     70  F   UNL A   1      43.010  28.062  26.473  1.00  0.00    -0.206 F 
ATOM     71  C   UNL A   1      42.667  24.617  25.427  1.00  0.00     0.022 A 
BRANCH  68  72
ATOM     72  S   UNL A   1      41.772  22.290  26.675  1.00  0.00     0.124 S 
ATOM     73  O   UNL A   1      40.331  22.195  26.905  1.00  0.00    -0.237 OA
ATOM     74  O   UNL A   1      42.244  21.806  25.383  1.00  0.00    -0.237 OA
ATOM     75  O   UNL A   1      42.604  21.927  27.820  1.00  0.00    -0.744 OA
ENDBRANCH  68  72
ENDBRANCH  51  65
BRANCH  52  76
ATOM     76  C   UNL A   1      38.983  32.038  35.267  1.00  0.00     0.023 A 
ATOM     77  C   UNL A   1      38.440  31.421  36.407  1.00  0.00     0.031 A 
ATOM     78  C   UNL A   1      39.031  33.443  35.241  1.00  0.00     0.131 A 
ATOM     79  C   UNL A   1      37.911  32.206  37.443  1.00  0.00     0.055 A 
ATOM     80  C   UNL A   1      38.561  34.218  36.302  1.00  0.00     0.041 A 
ATOM     81  F   UNL A   1      39.542  34.087  34.179  1.00  0.00    -0.206 F 
ATOM     82  C   UNL A   1      37.981  33.600  37.405  1.00  0.00     0.022 A 
BRANCH  79  83
ATOM     83  S   UNL A   1      37.028  31.377  38.794  1.00  0.00     0.124 S 
ATOM     84  O   UNL A   1      36.923  30.015  38.286  1.00  0.00    -0.237 OA
ATOM     85  O   UNL A   1      37.939  31.577  39.916  1.00  0.00    -0.237 OA
ATOM     86  O   UNL A   1      35.768  32.113  38.876  1.00  0.00    -0.744 OA
ENDBRANCH  79  83
ENDBRANCH  52  76
BRANCH  64  87
ATOM     87  C   UNL A   1      44.669  28.187  34.037  1.00  0.00     0.023 A 
ATOM     88  C   UNL A   1      44.745  27.188  35.023  1.00  0.00     0.031 A 
ATOM     89  C   UNL A   1      45.806  28.983  33.812  1.00  0.00     0.131 A 
ATOM     90  C   UNL A   1      45.913  27.051  35.789  1.00  0.00     0.055 A 
ATOM     91  C   UNL A   1      46.987  28.799  34.532  1.00  0.00     0.041 A 
ATOM     92  F   UNL A   1      45.789  29.954  32.885  1.00  0.00    -0.206 F 
ATOM     93  C   UNL A   1      47.041  27.837  35.536  1.00  0.00     0.022 A 
BRANCH  90  94
ATOM     94  S   UNL A   1      45.906  25.896  37.186  1.00  0.00     0.124 S 
ATOM     95  O   UNL A   1      45.963  24.603  36.511  1.00  0.00    -0.237 OA
ATOM     96  O   UNL A   1      47.107  26.284  37.920  1.00  0.00    -0.237 OA
ATOM     97  O   UNL A   1      44.645  26.186  37.866  1.00  0.00    -0.744 OA
ENDBRANCH  90  94
ENDBRANCH  64  87
ENDBRANCH  38  39
ENDBRANCH  30  33
ENDBRANCH  28  29
ENDBRANCH  27  28
ENDBRANCH  26  27
ENDBRANCH   1  26
TORSDOF 20
ENDMDL
MODEL 2
REMARK VINA RESULT:     -11.2      6.030      9.144
REMARK SMILES Cc1cc(NCc2ccco2)cc(C(=O)NCCCCCCNC(=O)c2ccc(-c3c4nc(c(-c5cc(S(=O)(=O)[O-])ccc5F)c5ccc([nH]5)c(-c5cc(S(=O)(=O)[O-])ccc5F)c5nc(c(-c6cc(S(=O)(=O)[O-])ccc6F)c6ccc3[nH]6)C=C5)C=C4)cc2)c1N
REMARK SMILES IDX 19 1 18 2 17 3 16 4 14 5 15 6 13 8 1 9 2 10 3 11 89 12 4 13
REMARK SMILES IDX 12 14 90 15 5 18 6 20 7 21 8 22 11 23 9 24 10 25 20 26 21 27
REMARK SMILES IDX 22 28 23 29 24 30 25 32 26 33 27 34 88 35 28 36 87 37 29 38
REMARK SMILES IDX 30 39 31 40 81 41 32 42 86 43 80 44 82 45 33 46 85 47 79 48
REMARK SMILES IDX 78 49 34 51 66 52 46 53 65 54 47 55 50 56 64 57 83 58 48 59
REMARK SMILES IDX 49 60 63 62 84 63 51 64 35 65 36 66 44 67 37 68 43 69 45 70
REMARK SMILES IDX 42 71 38 72 39 73 40 74 41 75 67 76 68 77 76 78 69 79 75 80
REMARK SMILES IDX 77 81 74 82 70 83 71 84 72 85 73 86 52 87 53 88 61 89 54 90
REMARK SMILES IDX 60 91 62 92 59 93 55 94 56 95 57 96 58 97
REMARK H PARENT 16 7 90 16 90 17 5 19 23 31 82 50 50 61
REMARK Flexibility Score: inf
ROOT
ATOM      1  C   UNL A   1      40.484  22.725  26.848  1.00  0.00     0.002 C 
ENDROOT
BRANCH   1   2
ATOM      2  C   UNL A   1      39.248  23.557  27.218  1.00  0.00     0.021 C 
BRANCH   2   3
ATOM      3  C   UNL A   1      38.207  23.602  26.095  1.00  0.00     0.116 C 
BRANCH   3   4
ATOM      4  N   UNL A   1      37.926  22.253  25.646  1.00  0.00    -0.352 N 
ATOM      5  C   UNL A   1      36.778  21.598  25.271  1.00  0.00     0.253 C 
ATOM      6  O   UNL A   1      36.901  20.390  25.046  1.00  0.00    -0.269 OA
ATOM      7  H   UNL A   1      38.728  21.685  25.599  1.00  0.00     0.163 HD
BRANCH   5   8
ATOM      8  C   UNL A   1      35.448  22.269  25.072  1.00  0.00     0.065 A 
ATOM      9  C   UNL A   1      32.190  22.855  26.994  1.00  0.00     0.046 C 
ATOM     10  C   UNL A   1      33.229  22.814  25.905  1.00  0.00    -0.025 A 
ATOM     11  C   UNL A   1      32.917  23.363  24.647  1.00  0.00     0.031 A 
ATOM     12  C   UNL A   1      34.498  22.245  26.123  1.00  0.00     0.047 A 
ATOM     13  C   UNL A   1      33.848  23.413  23.605  1.00  0.00     0.036 A 
ATOM     14  C   UNL A   1      35.134  22.957  23.888  1.00  0.00     0.041 A 
BRANCH  12  15
ATOM     15  N   UNL A   1      34.743  21.550  27.315  1.00  0.00    -0.398 N 
ATOM     16  H   UNL A   1      34.140  20.824  27.594  1.00  0.00     0.156 HD
ATOM     17  H   UNL A   1      35.519  21.787  27.872  1.00  0.00     0.156 HD
ENDBRANCH  12  15
BRANCH  13  18
ATOM     18  N   UNL A   1      33.475  23.971  22.398  1.00  0.00    -0.378 N 
ATOM     19  H   UNL A   1      33.832  23.546  21.585  1.00  0.00     0.161 HD
BRANCH  18  20
ATOM     20  C   UNL A   1      32.606  25.128  22.206  1.00  0.00     0.188 C 
BRANCH  20  21
ATOM     21  C   UNL A   1      33.187  26.443  22.608  1.00  0.00     0.122 A 
ATOM     22  C   UNL A   1      33.189  27.162  23.787  1.00  0.00     0.047 A 
ATOM     23  O   UNL A   1      33.801  27.167  21.625  1.00  0.00    -0.467 OA
ATOM     24  C   UNL A   1      33.815  28.401  23.502  1.00  0.00     0.042 A 
ATOM     25  C   UNL A   1      34.170  28.353  22.175  1.00  0.00     0.195 A 
ENDBRANCH  20  21
ENDBRANCH  18  20
ENDBRANCH  13  18
ENDBRANCH   5   8
ENDBRANCH   3   4
ENDBRANCH   2   3
ENDBRANCH   1   2
BRANCH   1  26
ATOM     26  C   UNL A   1      40.990  21.811  27.972  1.00  0.00     0.002 C 
BRANCH  26  27
ATOM     27  C   UNL A   1      41.269  20.368  27.544  1.00  0.00     0.021 C 
BRANCH  27  28
ATOM     28  C   UNL A   1      41.161  20.135  26.041  1.00  0.00     0.116 C 
BRANCH  28  29
ATOM     29  N   UNL A   1      42.365  19.512  25.515  1.00  0.00    -0.352 N 
ATOM     30  C   UNL A   1      43.539  20.100  25.112  1.00  0.00     0.251 C 
ATOM     31  H   UNL A   1      42.335  18.531  25.438  1.00  0.00     0.163 HD
ATOM     32  O   UNL A   1      44.341  19.462  24.440  1.00  0.00    -0.269 OA
BRANCH  30  33
ATOM     33  C   UNL A   1      43.818  21.503  25.484  1.00  0.00     0.039 A 
ATOM     34  C   UNL A   1      43.483  22.523  24.592  1.00  0.00     0.014 A 
ATOM     35  C   UNL A   1      44.425  21.808  26.707  1.00  0.00     0.014 A 
ATOM     36  C   UNL A   1      43.709  23.854  24.949  1.00  0.00     0.010 A 
ATOM     37  C   UNL A   1      44.581  23.136  27.091  1.00  0.00     0.010 A 
ATOM     38  C   UNL A   1      44.231  24.174  26.214  1.00  0.00    -0.014 A 
BRANCH  38  39
ATOM     39  C   UNL A   1      44.428  25.586  26.632  1.00  0.00     0.031 A 
ATOM     40  C   UNL A   1      45.790  26.218  26.529  1.00  0.00     0.074 A 
ATOM     41  C   UNL A   1      43.394  26.276  27.154  1.00  0.00     0.049 A 
ATOM     42  N   UNL A   1      46.181  27.406  26.912  1.00  0.00    -0.248 NA
ATOM     43  C   UNL A   1      46.859  25.393  25.945  1.00  0.00     0.031 C 
ATOM     44  C   UNL A   1      42.036  25.755  27.334  1.00  0.00     0.029 A 
ATOM     45  N   UNL A   1      43.322  27.558  27.638  1.00  0.00    -0.354 N 
ATOM     46  C   UNL A   1      47.541  27.468  26.626  1.00  0.00     0.074 A 
ATOM     47  C   UNL A   1      47.917  26.176  26.095  1.00  0.00     0.031 C 
ATOM     48  C   UNL A   1      41.263  26.717  27.864  1.00  0.00     0.029 A 
ATOM     49  C   UNL A   1      42.077  27.904  28.111  1.00  0.00     0.049 A 
ATOM     50  H   UNL A   1      44.090  28.174  27.646  1.00  0.00     0.167 HD
ATOM     51  C   UNL A   1      48.391  28.514  26.774  1.00  0.00     0.034 A 
ATOM     52  C   UNL A   1      41.644  29.040  28.691  1.00  0.00     0.034 A 
ATOM     53  C   UNL A   1      47.995  29.800  27.293  1.00  0.00     0.049 A 
ATOM     54  C   UNL A   1      42.617  30.180  28.870  1.00  0.00     0.074 A 
ATOM     55  C   UNL A   1      48.760  30.945  27.435  1.00  0.00     0.029 A 
ATOM     56  N   UNL A   1      46.725  30.114  27.763  1.00  0.00    -0.354 N 
ATOM     57  N   UNL A   1      43.889  30.238  28.549  1.00  0.00    -0.248 NA
ATOM     58  C   UNL A   1      42.094  31.408  29.480  1.00  0.00     0.031 C 
ATOM     59  C   UNL A   1      47.977  31.923  28.057  1.00  0.00     0.029 A 
ATOM     60  C   UNL A   1      46.697  31.420  28.224  1.00  0.00     0.049 A 
ATOM     61  H   UNL A   1      45.958  29.496  27.766  1.00  0.00     0.167 HD
ATOM     62  C   UNL A   1      44.306  31.524  28.883  1.00  0.00     0.074 A 
ATOM     63  C   UNL A   1      43.148  32.210  29.416  1.00  0.00     0.031 C 
ATOM     64  C   UNL A   1      45.534  32.090  28.758  1.00  0.00     0.034 A 
BRANCH  51  65
ATOM     65  C   UNL A   1      49.837  28.301  26.393  1.00  0.00     0.023 A 
ATOM     66  C   UNL A   1      50.303  28.543  25.089  1.00  0.00     0.031 A 
ATOM     67  C   UNL A   1      50.764  27.844  27.347  1.00  0.00     0.131 A 
ATOM     68  C   UNL A   1      51.638  28.264  24.758  1.00  0.00     0.055 A 
ATOM     69  C   UNL A   1      52.111  27.647  27.031  1.00  0.00     0.041 A 
ATOM     70  F   UNL A   1      50.375  27.574  28.603  1.00  0.00    -0.206 F 
ATOM     71  C   UNL A   1      52.551  27.845  25.727  1.00  0.00     0.022 A 
BRANCH  68  72
ATOM     72  S   UNL A   1      52.131  28.334  23.014  1.00  0.00     0.124 S 
ATOM     73  O   UNL A   1      52.595  26.967  22.785  1.00  0.00    -0.237 OA
ATOM     74  O   UNL A   1      50.889  28.707  22.348  1.00  0.00    -0.237 OA
ATOM     75  O   UNL A   1      53.180  29.352  22.995  1.00  0.00    -0.744 OA
ENDBRANCH  68  72
ENDBRANCH  51  65
BRANCH  52  76
ATOM     76  C   UNL A   1      40.233  29.165  29.160  1.00  0.00     0.023 A 
ATOM     77  C   UNL A   1      39.909  29.038  30.521  1.00  0.00     0.031 A 
ATOM     78  C   UNL A   1      39.177  29.352  28.250  1.00  0.00     0.131 A 
ATOM     79  C   UNL A   1      38.565  29.038  30.926  1.00  0.00     0.055 A 
ATOM     80  C   UNL A   1      37.846  29.415  28.664  1.00  0.00     0.041 A 
ATOM     81  F   UNL A   1      39.427  29.483  26.937  1.00  0.00    -0.206 F 
ATOM     82  C   UNL A   1      37.532  29.240  30.008  1.00  0.00     0.022 A 
BRANCH  79  83
ATOM     83  S   UNL A   1      38.180  28.658  32.657  1.00  0.00     0.124 S 
ATOM     84  O   UNL A   1      36.897  29.329  32.829  1.00  0.00    -0.237 OA
ATOM     85  O   UNL A   1      38.147  27.199  32.645  1.00  0.00    -0.237 OA
ATOM     86  O   UNL A   1      39.298  29.249  33.390  1.00  0.00    -0.744 OA
ENDBRANCH  79  83
ENDBRANCH  52  76
BRANCH  64  87
ATOM     87  C   UNL A   1      45.667  33.540  29.156  1.00  0.00     0.023 A 
ATOM     88  C   UNL A   1      45.463  34.584  28.238  1.00  0.00     0.031 A 
ATOM     89  C   UNL A   1      46.011  33.878  30.478  1.00  0.00     0.131 A 
ATOM     90  C   UNL A   1      45.663  35.914  28.638  1.00  0.00     0.055 A 
ATOM     91  C   UNL A   1      46.144  35.206  30.886  1.00  0.00     0.041 A 
ATOM     92  F   UNL A   1      46.220  32.922  31.396  1.00  0.00    -0.206 F 
ATOM     93  C   UNL A   1      45.982  36.232  29.960  1.00  0.00     0.022 A 
BRANCH  90  94
ATOM     94  S   UNL A   1      45.594  37.220  27.381  1.00  0.00     0.124 S 
ATOM     95  O   UNL A   1      46.190  38.351  28.086  1.00  0.00    -0.237 OA
ATOM     96  O   UNL A   1      46.391  36.654  26.298  1.00  0.00    -0.237 OA
ATOM     97  O   UNL A   1      44.166  37.348  27.098  1.00  0.00    -0.744 OA
ENDBRANCH  90  94
ENDBRANCH  64  87
ENDBRANCH  38  39
ENDBRANCH  30  33
ENDBRANCH  28  29
ENDBRANCH  27  28
ENDBRANCH  26  27
ENDBRANCH   1  26
TORSDOF 20
ENDMDL
MODEL 3
REMARK VINA RESULT:     -11.1      1.901      2.203
REMARK SMILES Cc1cc(NCc2ccco2)cc(C(=O)NCCCCCCNC(=O)c2ccc(-c3c4nc(c(-c5cc(S(=O)(=O)[O-])ccc5F)c5ccc([nH]5)c(-c5cc(S(=O)(=O)[O-])ccc5F)c5nc(c(-c6cc(S(=O)(=O)[O-])ccc6F)c6ccc3[nH]6)C=C5)C=C4)cc2)c1N
REMARK SMILES IDX 19 1 18 2 17 3 16 4 14 5 15 6 13 8 1 9 2 10 3 11 89 12 4 13
REMARK SMILES IDX 12 14 90 15 5 18 6 20 7 21 8 22 11 23 9 24 10 25 20 26 21 27
REMARK SMILES IDX 22 28 23 29 24 30 25 32 26 33 27 34 88 35 28 36 87 37 29 38
REMARK SMILES IDX 30 39 31 40 81 41 32 42 86 43 80 44 82 45 33 46 85 47 79 48
REMARK SMILES IDX 78 49 34 51 66 52 46 53 65 54 47 55 50 56 64 57 83 58 48 59
REMARK SMILES IDX 49 60 63 62 84 63 51 64 35 65 36 66 44 67 37 68 43 69 45 70
REMARK SMILES IDX 42 71 38 72 39 73 40 74 41 75 67 76 68 77 76 78 69 79 75 80
REMARK SMILES IDX 77 81 74 82 70 83 71 84 72 85 73 86 52 87 53 88 61 89 54 90
REMARK SMILES IDX 60 91 62 92 59 93 55 94 56 95 57 96 58 97
REMARK H PARENT 16 7 90 16 90 17 5 19 23 31 82 50 50 61
REMARK Flexibility Score: inf
ROOT
ATOM      1  C   UNL A   1      30.641  26.116  25.553  1.00  0.00     0.002 C 
ENDROOT
BRANCH   1   2
ATOM      2  C   UNL A   1      30.357  26.079  24.044  1.00  0.00     0.021 C 
BRANCH   2   3
ATOM      3  C   UNL A   1      30.337  24.655  23.481  1.00  0.00     0.116 C 
BRANCH   3   4
ATOM      4  N   UNL A   1      31.409  24.505  22.516  1.00  0.00    -0.352 N 
ATOM      5  C   UNL A   1      32.437  23.605  22.374  1.00  0.00     0.253 C 
ATOM      6  O   UNL A   1      33.245  23.854  21.474  1.00  0.00    -0.269 OA
ATOM      7  H   UNL A   1      31.398  25.194  21.814  1.00  0.00     0.163 HD
BRANCH   5   8
ATOM      8  C   UNL A   1      32.583  22.351  23.191  1.00  0.00     0.065 A 
ATOM      9  C   UNL A   1      32.072  18.577  22.807  1.00  0.00     0.046 C 
ATOM     10  C   UNL A   1      32.347  19.938  23.388  1.00  0.00    -0.025 A 
ATOM     11  C   UNL A   1      32.686  20.040  24.750  1.00  0.00     0.031 A 
ATOM     12  C   UNL A   1      32.276  21.102  22.597  1.00  0.00     0.047 A 
ATOM     13  C   UNL A   1      33.010  21.262  25.347  1.00  0.00     0.036 A 
ATOM     14  C   UNL A   1      33.054  22.378  24.513  1.00  0.00     0.041 A 
BRANCH  12  15
ATOM     15  N   UNL A   1      31.774  21.015  21.292  1.00  0.00    -0.398 N 
ATOM     16  H   UNL A   1      31.015  20.419  21.095  1.00  0.00     0.156 HD
ATOM     17  H   UNL A   1      32.179  21.550  20.572  1.00  0.00     0.156 HD
ENDBRANCH  12  15
BRANCH  13  18
ATOM     18  N   UNL A   1      33.339  21.287  26.688  1.00  0.00    -0.378 N 
ATOM     19  H   UNL A   1      32.828  20.688  27.280  1.00  0.00     0.161 HD
BRANCH  18  20
ATOM     20  C   UNL A   1      34.364  22.113  27.318  1.00  0.00     0.188 C 
BRANCH  20  21
ATOM     21  C   UNL A   1      35.589  22.354  26.498  1.00  0.00     0.122 A 
ATOM     22  C   UNL A   1      36.295  23.490  26.153  1.00  0.00     0.047 A 
ATOM     23  O   UNL A   1      36.132  21.266  25.874  1.00  0.00    -0.467 OA
ATOM     24  C   UNL A   1      37.307  23.076  25.252  1.00  0.00     0.042 A 
ATOM     25  C   UNL A   1      37.166  21.715  25.116  1.00  0.00     0.195 A 
ENDBRANCH  20  21
ENDBRANCH  18  20
ENDBRANCH  13  18
ENDBRANCH   5   8
ENDBRANCH   3   4
ENDBRANCH   2   3
ENDBRANCH   1   2
BRANCH   1  26
ATOM     26  C   UNL A   1      31.649  27.191  25.980  1.00  0.00     0.002 C 
BRANCH  26  27
ATOM     27  C   UNL A   1      31.960  28.237  24.906  1.00  0.00     0.021 C 
BRANCH  27  28
ATOM     28  C   UNL A   1      33.090  29.191  25.280  1.00  0.00     0.116 C 
BRANCH  28  29
ATOM     29  N   UNL A   1      32.570  30.467  25.745  1.00  0.00    -0.352 N 
ATOM     30  C   UNL A   1      32.953  31.215  26.831  1.00  0.00     0.251 C 
ATOM     31  H   UNL A   1      31.841  30.849  25.204  1.00  0.00     0.163 HD
ATOM     32  O   UNL A   1      32.230  32.118  27.235  1.00  0.00    -0.269 OA
BRANCH  30  33
ATOM     33  C   UNL A   1      34.231  30.915  27.510  1.00  0.00     0.039 A 
ATOM     34  C   UNL A   1      35.178  31.929  27.655  1.00  0.00     0.014 A 
ATOM     35  C   UNL A   1      34.498  29.627  27.989  1.00  0.00     0.014 A 
ATOM     36  C   UNL A   1      36.374  31.666  28.328  1.00  0.00     0.010 A 
ATOM     37  C   UNL A   1      35.656  29.387  28.722  1.00  0.00     0.010 A 
ATOM     38  C   UNL A   1      36.610  30.402  28.895  1.00  0.00    -0.014 A 
BRANCH  38  39
ATOM     39  C   UNL A   1      37.852  30.119  29.660  1.00  0.00     0.031 A 
ATOM     40  C   UNL A   1      38.883  29.177  29.099  1.00  0.00     0.074 A 
ATOM     41  C   UNL A   1      38.021  30.668  30.880  1.00  0.00     0.049 A 
ATOM     42  N   UNL A   1      39.990  28.744  29.644  1.00  0.00    -0.248 NA
ATOM     43  C   UNL A   1      38.618  28.627  27.760  1.00  0.00     0.031 C 
ATOM     44  C   UNL A   1      37.073  31.569  31.539  1.00  0.00     0.029 A 
ATOM     45  N   UNL A   1      39.043  30.543  31.787  1.00  0.00    -0.354 N 
ATOM     46  C   UNL A   1      40.547  27.864  28.723  1.00  0.00     0.074 A 
ATOM     47  C   UNL A   1      39.625  27.780  27.612  1.00  0.00     0.031 C 
ATOM     48  C   UNL A   1      37.571  31.934  32.732  1.00  0.00     0.029 A 
ATOM     49  C   UNL A   1      38.844  31.255  32.948  1.00  0.00     0.049 A 
ATOM     50  H   UNL A   1      39.844  29.995  31.623  1.00  0.00     0.167 HD
ATOM     51  C   UNL A   1      41.731  27.205  28.789  1.00  0.00     0.034 A 
ATOM     52  C   UNL A   1      39.595  31.340  34.064  1.00  0.00     0.034 A 
ATOM     53  C   UNL A   1      42.645  27.312  29.900  1.00  0.00     0.049 A 
ATOM     54  C   UNL A   1      40.894  30.573  34.124  1.00  0.00     0.074 A 
ATOM     55  C   UNL A   1      43.893  26.732  30.047  1.00  0.00     0.029 A 
ATOM     56  N   UNL A   1      42.411  28.042  31.058  1.00  0.00    -0.354 N 
ATOM     57  N   UNL A   1      41.429  29.783  33.222  1.00  0.00    -0.248 NA
ATOM     58  C   UNL A   1      41.692  30.718  35.348  1.00  0.00     0.031 C 
ATOM     59  C   UNL A   1      44.379  27.049  31.320  1.00  0.00     0.029 A 
ATOM     60  C   UNL A   1      43.474  27.899  31.935  1.00  0.00     0.049 A 
ATOM     61  H   UNL A   1      41.605  28.583  31.230  1.00  0.00     0.167 HD
ATOM     62  C   UNL A   1      42.647  29.370  33.757  1.00  0.00     0.074 A 
ATOM     63  C   UNL A   1      42.771  30.008  35.050  1.00  0.00     0.031 C 
ATOM     64  C   UNL A   1      43.581  28.539  33.225  1.00  0.00     0.034 A 
BRANCH  51  65
ATOM     65  C   UNL A   1      42.090  26.292  27.641  1.00  0.00     0.023 A 
ATOM     66  C   UNL A   1      41.696  24.943  27.616  1.00  0.00     0.031 A 
ATOM     67  C   UNL A   1      42.842  26.776  26.555  1.00  0.00     0.131 A 
ATOM     68  C   UNL A   1      42.110  24.110  26.566  1.00  0.00     0.055 A 
ATOM     69  C   UNL A   1      43.181  25.962  25.472  1.00  0.00     0.041 A 
ATOM     70  F   UNL A   1      43.266  28.049  26.532  1.00  0.00    -0.206 F 
ATOM     71  C   UNL A   1      42.826  24.617  25.480  1.00  0.00     0.022 A 
BRANCH  68  72
ATOM     72  S   UNL A   1      41.810  22.327  26.703  1.00  0.00     0.124 S 
ATOM     73  O   UNL A   1      42.621  21.981  27.869  1.00  0.00    -0.237 OA
ATOM     74  O   UNL A   1      40.366  22.261  26.888  1.00  0.00    -0.237 OA
ATOM     75  O   UNL A   1      42.302  21.797  25.432  1.00  0.00    -0.744 OA
ENDBRANCH  68  72
ENDBRANCH  51  65
BRANCH  52  76
ATOM     76  C   UNL A   1      39.143  32.163  35.224  1.00  0.00     0.023 A 
ATOM     77  C   UNL A   1      39.604  33.478  35.401  1.00  0.00     0.031 A 
ATOM     78  C   UNL A   1      38.292  31.628  36.207  1.00  0.00     0.131 A 
ATOM     79  C   UNL A   1      39.263  34.191  36.561  1.00  0.00     0.055 A 
ATOM     80  C   UNL A   1      37.904  32.364  37.328  1.00  0.00     0.041 A 
ATOM     81  F   UNL A   1      37.817  30.377  36.088  1.00  0.00    -0.206 F 
ATOM     82  C   UNL A   1      38.404  33.648  37.518  1.00  0.00     0.022 A 
BRANCH  79  83
ATOM     83  S   UNL A   1      40.049  35.799  36.854  1.00  0.00     0.124 S 
ATOM     84  O   UNL A   1      39.445  36.197  38.120  1.00  0.00    -0.237 OA
ATOM     85  O   UNL A   1      41.462  35.440  36.900  1.00  0.00    -0.237 OA
ATOM     86  O   UNL A   1      39.645  36.589  35.693  1.00  0.00    -0.744 OA
ENDBRANCH  79  83
ENDBRANCH  52  76
BRANCH  64  87
ATOM     87  C   UNL A   1      44.843  28.323  34.026  1.00  0.00     0.023 A 
ATOM     88  C   UNL A   1      45.984  29.124  33.845  1.00  0.00     0.031 A 
ATOM     89  C   UNL A   1      44.903  27.291  34.980  1.00  0.00     0.131 A 
ATOM     90  C   UNL A   1      47.155  28.842  34.565  1.00  0.00     0.055 A 
ATOM     91  C   UNL A   1      46.050  27.058  35.739  1.00  0.00     0.041 A 
ATOM     92  F   UNL A   1      43.844  26.493  35.192  1.00  0.00    -0.206 F 
ATOM     93  C   UNL A   1      47.189  27.827  35.525  1.00  0.00     0.022 A 
BRANCH  90  94
ATOM     94  S   UNL A   1      48.666  29.759  34.160  1.00  0.00     0.124 S 
ATOM     95  O   UNL A   1      49.572  28.688  33.756  1.00  0.00    -0.237 OA
ATOM     96  O   UNL A   1      48.217  30.649  33.094  1.00  0.00    -0.237 OA
ATOM     97  O   UNL A   1      49.012  30.424  35.415  1.00  0.00    -0.744 OA
ENDBRANCH  90  94
ENDBRANCH  64  87
ENDBRANCH  38  39
ENDBRANCH  30  33
ENDBRANCH  28  29
ENDBRANCH  27  28
ENDBRANCH  26  27
ENDBRANCH   1  26
TORSDOF 20
ENDMDL
