MODEL 1
REMARK VINA RESULT:     -11.1      0.000      0.000
REMARK SMILES CC(C)N(c1cc2c(cc1Cl)C=C(C(=O)NCCCCCCNC(=O)c1ccc(-c3c4nc(c(-c5cc(S(=O)(=O)[O-])ccc5F)c5ccc([nH]5)c(-c5cc(S(=O)(=O)[O-])ccc5F)c5nc(c(-c6cc(S(=O)(=O)[O-])ccc6F)c6ccc3[nH]6)C=C5)C=C4)cc1)[C@@H](C(F)(F)F)O2)C(C)C
REMARK SMILES IDX 20 1 19 2 18 3 17 4 16 5 14 6 15 7 13 9 5 10 6 11 10 12 7 13
REMARK SMILES IDX 9 14 11 15 8 16 94 17 12 18 89 19 4 20 2 21 1 22 3 23 95 24
REMARK SMILES IDX 96 25 97 26 90 27 91 28 92 29 93 30 21 31 22 32 23 33 24 34
REMARK SMILES IDX 25 36 26 37 27 38 88 39 28 40 87 41 29 42 30 43 31 44 81 45
REMARK SMILES IDX 32 46 86 47 80 48 82 49 33 50 85 51 79 52 78 53 34 55 66 56
REMARK SMILES IDX 46 57 65 58 47 59 50 60 64 61 83 62 48 63 49 64 63 66 84 67
REMARK SMILES IDX 51 68 35 69 36 70 44 71 37 72 43 73 45 74 42 75 38 76 39 77
REMARK SMILES IDX 40 78 41 79 67 80 68 81 76 82 69 83 75 84 77 85 74 86 70 87
REMARK SMILES IDX 71 88 72 89 73 90 52 91 53 92 61 93 54 94 60 95 62 96 59 97
REMARK SMILES IDX 55 98 56 99 57 100 58 101
REMARK H PARENT 16 8 23 35 82 54 50 65
REMARK Flexibility Score: inf
ROOT
ATOM      1  C   UNL A   1      38.280  23.038  25.856  1.00  0.00     0.002 C 
ENDROOT
BRANCH   1   2
ATOM      2  C   UNL A   1      37.213  22.881  24.763  1.00  0.00     0.002 C 
BRANCH   2   3
ATOM      3  C   UNL A   1      37.017  21.461  24.222  1.00  0.00     0.021 C 
BRANCH   3   4
ATOM      4  C   UNL A   1      36.663  20.423  25.284  1.00  0.00     0.116 C 
BRANCH   4   5
ATOM      5  N   UNL A   1      35.436  19.715  24.963  1.00  0.00    -0.352 N 
ATOM      6  C   UNL A   1      34.134  20.022  24.760  1.00  0.00     0.251 C 
ATOM      7  O   UNL A   1      33.413  19.062  24.463  1.00  0.00    -0.270 OA
ATOM      8  H   UNL A   1      35.596  18.748  24.867  1.00  0.00     0.163 HD
BRANCH   6   9
ATOM      9  C   UNL A   1      33.532  21.386  24.865  1.00  0.00     0.067 C 
ATOM     10  C   UNL A   1      32.084  26.166  23.932  1.00  0.00     0.060 A 
ATOM     11  C   UNL A   1      31.737  25.176  24.868  1.00  0.00     0.074 A 
ATOM     12  C   UNL A   1      33.023  25.796  22.939  1.00  0.00     0.065 A 
ATOM     13  C   UNL A   1      32.307  23.903  24.838  1.00  0.00     0.130 A 
ATOM     14  C   UNL A   1      33.555  24.496  22.881  1.00  0.00     0.034 A 
ATOM     15  Cl  UNL A   1      33.658  26.918  21.781  1.00  0.00    -0.082 Cl
ATOM     16  C   UNL A   1      33.200  23.546  23.836  1.00  0.00     0.019 A 
ATOM     17  O   UNL A   1      31.915  23.036  25.815  1.00  0.00    -0.475 OA
ATOM     18  C   UNL A   1      33.723  22.186  23.798  1.00  0.00     0.025 C 
ATOM     19  C   UNL A   1      32.799  21.909  26.070  1.00  0.00     0.314 C 
BRANCH  10  20
ATOM     20  N   UNL A   1      31.503  27.446  24.041  1.00  0.00    -0.365 N 
BRANCH  20  21
ATOM     21  C   UNL A   1      32.136  28.389  24.989  1.00  0.00     0.076 C 
ATOM     22  C   UNL A   1      31.454  28.417  26.355  1.00  0.00     0.030 C 
ATOM     23  C   UNL A   1      33.639  28.172  25.134  1.00  0.00     0.030 C 
ENDBRANCH  20  21
BRANCH  20  24
ATOM     24  C   UNL A   1      30.446  27.774  23.054  1.00  0.00     0.076 C 
ATOM     25  C   UNL A   1      29.047  27.421  23.557  1.00  0.00     0.030 C 
ATOM     26  C   UNL A   1      30.504  29.208  22.537  1.00  0.00     0.030 C 
ENDBRANCH  20  24
ENDBRANCH  10  20
BRANCH  19  27
ATOM     27  C   UNL A   1      33.753  22.253  27.230  1.00  0.00     0.429 C 
ATOM     28  F   UNL A   1      34.446  21.158  27.625  1.00  0.00    -0.167 F 
ATOM     29  F   UNL A   1      34.672  23.185  26.881  1.00  0.00    -0.167 F 
ATOM     30  F   UNL A   1      33.098  22.734  28.312  1.00  0.00    -0.167 F 
ENDBRANCH  19  27
ENDBRANCH   6   9
ENDBRANCH   4   5
ENDBRANCH   3   4
ENDBRANCH   2   3
ENDBRANCH   1   2
BRANCH   1  31
ATOM     31  C   UNL A   1      38.149  24.277  26.746  1.00  0.00     0.021 C 
BRANCH  31  32
ATOM     32  C   UNL A   1      39.464  24.951  27.119  1.00  0.00     0.116 C 
BRANCH  32  33
ATOM     33  N   UNL A   1      40.455  24.882  26.060  1.00  0.00    -0.352 N 
ATOM     34  C   UNL A   1      41.459  25.774  25.761  1.00  0.00     0.251 C 
ATOM     35  H   UNL A   1      40.402  24.090  25.477  1.00  0.00     0.163 HD
ATOM     36  O   UNL A   1      42.130  25.624  24.743  1.00  0.00    -0.269 OA
BRANCH  34  37
ATOM     37  C   UNL A   1      41.696  26.934  26.651  1.00  0.00     0.039 A 
ATOM     38  C   UNL A   1      41.022  28.139  26.445  1.00  0.00     0.014 A 
ATOM     39  C   UNL A   1      42.631  26.821  27.685  1.00  0.00     0.014 A 
ATOM     40  C   UNL A   1      41.400  29.270  27.161  1.00  0.00     0.010 A 
ATOM     41  C   UNL A   1      42.950  27.942  28.458  1.00  0.00     0.010 A 
ATOM     42  C   UNL A   1      42.374  29.189  28.171  1.00  0.00    -0.014 A 
BRANCH  42  43
ATOM     43  C   UNL A   1      42.761  30.420  28.910  1.00  0.00     0.031 A 
ATOM     44  C   UNL A   1      43.815  31.349  28.370  1.00  0.00     0.074 A 
ATOM     45  C   UNL A   1      42.104  30.733  30.045  1.00  0.00     0.049 A 
ATOM     46  N   UNL A   1      44.212  32.503  28.843  1.00  0.00    -0.248 NA
ATOM     47  C   UNL A   1      44.515  30.935  27.144  1.00  0.00     0.031 C 
ATOM     48  C   UNL A   1      41.071  29.902  30.662  1.00  0.00     0.029 A 
ATOM     49  N   UNL A   1      42.180  31.833  30.862  1.00  0.00    -0.354 N 
ATOM     50  C   UNL A   1      45.214  32.945  27.986  1.00  0.00     0.074 A 
ATOM     51  C   UNL A   1      45.389  31.919  26.982  1.00  0.00     0.031 C 
ATOM     52  C   UNL A   1      40.564  30.547  31.721  1.00  0.00     0.029 A 
ATOM     53  C   UNL A   1      41.277  31.810  31.900  1.00  0.00     0.049 A 
ATOM     54  H   UNL A   1      42.819  32.568  30.719  1.00  0.00     0.167 HD
ATOM     55  C   UNL A   1      45.909  34.107  28.024  1.00  0.00     0.034 A 
ATOM     56  C   UNL A   1      41.045  32.700  32.888  1.00  0.00     0.034 A 
ATOM     57  C   UNL A   1      45.708  35.130  29.020  1.00  0.00     0.049 A 
ATOM     58  C   UNL A   1      41.840  33.979  32.914  1.00  0.00     0.074 A 
ATOM     59  C   UNL A   1      46.347  36.353  29.126  1.00  0.00     0.029 A 
ATOM     60  N   UNL A   1      44.807  35.058  30.072  1.00  0.00    -0.354 N 
ATOM     61  N   UNL A   1      42.744  34.403  32.063  1.00  0.00    -0.248 NA
ATOM     62  C   UNL A   1      41.585  34.904  34.027  1.00  0.00     0.031 C 
ATOM     63  C   UNL A   1      45.872  36.996  30.271  1.00  0.00     0.029 A 
ATOM     64  C   UNL A   1      44.889  36.205  30.843  1.00  0.00     0.049 A 
ATOM     65  H   UNL A   1      44.199  34.303  30.245  1.00  0.00     0.167 HD
ATOM     66  C   UNL A   1      43.156  35.648  32.528  1.00  0.00     0.074 A 
ATOM     67  C   UNL A   1      42.378  35.924  33.719  1.00  0.00     0.031 C 
ATOM     68  C   UNL A   1      44.098  36.481  32.020  1.00  0.00     0.034 A 
BRANCH  55  69
ATOM     69  C   UNL A   1      46.944  34.369  26.958  1.00  0.00     0.023 A 
ATOM     70  C   UNL A   1      48.128  33.609  26.924  1.00  0.00     0.031 A 
ATOM     71  C   UNL A   1      46.821  35.451  26.070  1.00  0.00     0.131 A 
ATOM     72  C   UNL A   1      49.158  33.963  26.041  1.00  0.00     0.055 A 
ATOM     73  C   UNL A   1      47.835  35.778  25.167  1.00  0.00     0.041 A 
ATOM     74  F   UNL A   1      45.711  36.206  26.065  1.00  0.00    -0.206 F 
ATOM     75  C   UNL A   1      49.014  35.040  25.160  1.00  0.00     0.022 A 
BRANCH  72  76
ATOM     76  S   UNL A   1      50.743  33.083  26.045  1.00  0.00     0.124 S 
ATOM     77  O   UNL A   1      51.421  33.695  27.186  1.00  0.00    -0.237 OA
ATOM     78  O   UNL A   1      50.322  31.698  26.239  1.00  0.00    -0.237 OA
ATOM     79  O   UNL A   1      51.320  33.391  24.742  1.00  0.00    -0.744 OA
ENDBRANCH  72  76
ENDBRANCH  55  69
BRANCH  56  80
ATOM     80  C   UNL A   1      39.971  32.415  33.884  1.00  0.00     0.023 A 
ATOM     81  C   UNL A   1      38.674  32.933  33.717  1.00  0.00     0.031 A 
ATOM     82  C   UNL A   1      40.258  31.724  35.073  1.00  0.00     0.131 A 
ATOM     83  C   UNL A   1      37.738  32.821  34.754  1.00  0.00     0.055 A 
ATOM     84  C   UNL A   1      39.298  31.548  36.073  1.00  0.00     0.041 A 
ATOM     85  F   UNL A   1      41.484  31.222  35.285  1.00  0.00    -0.206 F 
ATOM     86  C   UNL A   1      38.037  32.116  35.924  1.00  0.00     0.022 A 
BRANCH  83  87
ATOM     87  S   UNL A   1      36.162  33.718  34.683  1.00  0.00     0.124 S 
ATOM     88  O   UNL A   1      36.548  34.957  34.016  1.00  0.00    -0.237 OA
ATOM     89  O   UNL A   1      35.335  32.808  33.895  1.00  0.00    -0.237 OA
ATOM     90  O   UNL A   1      35.777  33.847  36.084  1.00  0.00    -0.744 OA
ENDBRANCH  83  87
ENDBRANCH  56  80
BRANCH  68  91
ATOM     91  C   UNL A   1      44.368  37.786  32.729  1.00  0.00     0.023 A 
ATOM     92  C   UNL A   1      43.652  38.944  32.367  1.00  0.00     0.031 A 
ATOM     93  C   UNL A   1      45.432  37.917  33.636  1.00  0.00     0.131 A 
ATOM     94  C   UNL A   1      44.039  40.189  32.879  1.00  0.00     0.055 A 
ATOM     95  C   UNL A   1      45.785  39.153  34.179  1.00  0.00     0.041 A 
ATOM     96  F   UNL A   1      46.151  36.843  34.003  1.00  0.00    -0.206 F 
ATOM     97  C   UNL A   1      45.097  40.299  33.788  1.00  0.00     0.022 A 
BRANCH  94  98
ATOM     98  S   UNL A   1      43.244  41.720  32.317  1.00  0.00     0.124 S 
ATOM     99  O   UNL A   1      43.492  42.620  33.442  1.00  0.00    -0.237 OA
ATOM    100  O   UNL A   1      43.990  42.024  31.099  1.00  0.00    -0.237 OA
ATOM    101  O   UNL A   1      41.849  41.342  32.120  1.00  0.00    -0.744 OA
ENDBRANCH  94  98
ENDBRANCH  68  91
ENDBRANCH  42  43
ENDBRANCH  34  37
ENDBRANCH  32  33
ENDBRANCH  31  32
ENDBRANCH   1  31
TORSDOF 20
ENDMDL
MODEL 2
REMARK VINA RESULT:     -10.8      4.286      9.165
REMARK SMILES CC(C)N(c1cc2c(cc1Cl)C=C(C(=O)NCCCCCCNC(=O)c1ccc(-c3c4nc(c(-c5cc(S(=O)(=O)[O-])ccc5F)c5ccc([nH]5)c(-c5cc(S(=O)(=O)[O-])ccc5F)c5nc(c(-c6cc(S(=O)(=O)[O-])ccc6F)c6ccc3[nH]6)C=C5)C=C4)cc1)[C@@H](C(F)(F)F)O2)C(C)C
REMARK SMILES IDX 20 1 19 2 18 3 17 4 16 5 14 6 15 7 13 9 5 10 6 11 10 12 7 13
REMARK SMILES IDX 9 14 11 15 8 16 94 17 12 18 89 19 4 20 2 21 1 22 3 23 95 24
REMARK SMILES IDX 96 25 97 26 90 27 91 28 92 29 93 30 21 31 22 32 23 33 24 34
REMARK SMILES IDX 25 36 26 37 27 38 88 39 28 40 87 41 29 42 30 43 31 44 81 45
REMARK SMILES IDX 32 46 86 47 80 48 82 49 33 50 85 51 79 52 78 53 34 55 66 56
REMARK SMILES IDX 46 57 65 58 47 59 50 60 64 61 83 62 48 63 49 64 63 66 84 67
REMARK SMILES IDX 51 68 35 69 36 70 44 71 37 72 43 73 45 74 42 75 38 76 39 77
REMARK SMILES IDX 40 78 41 79 67 80 68 81 76 82 69 83 75 84 77 85 74 86 70 87
REMARK SMILES IDX 71 88 72 89 73 90 52 91 53 92 61 93 54 94 60 95 62 96 59 97
REMARK SMILES IDX 55 98 56 99 57 100 58 101
REMARK H PARENT 16 8 23 35 82 54 50 65
REMARK Flexibility Score: inf
ROOT
ATOM      1  C   UNL A   1      41.726  21.409  26.928  1.00  0.00     0.002 C 
ENDROOT
BRANCH   1   2
ATOM      2  C   UNL A   1      40.405  21.859  27.568  1.00  0.00     0.002 C 
BRANCH   2   3
ATOM      3  C   UNL A   1      39.999  23.313  27.308  1.00  0.00     0.021 C 
BRANCH   3   4
ATOM      4  C   UNL A   1      38.781  23.476  26.402  1.00  0.00     0.116 C 
BRANCH   4   5
ATOM      5  N   UNL A   1      38.441  22.239  25.722  1.00  0.00    -0.352 N 
ATOM      6  C   UNL A   1      37.408  21.753  24.996  1.00  0.00     0.251 C 
ATOM      7  O   UNL A   1      37.568  20.605  24.565  1.00  0.00    -0.270 OA
ATOM      8  H   UNL A   1      39.159  21.570  25.815  1.00  0.00     0.163 HD
BRANCH   6   9
ATOM      9  C   UNL A   1      36.138  22.479  24.692  1.00  0.00     0.067 C 
ATOM     10  C   UNL A   1      32.434  25.951  24.467  1.00  0.00     0.060 A 
ATOM     11  C   UNL A   1      32.747  24.769  23.771  1.00  0.00     0.074 A 
ATOM     12  C   UNL A   1      33.362  26.370  25.450  1.00  0.00     0.065 A 
ATOM     13  C   UNL A   1      33.898  24.032  24.054  1.00  0.00     0.130 A 
ATOM     14  C   UNL A   1      34.547  25.653  25.694  1.00  0.00     0.034 A 
ATOM     15  Cl  UNL A   1      33.083  27.731  26.487  1.00  0.00    -0.082 Cl
ATOM     16  C   UNL A   1      34.815  24.477  24.997  1.00  0.00     0.019 A 
ATOM     17  O   UNL A   1      34.080  22.888  23.335  1.00  0.00    -0.475 OA
ATOM     18  C   UNL A   1      36.038  23.716  25.217  1.00  0.00     0.025 C 
ATOM     19  C   UNL A   1      34.990  21.906  23.905  1.00  0.00     0.314 C 
BRANCH  10  20
ATOM     20  N   UNL A   1      31.234  26.627  24.163  1.00  0.00    -0.365 N 
BRANCH  20  21
ATOM     21  C   UNL A   1      31.351  27.877  23.381  1.00  0.00     0.076 C 
ATOM     22  C   UNL A   1      31.060  29.131  24.202  1.00  0.00     0.030 C 
ATOM     23  C   UNL A   1      32.685  28.002  22.650  1.00  0.00     0.030 C 
ENDBRANCH  20  21
BRANCH  20  24
ATOM     24  C   UNL A   1      29.977  25.912  24.490  1.00  0.00     0.076 C 
ATOM     25  C   UNL A   1      29.818  25.664  25.988  1.00  0.00     0.030 C 
ATOM     26  C   UNL A   1      28.727  26.557  23.899  1.00  0.00     0.030 C 
ENDBRANCH  20  24
ENDBRANCH  10  20
BRANCH  19  27
ATOM     27  C   UNL A   1      34.189  20.868  24.714  1.00  0.00     0.429 C 
ATOM     28  F   UNL A   1      32.879  20.898  24.373  1.00  0.00    -0.167 F 
ATOM     29  F   UNL A   1      34.615  19.601  24.490  1.00  0.00    -0.167 F 
ATOM     30  F   UNL A   1      34.269  21.078  26.048  1.00  0.00    -0.167 F 
ENDBRANCH  19  27
ENDBRANCH   6   9
ENDBRANCH   4   5
ENDBRANCH   3   4
ENDBRANCH   2   3
ENDBRANCH   1   2
BRANCH   1  31
ATOM     31  C   UNL A   1      41.676  20.099  26.138  1.00  0.00     0.021 C 
BRANCH  31  32
ATOM     32  C   UNL A   1      42.846  19.153  26.372  1.00  0.00     0.116 C 
BRANCH  32  33
ATOM     33  N   UNL A   1      43.668  18.966  25.189  1.00  0.00    -0.352 N 
ATOM     34  C   UNL A   1      44.379  19.904  24.477  1.00  0.00     0.251 C 
ATOM     35  H   UNL A   1      43.725  18.042  24.851  1.00  0.00     0.163 HD
ATOM     36  O   UNL A   1      44.917  19.592  23.417  1.00  0.00    -0.269 OA
BRANCH  34  37
ATOM     37  C   UNL A   1      44.455  21.297  24.974  1.00  0.00     0.039 A 
ATOM     38  C   UNL A   1      43.851  22.340  24.267  1.00  0.00     0.014 A 
ATOM     39  C   UNL A   1      45.168  21.566  26.146  1.00  0.00     0.014 A 
ATOM     40  C   UNL A   1      44.097  23.657  24.639  1.00  0.00     0.010 A 
ATOM     41  C   UNL A   1      45.346  22.889  26.564  1.00  0.00     0.010 A 
ATOM     42  C   UNL A   1      44.854  23.949  25.787  1.00  0.00    -0.014 A 
BRANCH  42  43
ATOM     43  C   UNL A   1      45.107  25.370  26.149  1.00  0.00     0.031 A 
ATOM     44  C   UNL A   1      44.009  26.231  26.716  1.00  0.00     0.074 A 
ATOM     45  C   UNL A   1      46.355  25.863  26.027  1.00  0.00     0.049 A 
ATOM     46  N   UNL A   1      44.078  27.461  27.159  1.00  0.00    -0.248 NA
ATOM     47  C   UNL A   1      42.663  25.644  26.794  1.00  0.00     0.031 C 
ATOM     48  C   UNL A   1      47.491  25.119  25.484  1.00  0.00     0.029 A 
ATOM     49  N   UNL A   1      46.887  27.080  26.372  1.00  0.00    -0.354 N 
ATOM     50  C   UNL A   1      42.789  27.798  27.556  1.00  0.00     0.074 A 
ATOM     51  C   UNL A   1      41.949  26.656  27.267  1.00  0.00     0.031 C 
ATOM     52  C   UNL A   1      48.597  25.868  25.591  1.00  0.00     0.029 A 
ATOM     53  C   UNL A   1      48.242  27.170  26.150  1.00  0.00     0.049 A 
ATOM     54  H   UNL A   1      46.351  27.817  26.743  1.00  0.00     0.167 HD
ATOM     55  C   UNL A   1      42.352  28.948  28.124  1.00  0.00     0.034 A 
ATOM     56  C   UNL A   1      49.107  28.184  26.369  1.00  0.00     0.034 A 
ATOM     57  C   UNL A   1      43.205  30.070  28.424  1.00  0.00     0.049 A 
ATOM     58  C   UNL A   1      48.592  29.455  26.991  1.00  0.00     0.074 A 
ATOM     59  C   UNL A   1      42.858  31.268  29.023  1.00  0.00     0.029 A 
ATOM     60  N   UNL A   1      44.564  30.137  28.157  1.00  0.00    -0.354 N 
ATOM     61  N   UNL A   1      47.380  29.734  27.409  1.00  0.00    -0.248 NA
ATOM     62  C   UNL A   1      49.555  30.548  27.176  1.00  0.00     0.031 C 
ATOM     63  C   UNL A   1      43.993  32.079  29.069  1.00  0.00     0.029 A 
ATOM     64  C   UNL A   1      45.066  31.363  28.560  1.00  0.00     0.049 A 
ATOM     65  H   UNL A   1      45.095  29.418  27.743  1.00  0.00     0.167 HD
ATOM     66  C   UNL A   1      47.438  31.028  27.919  1.00  0.00     0.074 A 
ATOM     67  C   UNL A   1      48.813  31.464  27.787  1.00  0.00     0.031 C 
ATOM     68  C   UNL A   1      46.441  31.786  28.441  1.00  0.00     0.034 A 
BRANCH  55  69
ATOM     69  C   UNL A   1      40.892  29.068  28.486  1.00  0.00     0.023 A 
ATOM     70  C   UNL A   1      40.485  28.932  29.827  1.00  0.00     0.031 A 
ATOM     71  C   UNL A   1      39.899  29.179  27.497  1.00  0.00     0.131 A 
ATOM     72  C   UNL A   1      39.120  28.877  30.138  1.00  0.00     0.055 A 
ATOM     73  C   UNL A   1      38.540  29.161  27.817  1.00  0.00     0.041 A 
ATOM     74  F   UNL A   1      40.237  29.311  26.205  1.00  0.00    -0.206 F 
ATOM     75  C   UNL A   1      38.147  28.996  29.141  1.00  0.00     0.022 A 
BRANCH  72  76
ATOM     76  S   UNL A   1      38.554  28.587  31.837  1.00  0.00     0.124 S 
ATOM     77  O   UNL A   1      39.460  29.442  32.603  1.00  0.00    -0.237 OA
ATOM     78  O   UNL A   1      37.168  29.042  31.778  1.00  0.00    -0.237 OA
ATOM     79  O   UNL A   1      38.741  27.154  32.030  1.00  0.00    -0.744 OA
ENDBRANCH  72  76
ENDBRANCH  55  69
BRANCH  56  80
ATOM     80  C   UNL A   1      50.550  27.989  26.042  1.00  0.00     0.023 A 
ATOM     81  C   UNL A   1      51.004  28.051  24.712  1.00  0.00     0.031 A 
ATOM     82  C   UNL A   1      51.469  27.620  27.037  1.00  0.00     0.131 A 
ATOM     83  C   UNL A   1      52.318  27.673  24.405  1.00  0.00     0.055 A 
ATOM     84  C   UNL A   1      52.799  27.317  26.736  1.00  0.00     0.041 A 
ATOM     85  F   UNL A   1      51.081  27.534  28.319  1.00  0.00    -0.206 F 
ATOM     86  C   UNL A   1      53.223  27.323  25.411  1.00  0.00     0.022 A 
BRANCH  83  87
ATOM     87  S   UNL A   1      52.846  27.472  22.680  1.00  0.00     0.124 S 
ATOM     88  O   UNL A   1      53.374  28.795  22.368  1.00  0.00    -0.237 OA
ATOM     89  O   UNL A   1      53.837  26.405  22.793  1.00  0.00    -0.237 OA
ATOM     90  O   UNL A   1      51.617  27.101  21.986  1.00  0.00    -0.744 OA
ENDBRANCH  83  87
ENDBRANCH  56  80
BRANCH  68  91
ATOM     91  C   UNL A   1      46.768  33.179  28.920  1.00  0.00     0.023 A 
ATOM     92  C   UNL A   1      46.684  34.267  28.030  1.00  0.00     0.031 A 
ATOM     93  C   UNL A   1      47.310  33.403  30.197  1.00  0.00     0.131 A 
ATOM     94  C   UNL A   1      47.177  35.520  28.415  1.00  0.00     0.055 A 
ATOM     95  C   UNL A   1      47.758  34.664  30.592  1.00  0.00     0.041 A 
ATOM     96  F   UNL A   1      47.420  32.394  31.077  1.00  0.00    -0.206 F 
ATOM     97  C   UNL A   1      47.706  35.726  29.694  1.00  0.00     0.022 A 
BRANCH  94  98
ATOM     98  S   UNL A   1      47.231  36.905  27.243  1.00  0.00     0.124 S 
ATOM     99  O   UNL A   1      45.839  36.983  26.805  1.00  0.00    -0.237 OA
ATOM    100  O   UNL A   1      47.681  38.006  28.090  1.00  0.00    -0.237 OA
ATOM    101  O   UNL A   1      48.180  36.468  26.224  1.00  0.00    -0.744 OA
ENDBRANCH  94  98
ENDBRANCH  68  91
ENDBRANCH  42  43
ENDBRANCH  34  37
ENDBRANCH  32  33
ENDBRANCH  31  32
ENDBRANCH   1  31
TORSDOF 20
ENDMDL
MODEL 3
REMARK VINA RESULT:     -10.8      5.406      8.836
REMARK SMILES CC(C)N(c1cc2c(cc1Cl)C=C(C(=O)NCCCCCCNC(=O)c1ccc(-c3c4nc(c(-c5cc(S(=O)(=O)[O-])ccc5F)c5ccc([nH]5)c(-c5cc(S(=O)(=O)[O-])ccc5F)c5nc(c(-c6cc(S(=O)(=O)[O-])ccc6F)c6ccc3[nH]6)C=C5)C=C4)cc1)[C@@H](C(F)(F)F)O2)C(C)C
REMARK SMILES IDX 20 1 19 2 18 3 17 4 16 5 14 6 15 7 13 9 5 10 6 11 10 12 7 13
REMARK SMILES IDX 9 14 11 15 8 16 94 17 12 18 89 19 4 20 2 21 1 22 3 23 95 24
REMARK SMILES IDX 96 25 97 26 90 27 91 28 92 29 93 30 21 31 22 32 23 33 24 34
REMARK SMILES IDX 25 36 26 37 27 38 88 39 28 40 87 41 29 42 30 43 31 44 81 45
REMARK SMILES IDX 32 46 86 47 80 48 82 49 33 50 85 51 79 52 78 53 34 55 66 56
REMARK SMILES IDX 46 57 65 58 47 59 50 60 64 61 83 62 48 63 49 64 63 66 84 67
REMARK SMILES IDX 51 68 35 69 36 70 44 71 37 72 43 73 45 74 42 75 38 76 39 77
REMARK SMILES IDX 40 78 41 79 67 80 68 81 76 82 69 83 75 84 77 85 74 86 70 87
REMARK SMILES IDX 71 88 72 89 73 90 52 91 53 92 61 93 54 94 60 95 62 96 59 97
REMARK SMILES IDX 55 98 56 99 57 100 58 101
REMARK H PARENT 16 8 23 35 82 54 50 65
REMARK Flexibility Score: inf
ROOT
ATOM      1  C   UNL A   1      34.354  30.621  27.273  1.00  0.00     0.002 C 
ENDROOT
BRANCH   1   2
ATOM      2  C   UNL A   1      33.007  29.938  26.995  1.00  0.00     0.002 C 
BRANCH   2   3
ATOM      3  C   UNL A   1      32.527  29.978  25.541  1.00  0.00     0.021 C 
BRANCH   3   4
ATOM      4  C   UNL A   1      31.028  30.222  25.377  1.00  0.00     0.116 C 
BRANCH   4   5
ATOM      5  N   UNL A   1      30.588  29.993  24.012  1.00  0.00    -0.352 N 
ATOM      6  C   UNL A   1      30.749  29.046  23.060  1.00  0.00     0.251 C 
ATOM      7  O   UNL A   1      30.135  29.255  22.007  1.00  0.00    -0.270 OA
ATOM      8  H   UNL A   1      30.016  30.729  23.692  1.00  0.00     0.163 HD
BRANCH   6   9
ATOM      9  C   UNL A   1      31.583  27.812  23.189  1.00  0.00     0.067 C 
ATOM     10  C   UNL A   1      33.552  23.391  24.738  1.00  0.00     0.060 A 
ATOM     11  C   UNL A   1      33.660  24.190  23.585  1.00  0.00     0.074 A 
ATOM     12  C   UNL A   1      32.649  23.836  25.733  1.00  0.00     0.065 A 
ATOM     13  C   UNL A   1      32.936  25.374  23.441  1.00  0.00     0.130 A 
ATOM     14  C   UNL A   1      31.882  25.002  25.560  1.00  0.00     0.034 A 
ATOM     15  Cl  UNL A   1      32.477  23.047  27.267  1.00  0.00    -0.082 Cl
ATOM     16  C   UNL A   1      32.028  25.778  24.412  1.00  0.00     0.019 A 
ATOM     17  O   UNL A   1      33.145  26.080  22.293  1.00  0.00    -0.475 OA
ATOM     18  C   UNL A   1      31.241  26.984  24.195  1.00  0.00     0.025 C 
ATOM     19  C   UNL A   1      32.769  27.485  22.323  1.00  0.00     0.314 C 
BRANCH  10  20
ATOM     20  N   UNL A   1      34.342  22.228  24.842  1.00  0.00    -0.365 N 
BRANCH  20  21
ATOM     21  C   UNL A   1      33.726  20.959  24.396  1.00  0.00     0.076 C 
ATOM     22  C   UNL A   1      33.420  20.002  25.545  1.00  0.00     0.030 C 
ATOM     23  C   UNL A   1      32.494  21.168  23.519  1.00  0.00     0.030 C 
ENDBRANCH  20  21
BRANCH  20  24
ATOM     24  C   UNL A   1      35.767  22.431  25.199  1.00  0.00     0.076 C 
ATOM     25  C   UNL A   1      36.714  22.057  24.062  1.00  0.00     0.030 C 
ATOM     26  C   UNL A   1      36.075  23.823  25.743  1.00  0.00     0.030 C 
ENDBRANCH  20  24
ENDBRANCH  10  20
BRANCH  19  27
ATOM     27  C   UNL A   1      34.002  28.342  22.673  1.00  0.00     0.429 C 
ATOM     28  F   UNL A   1      34.997  28.143  21.777  1.00  0.00    -0.167 F 
ATOM     29  F   UNL A   1      33.728  29.669  22.654  1.00  0.00    -0.167 F 
ATOM     30  F   UNL A   1      34.495  28.060  23.901  1.00  0.00    -0.167 F 
ENDBRANCH  19  27
ENDBRANCH   6   9
ENDBRANCH   4   5
ENDBRANCH   3   4
ENDBRANCH   2   3
ENDBRANCH   1   2
BRANCH   1  31
ATOM     31  C   UNL A   1      34.293  32.117  27.590  1.00  0.00     0.021 C 
BRANCH  31  32
ATOM     32  C   UNL A   1      32.896  32.674  27.832  1.00  0.00     0.116 C 
BRANCH  32  33
ATOM     33  N   UNL A   1      32.873  34.124  27.921  1.00  0.00    -0.352 N 
ATOM     34  C   UNL A   1      33.626  34.950  28.723  1.00  0.00     0.251 C 
ATOM     35  H   UNL A   1      32.231  34.577  27.326  1.00  0.00     0.163 HD
ATOM     36  O   UNL A   1      33.382  36.153  28.765  1.00  0.00    -0.269 OA
BRANCH  34  37
ATOM     37  C   UNL A   1      34.700  34.373  29.563  1.00  0.00     0.039 A 
ATOM     38  C   UNL A   1      36.042  34.533  29.213  1.00  0.00     0.014 A 
ATOM     39  C   UNL A   1      34.355  33.633  30.699  1.00  0.00     0.014 A 
ATOM     40  C   UNL A   1      37.022  33.823  29.899  1.00  0.00     0.010 A 
ATOM     41  C   UNL A   1      35.352  32.985  31.435  1.00  0.00     0.010 A 
ATOM     42  C   UNL A   1      36.690  33.034  31.013  1.00  0.00    -0.014 A 
BRANCH  42  43
ATOM     43  C   UNL A   1      37.762  32.280  31.716  1.00  0.00     0.031 A 
ATOM     44  C   UNL A   1      38.515  31.176  31.023  1.00  0.00     0.074 A 
ATOM     45  C   UNL A   1      38.100  32.642  32.969  1.00  0.00     0.049 A 
ATOM     46  N   UNL A   1      39.530  30.476  31.461  1.00  0.00    -0.248 NA
ATOM     47  C   UNL A   1      38.077  30.808  29.668  1.00  0.00     0.031 C 
ATOM     48  C   UNL A   1      37.431  33.692  33.739  1.00  0.00     0.029 A 
ATOM     49  N   UNL A   1      39.096  32.200  33.804  1.00  0.00    -0.354 N 
ATOM     50  C   UNL A   1      39.843  29.578  30.445  1.00  0.00     0.074 A 
ATOM     51  C   UNL A   1      38.887  29.798  29.382  1.00  0.00     0.031 C 
ATOM     52  C   UNL A   1      38.073  33.858  34.903  1.00  0.00     0.029 A 
ATOM     53  C   UNL A   1      39.159  32.885  34.995  1.00  0.00     0.049 A 
ATOM     54  H   UNL A   1      39.705  31.463  33.572  1.00  0.00     0.167 HD
ATOM     55  C   UNL A   1      40.846  28.669  30.399  1.00  0.00     0.034 A 
ATOM     56  C   UNL A   1      39.994  32.750  36.048  1.00  0.00     0.034 A 
ATOM     57  C   UNL A   1      41.804  28.475  31.459  1.00  0.00     0.049 A 
ATOM     58  C   UNL A   1      41.093  31.723  35.975  1.00  0.00     0.074 A 
ATOM     59  C   UNL A   1      42.872  27.595  31.492  1.00  0.00     0.029 A 
ATOM     60  N   UNL A   1      41.819  29.165  32.661  1.00  0.00    -0.354 N 
ATOM     61  N   UNL A   1      41.406  30.921  34.984  1.00  0.00    -0.248 NA
ATOM     62  C   UNL A   1      41.956  31.579  37.155  1.00  0.00     0.031 C 
ATOM     63  C   UNL A   1      43.498  27.715  32.734  1.00  0.00     0.029 A 
ATOM     64  C   UNL A   1      42.863  28.716  33.452  1.00  0.00     0.049 A 
ATOM     65  H   UNL A   1      41.181  29.871  32.916  1.00  0.00     0.167 HD
ATOM     66  C   UNL A   1      42.509  30.190  35.414  1.00  0.00     0.074 A 
ATOM     67  C   UNL A   1      42.829  30.667  36.744  1.00  0.00     0.031 C 
ATOM     68  C   UNL A   1      43.187  29.208  34.770  1.00  0.00     0.034 A 
BRANCH  55  69
ATOM     69  C   UNL A   1      40.993  27.813  29.164  1.00  0.00     0.023 A 
ATOM     70  C   UNL A   1      41.993  28.107  28.218  1.00  0.00     0.031 A 
ATOM     71  C   UNL A   1      40.065  26.802  28.860  1.00  0.00     0.131 A 
ATOM     72  C   UNL A   1      42.021  27.419  26.998  1.00  0.00     0.055 A 
ATOM     73  C   UNL A   1      40.120  26.094  27.658  1.00  0.00     0.041 A 
ATOM     74  F   UNL A   1      39.093  26.486  29.730  1.00  0.00    -0.206 F 
ATOM     75  C   UNL A   1      41.093  26.411  26.716  1.00  0.00     0.022 A 
BRANCH  72  76
ATOM     76  S   UNL A   1      43.220  27.846  25.706  1.00  0.00     0.124 S 
ATOM     77  O   UNL A   1      44.093  26.674  25.710  1.00  0.00    -0.237 OA
ATOM     78  O   UNL A   1      42.365  27.983  24.530  1.00  0.00    -0.237 OA
ATOM     79  O   UNL A   1      43.833  29.078  26.188  1.00  0.00    -0.744 OA
ENDBRANCH  72  76
ENDBRANCH  55  69
BRANCH  56  80
ATOM     80  C   UNL A   1      39.837  33.660  37.220  1.00  0.00     0.023 A 
ATOM     81  C   UNL A   1      40.656  34.794  37.369  1.00  0.00     0.031 A 
ATOM     82  C   UNL A   1      38.953  33.342  38.264  1.00  0.00     0.131 A 
ATOM     83  C   UNL A   1      40.629  35.522  38.566  1.00  0.00     0.055 A 
ATOM     84  C   UNL A   1      38.874  34.116  39.425  1.00  0.00     0.041 A 
ATOM     85  F   UNL A   1      38.160  32.263  38.175  1.00  0.00    -0.206 F 
ATOM     86  C   UNL A   1      39.731  35.200  39.588  1.00  0.00     0.022 A 
BRANCH  83  87
ATOM     87  S   UNL A   1      41.864  36.810  38.896  1.00  0.00     0.124 S 
ATOM     88  O   UNL A   1      42.483  36.980  37.587  1.00  0.00    -0.237 OA
ATOM     89  O   UNL A   1      41.028  37.918  39.349  1.00  0.00    -0.237 OA
ATOM     90  O   UNL A   1      42.712  36.216  39.925  1.00  0.00    -0.744 OA
ENDBRANCH  83  87
ENDBRANCH  56  80
BRANCH  68  91
ATOM     91  C   UNL A   1      44.355  28.557  35.469  1.00  0.00     0.023 A 
ATOM     92  C   UNL A   1      44.159  27.385  36.226  1.00  0.00     0.031 A 
ATOM     93  C   UNL A   1      45.614  29.179  35.520  1.00  0.00     0.131 A 
ATOM     94  C   UNL A   1      45.194  26.897  37.034  1.00  0.00     0.055 A 
ATOM     95  C   UNL A   1      46.656  28.663  36.291  1.00  0.00     0.041 A 
ATOM     96  F   UNL A   1      45.846  30.304  34.824  1.00  0.00    -0.206 F 
ATOM     97  C   UNL A   1      46.443  27.526  37.065  1.00  0.00     0.022 A 
BRANCH  94  98
ATOM     98  S   UNL A   1      44.929  25.484  38.140  1.00  0.00     0.124 S 
ATOM     99  O   UNL A   1      43.578  25.063  37.774  1.00  0.00    -0.237 OA
ATOM    100  O   UNL A   1      45.997  24.573  37.737  1.00  0.00    -0.237 OA
ATOM    101  O   UNL A   1      45.062  26.053  39.477  1.00  0.00    -0.744 OA
ENDBRANCH  94  98
ENDBRANCH  68  91
ENDBRANCH  42  43
ENDBRANCH  34  37
ENDBRANCH  32  33
ENDBRANCH  31  32
ENDBRANCH   1  31
TORSDOF 20
ENDMDL
