MODEL 1
REMARK VINA RESULT:     -12.4      0.000      0.000
REMARK SMILES Cc1ncccc1C(=O)Nc1ccccc1C(=O)NCCCCCCNC(=O)c1ccc(-c2c3nc(c(-c4cc(S(=O)(=O)[O-])ccc4F)c4ccc([nH]4)c(-c4cc(S(=O)(=O)[O-])ccc4F)c4nc(c(-c5cc(S(=O)(=O)[O-])ccc5F)c5ccc2[nH]5)C=C4)C=C3)cc1
REMARK SMILES IDX 23 1 22 2 21 3 20 4 19 5 17 6 18 7 16 9 11 10 12 11 13 12
REMARK SMILES IDX 15 13 14 14 10 15 8 16 9 17 7 19 1 20 2 21 3 22 4 23 6 24
REMARK SMILES IDX 5 25 24 26 25 27 26 28 27 29 28 31 29 32 30 33 91 34 31 35
REMARK SMILES IDX 90 36 32 37 33 38 34 39 84 40 35 41 89 42 83 43 85 44 36 45
REMARK SMILES IDX 88 46 82 47 81 48 37 50 69 51 49 52 68 53 50 54 53 55 67 56
REMARK SMILES IDX 86 57 51 58 52 59 66 61 87 62 54 63 38 64 39 65 47 66 40 67
REMARK SMILES IDX 46 68 48 69 45 70 41 71 42 72 43 73 44 74 70 75 71 76 79 77
REMARK SMILES IDX 72 78 78 79 80 80 77 81 73 82 74 83 75 84 76 85 55 86 56 87
REMARK SMILES IDX 64 88 57 89 63 90 65 91 62 92 58 93 59 94 60 95 61 96
REMARK H PARENT 19 8 10 18 26 30 85 49 53 60
REMARK Flexibility Score: inf
ROOT
ATOM      1  C   UNL A   1      34.644  22.588  23.699  1.00  0.00     0.002 C 
ENDROOT
BRANCH   1   2
ATOM      2  C   UNL A   1      33.835  23.882  23.556  1.00  0.00     0.002 C 
BRANCH   2   3
ATOM      3  C   UNL A   1      34.306  25.100  24.359  1.00  0.00     0.021 C 
BRANCH   3   4
ATOM      4  C   UNL A   1      34.003  25.081  25.854  1.00  0.00     0.116 C 
BRANCH   4   5
ATOM      5  N   UNL A   1      32.603  24.912  26.176  1.00  0.00    -0.352 N 
ATOM      6  C   UNL A   1      31.577  25.827  26.205  1.00  0.00     0.253 C 
ATOM      7  O   UNL A   1      30.461  25.415  26.530  1.00  0.00    -0.269 OA
ATOM      8  H   UNL A   1      32.342  23.992  26.412  1.00  0.00     0.163 HD
BRANCH   6   9
ATOM      9  C   UNL A   1      31.766  27.292  25.978  1.00  0.00     0.063 A 
ATOM     10  C   UNL A   1      32.092  27.954  24.783  1.00  0.00     0.054 A 
ATOM     11  C   UNL A   1      32.467  29.314  24.833  1.00  0.00     0.027 A 
ATOM     12  C   UNL A   1      32.335  30.063  25.999  1.00  0.00     0.002 A 
ATOM     13  C   UNL A   1      31.620  28.076  27.147  1.00  0.00     0.016 A 
ATOM     14  C   UNL A   1      31.869  29.451  27.151  1.00  0.00     0.001 A 
BRANCH  10  15
ATOM     15  N   UNL A   1      32.008  27.472  23.466  1.00  0.00    -0.321 N 
ATOM     16  C   UNL A   1      31.050  27.554  22.488  1.00  0.00     0.257 C 
ATOM     17  O   UNL A   1      31.244  26.917  21.449  1.00  0.00    -0.269 OA
ATOM     18  H   UNL A   1      32.807  26.967  23.185  1.00  0.00     0.170 HD
BRANCH  16  19
ATOM     19  C   UNL A   1      29.812  28.352  22.586  1.00  0.00     0.061 A 
ATOM     20  C   UNL A   1      28.404  26.639  23.868  1.00  0.00     0.067 C 
ATOM     21  C   UNL A   1      28.616  27.952  23.182  1.00  0.00     0.050 A 
ATOM     22  N   UNL A   1      27.529  28.777  23.236  1.00  0.00    -0.261 NA
ATOM     23  C   UNL A   1      27.652  30.029  22.745  1.00  0.00     0.111 A 
ATOM     24  C   UNL A   1      29.916  29.682  22.150  1.00  0.00     0.017 A 
ATOM     25  C   UNL A   1      28.824  30.534  22.220  1.00  0.00     0.021 A 
ENDBRANCH  16  19
ENDBRANCH  10  15
ENDBRANCH   6   9
ENDBRANCH   4   5
ENDBRANCH   3   4
ENDBRANCH   2   3
ENDBRANCH   1   2
BRANCH   1  26
ATOM     26  C   UNL A   1      36.144  22.730  23.968  1.00  0.00     0.021 C 
BRANCH  26  27
ATOM     27  C   UNL A   1      36.594  22.463  25.401  1.00  0.00     0.116 C 
BRANCH  27  28
ATOM     28  N   UNL A   1      37.605  21.424  25.496  1.00  0.00    -0.352 N 
ATOM     29  C   UNL A   1      38.895  21.491  25.966  1.00  0.00     0.251 C 
ATOM     30  H   UNL A   1      37.322  20.536  25.177  1.00  0.00     0.163 HD
ATOM     31  O   UNL A   1      39.642  20.530  25.834  1.00  0.00    -0.269 OA
BRANCH  29  32
ATOM     32  C   UNL A   1      39.384  22.738  26.595  1.00  0.00     0.039 A 
ATOM     33  C   UNL A   1      40.397  22.655  27.554  1.00  0.00     0.014 A 
ATOM     34  C   UNL A   1      38.866  23.982  26.226  1.00  0.00     0.014 A 
ATOM     35  C   UNL A   1      40.954  23.824  28.075  1.00  0.00     0.010 A 
ATOM     36  C   UNL A   1      39.468  25.146  26.693  1.00  0.00     0.010 A 
ATOM     37  C   UNL A   1      40.530  25.079  27.609  1.00  0.00    -0.014 A 
BRANCH  37  38
ATOM     38  C   UNL A   1      41.216  26.331  28.021  1.00  0.00     0.031 A 
ATOM     39  C   UNL A   1      40.461  27.408  28.746  1.00  0.00     0.074 A 
ATOM     40  C   UNL A   1      42.498  26.529  27.660  1.00  0.00     0.049 A 
ATOM     41  N   UNL A   1      40.858  28.604  29.100  1.00  0.00    -0.248 NA
ATOM     42  C   UNL A   1      39.067  27.106  29.094  1.00  0.00     0.031 C 
ATOM     43  C   UNL A   1      43.328  25.566  26.933  1.00  0.00     0.029 A 
ATOM     44  N   UNL A   1      43.327  27.607  27.845  1.00  0.00    -0.354 N 
ATOM     45  C   UNL A   1      39.758  29.204  29.703  1.00  0.00     0.074 A 
ATOM     46  C   UNL A   1      38.664  28.258  29.606  1.00  0.00     0.031 C 
ATOM     47  C   UNL A   1      44.554  26.082  26.765  1.00  0.00     0.029 A 
ATOM     48  C   UNL A   1      44.584  27.435  27.312  1.00  0.00     0.049 A 
ATOM     49  H   UNL A   1      43.048  28.427  28.313  1.00  0.00     0.167 HD
ATOM     50  C   UNL A   1      39.677  30.421  30.298  1.00  0.00     0.034 A 
ATOM     51  C   UNL A   1      45.635  28.275  27.256  1.00  0.00     0.034 A 
ATOM     52  C   UNL A   1      40.779  31.351  30.371  1.00  0.00     0.049 A 
ATOM     53  C   UNL A   1      45.495  29.656  27.840  1.00  0.00     0.074 A 
ATOM     54  C   UNL A   1      40.830  32.582  31.002  1.00  0.00     0.029 A 
ATOM     55  N   UNL A   1      42.019  31.165  29.771  1.00  0.00    -0.354 N 
ATOM     56  N   UNL A   1      44.468  30.191  28.459  1.00  0.00    -0.248 NA
ATOM     57  C   UNL A   1      46.654  30.548  27.712  1.00  0.00     0.031 C 
ATOM     58  C   UNL A   1      42.063  33.176  30.708  1.00  0.00     0.029 A 
ATOM     59  C   UNL A   1      42.819  32.282  29.967  1.00  0.00     0.049 A 
ATOM     60  H   UNL A   1      42.291  30.357  29.279  1.00  0.00     0.167 HD
ATOM     61  C   UNL A   1      44.867  31.475  28.815  1.00  0.00     0.074 A 
ATOM     62  C   UNL A   1      46.231  31.629  28.352  1.00  0.00     0.031 C 
ATOM     63  C   UNL A   1      44.170  32.437  29.474  1.00  0.00     0.034 A 
BRANCH  50  64
ATOM     64  C   UNL A   1      38.335  30.821  30.869  1.00  0.00     0.023 A 
ATOM     65  C   UNL A   1      37.355  31.452  30.081  1.00  0.00     0.031 A 
ATOM     66  C   UNL A   1      38.052  30.630  32.234  1.00  0.00     0.131 A 
ATOM     67  C   UNL A   1      36.196  31.965  30.681  1.00  0.00     0.055 A 
ATOM     68  C   UNL A   1      36.850  31.053  32.804  1.00  0.00     0.041 A 
ATOM     69  F   UNL A   1      38.952  30.052  33.045  1.00  0.00    -0.206 F 
ATOM     70  C   UNL A   1      35.922  31.747  32.032  1.00  0.00     0.022 A 
BRANCH  67  71
ATOM     71  S   UNL A   1      35.154  33.094  29.714  1.00  0.00     0.124 S 
ATOM     72  O   UNL A   1      34.111  33.432  30.680  1.00  0.00    -0.237 OA
ATOM     73  O   UNL A   1      36.083  34.166  29.375  1.00  0.00    -0.237 OA
ATOM     74  O   UNL A   1      34.709  32.273  28.591  1.00  0.00    -0.744 OA
ENDBRANCH  67  71
ENDBRANCH  50  64
BRANCH  51  75
ATOM     75  C   UNL A   1      46.910  27.840  26.619  1.00  0.00     0.023 A 
ATOM     76  C   UNL A   1      47.088  27.949  25.232  1.00  0.00     0.031 A 
ATOM     77  C   UNL A   1      47.963  27.302  27.381  1.00  0.00     0.131 A 
ATOM     78  C   UNL A   1      48.280  27.500  24.643  1.00  0.00     0.055 A 
ATOM     79  C   UNL A   1      49.166  26.903  26.796  1.00  0.00     0.041 A 
ATOM     80  F   UNL A   1      47.844  27.176  28.712  1.00  0.00    -0.206 F 
ATOM     81  C   UNL A   1      49.326  26.993  25.417  1.00  0.00     0.022 A 
BRANCH  78  82
ATOM     82  S   UNL A   1      48.416  27.530  22.835  1.00  0.00     0.124 S 
ATOM     83  O   UNL A   1      47.214  28.265  22.459  1.00  0.00    -0.237 OA
ATOM     84  O   UNL A   1      49.683  28.226  22.637  1.00  0.00    -0.237 OA
ATOM     85  O   UNL A   1      48.422  26.115  22.471  1.00  0.00    -0.744 OA
ENDBRANCH  78  82
ENDBRANCH  51  75
BRANCH  63  86
ATOM     86  C   UNL A   1      44.886  33.737  29.749  1.00  0.00     0.023 A 
ATOM     87  C   UNL A   1      44.807  34.825  28.862  1.00  0.00     0.031 A 
ATOM     88  C   UNL A   1      45.652  33.892  30.918  1.00  0.00     0.131 A 
ATOM     89  C   UNL A   1      45.518  36.004  29.136  1.00  0.00     0.055 A 
ATOM     90  C   UNL A   1      46.307  35.088  31.216  1.00  0.00     0.041 A 
ATOM     91  F   UNL A   1      45.768  32.884  31.798  1.00  0.00    -0.206 F 
ATOM     92  C   UNL A   1      46.250  36.150  30.318  1.00  0.00     0.022 A 
BRANCH  89  93
ATOM     93  S   UNL A   1      45.535  37.323  27.890  1.00  0.00     0.124 S 
ATOM     94  O   UNL A   1      46.799  37.993  28.177  1.00  0.00    -0.237 OA
ATOM     95  O   UNL A   1      45.480  36.574  26.640  1.00  0.00    -0.237 OA
ATOM     96  O   UNL A   1      44.336  38.101  28.198  1.00  0.00    -0.744 OA
ENDBRANCH  89  93
ENDBRANCH  63  86
ENDBRANCH  37  38
ENDBRANCH  29  32
ENDBRANCH  27  28
ENDBRANCH  26  27
ENDBRANCH   1  26
TORSDOF 18
ENDMDL
MODEL 2
REMARK VINA RESULT:     -12.1      5.144     10.372
REMARK SMILES Cc1ncccc1C(=O)Nc1ccccc1C(=O)NCCCCCCNC(=O)c1ccc(-c2c3nc(c(-c4cc(S(=O)(=O)[O-])ccc4F)c4ccc([nH]4)c(-c4cc(S(=O)(=O)[O-])ccc4F)c4nc(c(-c5cc(S(=O)(=O)[O-])ccc5F)c5ccc2[nH]5)C=C4)C=C3)cc1
REMARK SMILES IDX 23 1 22 2 21 3 20 4 19 5 17 6 18 7 16 9 11 10 12 11 13 12
REMARK SMILES IDX 15 13 14 14 10 15 8 16 9 17 7 19 1 20 2 21 3 22 4 23 6 24
REMARK SMILES IDX 5 25 24 26 25 27 26 28 27 29 28 31 29 32 30 33 91 34 31 35
REMARK SMILES IDX 90 36 32 37 33 38 34 39 84 40 35 41 89 42 83 43 85 44 36 45
REMARK SMILES IDX 88 46 82 47 81 48 37 50 69 51 49 52 68 53 50 54 53 55 67 56
REMARK SMILES IDX 86 57 51 58 52 59 66 61 87 62 54 63 38 64 39 65 47 66 40 67
REMARK SMILES IDX 46 68 48 69 45 70 41 71 42 72 43 73 44 74 70 75 71 76 79 77
REMARK SMILES IDX 72 78 78 79 80 80 77 81 73 82 74 83 75 84 76 85 55 86 56 87
REMARK SMILES IDX 64 88 57 89 63 90 65 91 62 92 58 93 59 94 60 95 61 96
REMARK H PARENT 19 8 10 18 26 30 85 49 53 60
REMARK Flexibility Score: inf
ROOT
ATOM      1  C   UNL A   1      31.898  30.001  25.023  1.00  0.00     0.002 C 
ENDROOT
BRANCH   1   2
ATOM      2  C   UNL A   1      30.686  29.427  24.281  1.00  0.00     0.002 C 
BRANCH   2   3
ATOM      3  C   UNL A   1      30.852  29.132  22.785  1.00  0.00     0.021 C 
BRANCH   3   4
ATOM      4  C   UNL A   1      30.622  27.687  22.352  1.00  0.00     0.116 C 
BRANCH   4   5
ATOM      5  N   UNL A   1      31.737  27.092  21.648  1.00  0.00    -0.352 N 
ATOM      6  C   UNL A   1      32.742  26.271  22.101  1.00  0.00     0.253 C 
ATOM      7  O   UNL A   1      33.589  25.908  21.281  1.00  0.00    -0.269 OA
ATOM      8  H   UNL A   1      31.782  27.309  20.689  1.00  0.00     0.163 HD
BRANCH   6   9
ATOM      9  C   UNL A   1      32.923  25.895  23.536  1.00  0.00     0.063 A 
ATOM     10  C   UNL A   1      32.555  24.700  24.177  1.00  0.00     0.054 A 
ATOM     11  C   UNL A   1      32.589  24.640  25.587  1.00  0.00     0.027 A 
ATOM     12  C   UNL A   1      33.157  25.660  26.346  1.00  0.00     0.002 A 
ATOM     13  C   UNL A   1      33.514  26.910  24.325  1.00  0.00     0.016 A 
ATOM     14  C   UNL A   1      33.660  26.782  25.708  1.00  0.00     0.001 A 
BRANCH  10  15
ATOM     15  N   UNL A   1      32.233  23.461  23.598  1.00  0.00    -0.321 N 
ATOM     16  C   UNL A   1      32.938  22.303  23.387  1.00  0.00     0.257 C 
ATOM     17  O   UNL A   1      32.382  21.411  22.742  1.00  0.00    -0.269 OA
ATOM     18  H   UNL A   1      31.303  23.414  23.274  1.00  0.00     0.170 HD
BRANCH  16  19
ATOM     19  C   UNL A   1      34.305  22.048  23.881  1.00  0.00     0.061 A 
ATOM     20  C   UNL A   1      33.790  19.937  25.237  1.00  0.00     0.067 C 
ATOM     21  C   UNL A   1      34.700  21.008  24.722  1.00  0.00     0.050 A 
ATOM     22  N   UNL A   1      36.001  20.849  25.107  1.00  0.00    -0.261 NA
ATOM     23  C   UNL A   1      36.924  21.697  24.605  1.00  0.00     0.111 A 
ATOM     24  C   UNL A   1      35.306  22.863  23.330  1.00  0.00     0.017 A 
ATOM     25  C   UNL A   1      36.633  22.696  23.699  1.00  0.00     0.021 A 
ENDBRANCH  16  19
ENDBRANCH  10  15
ENDBRANCH   6   9
ENDBRANCH   4   5
ENDBRANCH   3   4
ENDBRANCH   2   3
ENDBRANCH   1   2
BRANCH   1  26
ATOM     26  C   UNL A   1      31.753  30.219  26.531  1.00  0.00     0.021 C 
BRANCH  26  27
ATOM     27  C   UNL A   1      32.881  30.995  27.204  1.00  0.00     0.116 C 
BRANCH  27  28
ATOM     28  N   UNL A   1      32.631  32.426  27.260  1.00  0.00    -0.352 N 
ATOM     29  C   UNL A   1      33.273  33.404  27.982  1.00  0.00     0.251 C 
ATOM     30  H   UNL A   1      31.891  32.743  26.694  1.00  0.00     0.163 HD
ATOM     31  O   UNL A   1      32.823  34.542  28.001  1.00  0.00    -0.269 OA
BRANCH  29  32
ATOM     32  C   UNL A   1      34.485  33.066  28.762  1.00  0.00     0.039 A 
ATOM     33  C   UNL A   1      34.336  32.396  29.979  1.00  0.00     0.014 A 
ATOM     34  C   UNL A   1      35.759  33.387  28.287  1.00  0.00     0.014 A 
ATOM     35  C   UNL A   1      35.468  31.965  30.673  1.00  0.00     0.010 A 
ATOM     36  C   UNL A   1      36.884  32.897  28.944  1.00  0.00     0.010 A 
ATOM     37  C   UNL A   1      36.749  32.166  30.135  1.00  0.00    -0.014 A 
BRANCH  37  38
ATOM     38  C   UNL A   1      37.957  31.575  30.767  1.00  0.00     0.031 A 
ATOM     39  C   UNL A   1      38.752  30.521  30.050  1.00  0.00     0.074 A 
ATOM     40  C   UNL A   1      38.282  31.929  32.025  1.00  0.00     0.049 A 
ATOM     41  N   UNL A   1      39.772  29.821  30.474  1.00  0.00    -0.248 NA
ATOM     42  C   UNL A   1      38.320  30.196  28.684  1.00  0.00     0.031 C 
ATOM     43  C   UNL A   1      37.573  32.924  32.831  1.00  0.00     0.029 A 
ATOM     44  N   UNL A   1      39.285  31.487  32.851  1.00  0.00    -0.354 N 
ATOM     45  C   UNL A   1      40.100  28.961  29.431  1.00  0.00     0.074 A 
ATOM     46  C   UNL A   1      39.126  29.190  28.383  1.00  0.00     0.031 C 
ATOM     47  C   UNL A   1      38.182  33.041  34.020  1.00  0.00     0.029 A 
ATOM     48  C   UNL A   1      39.285  32.088  34.089  1.00  0.00     0.049 A 
ATOM     49  H   UNL A   1      39.941  30.804  32.584  1.00  0.00     0.167 HD
ATOM     50  C   UNL A   1      41.129  28.080  29.351  1.00  0.00     0.034 A 
ATOM     51  C   UNL A   1      40.071  31.883  35.163  1.00  0.00     0.034 A 
ATOM     52  C   UNL A   1      42.081  27.862  30.415  1.00  0.00     0.049 A 
ATOM     53  C   UNL A   1      41.149  30.834  35.086  1.00  0.00     0.074 A 
ATOM     54  C   UNL A   1      43.196  27.043  30.422  1.00  0.00     0.029 A 
ATOM     55  N   UNL A   1      42.014  28.447  31.675  1.00  0.00    -0.354 N 
ATOM     56  N   UNL A   1      41.486  30.068  34.074  1.00  0.00    -0.248 NA
ATOM     57  C   UNL A   1      41.948  30.618  36.299  1.00  0.00     0.031 C 
ATOM     58  C   UNL A   1      43.749  27.063  31.708  1.00  0.00     0.029 A 
ATOM     59  C   UNL A   1      43.033  27.962  32.483  1.00  0.00     0.049 A 
ATOM     60  H   UNL A   1      41.342  29.109  31.954  1.00  0.00     0.167 HD
ATOM     61  C   UNL A   1      42.554  29.296  34.522  1.00  0.00     0.074 A 
ATOM     62  C   UNL A   1      42.810  29.698  35.890  1.00  0.00     0.031 C 
ATOM     63  C   UNL A   1      43.262  28.347  33.857  1.00  0.00     0.034 A 
BRANCH  50  64
ATOM     64  C   UNL A   1      41.238  27.260  28.085  1.00  0.00     0.023 A 
ATOM     65  C   UNL A   1      40.822  25.917  28.036  1.00  0.00     0.031 A 
ATOM     66  C   UNL A   1      41.825  27.805  26.928  1.00  0.00     0.131 A 
ATOM     67  C   UNL A   1      41.098  25.138  26.902  1.00  0.00     0.055 A 
ATOM     68  C   UNL A   1      42.002  27.051  25.767  1.00  0.00     0.041 A 
ATOM     69  F   UNL A   1      42.261  29.074  26.914  1.00  0.00    -0.206 F 
ATOM     70  C   UNL A   1      41.660  25.702  25.756  1.00  0.00     0.022 A 
BRANCH  67  71
ATOM     71  S   UNL A   1      40.896  23.339  27.025  1.00  0.00     0.124 S 
ATOM     72  O   UNL A   1      39.441  23.207  27.052  1.00  0.00    -0.237 OA
ATOM     73  O   UNL A   1      41.559  22.865  25.817  1.00  0.00    -0.237 OA
ATOM     74  O   UNL A   1      41.565  23.004  28.280  1.00  0.00    -0.744 OA
ENDBRANCH  67  71
ENDBRANCH  50  64
BRANCH  51  75
ATOM     75  C   UNL A   1      39.868  32.681  36.405  1.00  0.00     0.023 A 
ATOM     76  C   UNL A   1      38.910  32.292  37.353  1.00  0.00     0.031 A 
ATOM     77  C   UNL A   1      40.617  33.843  36.660  1.00  0.00     0.131 A 
ATOM     78  C   UNL A   1      38.703  33.075  38.500  1.00  0.00     0.055 A 
ATOM     79  C   UNL A   1      40.443  34.591  37.826  1.00  0.00     0.041 A 
ATOM     80  F   UNL A   1      41.547  34.258  35.785  1.00  0.00    -0.206 F 
ATOM     81  C   UNL A   1      39.475  34.212  38.750  1.00  0.00     0.022 A 
BRANCH  78  82
ATOM     82  S   UNL A   1      37.362  32.616  39.631  1.00  0.00     0.124 S 
ATOM     83  O   UNL A   1      37.766  31.276  40.041  1.00  0.00    -0.237 OA
ATOM     84  O   UNL A   1      37.456  33.655  40.650  1.00  0.00    -0.237 OA
ATOM     85  O   UNL A   1      36.171  32.679  38.787  1.00  0.00    -0.744 OA
ENDBRANCH  78  82
ENDBRANCH  51  75
BRANCH  63  86
ATOM     86  C   UNL A   1      44.400  27.692  34.603  1.00  0.00     0.023 A 
ATOM     87  C   UNL A   1      44.245  26.449  35.242  1.00  0.00     0.031 A 
ATOM     88  C   UNL A   1      45.659  28.316  34.669  1.00  0.00     0.131 A 
ATOM     89  C   UNL A   1      45.316  25.892  35.957  1.00  0.00     0.055 A 
ATOM     90  C   UNL A   1      46.738  27.728  35.329  1.00  0.00     0.041 A 
ATOM     91  F   UNL A   1      45.862  29.507  34.082  1.00  0.00    -0.206 F 
ATOM     92  C   UNL A   1      46.568  26.513  35.986  1.00  0.00     0.022 A 
BRANCH  89  93
ATOM     93  S   UNL A   1      45.034  24.376  36.913  1.00  0.00     0.124 S 
ATOM     94  O   UNL A   1      44.069  23.667  36.078  1.00  0.00    -0.237 OA
ATOM     95  O   UNL A   1      46.369  23.794  36.981  1.00  0.00    -0.237 OA
ATOM     96  O   UNL A   1      44.508  24.867  38.187  1.00  0.00    -0.744 OA
ENDBRANCH  89  93
ENDBRANCH  63  86
ENDBRANCH  37  38
ENDBRANCH  29  32
ENDBRANCH  27  28
ENDBRANCH  26  27
ENDBRANCH   1  26
TORSDOF 18
ENDMDL
MODEL 3
REMARK VINA RESULT:     -11.9      5.250     10.239
REMARK SMILES Cc1ncccc1C(=O)Nc1ccccc1C(=O)NCCCCCCNC(=O)c1ccc(-c2c3nc(c(-c4cc(S(=O)(=O)[O-])ccc4F)c4ccc([nH]4)c(-c4cc(S(=O)(=O)[O-])ccc4F)c4nc(c(-c5cc(S(=O)(=O)[O-])ccc5F)c5ccc2[nH]5)C=C4)C=C3)cc1
REMARK SMILES IDX 23 1 22 2 21 3 20 4 19 5 17 6 18 7 16 9 11 10 12 11 13 12
REMARK SMILES IDX 15 13 14 14 10 15 8 16 9 17 7 19 1 20 2 21 3 22 4 23 6 24
REMARK SMILES IDX 5 25 24 26 25 27 26 28 27 29 28 31 29 32 30 33 91 34 31 35
REMARK SMILES IDX 90 36 32 37 33 38 34 39 84 40 35 41 89 42 83 43 85 44 36 45
REMARK SMILES IDX 88 46 82 47 81 48 37 50 69 51 49 52 68 53 50 54 53 55 67 56
REMARK SMILES IDX 86 57 51 58 52 59 66 61 87 62 54 63 38 64 39 65 47 66 40 67
REMARK SMILES IDX 46 68 48 69 45 70 41 71 42 72 43 73 44 74 70 75 71 76 79 77
REMARK SMILES IDX 72 78 78 79 80 80 77 81 73 82 74 83 75 84 76 85 55 86 56 87
REMARK SMILES IDX 64 88 57 89 63 90 65 91 62 92 58 93 59 94 60 95 61 96
REMARK H PARENT 19 8 10 18 26 30 85 49 53 60
REMARK Flexibility Score: inf
ROOT
ATOM      1  C   UNL A   1      32.027  29.950  25.271  1.00  0.00     0.002 C 
ENDROOT
BRANCH   1   2
ATOM      2  C   UNL A   1      30.813  29.476  24.466  1.00  0.00     0.002 C 
BRANCH   2   3
ATOM      3  C   UNL A   1      31.008  29.257  22.960  1.00  0.00     0.021 C 
BRANCH   3   4
ATOM      4  C   UNL A   1      30.700  27.858  22.437  1.00  0.00     0.116 C 
BRANCH   4   5
ATOM      5  N   UNL A   1      31.789  27.241  21.710  1.00  0.00    -0.352 N 
ATOM      6  C   UNL A   1      32.791  26.406  22.144  1.00  0.00     0.253 C 
ATOM      7  O   UNL A   1      33.613  26.026  21.307  1.00  0.00    -0.269 OA
ATOM      8  H   UNL A   1      31.816  27.455  20.750  1.00  0.00     0.163 HD
BRANCH   6   9
ATOM      9  C   UNL A   1      32.998  26.032  23.576  1.00  0.00     0.063 A 
ATOM     10  C   UNL A   1      32.612  24.852  24.234  1.00  0.00     0.054 A 
ATOM     11  C   UNL A   1      32.680  24.799  25.643  1.00  0.00     0.027 A 
ATOM     12  C   UNL A   1      33.298  25.805  26.380  1.00  0.00     0.002 A 
ATOM     13  C   UNL A   1      33.639  27.033  24.343  1.00  0.00     0.016 A 
ATOM     14  C   UNL A   1      33.817  26.908  25.723  1.00  0.00     0.001 A 
BRANCH  10  15
ATOM     15  N   UNL A   1      32.238  23.620  23.670  1.00  0.00    -0.321 N 
ATOM     16  C   UNL A   1      32.912  22.453  23.415  1.00  0.00     0.257 C 
ATOM     17  O   UNL A   1      32.306  21.571  22.800  1.00  0.00    -0.269 OA
ATOM     18  H   UNL A   1      31.290  23.588  23.401  1.00  0.00     0.170 HD
BRANCH  16  19
ATOM     19  C   UNL A   1      34.302  22.175  23.827  1.00  0.00     0.061 A 
ATOM     20  C   UNL A   1      33.817  20.159  25.330  1.00  0.00     0.067 C 
ATOM     21  C   UNL A   1      34.722  21.168  24.696  1.00  0.00     0.050 A 
ATOM     22  N   UNL A   1      36.041  20.984  24.999  1.00  0.00    -0.261 NA
ATOM     23  C   UNL A   1      36.953  21.771  24.389  1.00  0.00     0.111 A 
ATOM     24  C   UNL A   1      35.287  22.925  23.166  1.00  0.00     0.017 A 
ATOM     25  C   UNL A   1      36.631  22.731  23.451  1.00  0.00     0.021 A 
ENDBRANCH  16  19
ENDBRANCH  10  15
ENDBRANCH   6   9
ENDBRANCH   4   5
ENDBRANCH   3   4
ENDBRANCH   2   3
ENDBRANCH   1   2
BRANCH   1  26
ATOM     26  C   UNL A   1      31.751  30.703  26.575  1.00  0.00     0.021 C 
BRANCH  26  27
ATOM     27  C   UNL A   1      32.918  31.503  27.144  1.00  0.00     0.116 C 
BRANCH  27  28
ATOM     28  N   UNL A   1      32.602  32.907  27.341  1.00  0.00    -0.352 N 
ATOM     29  C   UNL A   1      33.179  33.830  28.180  1.00  0.00     0.251 C 
ATOM     30  H   UNL A   1      31.864  33.251  26.787  1.00  0.00     0.163 HD
ATOM     31  O   UNL A   1      32.677  34.940  28.303  1.00  0.00    -0.269 OA
BRANCH  29  32
ATOM     32  C   UNL A   1      34.383  33.464  28.959  1.00  0.00     0.039 A 
ATOM     33  C   UNL A   1      34.232  32.667  30.096  1.00  0.00     0.014 A 
ATOM     34  C   UNL A   1      35.655  33.883  28.558  1.00  0.00     0.014 A 
ATOM     35  C   UNL A   1      35.363  32.213  30.778  1.00  0.00     0.010 A 
ATOM     36  C   UNL A   1      36.782  33.374  29.197  1.00  0.00     0.010 A 
ATOM     37  C   UNL A   1      36.648  32.520  30.302  1.00  0.00    -0.014 A 
BRANCH  37  38
ATOM     38  C   UNL A   1      37.863  31.917  30.908  1.00  0.00     0.031 A 
ATOM     39  C   UNL A   1      38.629  30.853  30.176  1.00  0.00     0.074 A 
ATOM     40  C   UNL A   1      38.222  32.271  32.157  1.00  0.00     0.049 A 
ATOM     41  N   UNL A   1      39.650  30.141  30.579  1.00  0.00    -0.248 NA
ATOM     42  C   UNL A   1      38.163  30.528  28.822  1.00  0.00     0.031 C 
ATOM     43  C   UNL A   1      37.542  33.277  32.976  1.00  0.00     0.029 A 
ATOM     44  N   UNL A   1      39.238  31.820  32.961  1.00  0.00    -0.354 N 
ATOM     45  C   UNL A   1      39.945  29.275  29.531  1.00  0.00     0.074 A 
ATOM     46  C   UNL A   1      38.949  29.512  28.505  1.00  0.00     0.031 C 
ATOM     47  C   UNL A   1      38.180  33.390  34.151  1.00  0.00     0.029 A 
ATOM     48  C   UNL A   1      39.273  32.424  34.197  1.00  0.00     0.049 A 
ATOM     49  H   UNL A   1      39.880  31.129  32.681  1.00  0.00     0.167 HD
ATOM     50  C   UNL A   1      40.962  28.382  29.430  1.00  0.00     0.034 A 
ATOM     51  C   UNL A   1      40.082  32.213  35.253  1.00  0.00     0.034 A 
ATOM     52  C   UNL A   1      41.935  28.156  30.473  1.00  0.00     0.049 A 
ATOM     53  C   UNL A   1      41.146  31.152  35.155  1.00  0.00     0.074 A 
ATOM     54  C   UNL A   1      43.041  27.325  30.456  1.00  0.00     0.029 A 
ATOM     55  N   UNL A   1      41.904  28.745  31.732  1.00  0.00    -0.354 N 
ATOM     56  N   UNL A   1      41.451  30.379  34.137  1.00  0.00    -0.248 NA
ATOM     57  C   UNL A   1      41.970  30.930  36.349  1.00  0.00     0.031 C 
ATOM     58  C   UNL A   1      43.623  27.342  31.729  1.00  0.00     0.029 A 
ATOM     59  C   UNL A   1      42.936  28.250  32.517  1.00  0.00     0.049 A 
ATOM     60  H   UNL A   1      41.247  29.416  32.024  1.00  0.00     0.167 HD
ATOM     61  C   UNL A   1      42.519  29.596  34.563  1.00  0.00     0.074 A 
ATOM     62  C   UNL A   1      42.812  29.999  35.924  1.00  0.00     0.031 C 
ATOM     63  C   UNL A   1      43.201  28.637  33.885  1.00  0.00     0.034 A 
BRANCH  50  64
ATOM     64  C   UNL A   1      41.032  27.558  28.164  1.00  0.00     0.023 A 
ATOM     65  C   UNL A   1      40.663  26.200  28.145  1.00  0.00     0.031 A 
ATOM     66  C   UNL A   1      41.535  28.114  26.975  1.00  0.00     0.131 A 
ATOM     67  C   UNL A   1      40.905  25.423  27.002  1.00  0.00     0.055 A 
ATOM     68  C   UNL A   1      41.677  27.359  25.809  1.00  0.00     0.041 A 
ATOM     69  F   UNL A   1      41.923  29.398  26.930  1.00  0.00    -0.206 F 
ATOM     70  C   UNL A   1      41.384  25.998  25.824  1.00  0.00     0.022 A 
BRANCH  67  71
ATOM     71  S   UNL A   1      40.775  23.619  27.146  1.00  0.00     0.124 S 
ATOM     72  O   UNL A   1      41.402  23.381  28.444  1.00  0.00    -0.237 OA
ATOM     73  O   UNL A   1      39.334  23.401  27.082  1.00  0.00    -0.237 OA
ATOM     74  O   UNL A   1      41.534  23.128  25.998  1.00  0.00    -0.744 OA
ENDBRANCH  67  71
ENDBRANCH  50  64
BRANCH  51  75
ATOM     75  C   UNL A   1      39.917  33.017  36.497  1.00  0.00     0.023 A 
ATOM     76  C   UNL A   1      40.688  34.169  36.709  1.00  0.00     0.031 A 
ATOM     77  C   UNL A   1      38.998  32.643  37.494  1.00  0.00     0.131 A 
ATOM     78  C   UNL A   1      40.548  34.894  37.903  1.00  0.00     0.055 A 
ATOM     79  C   UNL A   1      38.827  33.395  38.658  1.00  0.00     0.041 A 
ATOM     80  F   UNL A   1      38.236  31.548  37.340  1.00  0.00    -0.206 F 
ATOM     81  C   UNL A   1      39.612  34.524  38.871  1.00  0.00     0.022 A 
BRANCH  78  82
ATOM     82  S   UNL A   1      41.659  36.296  38.200  1.00  0.00     0.124 S 
ATOM     83  O   UNL A   1      42.103  36.613  36.847  1.00  0.00    -0.237 OA
ATOM     84  O   UNL A   1      40.766  37.264  38.827  1.00  0.00    -0.237 OA
ATOM     85  O   UNL A   1      42.684  35.737  39.078  1.00  0.00    -0.744 OA
ENDBRANCH  78  82
ENDBRANCH  51  75
BRANCH  63  86
ATOM     86  C   UNL A   1      44.348  27.971  34.606  1.00  0.00     0.023 A 
ATOM     87  C   UNL A   1      44.175  26.772  35.319  1.00  0.00     0.031 A 
ATOM     88  C   UNL A   1      45.634  28.541  34.574  1.00  0.00     0.131 A 
ATOM     89  C   UNL A   1      45.258  26.204  36.007  1.00  0.00     0.055 A 
ATOM     90  C   UNL A   1      46.721  27.939  35.209  1.00  0.00     0.041 A 
ATOM     91  F   UNL A   1      45.856  29.689  33.914  1.00  0.00    -0.206 F 
ATOM     92  C   UNL A   1      46.535  26.769  35.939  1.00  0.00     0.022 A 
BRANCH  89  93
ATOM     93  S   UNL A   1      44.963  24.755  37.058  1.00  0.00     0.124 S 
ATOM     94  O   UNL A   1      44.284  23.848  36.137  1.00  0.00    -0.237 OA
ATOM     95  O   UNL A   1      46.314  24.370  37.450  1.00  0.00    -0.237 OA
ATOM     96  O   UNL A   1      44.131  25.278  38.140  1.00  0.00    -0.744 OA
ENDBRANCH  89  93
ENDBRANCH  63  86
ENDBRANCH  37  38
ENDBRANCH  29  32
ENDBRANCH  27  28
ENDBRANCH  26  27
ENDBRANCH   1  26
TORSDOF 18
ENDMDL
