MODEL 1
REMARK VINA RESULT:     -11.6      0.000      0.000
REMARK SMILES C=CCc1cccc(-c2ccc([C@@H](C)C(=O)NCCCCCCNC(=O)c3ccc(-c4c5nc(c(-c6cc(S(=O)(=O)[O-])ccc6F)c6ccc([nH]6)c(-c6cc(S(=O)(=O)[O-])ccc6F)c6nc(c(-c7cc(S(=O)(=O)[O-])ccc7F)c7ccc4[nH]7)C=C6)C=C5)cc3)cc2)c1
REMARK SMILES IDX 20 1 19 2 18 3 17 4 15 5 16 6 13 8 14 9 12 10 9 11 10 12
REMARK SMILES IDX 91 13 11 14 90 15 8 16 4 17 5 18 92 19 6 20 7 21 3 22 2 23
REMARK SMILES IDX 1 24 21 25 22 26 23 27 24 28 25 29 26 31 27 32 28 33 89 34
REMARK SMILES IDX 29 35 88 36 30 37 31 38 32 39 82 40 33 41 87 42 81 43 83 44
REMARK SMILES IDX 34 45 86 46 80 47 79 48 35 50 67 51 47 52 66 53 48 54 51 55
REMARK SMILES IDX 65 56 84 57 49 58 50 59 64 61 85 62 52 63 36 64 37 65 45 66
REMARK SMILES IDX 38 67 44 68 46 69 43 70 39 71 40 72 41 73 42 74 68 75 69 76
REMARK SMILES IDX 77 77 70 78 76 79 78 80 75 81 71 82 72 83 73 84 74 85 53 86
REMARK SMILES IDX 54 87 62 88 55 89 61 90 63 91 60 92 56 93 57 94 58 95 59 96
REMARK H PARENT 17 7 24 30 83 49 51 60
REMARK Flexibility Score: inf
ROOT
ATOM      1  C   UNL A   1      35.471  24.014  24.545  1.00  0.00     0.002 C 
ENDROOT
BRANCH   1   2
ATOM      2  C   UNL A   1      34.717  24.715  25.680  1.00  0.00     0.021 C 
BRANCH   2   3
ATOM      3  C   UNL A   1      34.055  26.029  25.261  1.00  0.00     0.116 C 
BRANCH   3   4
ATOM      4  N   UNL A   1      32.960  26.382  26.141  1.00  0.00    -0.356 N 
ATOM      5  C   UNL A   1      31.611  26.317  25.969  1.00  0.00     0.227 C 
ATOM      6  O   UNL A   1      30.917  26.782  26.883  1.00  0.00    -0.274 OA
ATOM      7  H   UNL A   1      33.241  26.729  27.018  1.00  0.00     0.163 HD
BRANCH   5   8
ATOM      8  C   UNL A   1      30.938  25.689  24.739  1.00  0.00     0.105 C 
ATOM      9  C   UNL A   1      29.437  25.970  24.644  1.00  0.00     0.023 C 
BRANCH   8  10
ATOM     10  C   UNL A   1      31.369  24.256  24.471  1.00  0.00    -0.036 A 
ATOM     11  C   UNL A   1      32.005  21.501  24.025  1.00  0.00    -0.018 A 
ATOM     12  C   UNL A   1      32.057  22.448  22.991  1.00  0.00     0.009 A 
ATOM     13  C   UNL A   1      31.667  21.979  25.301  1.00  0.00     0.009 A 
ATOM     14  C   UNL A   1      31.779  23.802  23.216  1.00  0.00     0.005 A 
ATOM     15  C   UNL A   1      31.334  23.322  25.517  1.00  0.00     0.005 A 
BRANCH  11  16
ATOM     16  C   UNL A   1      32.278  20.067  23.769  1.00  0.00    -0.018 A 
ATOM     17  C   UNL A   1      32.848  17.813  24.598  1.00  0.00    -0.044 A 
ATOM     18  C   UNL A   1      32.742  17.322  23.289  1.00  0.00     0.004 A 
ATOM     19  C   UNL A   1      32.617  19.184  24.816  1.00  0.00     0.012 A 
ATOM     20  C   UNL A   1      32.409  18.169  22.237  1.00  0.00     0.001 A 
ATOM     21  C   UNL A   1      32.187  19.526  22.475  1.00  0.00     0.009 A 
BRANCH  17  22
ATOM     22  C   UNL A   1      33.283  16.862  25.694  1.00  0.00     0.062 C 
BRANCH  22  23
ATOM     23  C   UNL A   1      34.211  15.753  25.283  1.00  0.00    -0.030 C 
ATOM     24  C   UNL A   1      35.547  15.826  25.331  1.00  0.00     0.004 C 
ENDBRANCH  22  23
ENDBRANCH  17  22
ENDBRANCH  11  16
ENDBRANCH   8  10
ENDBRANCH   5   8
ENDBRANCH   3   4
ENDBRANCH   2   3
ENDBRANCH   1   2
BRANCH   1  25
ATOM     25  C   UNL A   1      35.189  22.512  24.409  1.00  0.00     0.002 C 
BRANCH  25  26
ATOM     26  C   UNL A   1      36.134  21.591  25.188  1.00  0.00     0.021 C 
BRANCH  26  27
ATOM     27  C   UNL A   1      37.594  22.038  25.196  1.00  0.00     0.116 C 
BRANCH  27  28
ATOM     28  N   UNL A   1      38.452  21.057  25.842  1.00  0.00    -0.352 N 
ATOM     29  C   UNL A   1      39.649  21.232  26.490  1.00  0.00     0.251 C 
ATOM     30  H   UNL A   1      38.124  20.129  25.811  1.00  0.00     0.163 HD
ATOM     31  O   UNL A   1      40.352  20.258  26.738  1.00  0.00    -0.269 OA
BRANCH  29  32
ATOM     32  C   UNL A   1      40.093  22.591  26.875  1.00  0.00     0.039 A 
ATOM     33  C   UNL A   1      41.013  22.735  27.916  1.00  0.00     0.014 A 
ATOM     34  C   UNL A   1      39.580  23.721  26.231  1.00  0.00     0.014 A 
ATOM     35  C   UNL A   1      41.458  24.009  28.276  1.00  0.00     0.010 A 
ATOM     36  C   UNL A   1      40.077  24.984  26.543  1.00  0.00     0.010 A 
ATOM     37  C   UNL A   1      41.017  25.143  27.573  1.00  0.00    -0.014 A 
BRANCH  37  38
ATOM     38  C   UNL A   1      41.520  26.502  27.907  1.00  0.00     0.031 A 
ATOM     39  C   UNL A   1      42.920  26.901  27.529  1.00  0.00     0.074 A 
ATOM     40  C   UNL A   1      40.736  27.351  28.599  1.00  0.00     0.049 A 
ATOM     41  N   UNL A   1      43.572  28.001  27.806  1.00  0.00    -0.248 NA
ATOM     42  C   UNL A   1      43.701  25.916  26.765  1.00  0.00     0.031 C 
ATOM     43  C   UNL A   1      39.373  27.063  29.053  1.00  0.00     0.029 A 
ATOM     44  N   UNL A   1      40.974  28.623  29.056  1.00  0.00    -0.354 N 
ATOM     45  C   UNL A   1      44.839  27.840  27.255  1.00  0.00     0.074 A 
ATOM     46  C   UNL A   1      44.884  26.508  26.691  1.00  0.00     0.031 C 
ATOM     47  C   UNL A   1      38.892  28.132  29.707  1.00  0.00     0.029 A 
ATOM     48  C   UNL A   1      39.923  29.163  29.762  1.00  0.00     0.049 A 
ATOM     49  H   UNL A   1      41.817  29.104  28.894  1.00  0.00     0.167 HD
ATOM     50  C   UNL A   1      45.863  28.730  27.204  1.00  0.00     0.034 A 
ATOM     51  C   UNL A   1      39.810  30.347  30.397  1.00  0.00     0.034 A 
ATOM     52  C   UNL A   1      45.799  30.056  27.770  1.00  0.00     0.049 A 
ATOM     53  C   UNL A   1      40.970  31.310  30.353  1.00  0.00     0.074 A 
ATOM     54  C   UNL A   1      46.760  31.053  27.743  1.00  0.00     0.029 A 
ATOM     55  N   UNL A   1      44.716  30.572  28.470  1.00  0.00    -0.354 N 
ATOM     56  N   UNL A   1      42.148  31.158  29.791  1.00  0.00    -0.248 NA
ATOM     57  C   UNL A   1      40.781  32.607  31.015  1.00  0.00     0.031 C 
ATOM     58  C   UNL A   1      46.285  32.142  28.482  1.00  0.00     0.029 A 
ATOM     59  C   UNL A   1      44.995  31.860  28.904  1.00  0.00     0.049 A 
ATOM     60  H   UNL A   1      43.871  30.093  28.635  1.00  0.00     0.167 HD
ATOM     61  C   UNL A   1      42.828  32.354  30.008  1.00  0.00     0.074 A 
ATOM     62  C   UNL A   1      41.922  33.220  30.735  1.00  0.00     0.031 C 
ATOM     63  C   UNL A   1      44.085  32.707  29.637  1.00  0.00     0.034 A 
BRANCH  50  64
ATOM     64  C   UNL A   1      47.139  28.281  26.531  1.00  0.00     0.023 A 
ATOM     65  C   UNL A   1      47.272  28.280  25.131  1.00  0.00     0.031 A 
ATOM     66  C   UNL A   1      48.228  27.823  27.293  1.00  0.00     0.131 A 
ATOM     67  C   UNL A   1      48.429  27.756  24.536  1.00  0.00     0.055 A 
ATOM     68  C   UNL A   1      49.412  27.382  26.697  1.00  0.00     0.041 A 
ATOM     69  F   UNL A   1      48.155  27.780  28.633  1.00  0.00    -0.206 F 
ATOM     70  C   UNL A   1      49.512  27.331  25.310  1.00  0.00     0.022 A 
BRANCH  67  71
ATOM     71  S   UNL A   1      48.438  27.498  22.740  1.00  0.00     0.124 S 
ATOM     72  O   UNL A   1      49.728  28.073  22.367  1.00  0.00    -0.237 OA
ATOM     73  O   UNL A   1      48.328  26.049  22.629  1.00  0.00    -0.237 OA
ATOM     74  O   UNL A   1      47.273  28.251  22.281  1.00  0.00    -0.744 OA
ENDBRANCH  67  71
ENDBRANCH  50  64
BRANCH  51  75
ATOM     75  C   UNL A   1      38.564  30.688  31.142  1.00  0.00     0.023 A 
ATOM     76  C   UNL A   1      37.505  31.366  30.517  1.00  0.00     0.031 A 
ATOM     77  C   UNL A   1      38.432  30.378  32.508  1.00  0.00     0.131 A 
ATOM     78  C   UNL A   1      36.384  31.757  31.266  1.00  0.00     0.055 A 
ATOM     79  C   UNL A   1      37.290  30.719  33.235  1.00  0.00     0.041 A 
ATOM     80  F   UNL A   1      39.411  29.727  33.155  1.00  0.00    -0.206 F 
ATOM     81  C   UNL A   1      36.263  31.426  32.618  1.00  0.00     0.022 A 
BRANCH  78  82
ATOM     82  S   UNL A   1      35.124  32.789  30.469  1.00  0.00     0.124 S 
ATOM     83  O   UNL A   1      35.834  34.052  30.306  1.00  0.00    -0.237 OA
ATOM     84  O   UNL A   1      34.852  32.041  29.245  1.00  0.00    -0.237 OA
ATOM     85  O   UNL A   1      34.034  32.805  31.441  1.00  0.00    -0.744 OA
ENDBRANCH  78  82
ENDBRANCH  51  75
BRANCH  63  86
ATOM     86  C   UNL A   1      44.531  34.110  29.975  1.00  0.00     0.023 A 
ATOM     87  C   UNL A   1      44.310  35.190  29.104  1.00  0.00     0.031 A 
ATOM     88  C   UNL A   1      45.198  34.363  31.188  1.00  0.00     0.131 A 
ATOM     89  C   UNL A   1      44.802  36.463  29.430  1.00  0.00     0.055 A 
ATOM     90  C   UNL A   1      45.630  35.643  31.536  1.00  0.00     0.041 A 
ATOM     91  F   UNL A   1      45.437  33.369  32.057  1.00  0.00    -0.206 F 
ATOM     92  C   UNL A   1      45.444  36.700  30.648  1.00  0.00     0.022 A 
BRANCH  89  93
ATOM     93  S   UNL A   1      44.672  37.788  28.199  1.00  0.00     0.124 S 
ATOM     94  O   UNL A   1      45.493  38.837  28.796  1.00  0.00    -0.237 OA
ATOM     95  O   UNL A   1      45.216  37.157  27.001  1.00  0.00    -0.237 OA
ATOM     96  O   UNL A   1      43.240  38.074  28.151  1.00  0.00    -0.744 OA
ENDBRANCH  89  93
ENDBRANCH  63  86
ENDBRANCH  37  38
ENDBRANCH  29  32
ENDBRANCH  27  28
ENDBRANCH  26  27
ENDBRANCH  25  26
ENDBRANCH   1  25
TORSDOF 20
ENDMDL
MODEL 2
REMARK VINA RESULT:     -11.3      4.947     10.301
REMARK SMILES C=CCc1cccc(-c2ccc([C@@H](C)C(=O)NCCCCCCNC(=O)c3ccc(-c4c5nc(c(-c6cc(S(=O)(=O)[O-])ccc6F)c6ccc([nH]6)c(-c6cc(S(=O)(=O)[O-])ccc6F)c6nc(c(-c7cc(S(=O)(=O)[O-])ccc7F)c7ccc4[nH]7)C=C6)C=C5)cc3)cc2)c1
REMARK SMILES IDX 20 1 19 2 18 3 17 4 15 5 16 6 13 8 14 9 12 10 9 11 10 12
REMARK SMILES IDX 91 13 11 14 90 15 8 16 4 17 5 18 92 19 6 20 7 21 3 22 2 23
REMARK SMILES IDX 1 24 21 25 22 26 23 27 24 28 25 29 26 31 27 32 28 33 89 34
REMARK SMILES IDX 29 35 88 36 30 37 31 38 32 39 82 40 33 41 87 42 81 43 83 44
REMARK SMILES IDX 34 45 86 46 80 47 79 48 35 50 67 51 47 52 66 53 48 54 51 55
REMARK SMILES IDX 65 56 84 57 49 58 50 59 64 61 85 62 52 63 36 64 37 65 45 66
REMARK SMILES IDX 38 67 44 68 46 69 43 70 39 71 40 72 41 73 42 74 68 75 69 76
REMARK SMILES IDX 77 77 70 78 76 79 78 80 75 81 71 82 72 83 73 84 74 85 53 86
REMARK SMILES IDX 54 87 62 88 55 89 61 90 63 91 60 92 56 93 57 94 58 95 59 96
REMARK H PARENT 17 7 24 30 83 49 51 60
REMARK Flexibility Score: inf
ROOT
ATOM      1  C   UNL A   1      33.005  27.322  25.364  1.00  0.00     0.002 C 
ENDROOT
BRANCH   1   2
ATOM      2  C   UNL A   1      34.217  26.518  25.847  1.00  0.00     0.021 C 
BRANCH   2   3
ATOM      3  C   UNL A   1      34.064  25.006  25.675  1.00  0.00     0.116 C 
BRANCH   3   4
ATOM      4  N   UNL A   1      34.741  24.531  24.486  1.00  0.00    -0.356 N 
ATOM      5  C   UNL A   1      34.306  23.764  23.449  1.00  0.00     0.227 C 
ATOM      6  O   UNL A   1      35.155  23.443  22.608  1.00  0.00    -0.274 OA
ATOM      7  H   UNL A   1      35.681  24.813  24.416  1.00  0.00     0.163 HD
BRANCH   5   8
ATOM      8  C   UNL A   1      32.847  23.316  23.273  1.00  0.00     0.105 C 
ATOM      9  C   UNL A   1      32.665  22.177  22.269  1.00  0.00     0.023 C 
BRANCH   8  10
ATOM     10  C   UNL A   1      31.862  24.469  23.163  1.00  0.00    -0.036 A 
ATOM     11  C   UNL A   1      30.044  26.680  23.141  1.00  0.00    -0.018 A 
ATOM     12  C   UNL A   1      31.143  26.619  22.270  1.00  0.00     0.009 A 
ATOM     13  C   UNL A   1      29.854  25.582  23.995  1.00  0.00     0.009 A 
ATOM     14  C   UNL A   1      32.013  25.521  22.257  1.00  0.00     0.005 A 
ATOM     15  C   UNL A   1      30.755  24.510  24.023  1.00  0.00     0.005 A 
BRANCH  11  16
ATOM     16  C   UNL A   1      29.145  27.858  23.162  1.00  0.00    -0.018 A 
ATOM     17  C   UNL A   1      28.776  30.277  22.839  1.00  0.00    -0.044 A 
ATOM     18  C   UNL A   1      27.420  30.096  23.145  1.00  0.00     0.004 A 
ATOM     19  C   UNL A   1      29.620  29.151  22.856  1.00  0.00     0.012 A 
ATOM     20  C   UNL A   1      26.924  28.832  23.450  1.00  0.00     0.001 A 
ATOM     21  C   UNL A   1      27.779  27.729  23.465  1.00  0.00     0.009 A 
BRANCH  17  22
ATOM     22  C   UNL A   1      29.277  31.684  22.584  1.00  0.00     0.062 C 
BRANCH  22  23
ATOM     23  C   UNL A   1      28.355  32.589  21.814  1.00  0.00    -0.030 C 
ATOM     24  C   UNL A   1      27.952  32.368  20.556  1.00  0.00     0.004 C 
ENDBRANCH  22  23
ENDBRANCH  17  22
ENDBRANCH  11  16
ENDBRANCH   8  10
ENDBRANCH   5   8
ENDBRANCH   3   4
ENDBRANCH   2   3
ENDBRANCH   1   2
BRANCH   1  25
ATOM     25  C   UNL A   1      31.961  27.635  26.444  1.00  0.00     0.002 C 
BRANCH  25  26
ATOM     26  C   UNL A   1      32.053  29.035  27.062  1.00  0.00     0.021 C 
BRANCH  26  27
ATOM     27  C   UNL A   1      33.470  29.589  27.174  1.00  0.00     0.116 C 
BRANCH  27  28
ATOM     28  N   UNL A   1      33.468  31.030  27.372  1.00  0.00    -0.352 N 
ATOM     29  C   UNL A   1      34.296  31.809  28.142  1.00  0.00     0.251 C 
ATOM     30  H   UNL A   1      32.770  31.520  26.881  1.00  0.00     0.163 HD
ATOM     31  O   UNL A   1      33.977  32.968  28.393  1.00  0.00    -0.269 OA
BRANCH  29  32
ATOM     32  C   UNL A   1      35.558  31.250  28.677  1.00  0.00     0.039 A 
ATOM     33  C   UNL A   1      35.501  30.304  29.702  1.00  0.00     0.014 A 
ATOM     34  C   UNL A   1      36.795  31.682  28.188  1.00  0.00     0.014 A 
ATOM     35  C   UNL A   1      36.683  29.751  30.201  1.00  0.00     0.010 A 
ATOM     36  C   UNL A   1      37.968  31.080  28.638  1.00  0.00     0.010 A 
ATOM     37  C   UNL A   1      37.925  30.112  29.653  1.00  0.00    -0.014 A 
BRANCH  37  38
ATOM     38  C   UNL A   1      39.189  29.495  30.135  1.00  0.00     0.031 A 
ATOM     39  C   UNL A   1      39.906  30.077  31.323  1.00  0.00     0.074 A 
ATOM     40  C   UNL A   1      39.719  28.452  29.467  1.00  0.00     0.049 A 
ATOM     41  N   UNL A   1      41.059  29.741  31.841  1.00  0.00    -0.248 NA
ATOM     42  C   UNL A   1      39.250  31.208  31.997  1.00  0.00     0.031 C 
ATOM     43  C   UNL A   1      39.134  27.824  28.279  1.00  0.00     0.029 A 
ATOM     44  N   UNL A   1      40.874  27.741  29.680  1.00  0.00    -0.354 N 
ATOM     45  C   UNL A   1      41.271  30.621  32.898  1.00  0.00     0.074 A 
ATOM     46  C   UNL A   1      40.159  31.547  32.900  1.00  0.00     0.031 C 
ATOM     47  C   UNL A   1      39.925  26.815  27.881  1.00  0.00     0.029 A 
ATOM     48  C   UNL A   1      41.094  26.750  28.752  1.00  0.00     0.049 A 
ATOM     49  H   UNL A   1      41.488  27.924  30.428  1.00  0.00     0.167 HD
ATOM     50  C   UNL A   1      42.286  30.639  33.798  1.00  0.00     0.034 A 
ATOM     51  C   UNL A   1      42.127  25.897  28.608  1.00  0.00     0.034 A 
ATOM     52  C   UNL A   1      43.387  29.704  33.783  1.00  0.00     0.049 A 
ATOM     53  C   UNL A   1      43.261  25.953  29.602  1.00  0.00     0.074 A 
ATOM     54  C   UNL A   1      44.448  29.606  34.666  1.00  0.00     0.029 A 
ATOM     55  N   UNL A   1      43.572  28.708  32.832  1.00  0.00    -0.354 N 
ATOM     56  N   UNL A   1      43.425  26.765  30.622  1.00  0.00    -0.248 NA
ATOM     57  C   UNL A   1      44.339  24.971  29.434  1.00  0.00     0.031 C 
ATOM     58  C   UNL A   1      45.305  28.598  34.213  1.00  0.00     0.029 A 
ATOM     59  C   UNL A   1      44.742  28.011  33.091  1.00  0.00     0.049 A 
ATOM     60  H   UNL A   1      42.960  28.524  32.082  1.00  0.00     0.167 HD
ATOM     61  C   UNL A   1      44.612  26.370  31.234  1.00  0.00     0.074 A 
ATOM     62  C   UNL A   1      45.109  25.237  30.479  1.00  0.00     0.031 C 
ATOM     63  C   UNL A   1      45.231  26.890  32.323  1.00  0.00     0.034 A 
BRANCH  50  64
ATOM     64  C   UNL A   1      42.257  31.717  34.855  1.00  0.00     0.023 A 
ATOM     65  C   UNL A   1      41.340  31.680  35.920  1.00  0.00     0.031 A 
ATOM     66  C   UNL A   1      43.136  32.813  34.786  1.00  0.00     0.131 A 
ATOM     67  C   UNL A   1      41.266  32.752  36.823  1.00  0.00     0.055 A 
ATOM     68  C   UNL A   1      43.117  33.835  35.738  1.00  0.00     0.041 A 
ATOM     69  F   UNL A   1      44.022  32.917  33.783  1.00  0.00    -0.206 F 
ATOM     70  C   UNL A   1      42.167  33.817  36.755  1.00  0.00     0.022 A 
BRANCH  67  71
ATOM     71  S   UNL A   1      39.882  32.804  37.993  1.00  0.00     0.124 S 
ATOM     72  O   UNL A   1      40.531  32.392  39.236  1.00  0.00    -0.237 OA
ATOM     73  O   UNL A   1      39.463  34.198  37.923  1.00  0.00    -0.237 OA
ATOM     74  O   UNL A   1      38.933  31.838  37.444  1.00  0.00    -0.744 OA
ENDBRANCH  67  71
ENDBRANCH  50  64
BRANCH  51  75
ATOM     75  C   UNL A   1      42.155  24.927  27.475  1.00  0.00     0.023 A 
ATOM     76  C   UNL A   1      41.428  23.727  27.527  1.00  0.00     0.031 A 
ATOM     77  C   UNL A   1      42.947  25.169  26.337  1.00  0.00     0.131 A 
ATOM     78  C   UNL A   1      41.546  22.792  26.488  1.00  0.00     0.055 A 
ATOM     79  C   UNL A   1      43.016  24.260  25.280  1.00  0.00     0.041 A 
ATOM     80  F   UNL A   1      43.658  26.302  26.232  1.00  0.00    -0.206 F 
ATOM     81  C   UNL A   1      42.324  23.056  25.358  1.00  0.00     0.022 A 
BRANCH  78  82
ATOM     82  S   UNL A   1      40.739  21.178  26.676  1.00  0.00     0.124 S 
ATOM     83  O   UNL A   1      39.417  21.441  26.120  1.00  0.00    -0.237 OA
ATOM     84  O   UNL A   1      41.608  20.313  25.885  1.00  0.00    -0.237 OA
ATOM     85  O   UNL A   1      40.777  20.946  28.118  1.00  0.00    -0.744 OA
ENDBRANCH  78  82
ENDBRANCH  51  75
BRANCH  63  86
ATOM     86  C   UNL A   1      46.495  26.205  32.785  1.00  0.00     0.023 A 
ATOM     87  C   UNL A   1      46.469  25.127  33.686  1.00  0.00     0.031 A 
ATOM     88  C   UNL A   1      47.747  26.650  32.321  1.00  0.00     0.131 A 
ATOM     89  C   UNL A   1      47.672  24.566  34.139  1.00  0.00     0.055 A 
ATOM     90  C   UNL A   1      48.938  26.047  32.727  1.00  0.00     0.041 A 
ATOM     91  F   UNL A   1      47.832  27.676  31.461  1.00  0.00    -0.206 F 
ATOM     92  C   UNL A   1      48.905  25.007  33.652  1.00  0.00     0.022 A 
BRANCH  89  93
ATOM     93  S   UNL A   1      47.609  23.310  35.447  1.00  0.00     0.124 S 
ATOM     94  O   UNL A   1      47.830  22.079  34.695  1.00  0.00    -0.237 OA
ATOM     95  O   UNL A   1      48.696  23.722  36.328  1.00  0.00    -0.237 OA
ATOM     96  O   UNL A   1      46.267  23.463  36.006  1.00  0.00    -0.744 OA
ENDBRANCH  89  93
ENDBRANCH  63  86
ENDBRANCH  37  38
ENDBRANCH  29  32
ENDBRANCH  27  28
ENDBRANCH  26  27
ENDBRANCH  25  26
ENDBRANCH   1  25
TORSDOF 20
ENDMDL
MODEL 3
REMARK VINA RESULT:     -11.0      2.558      5.460
REMARK SMILES C=CCc1cccc(-c2ccc([C@@H](C)C(=O)NCCCCCCNC(=O)c3ccc(-c4c5nc(c(-c6cc(S(=O)(=O)[O-])ccc6F)c6ccc([nH]6)c(-c6cc(S(=O)(=O)[O-])ccc6F)c6nc(c(-c7cc(S(=O)(=O)[O-])ccc7F)c7ccc4[nH]7)C=C6)C=C5)cc3)cc2)c1
REMARK SMILES IDX 20 1 19 2 18 3 17 4 15 5 16 6 13 8 14 9 12 10 9 11 10 12
REMARK SMILES IDX 91 13 11 14 90 15 8 16 4 17 5 18 92 19 6 20 7 21 3 22 2 23
REMARK SMILES IDX 1 24 21 25 22 26 23 27 24 28 25 29 26 31 27 32 28 33 89 34
REMARK SMILES IDX 29 35 88 36 30 37 31 38 32 39 82 40 33 41 87 42 81 43 83 44
REMARK SMILES IDX 34 45 86 46 80 47 79 48 35 50 67 51 47 52 66 53 48 54 51 55
REMARK SMILES IDX 65 56 84 57 49 58 50 59 64 61 85 62 52 63 36 64 37 65 45 66
REMARK SMILES IDX 38 67 44 68 46 69 43 70 39 71 40 72 41 73 42 74 68 75 69 76
REMARK SMILES IDX 77 77 70 78 76 79 78 80 75 81 71 82 72 83 73 84 74 85 53 86
REMARK SMILES IDX 54 87 62 88 55 89 61 90 63 91 60 92 56 93 57 94 58 95 59 96
REMARK H PARENT 17 7 24 30 83 49 51 60
REMARK Flexibility Score: inf
ROOT
ATOM      1  C   UNL A   1      33.853  23.579  23.365  1.00  0.00     0.002 C 
ENDROOT
BRANCH   1   2
ATOM      2  C   UNL A   1      32.584  22.769  23.653  1.00  0.00     0.021 C 
BRANCH   2   3
ATOM      3  C   UNL A   1      31.290  23.566  23.480  1.00  0.00     0.116 C 
BRANCH   3   4
ATOM      4  N   UNL A   1      31.456  24.664  22.550  1.00  0.00    -0.356 N 
ATOM      5  C   UNL A   1      31.136  25.983  22.649  1.00  0.00     0.227 C 
ATOM      6  O   UNL A   1      31.321  26.671  21.637  1.00  0.00    -0.274 OA
ATOM      7  H   UNL A   1      31.877  24.411  21.697  1.00  0.00     0.163 HD
BRANCH   5   8
ATOM      8  C   UNL A   1      30.594  26.635  23.930  1.00  0.00     0.105 C 
ATOM      9  C   UNL A   1      29.236  27.315  23.752  1.00  0.00     0.023 C 
BRANCH   8  10
ATOM     10  C   UNL A   1      31.639  27.420  24.706  1.00  0.00    -0.036 A 
ATOM     11  C   UNL A   1      33.462  28.981  26.266  1.00  0.00    -0.018 A 
ATOM     12  C   UNL A   1      33.517  27.579  26.250  1.00  0.00     0.009 A 
ATOM     13  C   UNL A   1      32.496  29.584  25.445  1.00  0.00     0.009 A 
ATOM     14  C   UNL A   1      32.647  26.816  25.460  1.00  0.00     0.005 A 
ATOM     15  C   UNL A   1      31.589  28.822  24.698  1.00  0.00     0.005 A 
BRANCH  11  16
ATOM     16  C   UNL A   1      34.372  29.775  27.124  1.00  0.00    -0.018 A 
ATOM     17  C   UNL A   1      35.111  31.951  28.026  1.00  0.00    -0.044 A 
ATOM     18  C   UNL A   1      36.069  31.287  28.804  1.00  0.00     0.004 A 
ATOM     19  C   UNL A   1      34.278  31.182  27.193  1.00  0.00     0.012 A 
ATOM     20  C   UNL A   1      36.184  29.900  28.758  1.00  0.00     0.001 A 
ATOM     21  C   UNL A   1      35.350  29.157  27.922  1.00  0.00     0.009 A 
BRANCH  17  22
ATOM     22  C   UNL A   1      35.076  33.466  28.062  1.00  0.00     0.062 C 
BRANCH  22  23
ATOM     23  C   UNL A   1      34.335  34.086  29.214  1.00  0.00    -0.030 C 
ATOM     24  C   UNL A   1      33.152  34.705  29.109  1.00  0.00     0.004 C 
ENDBRANCH  22  23
ENDBRANCH  17  22
ENDBRANCH  11  16
ENDBRANCH   8  10
ENDBRANCH   5   8
ENDBRANCH   3   4
ENDBRANCH   2   3
ENDBRANCH   1   2
BRANCH   1  25
ATOM     25  C   UNL A   1      34.680  23.949  24.604  1.00  0.00     0.002 C 
BRANCH  25  26
ATOM     26  C   UNL A   1      36.059  23.288  24.696  1.00  0.00     0.021 C 
BRANCH  26  27
ATOM     27  C   UNL A   1      36.695  23.334  26.083  1.00  0.00     0.116 C 
BRANCH  27  28
ATOM     28  N   UNL A   1      37.621  22.230  26.285  1.00  0.00    -0.352 N 
ATOM     29  C   UNL A   1      38.981  22.250  26.469  1.00  0.00     0.251 C 
ATOM     30  H   UNL A   1      37.210  21.335  26.293  1.00  0.00     0.163 HD
ATOM     31  O   UNL A   1      39.622  21.210  26.358  1.00  0.00    -0.269 OA
BRANCH  29  32
ATOM     32  C   UNL A   1      39.669  23.521  26.786  1.00  0.00     0.039 A 
ATOM     33  C   UNL A   1      40.424  23.611  27.957  1.00  0.00     0.014 A 
ATOM     34  C   UNL A   1      39.543  24.632  25.945  1.00  0.00     0.014 A 
ATOM     35  C   UNL A   1      41.098  24.797  28.258  1.00  0.00     0.010 A 
ATOM     36  C   UNL A   1      40.270  25.790  26.211  1.00  0.00     0.010 A 
ATOM     37  C   UNL A   1      41.051  25.887  27.373  1.00  0.00    -0.014 A 
BRANCH  37  38
ATOM     38  C   UNL A   1      41.804  27.139  27.651  1.00  0.00     0.031 A 
ATOM     39  C   UNL A   1      43.213  27.298  27.149  1.00  0.00     0.074 A 
ATOM     40  C   UNL A   1      41.238  28.104  28.402  1.00  0.00     0.049 A 
ATOM     41  N   UNL A   1      44.063  28.271  27.359  1.00  0.00    -0.248 NA
ATOM     42  C   UNL A   1      43.746  26.201  26.328  1.00  0.00     0.031 C 
ATOM     43  C   UNL A   1      39.891  28.048  28.975  1.00  0.00     0.029 A 
ATOM     44  N   UNL A   1      41.726  29.315  28.827  1.00  0.00    -0.354 N 
ATOM     45  C   UNL A   1      45.232  27.902  26.701  1.00  0.00     0.074 A 
ATOM     46  C   UNL A   1      45.001  26.585  26.147  1.00  0.00     0.031 C 
ATOM     47  C   UNL A   1      39.657  29.178  29.660  1.00  0.00     0.029 A 
ATOM     48  C   UNL A   1      40.848  30.020  29.617  1.00  0.00     0.049 A 
ATOM     49  H   UNL A   1      42.621  29.647  28.588  1.00  0.00     0.167 HD
ATOM     50  C   UNL A   1      46.383  28.606  26.554  1.00  0.00     0.034 A 
ATOM     51  C   UNL A   1      40.992  31.201  30.249  1.00  0.00     0.034 A 
ATOM     52  C   UNL A   1      46.594  29.920  27.113  1.00  0.00     0.049 A 
ATOM     53  C   UNL A   1      42.290  31.955  30.097  1.00  0.00     0.074 A 
ATOM     54  C   UNL A   1      47.703  30.740  26.994  1.00  0.00     0.029 A 
ATOM     55  N   UNL A   1      45.678  30.607  27.901  1.00  0.00    -0.354 N 
ATOM     56  N   UNL A   1      43.372  31.610  29.435  1.00  0.00    -0.248 NA
ATOM     57  C   UNL A   1      42.381  33.260  30.762  1.00  0.00     0.031 C 
ATOM     58  C   UNL A   1      47.485  31.888  27.763  1.00  0.00     0.029 A 
ATOM     59  C   UNL A   1      46.208  31.826  28.298  1.00  0.00     0.049 A 
ATOM     60  H   UNL A   1      44.783  30.276  28.143  1.00  0.00     0.167 HD
ATOM     61  C   UNL A   1      44.260  32.672  29.583  1.00  0.00     0.074 A 
ATOM     62  C   UNL A   1      43.581  33.673  30.379  1.00  0.00     0.031 C 
ATOM     63  C   UNL A   1      45.522  32.810  29.100  1.00  0.00     0.034 A 
BRANCH  50  64
ATOM     64  C   UNL A   1      47.501  27.953  25.777  1.00  0.00     0.023 A 
ATOM     65  C   UNL A   1      47.664  28.171  24.397  1.00  0.00     0.031 A 
ATOM     66  C   UNL A   1      48.400  27.079  26.412  1.00  0.00     0.131 A 
ATOM     67  C   UNL A   1      48.645  27.465  23.684  1.00  0.00     0.055 A 
ATOM     68  C   UNL A   1      49.431  26.444  25.713  1.00  0.00     0.041 A 
ATOM     69  F   UNL A   1      48.285  26.813  27.723  1.00  0.00    -0.206 F 
ATOM     70  C   UNL A   1      49.547  26.623  24.338  1.00  0.00     0.022 A 
BRANCH  67  71
ATOM     71  S   UNL A   1      48.628  27.549  21.873  1.00  0.00     0.124 S 
ATOM     72  O   UNL A   1      47.318  28.145  21.619  1.00  0.00    -0.237 OA
ATOM     73  O   UNL A   1      49.781  28.394  21.585  1.00  0.00    -0.237 OA
ATOM     74  O   UNL A   1      48.759  26.152  21.464  1.00  0.00    -0.744 OA
ENDBRANCH  67  71
ENDBRANCH  50  64
BRANCH  51  75
ATOM     75  C   UNL A   1      39.891  31.743  31.098  1.00  0.00     0.023 A 
ATOM     76  C   UNL A   1      39.797  31.419  32.460  1.00  0.00     0.031 A 
ATOM     77  C   UNL A   1      38.889  32.562  30.545  1.00  0.00     0.131 A 
ATOM     78  C   UNL A   1      38.700  31.867  33.212  1.00  0.00     0.055 A 
ATOM     79  C   UNL A   1      37.830  33.052  31.311  1.00  0.00     0.041 A 
ATOM     80  F   UNL A   1      38.933  32.907  29.248  1.00  0.00    -0.206 F 
ATOM     81  C   UNL A   1      37.723  32.693  32.651  1.00  0.00     0.022 A 
BRANCH  78  82
ATOM     82  S   UNL A   1      38.517  31.277  34.918  1.00  0.00     0.124 S 
ATOM     83  O   UNL A   1      38.388  29.838  34.721  1.00  0.00    -0.237 OA
ATOM     84  O   UNL A   1      39.762  31.733  35.529  1.00  0.00    -0.237 OA
ATOM     85  O   UNL A   1      37.311  31.956  35.384  1.00  0.00    -0.744 OA
ENDBRANCH  78  82
ENDBRANCH  51  75
BRANCH  63  86
ATOM     86  C   UNL A   1      46.226  34.114  29.388  1.00  0.00     0.023 A 
ATOM     87  C   UNL A   1      46.179  35.196  28.493  1.00  0.00     0.031 A 
ATOM     88  C   UNL A   1      46.965  34.269  30.575  1.00  0.00     0.131 A 
ATOM     89  C   UNL A   1      46.904  36.365  28.769  1.00  0.00     0.055 A 
ATOM     90  C   UNL A   1      47.633  35.456  30.875  1.00  0.00     0.041 A 
ATOM     91  F   UNL A   1      47.046  33.268  31.465  1.00  0.00    -0.206 F 
ATOM     92  C   UNL A   1      47.617  36.508  29.963  1.00  0.00     0.022 A 
BRANCH  89  93
ATOM     93  S   UNL A   1      46.981  37.663  27.505  1.00  0.00     0.124 S 
ATOM     94  O   UNL A   1      48.259  38.301  27.803  1.00  0.00    -0.237 OA
ATOM     95  O   UNL A   1      46.924  36.896  26.265  1.00  0.00    -0.237 OA
ATOM     96  O   UNL A   1      45.801  38.481  27.781  1.00  0.00    -0.744 OA
ENDBRANCH  89  93
ENDBRANCH  63  86
ENDBRANCH  37  38
ENDBRANCH  29  32
ENDBRANCH  27  28
ENDBRANCH  26  27
ENDBRANCH  25  26
ENDBRANCH   1  25
TORSDOF 20
ENDMDL
