MODEL 1
REMARK VINA RESULT:     -11.5      0.000      0.000
REMARK SMILES CC1(C)C[C@](CC(=O)NCCCCCCNC(=O)c2ccc(-c3c4nc(c(-c5cc(S(=O)(=O)[O-])ccc5F)c5ccc([nH]5)c(-c5cc(S(=O)(=O)[O-])ccc5F)c5nc(c(-c6cc(S(=O)(=O)[O-])ccc6F)c6ccc3[nH]6)C=C5)C=C4)cc2)([NH+]2CCCC2)C(C)(C)O1
REMARK SMILES IDX 13 1 12 2 11 3 10 4 9 5 7 6 8 7 6 9 5 10 1 11 2 12 3 13 4 14
REMARK SMILES IDX 90 15 87 16 88 17 89 18 82 19 83 20 86 21 84 23 85 24 14 25
REMARK SMILES IDX 15 26 16 27 17 28 18 30 19 31 20 32 81 33 21 34 80 35 22 36
REMARK SMILES IDX 23 37 24 38 74 39 25 40 79 41 73 42 75 43 26 44 78 45 72 46
REMARK SMILES IDX 71 47 27 49 59 50 39 51 58 52 40 53 43 54 57 55 76 56 41 57
REMARK SMILES IDX 42 58 56 60 77 61 44 62 28 63 29 64 37 65 30 66 36 67 38 68
REMARK SMILES IDX 35 69 31 70 32 71 33 72 34 73 60 74 61 75 69 76 62 77 68 78
REMARK SMILES IDX 70 79 67 80 63 81 64 82 65 83 66 84 45 85 46 86 54 87 47 88
REMARK SMILES IDX 53 89 55 90 52 91 48 92 49 93 50 94 51 95
REMARK H PARENT 9 8 82 22 16 29 75 48 43 59
REMARK Flexibility Score: inf
ROOT
ATOM      1  C   UNL A   1      30.837  28.589  24.073  1.00  0.00     0.002 C 
ENDROOT
BRANCH   1   2
ATOM      2  C   UNL A   1      30.067  27.487  23.338  1.00  0.00     0.002 C 
BRANCH   2   3
ATOM      3  C   UNL A   1      29.520  26.361  24.209  1.00  0.00     0.021 C 
BRANCH   3   4
ATOM      4  C   UNL A   1      30.251  26.126  25.528  1.00  0.00     0.116 C 
BRANCH   4   5
ATOM      5  N   UNL A   1      29.850  24.898  26.170  1.00  0.00    -0.356 N 
ATOM      6  C   UNL A   1      30.565  23.908  26.758  1.00  0.00     0.226 C 
ATOM      7  O   UNL A   1      29.900  23.082  27.398  1.00  0.00    -0.275 OA
ATOM      8  H   UNL A   1      28.877  24.752  26.185  1.00  0.00     0.163 HD
BRANCH   6   9
ATOM      9  C   UNL A   1      32.094  23.794  26.733  1.00  0.00     0.171 C 
BRANCH   9  10
ATOM     10  C   UNL A   1      32.976  23.370  25.481  1.00  0.00     0.138 C 
ATOM     11  C   UNL A   1      36.653  23.687  25.963  1.00  0.00     0.042 C 
ATOM     12  C   UNL A   1      35.465  23.090  25.186  1.00  0.00     0.070 C 
ATOM     13  C   UNL A   1      36.012  21.900  24.379  1.00  0.00     0.042 C 
ATOM     14  C   UNL A   1      34.283  22.749  26.104  1.00  0.00     0.107 C 
ATOM     15  O   UNL A   1      34.973  24.078  24.261  1.00  0.00    -0.363 OA
ATOM     16  C   UNL A   1      33.670  24.574  24.693  1.00  0.00     0.118 C 
ATOM     17  C   UNL A   1      34.026  25.840  25.512  1.00  0.00     0.049 C 
ATOM     18  C   UNL A   1      32.939  24.986  23.409  1.00  0.00     0.049 C 
BRANCH  10  19
ATOM     19  N   UNL A   1      32.340  22.282  24.666  1.00  0.00    -0.327 N 
ATOM     20  C   UNL A   1      32.536  22.227  23.219  1.00  0.00     0.263 C 
ATOM     21  C   UNL A   1      32.259  20.905  25.159  1.00  0.00     0.263 C 
ATOM     22  H   UNL A   1      31.446  22.731  24.864  1.00  0.00     0.348 HD
ATOM     23  C   UNL A   1      32.156  20.821  22.792  1.00  0.00     0.067 C 
ATOM     24  C   UNL A   1      32.577  19.996  23.980  1.00  0.00     0.067 C 
ENDBRANCH  10  19
ENDBRANCH   9  10
ENDBRANCH   6   9
ENDBRANCH   4   5
ENDBRANCH   3   4
ENDBRANCH   2   3
ENDBRANCH   1   2
BRANCH   1  25
ATOM     25  C   UNL A   1      32.335  28.706  23.773  1.00  0.00     0.021 C 
BRANCH  25  26
ATOM     26  C   UNL A   1      33.202  29.333  24.864  1.00  0.00     0.116 C 
BRANCH  26  27
ATOM     27  N   UNL A   1      32.549  30.447  25.523  1.00  0.00    -0.352 N 
ATOM     28  C   UNL A   1      32.848  31.095  26.695  1.00  0.00     0.251 C 
ATOM     29  H   UNL A   1      31.759  30.797  25.051  1.00  0.00     0.163 HD
ATOM     30  O   UNL A   1      32.036  31.897  27.149  1.00  0.00    -0.269 OA
BRANCH  28  31
ATOM     31  C   UNL A   1      34.112  30.831  27.419  1.00  0.00     0.039 A 
ATOM     32  C   UNL A   1      34.321  29.548  27.938  1.00  0.00     0.014 A 
ATOM     33  C   UNL A   1      35.053  31.836  27.659  1.00  0.00     0.014 A 
ATOM     34  C   UNL A   1      35.480  29.267  28.665  1.00  0.00     0.010 A 
ATOM     35  C   UNL A   1      36.243  31.536  28.327  1.00  0.00     0.010 A 
ATOM     36  C   UNL A   1      36.459  30.254  28.855  1.00  0.00    -0.014 A 
BRANCH  36  37
ATOM     37  C   UNL A   1      37.684  29.968  29.648  1.00  0.00     0.031 A 
ATOM     38  C   UNL A   1      38.751  29.065  29.085  1.00  0.00     0.074 A 
ATOM     39  C   UNL A   1      37.826  30.495  30.879  1.00  0.00     0.049 A 
ATOM     40  N   UNL A   1      39.868  28.660  29.630  1.00  0.00    -0.248 NA
ATOM     41  C   UNL A   1      38.508  28.524  27.739  1.00  0.00     0.031 C 
ATOM     42  C   UNL A   1      36.848  31.356  31.547  1.00  0.00     0.029 A 
ATOM     43  N   UNL A   1      38.846  30.383  31.790  1.00  0.00    -0.354 N 
ATOM     44  C   UNL A   1      40.458  27.807  28.702  1.00  0.00     0.074 A 
ATOM     45  C   UNL A   1      39.539  27.706  27.588  1.00  0.00     0.031 C 
ATOM     46  C   UNL A   1      37.326  31.712  32.751  1.00  0.00     0.029 A 
ATOM     47  C   UNL A   1      38.625  31.079  32.956  1.00  0.00     0.049 A 
ATOM     48  H   UNL A   1      39.660  29.854  31.625  1.00  0.00     0.167 HD
ATOM     49  C   UNL A   1      41.662  27.183  28.761  1.00  0.00     0.034 A 
ATOM     50  C   UNL A   1      39.383  31.190  34.065  1.00  0.00     0.034 A 
ATOM     51  C   UNL A   1      42.573  27.304  29.874  1.00  0.00     0.049 A 
ATOM     52  C   UNL A   1      40.718  30.492  34.109  1.00  0.00     0.074 A 
ATOM     53  C   UNL A   1      43.833  26.749  30.024  1.00  0.00     0.029 A 
ATOM     54  N   UNL A   1      42.323  28.031  31.031  1.00  0.00    -0.354 N 
ATOM     55  N   UNL A   1      41.279  29.721  33.206  1.00  0.00    -0.248 NA
ATOM     56  C   UNL A   1      41.531  30.697  35.314  1.00  0.00     0.031 C 
ATOM     57  C   UNL A   1      44.318  27.095  31.292  1.00  0.00     0.029 A 
ATOM     58  C   UNL A   1      43.394  27.923  31.906  1.00  0.00     0.049 A 
ATOM     59  H   UNL A   1      41.504  28.550  31.205  1.00  0.00     0.167 HD
ATOM     60  C   UNL A   1      42.523  29.374  33.724  1.00  0.00     0.074 A 
ATOM     61  C   UNL A   1      42.637  30.037  35.006  1.00  0.00     0.031 C 
ATOM     62  C   UNL A   1      43.487  28.581  33.189  1.00  0.00     0.034 A 
BRANCH  49  63
ATOM     63  C   UNL A   1      42.038  26.294  27.598  1.00  0.00     0.023 A 
ATOM     64  C   UNL A   1      41.669  24.938  27.556  1.00  0.00     0.031 A 
ATOM     65  C   UNL A   1      42.812  26.796  26.536  1.00  0.00     0.131 A 
ATOM     66  C   UNL A   1      42.144  24.111  26.525  1.00  0.00     0.055 A 
ATOM     67  C   UNL A   1      43.211  25.989  25.468  1.00  0.00     0.041 A 
ATOM     68  F   UNL A   1      43.212  28.077  26.528  1.00  0.00    -0.206 F 
ATOM     69  C   UNL A   1      42.892  24.634  25.467  1.00  0.00     0.022 A 
BRANCH  66  70
ATOM     70  S   UNL A   1      41.903  22.320  26.669  1.00  0.00     0.124 S 
ATOM     71  O   UNL A   1      42.668  22.017  27.876  1.00  0.00    -0.237 OA
ATOM     72  O   UNL A   1      40.454  22.205  26.786  1.00  0.00    -0.237 OA
ATOM     73  O   UNL A   1      42.473  21.795  25.430  1.00  0.00    -0.744 OA
ENDBRANCH  66  70
ENDBRANCH  49  63
BRANCH  50  74
ATOM     74  C   UNL A   1      38.908  31.993  35.228  1.00  0.00     0.023 A 
ATOM     75  C   UNL A   1      38.372  31.372  36.366  1.00  0.00     0.031 A 
ATOM     76  C   UNL A   1      38.943  33.399  35.198  1.00  0.00     0.131 A 
ATOM     77  C   UNL A   1      37.846  32.152  37.408  1.00  0.00     0.055 A 
ATOM     78  C   UNL A   1      38.464  34.171  36.257  1.00  0.00     0.041 A 
ATOM     79  F   UNL A   1      39.454  34.043  34.136  1.00  0.00    -0.206 F 
ATOM     80  C   UNL A   1      37.899  33.548  37.366  1.00  0.00     0.022 A 
BRANCH  77  81
ATOM     81  S   UNL A   1      37.016  31.316  38.786  1.00  0.00     0.124 S 
ATOM     82  O   UNL A   1      36.918  29.948  38.291  1.00  0.00    -0.237 OA
ATOM     83  O   UNL A   1      37.955  31.536  39.882  1.00  0.00    -0.237 OA
ATOM     84  O   UNL A   1      35.748  32.031  38.904  1.00  0.00    -0.744 OA
ENDBRANCH  77  81
ENDBRANCH  50  74
BRANCH  62  85
ATOM     85  C   UNL A   1      44.763  28.433  33.981  1.00  0.00     0.023 A 
ATOM     86  C   UNL A   1      45.854  29.301  33.797  1.00  0.00     0.031 A 
ATOM     87  C   UNL A   1      44.904  27.384  34.907  1.00  0.00     0.131 A 
ATOM     88  C   UNL A   1      47.059  29.064  34.475  1.00  0.00     0.055 A 
ATOM     89  C   UNL A   1      46.084  27.191  35.626  1.00  0.00     0.041 A 
ATOM     90  F   UNL A   1      43.895  26.523  35.122  1.00  0.00    -0.206 F 
ATOM     91  C   UNL A   1      47.176  28.023  35.399  1.00  0.00     0.022 A 
BRANCH  88  92
ATOM     92  S   UNL A   1      48.511  30.065  34.047  1.00  0.00     0.124 S 
ATOM     93  O   UNL A   1      48.807  29.607  32.693  1.00  0.00    -0.237 OA
ATOM     94  O   UNL A   1      47.994  31.425  34.161  1.00  0.00    -0.237 OA
ATOM     95  O   UNL A   1      49.497  29.690  35.058  1.00  0.00    -0.744 OA
ENDBRANCH  88  92
ENDBRANCH  62  85
ENDBRANCH  36  37
ENDBRANCH  28  31
ENDBRANCH  26  27
ENDBRANCH  25  26
ENDBRANCH   1  25
TORSDOF 18
ENDMDL
MODEL 2
REMARK VINA RESULT:     -11.5      2.592      8.066
REMARK SMILES CC1(C)C[C@](CC(=O)NCCCCCCNC(=O)c2ccc(-c3c4nc(c(-c5cc(S(=O)(=O)[O-])ccc5F)c5ccc([nH]5)c(-c5cc(S(=O)(=O)[O-])ccc5F)c5nc(c(-c6cc(S(=O)(=O)[O-])ccc6F)c6ccc3[nH]6)C=C5)C=C4)cc2)([NH+]2CCCC2)C(C)(C)O1
REMARK SMILES IDX 13 1 12 2 11 3 10 4 9 5 7 6 8 7 6 9 5 10 1 11 2 12 3 13 4 14
REMARK SMILES IDX 90 15 87 16 88 17 89 18 82 19 83 20 86 21 84 23 85 24 14 25
REMARK SMILES IDX 15 26 16 27 17 28 18 30 19 31 20 32 81 33 21 34 80 35 22 36
REMARK SMILES IDX 23 37 24 38 74 39 25 40 79 41 73 42 75 43 26 44 78 45 72 46
REMARK SMILES IDX 71 47 27 49 59 50 39 51 58 52 40 53 43 54 57 55 76 56 41 57
REMARK SMILES IDX 42 58 56 60 77 61 44 62 28 63 29 64 37 65 30 66 36 67 38 68
REMARK SMILES IDX 35 69 31 70 32 71 33 72 34 73 60 74 61 75 69 76 62 77 68 78
REMARK SMILES IDX 70 79 67 80 63 81 64 82 65 83 66 84 45 85 46 86 54 87 47 88
REMARK SMILES IDX 53 89 55 90 52 91 48 92 49 93 50 94 51 95
REMARK H PARENT 9 8 82 22 16 29 75 48 43 59
REMARK Flexibility Score: inf
ROOT
ATOM      1  C   UNL A   1      31.424  28.816  26.089  1.00  0.00     0.002 C 
ENDROOT
BRANCH   1   2
ATOM      2  C   UNL A   1      31.397  29.642  24.799  1.00  0.00     0.002 C 
BRANCH   2   3
ATOM      3  C   UNL A   1      31.537  28.856  23.500  1.00  0.00     0.021 C 
BRANCH   3   4
ATOM      4  C   UNL A   1      32.908  28.914  22.833  1.00  0.00     0.116 C 
BRANCH   4   5
ATOM      5  N   UNL A   1      33.174  27.755  22.016  1.00  0.00    -0.356 N 
ATOM      6  C   UNL A   1      33.490  26.475  22.334  1.00  0.00     0.226 C 
ATOM      7  O   UNL A   1      33.457  25.673  21.391  1.00  0.00    -0.275 OA
ATOM      8  H   UNL A   1      33.117  27.925  21.048  1.00  0.00     0.163 HD
BRANCH   6   9
ATOM      9  C   UNL A   1      33.807  25.973  23.747  1.00  0.00     0.171 C 
BRANCH   9  10
ATOM     10  C   UNL A   1      33.239  24.648  24.413  1.00  0.00     0.138 C 
ATOM     11  C   UNL A   1      35.644  22.819  26.588  1.00  0.00     0.042 C 
ATOM     12  C   UNL A   1      34.191  23.089  26.153  1.00  0.00     0.070 C 
ATOM     13  C   UNL A   1      33.282  22.530  27.261  1.00  0.00     0.042 C 
ATOM     14  C   UNL A   1      33.951  24.568  25.817  1.00  0.00     0.107 C 
ATOM     15  O   UNL A   1      33.929  22.361  24.939  1.00  0.00    -0.363 OA
ATOM     16  C   UNL A   1      33.806  23.280  23.812  1.00  0.00     0.118 C 
ATOM     17  C   UNL A   1      35.238  23.310  23.221  1.00  0.00     0.049 C 
ATOM     18  C   UNL A   1      32.859  22.592  22.820  1.00  0.00     0.049 C 
BRANCH  10  19
ATOM     19  N   UNL A   1      31.766  24.725  24.692  1.00  0.00    -0.327 N 
ATOM     20  C   UNL A   1      31.277  25.287  25.950  1.00  0.00     0.263 C 
ATOM     21  C   UNL A   1      30.806  25.076  23.643  1.00  0.00     0.263 C 
ATOM     22  H   UNL A   1      31.782  23.709  24.766  1.00  0.00     0.348 HD
ATOM     23  C   UNL A   1      29.813  25.618  25.726  1.00  0.00     0.067 C 
ATOM     24  C   UNL A   1      29.789  26.016  24.274  1.00  0.00     0.067 C 
ENDBRANCH  10  19
ENDBRANCH   9  10
ENDBRANCH   6   9
ENDBRANCH   4   5
ENDBRANCH   3   4
ENDBRANCH   2   3
ENDBRANCH   1   2
BRANCH   1  25
ATOM     25  C   UNL A   1      32.729  28.828  26.893  1.00  0.00     0.021 C 
BRANCH  25  26
ATOM     26  C   UNL A   1      33.791  29.836  26.454  1.00  0.00     0.116 C 
BRANCH  26  27
ATOM     27  N   UNL A   1      33.667  31.109  27.134  1.00  0.00    -0.352 N 
ATOM     28  C   UNL A   1      34.436  31.677  28.118  1.00  0.00     0.251 C 
ATOM     29  H   UNL A   1      32.904  31.658  26.843  1.00  0.00     0.163 HD
ATOM     30  O   UNL A   1      34.026  32.692  28.675  1.00  0.00    -0.269 OA
BRANCH  28  31
ATOM     31  C   UNL A   1      35.729  31.081  28.525  1.00  0.00     0.039 A 
ATOM     32  C   UNL A   1      35.712  29.835  29.162  1.00  0.00     0.014 A 
ATOM     33  C   UNL A   1      36.942  31.757  28.359  1.00  0.00     0.014 A 
ATOM     34  C   UNL A   1      36.904  29.256  29.599  1.00  0.00     0.010 A 
ATOM     35  C   UNL A   1      38.140  31.146  28.736  1.00  0.00     0.010 A 
ATOM     36  C   UNL A   1      38.132  29.899  29.378  1.00  0.00    -0.014 A 
BRANCH  36  37
ATOM     37  C   UNL A   1      39.404  29.299  29.864  1.00  0.00     0.031 A 
ATOM     38  C   UNL A   1      40.093  29.873  31.074  1.00  0.00     0.074 A 
ATOM     39  C   UNL A   1      39.950  28.259  29.205  1.00  0.00     0.049 A 
ATOM     40  N   UNL A   1      41.223  29.522  31.631  1.00  0.00    -0.248 NA
ATOM     41  C   UNL A   1      39.432  31.015  31.724  1.00  0.00     0.031 C 
ATOM     42  C   UNL A   1      39.396  27.636  28.001  1.00  0.00     0.029 A 
ATOM     43  N   UNL A   1      41.094  27.542  29.452  1.00  0.00    -0.354 N 
ATOM     44  C   UNL A   1      41.418  30.405  32.689  1.00  0.00     0.074 A 
ATOM     45  C   UNL A   1      40.318  31.346  32.651  1.00  0.00     0.031 C 
ATOM     46  C   UNL A   1      40.189  26.618  27.628  1.00  0.00     0.029 A 
ATOM     47  C   UNL A   1      41.323  26.536  28.543  1.00  0.00     0.049 A 
ATOM     48  H   UNL A   1      41.695  27.732  30.209  1.00  0.00     0.167 HD
ATOM     49  C   UNL A   1      42.407  30.419  33.618  1.00  0.00     0.034 A 
ATOM     50  C   UNL A   1      42.336  25.650  28.455  1.00  0.00     0.034 A 
ATOM     51  C   UNL A   1      43.490  29.465  33.649  1.00  0.00     0.049 A 
ATOM     52  C   UNL A   1      43.423  25.681  29.500  1.00  0.00     0.074 A 
ATOM     53  C   UNL A   1      44.524  29.360  34.564  1.00  0.00     0.029 A 
ATOM     54  N   UNL A   1      43.681  28.448  32.721  1.00  0.00    -0.354 N 
ATOM     55  N   UNL A   1      43.571  26.497  30.517  1.00  0.00    -0.248 NA
ATOM     56  C   UNL A   1      44.467  24.654  29.394  1.00  0.00     0.031 C 
ATOM     57  C   UNL A   1      45.367  28.318  34.158  1.00  0.00     0.029 A 
ATOM     58  C   UNL A   1      44.824  27.726  33.030  1.00  0.00     0.049 A 
ATOM     59  H   UNL A   1      43.089  28.266  31.955  1.00  0.00     0.167 HD
ATOM     60  C   UNL A   1      44.710  26.063  31.188  1.00  0.00     0.074 A 
ATOM     61  C   UNL A   1      45.196  24.902  30.472  1.00  0.00     0.031 C 
ATOM     62  C   UNL A   1      45.303  26.576  32.298  1.00  0.00     0.034 A 
BRANCH  49  63
ATOM     63  C   UNL A   1      42.369  31.519  34.653  1.00  0.00     0.023 A 
ATOM     64  C   UNL A   1      41.417  31.526  35.688  1.00  0.00     0.031 A 
ATOM     65  C   UNL A   1      43.267  32.599  34.581  1.00  0.00     0.131 A 
ATOM     66  C   UNL A   1      41.327  32.628  36.554  1.00  0.00     0.055 A 
ATOM     67  C   UNL A   1      43.228  33.652  35.498  1.00  0.00     0.041 A 
ATOM     68  F   UNL A   1      44.186  32.660  33.605  1.00  0.00    -0.206 F 
ATOM     69  C   UNL A   1      42.244  33.679  36.481  1.00  0.00     0.022 A 
BRANCH  66  70
ATOM     70  S   UNL A   1      39.903  32.738  37.671  1.00  0.00     0.124 S 
ATOM     71  O   UNL A   1      39.397  34.074  37.371  1.00  0.00    -0.237 OA
ATOM     72  O   UNL A   1      39.070  31.625  37.232  1.00  0.00    -0.237 OA
ATOM     73  O   UNL A   1      40.496  32.588  38.999  1.00  0.00    -0.744 OA
ENDBRANCH  66  70
ENDBRANCH  49  63
BRANCH  50  74
ATOM     74  C   UNL A   1      42.377  24.656  27.346  1.00  0.00     0.023 A 
ATOM     75  C   UNL A   1      41.593  23.493  27.387  1.00  0.00     0.031 A 
ATOM     76  C   UNL A   1      43.236  24.835  26.247  1.00  0.00     0.131 A 
ATOM     77  C   UNL A   1      41.719  22.527  26.376  1.00  0.00     0.055 A 
ATOM     78  C   UNL A   1      43.323  23.895  25.218  1.00  0.00     0.041 A 
ATOM     79  F   UNL A   1      44.001  25.934  26.155  1.00  0.00    -0.206 F 
ATOM     80  C   UNL A   1      42.571  22.726  25.286  1.00  0.00     0.022 A 
BRANCH  77  81
ATOM     81  S   UNL A   1      40.812  20.966  26.547  1.00  0.00     0.124 S 
ATOM     82  O   UNL A   1      39.509  21.315  25.993  1.00  0.00    -0.237 OA
ATOM     83  O   UNL A   1      41.627  20.055  25.749  1.00  0.00    -0.237 OA
ATOM     84  O   UNL A   1      40.833  20.717  27.987  1.00  0.00    -0.744 OA
ENDBRANCH  77  81
ENDBRANCH  50  74
BRANCH  62  85
ATOM     85  C   UNL A   1      46.515  25.845  32.821  1.00  0.00     0.023 A 
ATOM     86  C   UNL A   1      46.409  24.842  33.800  1.00  0.00     0.031 A 
ATOM     87  C   UNL A   1      47.799  26.184  32.359  1.00  0.00     0.131 A 
ATOM     88  C   UNL A   1      47.569  24.263  34.337  1.00  0.00     0.055 A 
ATOM     89  C   UNL A   1      48.946  25.559  32.850  1.00  0.00     0.041 A 
ATOM     90  F   UNL A   1      47.960  27.135  31.424  1.00  0.00    -0.206 F 
ATOM     91  C   UNL A   1      48.837  24.605  33.857  1.00  0.00     0.022 A 
BRANCH  88  92
ATOM     92  S   UNL A   1      47.407  23.139  35.752  1.00  0.00     0.124 S 
ATOM     93  O   UNL A   1      46.234  23.677  36.434  1.00  0.00    -0.237 OA
ATOM     94  O   UNL A   1      47.229  21.845  35.102  1.00  0.00    -0.237 OA
ATOM     95  O   UNL A   1      48.671  23.304  36.468  1.00  0.00    -0.744 OA
ENDBRANCH  88  92
ENDBRANCH  62  85
ENDBRANCH  36  37
ENDBRANCH  28  31
ENDBRANCH  26  27
ENDBRANCH  25  26
ENDBRANCH   1  25
TORSDOF 18
ENDMDL
MODEL 3
REMARK VINA RESULT:     -11.4      2.317      7.803
REMARK SMILES CC1(C)C[C@](CC(=O)NCCCCCCNC(=O)c2ccc(-c3c4nc(c(-c5cc(S(=O)(=O)[O-])ccc5F)c5ccc([nH]5)c(-c5cc(S(=O)(=O)[O-])ccc5F)c5nc(c(-c6cc(S(=O)(=O)[O-])ccc6F)c6ccc3[nH]6)C=C5)C=C4)cc2)([NH+]2CCCC2)C(C)(C)O1
REMARK SMILES IDX 13 1 12 2 11 3 10 4 9 5 7 6 8 7 6 9 5 10 1 11 2 12 3 13 4 14
REMARK SMILES IDX 90 15 87 16 88 17 89 18 82 19 83 20 86 21 84 23 85 24 14 25
REMARK SMILES IDX 15 26 16 27 17 28 18 30 19 31 20 32 81 33 21 34 80 35 22 36
REMARK SMILES IDX 23 37 24 38 74 39 25 40 79 41 73 42 75 43 26 44 78 45 72 46
REMARK SMILES IDX 71 47 27 49 59 50 39 51 58 52 40 53 43 54 57 55 76 56 41 57
REMARK SMILES IDX 42 58 56 60 77 61 44 62 28 63 29 64 37 65 30 66 36 67 38 68
REMARK SMILES IDX 35 69 31 70 32 71 33 72 34 73 60 74 61 75 69 76 62 77 68 78
REMARK SMILES IDX 70 79 67 80 63 81 64 82 65 83 66 84 45 85 46 86 54 87 47 88
REMARK SMILES IDX 53 89 55 90 52 91 48 92 49 93 50 94 51 95
REMARK H PARENT 9 8 82 22 16 29 75 48 43 59
REMARK Flexibility Score: inf
ROOT
ATOM      1  C   UNL A   1      31.677  27.639  26.812  1.00  0.00     0.002 C 
ENDROOT
BRANCH   1   2
ATOM      2  C   UNL A   1      31.168  27.599  25.368  1.00  0.00     0.002 C 
BRANCH   2   3
ATOM      3  C   UNL A   1      30.329  26.382  24.990  1.00  0.00     0.021 C 
BRANCH   3   4
ATOM      4  C   UNL A   1      31.094  25.212  24.380  1.00  0.00     0.116 C 
BRANCH   4   5
ATOM      5  N   UNL A   1      30.655  23.937  24.894  1.00  0.00    -0.356 N 
ATOM      6  C   UNL A   1      31.283  22.998  25.645  1.00  0.00     0.226 C 
ATOM      7  O   UNL A   1      30.553  22.102  26.089  1.00  0.00    -0.275 OA
ATOM      8  H   UNL A   1      29.729  23.706  24.656  1.00  0.00     0.163 HD
BRANCH   6   9
ATOM      9  C   UNL A   1      32.770  23.019  26.016  1.00  0.00     0.171 C 
BRANCH   9  10
ATOM     10  C   UNL A   1      33.976  22.645  25.052  1.00  0.00     0.138 C 
ATOM     11  C   UNL A   1      37.298  23.960  26.096  1.00  0.00     0.042 C 
ATOM     12  C   UNL A   1      36.469  22.965  25.262  1.00  0.00     0.070 C 
ATOM     13  C   UNL A   1      37.426  21.843  24.825  1.00  0.00     0.042 C 
ATOM     14  C   UNL A   1      35.218  22.483  26.009  1.00  0.00     0.107 C 
ATOM     15  O   UNL A   1      35.989  23.638  24.083  1.00  0.00    -0.363 OA
ATOM     16  C   UNL A   1      34.547  23.846  24.168  1.00  0.00     0.118 C 
ATOM     17  C   UNL A   1      34.429  25.274  24.760  1.00  0.00     0.049 C 
ATOM     18  C   UNL A   1      34.044  23.852  22.719  1.00  0.00     0.049 C 
BRANCH  10  19
ATOM     19  N   UNL A   1      33.787  21.316  24.379  1.00  0.00    -0.327 N 
ATOM     20  C   UNL A   1      34.172  20.079  25.056  1.00  0.00     0.263 C 
ATOM     21  C   UNL A   1      32.602  21.032  23.567  1.00  0.00     0.263 C 
ATOM     22  H   UNL A   1      34.534  21.594  23.743  1.00  0.00     0.348 HD
ATOM     23  C   UNL A   1      33.461  18.956  24.322  1.00  0.00     0.067 C 
ATOM     24  C   UNL A   1      32.173  19.609  23.897  1.00  0.00     0.067 C 
ENDBRANCH  10  19
ENDBRANCH   9  10
ENDBRANCH   6   9
ENDBRANCH   4   5
ENDBRANCH   3   4
ENDBRANCH   2   3
ENDBRANCH   1   2
BRANCH   1  25
ATOM     25  C   UNL A   1      33.161  27.964  27.015  1.00  0.00     0.021 C 
BRANCH  25  26
ATOM     26  C   UNL A   1      33.758  29.028  26.095  1.00  0.00     0.116 C 
BRANCH  26  27
ATOM     27  N   UNL A   1      33.667  30.362  26.652  1.00  0.00    -0.352 N 
ATOM     28  C   UNL A   1      34.450  31.001  27.581  1.00  0.00     0.251 C 
ATOM     29  H   UNL A   1      32.919  30.901  26.308  1.00  0.00     0.163 HD
ATOM     30  O   UNL A   1      34.066  32.073  28.039  1.00  0.00    -0.269 OA
BRANCH  28  31
ATOM     31  C   UNL A   1      35.727  30.412  28.046  1.00  0.00     0.039 A 
ATOM     32  C   UNL A   1      35.746  29.776  29.292  1.00  0.00     0.014 A 
ATOM     33  C   UNL A   1      36.912  30.541  27.316  1.00  0.00     0.014 A 
ATOM     34  C   UNL A   1      36.939  29.244  29.788  1.00  0.00     0.010 A 
ATOM     35  C   UNL A   1      38.089  29.950  27.781  1.00  0.00     0.010 A 
ATOM     36  C   UNL A   1      38.119  29.313  29.031  1.00  0.00    -0.014 A 
BRANCH  36  37
ATOM     37  C   UNL A   1      39.397  28.770  29.565  1.00  0.00     0.031 A 
ATOM     38  C   UNL A   1      40.061  29.432  30.744  1.00  0.00     0.074 A 
ATOM     39  C   UNL A   1      39.972  27.704  28.976  1.00  0.00     0.049 A 
ATOM     40  N   UNL A   1      41.192  29.139  31.331  1.00  0.00    -0.248 NA
ATOM     41  C   UNL A   1      39.371  30.597  31.316  1.00  0.00     0.031 C 
ATOM     42  C   UNL A   1      39.443  26.997  27.807  1.00  0.00     0.029 A 
ATOM     43  N   UNL A   1      41.127  27.028  29.277  1.00  0.00    -0.354 N 
ATOM     44  C   UNL A   1      41.358  30.089  32.335  1.00  0.00     0.074 A 
ATOM     45  C   UNL A   1      40.240  31.003  32.229  1.00  0.00     0.031 C 
ATOM     46  C   UNL A   1      40.260  25.975  27.505  1.00  0.00     0.029 A 
ATOM     47  C   UNL A   1      41.386  25.973  28.433  1.00  0.00     0.049 A 
ATOM     48  H   UNL A   1      41.716  27.275  30.026  1.00  0.00     0.167 HD
ATOM     49  C   UNL A   1      42.337  30.181  33.270  1.00  0.00     0.034 A 
ATOM     50  C   UNL A   1      42.417  25.104  28.410  1.00  0.00     0.034 A 
ATOM     51  C   UNL A   1      43.439  29.253  33.370  1.00  0.00     0.049 A 
ATOM     52  C   UNL A   1      43.492  25.221  29.461  1.00  0.00     0.074 A 
ATOM     53  C   UNL A   1      44.465  29.226  34.299  1.00  0.00     0.029 A 
ATOM     54  N   UNL A   1      43.660  28.185  32.508  1.00  0.00    -0.354 N 
ATOM     55  N   UNL A   1      43.613  26.102  30.427  1.00  0.00    -0.248 NA
ATOM     56  C   UNL A   1      44.559  24.213  29.428  1.00  0.00     0.031 C 
ATOM     57  C   UNL A   1      45.334  28.179  33.966  1.00  0.00     0.029 A 
ATOM     58  C   UNL A   1      44.814  27.508  32.872  1.00  0.00     0.049 A 
ATOM     59  H   UNL A   1      43.080  27.945  31.749  1.00  0.00     0.167 HD
ATOM     60  C   UNL A   1      44.754  25.733  31.135  1.00  0.00     0.074 A 
ATOM     61  C   UNL A   1      45.270  24.541  30.496  1.00  0.00     0.031 C 
ATOM     62  C   UNL A   1      45.324  26.326  32.216  1.00  0.00     0.034 A 
BRANCH  49  63
ATOM     63  C   UNL A   1      42.266  31.342  34.235  1.00  0.00     0.023 A 
ATOM     64  C   UNL A   1      41.356  31.354  35.308  1.00  0.00     0.031 A 
ATOM     65  C   UNL A   1      43.086  32.469  34.058  1.00  0.00     0.131 A 
ATOM     66  C   UNL A   1      41.227  32.502  36.106  1.00  0.00     0.055 A 
ATOM     67  C   UNL A   1      43.013  33.576  34.908  1.00  0.00     0.041 A 
ATOM     68  F   UNL A   1      43.961  32.526  33.041  1.00  0.00    -0.206 F 
ATOM     69  C   UNL A   1      42.067  33.604  35.929  1.00  0.00     0.022 A 
BRANCH  66  70
ATOM     70  S   UNL A   1      39.843  32.593  37.275  1.00  0.00     0.124 S 
ATOM     71  O   UNL A   1      39.216  33.855  36.890  1.00  0.00    -0.237 OA
ATOM     72  O   UNL A   1      39.089  31.384  36.966  1.00  0.00    -0.237 OA
ATOM     73  O   UNL A   1      40.498  32.604  38.582  1.00  0.00    -0.744 OA
ENDBRANCH  66  70
ENDBRANCH  49  63
BRANCH  50  74
ATOM     74  C   UNL A   1      42.490  24.045  27.364  1.00  0.00     0.023 A 
ATOM     75  C   UNL A   1      41.860  22.805  27.545  1.00  0.00     0.031 A 
ATOM     76  C   UNL A   1      43.231  24.244  26.185  1.00  0.00     0.131 A 
ATOM     77  C   UNL A   1      42.021  21.791  26.588  1.00  0.00     0.055 A 
ATOM     78  C   UNL A   1      43.349  23.250  25.213  1.00  0.00     0.041 A 
ATOM     79  F   UNL A   1      43.847  25.415  25.959  1.00  0.00    -0.206 F 
ATOM     80  C   UNL A   1      42.753  22.009  25.417  1.00  0.00     0.022 A 
BRANCH  77  81
ATOM     81  S   UNL A   1      41.328  20.151  26.933  1.00  0.00     0.124 S 
ATOM     82  O   UNL A   1      40.844  20.313  28.299  1.00  0.00    -0.237 OA
ATOM     83  O   UNL A   1      40.304  20.033  25.899  1.00  0.00    -0.237 OA
ATOM     84  O   UNL A   1      42.473  19.258  26.777  1.00  0.00    -0.744 OA
ENDBRANCH  77  81
ENDBRANCH  50  74
BRANCH  62  85
ATOM     85  C   UNL A   1      46.546  25.653  32.794  1.00  0.00     0.023 A 
ATOM     86  C   UNL A   1      47.828  25.858  32.254  1.00  0.00     0.031 A 
ATOM     87  C   UNL A   1      46.419  24.764  33.876  1.00  0.00     0.131 A 
ATOM     88  C   UNL A   1      48.920  25.130  32.751  1.00  0.00     0.055 A 
ATOM     89  C   UNL A   1      47.519  24.092  34.408  1.00  0.00     0.041 A 
ATOM     90  F   UNL A   1      45.218  24.530  34.430  1.00  0.00    -0.206 F 
ATOM     91  C   UNL A   1      48.776  24.260  33.835  1.00  0.00     0.022 A 
BRANCH  88  92
ATOM     92  S   UNL A   1      50.511  25.250  31.888  1.00  0.00     0.124 S 
ATOM     93  O   UNL A   1      50.905  26.628  32.168  1.00  0.00    -0.237 OA
ATOM     94  O   UNL A   1      51.301  24.215  32.547  1.00  0.00    -0.237 OA
ATOM     95  O   UNL A   1      50.168  24.975  30.494  1.00  0.00    -0.744 OA
ENDBRANCH  88  92
ENDBRANCH  62  85
ENDBRANCH  36  37
ENDBRANCH  28  31
ENDBRANCH  26  27
ENDBRANCH  25  26
ENDBRANCH   1  25
TORSDOF 18
ENDMDL
