MODEL 1
REMARK VINA RESULT:     -11.5      0.000      0.000
REMARK SMILES CC[C@@](O)(C(=O)NCCCCCCNC(=O)c1ccc(-c2c3nc(c(-c4cc(S(=O)(=O)[O-])ccc4F)c4ccc([nH]4)c(-c4cc(S(=O)(=O)[O-])ccc4F)c4nc(c(-c5cc(S(=O)(=O)[O-])ccc5F)c5ccc2[nH]5)C=C4)C=C3)cc1)[C@@H]1CCOc2ccccc21
REMARK SMILES IDX 11 1 10 2 9 3 8 4 7 5 5 6 6 7 3 9 2 10 1 11 4 12 80 14 81 15
REMARK SMILES IDX 89 16 82 17 84 18 88 19 83 20 85 21 87 22 86 23 12 24 13 25
REMARK SMILES IDX 14 26 15 27 16 29 17 30 18 31 79 32 19 33 78 34 20 35 21 36
REMARK SMILES IDX 22 37 72 38 23 39 77 40 71 41 73 42 24 43 76 44 70 45 69 46
REMARK SMILES IDX 25 48 57 49 37 50 56 51 38 52 41 53 55 54 74 55 39 56 40 57
REMARK SMILES IDX 54 59 75 60 42 61 26 62 27 63 35 64 28 65 34 66 36 67 33 68
REMARK SMILES IDX 29 69 30 70 31 71 32 72 58 73 59 74 67 75 60 76 66 77 68 78
REMARK SMILES IDX 65 79 61 80 62 81 63 82 64 83 43 84 44 85 52 86 45 87 51 88
REMARK SMILES IDX 53 89 50 90 46 91 47 92 48 93 49 94
REMARK H PARENT 7 8 4 13 14 28 73 47 41 58
REMARK Flexibility Score: inf
ROOT
ATOM      1  C   UNL A   1      32.145  30.129  26.018  1.00  0.00     0.002 C 
ENDROOT
BRANCH   1   2
ATOM      2  C   UNL A   1      32.651  28.978  26.895  1.00  0.00     0.002 C 
BRANCH   2   3
ATOM      3  C   UNL A   1      33.496  27.939  26.145  1.00  0.00     0.021 C 
BRANCH   3   4
ATOM      4  C   UNL A   1      32.706  26.682  25.781  1.00  0.00     0.116 C 
BRANCH   4   5
ATOM      5  N   UNL A   1      33.281  26.094  24.590  1.00  0.00    -0.354 N 
ATOM      6  C   UNL A   1      32.949  26.248  23.278  1.00  0.00     0.252 C 
ATOM      7  O   UNL A   1      33.454  25.431  22.500  1.00  0.00    -0.272 OA
ATOM      8  H   UNL A   1      34.035  25.482  24.755  1.00  0.00     0.163 HD
BRANCH   6   9
ATOM      9  C   UNL A   1      31.991  27.393  22.801  1.00  0.00     0.149 C 
BRANCH   9  10
ATOM     10  C   UNL A   1      32.746  28.755  22.762  1.00  0.00     0.043 C 
ATOM     11  C   UNL A   1      34.245  28.698  22.484  1.00  0.00     0.007 C 
ENDBRANCH   9  10
BRANCH   9  12
ATOM     12  O   UNL A   1      31.616  27.030  21.450  1.00  0.00    -0.379 OA
ATOM     13  H   UNL A   1      30.823  26.473  21.473  1.00  0.00     0.212 HD
ENDBRANCH   9  12
BRANCH   9  14
ATOM     14  C   UNL A   1      30.686  27.339  23.702  1.00  0.00     0.068 C 
ATOM     15  C   UNL A   1      30.036  25.940  23.656  1.00  0.00     0.053 C 
ATOM     16  C   UNL A   1      29.620  28.404  23.467  1.00  0.00     0.001 A 
ATOM     17  C   UNL A   1      28.731  25.975  24.421  1.00  0.00     0.230 C 
ATOM     18  C   UNL A   1      28.261  28.054  23.445  1.00  0.00     0.122 A 
ATOM     19  C   UNL A   1      29.954  29.751  23.249  1.00  0.00     0.008 A 
ATOM     20  O   UNL A   1      27.785  26.805  23.749  1.00  0.00    -0.493 OA
ATOM     21  C   UNL A   1      27.292  28.980  23.056  1.00  0.00     0.047 A 
ATOM     22  C   UNL A   1      28.987  30.673  22.846  1.00  0.00     0.001 A 
ATOM     23  C   UNL A   1      27.658  30.283  22.726  1.00  0.00     0.004 A 
ENDBRANCH   9  14
ENDBRANCH   6   9
ENDBRANCH   4   5
ENDBRANCH   3   4
ENDBRANCH   2   3
ENDBRANCH   1   2
BRANCH   1  24
ATOM     24  C   UNL A   1      31.794  31.404  26.787  1.00  0.00     0.021 C 
BRANCH  24  25
ATOM     25  C   UNL A   1      33.009  32.157  27.318  1.00  0.00     0.116 C 
BRANCH  25  26
ATOM     26  N   UNL A   1      32.700  33.558  27.563  1.00  0.00    -0.352 N 
ATOM     27  C   UNL A   1      33.183  34.386  28.544  1.00  0.00     0.251 C 
ATOM     28  H   UNL A   1      32.056  33.966  26.940  1.00  0.00     0.163 HD
ATOM     29  O   UNL A   1      32.630  35.459  28.771  1.00  0.00    -0.269 OA
BRANCH  27  30
ATOM     30  C   UNL A   1      34.358  33.963  29.332  1.00  0.00     0.039 A 
ATOM     31  C   UNL A   1      34.174  33.125  30.434  1.00  0.00     0.014 A 
ATOM     32  C   UNL A   1      35.642  34.378  28.965  1.00  0.00     0.014 A 
ATOM     33  C   UNL A   1      35.287  32.646  31.125  1.00  0.00     0.010 A 
ATOM     34  C   UNL A   1      36.751  33.841  29.611  1.00  0.00     0.010 A 
ATOM     35  C   UNL A   1      36.585  32.964  30.693  1.00  0.00    -0.014 A 
BRANCH  35  36
ATOM     36  C   UNL A   1      37.784  32.369  31.340  1.00  0.00     0.031 A 
ATOM     37  C   UNL A   1      38.518  31.238  30.673  1.00  0.00     0.074 A 
ATOM     38  C   UNL A   1      38.157  32.796  32.563  1.00  0.00     0.049 A 
ATOM     39  N   UNL A   1      39.517  30.523  31.123  1.00  0.00    -0.248 NA
ATOM     40  C   UNL A   1      38.050  30.842  29.335  1.00  0.00     0.031 C 
ATOM     41  C   UNL A   1      37.498  33.864  33.322  1.00  0.00     0.029 A 
ATOM     42  N   UNL A   1      39.166  32.378  33.396  1.00  0.00    -0.354 N 
ATOM     43  C   UNL A   1      39.785  29.581  30.136  1.00  0.00     0.074 A 
ATOM     44  C   UNL A   1      38.814  29.789  29.082  1.00  0.00     0.031 C 
ATOM     45  C   UNL A   1      38.127  34.024  34.496  1.00  0.00     0.029 A 
ATOM     46  C   UNL A   1      39.195  33.035  34.606  1.00  0.00     0.049 A 
ATOM     47  H   UNL A   1      39.809  31.674  33.151  1.00  0.00     0.167 HD
ATOM     48  C   UNL A   1      40.759  28.639  30.110  1.00  0.00     0.034 A 
ATOM     49  C   UNL A   1      39.971  32.843  35.692  1.00  0.00     0.034 A 
ATOM     50  C   UNL A   1      41.728  28.461  31.164  1.00  0.00     0.049 A 
ATOM     51  C   UNL A   1      41.022  31.760  35.650  1.00  0.00     0.074 A 
ATOM     52  C   UNL A   1      42.810  27.600  31.198  1.00  0.00     0.029 A 
ATOM     53  N   UNL A   1      41.722  29.140  32.376  1.00  0.00    -0.354 N 
ATOM     54  N   UNL A   1      41.313  30.932  34.674  1.00  0.00    -0.248 NA
ATOM     55  C   UNL A   1      41.850  31.589  36.851  1.00  0.00     0.031 C 
ATOM     56  C   UNL A   1      43.401  27.690  32.461  1.00  0.00     0.029 A 
ATOM     57  C   UNL A   1      42.747  28.673  33.185  1.00  0.00     0.049 A 
ATOM     58  H   UNL A   1      41.084  29.846  32.624  1.00  0.00     0.167 HD
ATOM     59  C   UNL A   1      42.376  30.160  35.137  1.00  0.00     0.074 A 
ATOM     60  C   UNL A   1      42.687  30.635  36.468  1.00  0.00     0.031 C 
ATOM     61  C   UNL A   1      43.037  29.150  34.517  1.00  0.00     0.034 A 
BRANCH  48  62
ATOM     62  C   UNL A   1      40.808  27.704  28.926  1.00  0.00     0.023 A 
ATOM     63  C   UNL A   1      41.778  27.827  27.917  1.00  0.00     0.031 A 
ATOM     64  C   UNL A   1      39.872  26.659  28.816  1.00  0.00     0.131 A 
ATOM     65  C   UNL A   1      41.758  26.958  26.816  1.00  0.00     0.055 A 
ATOM     66  C   UNL A   1      39.905  25.749  27.759  1.00  0.00     0.041 A 
ATOM     67  F   UNL A   1      38.908  26.506  29.736  1.00  0.00    -0.206 F 
ATOM     68  C   UNL A   1      40.845  25.902  26.743  1.00  0.00     0.022 A 
BRANCH  65  69
ATOM     69  S   UNL A   1      42.862  27.299  25.419  1.00  0.00     0.124 S 
ATOM     70  O   UNL A   1      44.093  27.684  26.104  1.00  0.00    -0.237 OA
ATOM     71  O   UNL A   1      42.892  26.020  24.721  1.00  0.00    -0.237 OA
ATOM     72  O   UNL A   1      42.189  28.384  24.707  1.00  0.00    -0.744 OA
ENDBRANCH  65  69
ENDBRANCH  48  62
BRANCH  49  73
ATOM     73  C   UNL A   1      39.765  33.654  36.929  1.00  0.00     0.023 A 
ATOM     74  C   UNL A   1      39.065  33.135  38.029  1.00  0.00     0.031 A 
ATOM     75  C   UNL A   1      40.206  34.989  37.002  1.00  0.00     0.131 A 
ATOM     76  C   UNL A   1      38.772  33.960  39.127  1.00  0.00     0.055 A 
ATOM     77  C   UNL A   1      39.972  35.784  38.125  1.00  0.00     0.041 A 
ATOM     78  F   UNL A   1      40.878  35.541  35.980  1.00  0.00    -0.206 F 
ATOM     79  C   UNL A   1      39.235  35.276  39.189  1.00  0.00     0.022 A 
BRANCH  76  80
ATOM     80  S   UNL A   1      37.668  33.325  40.418  1.00  0.00     0.124 S 
ATOM     81  O   UNL A   1      38.490  32.283  41.023  1.00  0.00    -0.237 OA
ATOM     82  O   UNL A   1      37.439  34.515  41.231  1.00  0.00    -0.237 OA
ATOM     83  O   UNL A   1      36.506  32.850  39.669  1.00  0.00    -0.744 OA
ENDBRANCH  76  80
ENDBRANCH  49  73
BRANCH  61  84
ATOM     84  C   UNL A   1      44.186  28.515  35.262  1.00  0.00     0.023 A 
ATOM     85  C   UNL A   1      44.004  27.383  36.074  1.00  0.00     0.031 A 
ATOM     86  C   UNL A   1      45.484  29.043  35.143  1.00  0.00     0.131 A 
ATOM     87  C   UNL A   1      45.094  26.843  36.772  1.00  0.00     0.055 A 
ATOM     88  C   UNL A   1      46.576  28.463  35.789  1.00  0.00     0.041 A 
ATOM     89  F   UNL A   1      45.714  30.127  34.384  1.00  0.00    -0.206 F 
ATOM     90  C   UNL A   1      46.382  27.362  36.618  1.00  0.00     0.022 A 
BRANCH  87  91
ATOM     91  S   UNL A   1      44.795  25.493  37.946  1.00  0.00     0.124 S 
ATOM     92  O   UNL A   1      44.790  26.199  39.224  1.00  0.00    -0.237 OA
ATOM     93  O   UNL A   1      43.507  24.970  37.502  1.00  0.00    -0.237 OA
ATOM     94  O   UNL A   1      45.931  24.597  37.737  1.00  0.00    -0.744 OA
ENDBRANCH  87  91
ENDBRANCH  61  84
ENDBRANCH  35  36
ENDBRANCH  27  30
ENDBRANCH  25  26
ENDBRANCH  24  25
ENDBRANCH   1  24
TORSDOF 19
ENDMDL
MODEL 2
REMARK VINA RESULT:     -11.4      5.616     10.351
REMARK SMILES CC[C@@](O)(C(=O)NCCCCCCNC(=O)c1ccc(-c2c3nc(c(-c4cc(S(=O)(=O)[O-])ccc4F)c4ccc([nH]4)c(-c4cc(S(=O)(=O)[O-])ccc4F)c4nc(c(-c5cc(S(=O)(=O)[O-])ccc5F)c5ccc2[nH]5)C=C4)C=C3)cc1)[C@@H]1CCOc2ccccc21
REMARK SMILES IDX 11 1 10 2 9 3 8 4 7 5 5 6 6 7 3 9 2 10 1 11 4 12 80 14 81 15
REMARK SMILES IDX 89 16 82 17 84 18 88 19 83 20 85 21 87 22 86 23 12 24 13 25
REMARK SMILES IDX 14 26 15 27 16 29 17 30 18 31 79 32 19 33 78 34 20 35 21 36
REMARK SMILES IDX 22 37 72 38 23 39 77 40 71 41 73 42 24 43 76 44 70 45 69 46
REMARK SMILES IDX 25 48 57 49 37 50 56 51 38 52 41 53 55 54 74 55 39 56 40 57
REMARK SMILES IDX 54 59 75 60 42 61 26 62 27 63 35 64 28 65 34 66 36 67 33 68
REMARK SMILES IDX 29 69 30 70 31 71 32 72 58 73 59 74 67 75 60 76 66 77 68 78
REMARK SMILES IDX 65 79 61 80 62 81 63 82 64 83 43 84 44 85 52 86 45 87 51 88
REMARK SMILES IDX 53 89 50 90 46 91 47 92 48 93 49 94
REMARK H PARENT 7 8 4 13 14 28 73 47 41 58
REMARK Flexibility Score: inf
ROOT
ATOM      1  C   UNL A   1      34.928  21.388  24.485  1.00  0.00     0.002 C 
ENDROOT
BRANCH   1   2
ATOM      2  C   UNL A   1      34.529  21.553  25.956  1.00  0.00     0.002 C 
BRANCH   2   3
ATOM      3  C   UNL A   1      33.150  20.977  26.304  1.00  0.00     0.021 C 
BRANCH   3   4
ATOM      4  C   UNL A   1      32.055  21.431  25.339  1.00  0.00     0.116 C 
BRANCH   4   5
ATOM      5  N   UNL A   1      31.094  22.235  26.062  1.00  0.00    -0.354 N 
ATOM      6  C   UNL A   1      31.008  23.586  26.217  1.00  0.00     0.252 C 
ATOM      7  O   UNL A   1      30.226  23.974  27.091  1.00  0.00    -0.272 OA
ATOM      8  H   UNL A   1      30.387  21.722  26.517  1.00  0.00     0.163 HD
BRANCH   6   9
ATOM      9  C   UNL A   1      31.851  24.570  25.335  1.00  0.00     0.149 C 
BRANCH   9  10
ATOM     10  C   UNL A   1      33.194  24.922  26.042  1.00  0.00     0.043 C 
ATOM     11  C   UNL A   1      34.380  25.243  25.138  1.00  0.00     0.007 C 
ENDBRANCH   9  10
BRANCH   9  12
ATOM     12  O   UNL A   1      32.144  23.831  24.124  1.00  0.00    -0.379 OA
ATOM     13  H   UNL A   1      31.827  22.919  24.218  1.00  0.00     0.212 HD
ENDBRANCH   9  12
BRANCH   9  14
ATOM     14  C   UNL A   1      30.918  25.793  24.948  1.00  0.00     0.068 C 
ATOM     15  C   UNL A   1      30.859  25.985  23.418  1.00  0.00     0.053 C 
ATOM     16  C   UNL A   1      31.196  27.134  25.620  1.00  0.00     0.001 A 
ATOM     17  C   UNL A   1      30.068  27.237  23.107  1.00  0.00     0.230 C 
ATOM     18  C   UNL A   1      31.164  28.322  24.873  1.00  0.00     0.122 A 
ATOM     19  C   UNL A   1      31.507  27.228  26.986  1.00  0.00     0.008 A 
ATOM     20  O   UNL A   1      30.770  28.393  23.562  1.00  0.00    -0.493 OA
ATOM     21  C   UNL A   1      31.589  29.528  25.432  1.00  0.00     0.047 A 
ATOM     22  C   UNL A   1      31.946  28.431  27.541  1.00  0.00     0.001 A 
ATOM     23  C   UNL A   1      32.010  29.577  26.758  1.00  0.00     0.004 A 
ENDBRANCH   9  14
ENDBRANCH   6   9
ENDBRANCH   4   5
ENDBRANCH   3   4
ENDBRANCH   2   3
ENDBRANCH   1   2
BRANCH   1  24
ATOM     24  C   UNL A   1      36.167  22.186  24.072  1.00  0.00     0.021 C 
BRANCH  24  25
ATOM     25  C   UNL A   1      37.082  22.549  25.237  1.00  0.00     0.116 C 
BRANCH  25  26
ATOM     26  N   UNL A   1      37.961  21.442  25.585  1.00  0.00    -0.352 N 
ATOM     27  C   UNL A   1      39.213  21.482  26.144  1.00  0.00     0.251 C 
ATOM     28  H   UNL A   1      37.609  20.543  25.391  1.00  0.00     0.163 HD
ATOM     29  O   UNL A   1      39.923  20.479  26.134  1.00  0.00    -0.269 OA
BRANCH  27  30
ATOM     30  C   UNL A   1      39.700  22.743  26.737  1.00  0.00     0.039 A 
ATOM     31  C   UNL A   1      40.707  22.697  27.703  1.00  0.00     0.014 A 
ATOM     32  C   UNL A   1      39.177  23.970  26.318  1.00  0.00     0.014 A 
ATOM     33  C   UNL A   1      41.239  23.889  28.198  1.00  0.00     0.010 A 
ATOM     34  C   UNL A   1      39.758  25.154  26.759  1.00  0.00     0.010 A 
ATOM     35  C   UNL A   1      40.799  25.126  27.698  1.00  0.00    -0.014 A 
BRANCH  35  36
ATOM     36  C   UNL A   1      41.434  26.401  28.123  1.00  0.00     0.031 A 
ATOM     37  C   UNL A   1      40.615  27.459  28.809  1.00  0.00     0.074 A 
ATOM     38  C   UNL A   1      42.726  26.633  27.814  1.00  0.00     0.049 A 
ATOM     39  N   UNL A   1      40.960  28.671  29.162  1.00  0.00    -0.248 NA
ATOM     40  C   UNL A   1      39.217  27.119  29.117  1.00  0.00     0.031 C 
ATOM     41  C   UNL A   1      43.610  25.692  27.118  1.00  0.00     0.029 A 
ATOM     42  N   UNL A   1      43.521  27.733  28.026  1.00  0.00    -0.354 N 
ATOM     43  C   UNL A   1      39.820  29.245  29.713  1.00  0.00     0.074 A 
ATOM     44  C   UNL A   1      38.762  28.263  29.608  1.00  0.00     0.031 C 
ATOM     45  C   UNL A   1      44.822  26.249  26.974  1.00  0.00     0.029 A 
ATOM     46  C   UNL A   1      44.792  27.606  27.511  1.00  0.00     0.049 A 
ATOM     47  H   UNL A   1      43.211  28.537  28.501  1.00  0.00     0.167 HD
ATOM     48  C   UNL A   1      39.677  30.475  30.266  1.00  0.00     0.034 A 
ATOM     49  C   UNL A   1      45.808  28.491  27.449  1.00  0.00     0.034 A 
ATOM     50  C   UNL A   1      40.751  31.432  30.376  1.00  0.00     0.049 A 
ATOM     51  C   UNL A   1      45.607  29.868  28.037  1.00  0.00     0.074 A 
ATOM     52  C   UNL A   1      40.737  32.668  30.998  1.00  0.00     0.029 A 
ATOM     53  N   UNL A   1      42.021  31.271  29.838  1.00  0.00    -0.354 N 
ATOM     54  N   UNL A   1      44.545  30.365  28.627  1.00  0.00    -0.248 NA
ATOM     55  C   UNL A   1      46.739  30.799  27.954  1.00  0.00     0.031 C 
ATOM     56  C   UNL A   1      41.964  33.292  30.757  1.00  0.00     0.029 A 
ATOM     57  C   UNL A   1      42.778  32.411  30.065  1.00  0.00     0.049 A 
ATOM     58  H   UNL A   1      42.336  30.469  29.365  1.00  0.00     0.167 HD
ATOM     59  C   UNL A   1      44.893  31.658  29.008  1.00  0.00     0.074 A 
ATOM     60  C   UNL A   1      46.269  31.855  28.601  1.00  0.00     0.031 C 
ATOM     61  C   UNL A   1      44.146  32.598  29.641  1.00  0.00     0.034 A 
BRANCH  48  62
ATOM     62  C   UNL A   1      38.308  30.874  30.761  1.00  0.00     0.023 A 
ATOM     63  C   UNL A   1      37.346  31.447  29.913  1.00  0.00     0.031 A 
ATOM     64  C   UNL A   1      37.956  30.660  32.106  1.00  0.00     0.131 A 
ATOM     65  C   UNL A   1      36.101  31.838  30.430  1.00  0.00     0.055 A 
ATOM     66  C   UNL A   1      36.689  30.978  32.596  1.00  0.00     0.041 A 
ATOM     67  F   UNL A   1      38.841  30.137  32.969  1.00  0.00    -0.206 F 
ATOM     68  C   UNL A   1      35.756  31.583  31.759  1.00  0.00     0.022 A 
BRANCH  65  69
ATOM     69  S   UNL A   1      34.983  32.797  29.371  1.00  0.00     0.124 S 
ATOM     70  O   UNL A   1      35.919  33.673  28.672  1.00  0.00    -0.237 OA
ATOM     71  O   UNL A   1      34.351  31.762  28.562  1.00  0.00    -0.237 OA
ATOM     72  O   UNL A   1      34.103  33.471  30.324  1.00  0.00    -0.744 OA
ENDBRANCH  65  69
ENDBRANCH  48  62
BRANCH  49  73
ATOM     73  C   UNL A   1      47.090  28.134  26.771  1.00  0.00     0.023 A 
ATOM     74  C   UNL A   1      47.203  28.159  25.372  1.00  0.00     0.031 A 
ATOM     75  C   UNL A   1      48.203  27.694  27.511  1.00  0.00     0.131 A 
ATOM     76  C   UNL A   1      48.375  27.696  24.755  1.00  0.00     0.055 A 
ATOM     77  C   UNL A   1      49.391  27.298  26.895  1.00  0.00     0.041 A 
ATOM     78  F   UNL A   1      48.152  27.645  28.852  1.00  0.00    -0.206 F 
ATOM     79  C   UNL A   1      49.476  27.281  25.508  1.00  0.00     0.022 A 
BRANCH  76  80
ATOM     80  S   UNL A   1      48.394  27.523  22.949  1.00  0.00     0.124 S 
ATOM     81  O   UNL A   1      48.350  26.074  22.790  1.00  0.00    -0.237 OA
ATOM     82  O   UNL A   1      47.188  28.249  22.564  1.00  0.00    -0.237 OA
ATOM     83  O   UNL A   1      49.652  28.158  22.561  1.00  0.00    -0.744 OA
ENDBRANCH  76  80
ENDBRANCH  49  73
BRANCH  61  84
ATOM     84  C   UNL A   1      44.814  33.913  29.960  1.00  0.00     0.023 A 
ATOM     85  C   UNL A   1      44.759  35.003  29.075  1.00  0.00     0.031 A 
ATOM     86  C   UNL A   1      45.501  34.080  31.175  1.00  0.00     0.131 A 
ATOM     87  C   UNL A   1      45.419  36.198  29.399  1.00  0.00     0.055 A 
ATOM     88  C   UNL A   1      46.102  35.291  31.520  1.00  0.00     0.041 A 
ATOM     89  F   UNL A   1      45.589  33.069  32.056  1.00  0.00    -0.206 F 
ATOM     90  C   UNL A   1      46.071  36.356  30.625  1.00  0.00     0.022 A 
BRANCH  87  91
ATOM     91  S   UNL A   1      45.478  37.523  28.163  1.00  0.00     0.124 S 
ATOM     92  O   UNL A   1      46.867  37.462  27.719  1.00  0.00    -0.237 OA
ATOM     93  O   UNL A   1      44.478  37.091  27.191  1.00  0.00    -0.237 OA
ATOM     94  O   UNL A   1      45.122  38.719  28.925  1.00  0.00    -0.744 OA
ENDBRANCH  87  91
ENDBRANCH  61  84
ENDBRANCH  35  36
ENDBRANCH  27  30
ENDBRANCH  25  26
ENDBRANCH  24  25
ENDBRANCH   1  24
TORSDOF 19
ENDMDL
MODEL 3
REMARK VINA RESULT:     -11.4      5.457      8.787
REMARK SMILES CC[C@@](O)(C(=O)NCCCCCCNC(=O)c1ccc(-c2c3nc(c(-c4cc(S(=O)(=O)[O-])ccc4F)c4ccc([nH]4)c(-c4cc(S(=O)(=O)[O-])ccc4F)c4nc(c(-c5cc(S(=O)(=O)[O-])ccc5F)c5ccc2[nH]5)C=C4)C=C3)cc1)[C@@H]1CCOc2ccccc21
REMARK SMILES IDX 11 1 10 2 9 3 8 4 7 5 5 6 6 7 3 9 2 10 1 11 4 12 80 14 81 15
REMARK SMILES IDX 89 16 82 17 84 18 88 19 83 20 85 21 87 22 86 23 12 24 13 25
REMARK SMILES IDX 14 26 15 27 16 29 17 30 18 31 79 32 19 33 78 34 20 35 21 36
REMARK SMILES IDX 22 37 72 38 23 39 77 40 71 41 73 42 24 43 76 44 70 45 69 46
REMARK SMILES IDX 25 48 57 49 37 50 56 51 38 52 41 53 55 54 74 55 39 56 40 57
REMARK SMILES IDX 54 59 75 60 42 61 26 62 27 63 35 64 28 65 34 66 36 67 33 68
REMARK SMILES IDX 29 69 30 70 31 71 32 72 58 73 59 74 67 75 60 76 66 77 68 78
REMARK SMILES IDX 65 79 61 80 62 81 63 82 64 83 43 84 44 85 52 86 45 87 51 88
REMARK SMILES IDX 53 89 50 90 46 91 47 92 48 93 49 94
REMARK H PARENT 7 8 4 13 14 28 73 47 41 58
REMARK Flexibility Score: inf
ROOT
ATOM      1  C   UNL A   1      35.642  21.245  25.026  1.00  0.00     0.002 C 
ENDROOT
BRANCH   1   2
ATOM      2  C   UNL A   1      34.309  20.497  25.131  1.00  0.00     0.002 C 
BRANCH   2   3
ATOM      3  C   UNL A   1      33.244  21.218  25.969  1.00  0.00     0.021 C 
BRANCH   3   4
ATOM      4  C   UNL A   1      31.944  21.455  25.202  1.00  0.00     0.116 C 
BRANCH   4   5
ATOM      5  N   UNL A   1      31.059  22.263  26.014  1.00  0.00    -0.354 N 
ATOM      6  C   UNL A   1      30.995  23.614  26.177  1.00  0.00     0.252 C 
ATOM      7  O   UNL A   1      30.300  24.005  27.121  1.00  0.00    -0.272 OA
ATOM      8  H   UNL A   1      30.395  21.753  26.533  1.00  0.00     0.163 HD
BRANCH   6   9
ATOM      9  C   UNL A   1      31.756  24.595  25.220  1.00  0.00     0.149 C 
BRANCH   9  10
ATOM     10  C   UNL A   1      33.174  24.914  25.782  1.00  0.00     0.043 C 
ATOM     11  C   UNL A   1      34.343  24.765  24.813  1.00  0.00     0.007 C 
ENDBRANCH   9  10
BRANCH   9  12
ATOM     12  O   UNL A   1      31.903  23.867  23.976  1.00  0.00    -0.379 OA
ATOM     13  H   UNL A   1      32.751  24.097  23.566  1.00  0.00     0.212 HD
ENDBRANCH   9  12
BRANCH   9  14
ATOM     14  C   UNL A   1      30.811  25.840  24.951  1.00  0.00     0.068 C 
ATOM     15  C   UNL A   1      30.611  26.069  23.438  1.00  0.00     0.053 C 
ATOM     16  C   UNL A   1      31.171  27.160  25.623  1.00  0.00     0.001 A 
ATOM     17  C   UNL A   1      29.814  27.338  23.231  1.00  0.00     0.230 C 
ATOM     18  C   UNL A   1      31.088  28.365  24.910  1.00  0.00     0.122 A 
ATOM     19  C   UNL A   1      31.611  27.217  26.956  1.00  0.00     0.008 A 
ATOM     20  O   UNL A   1      30.573  28.473  23.644  1.00  0.00    -0.493 OA
ATOM     21  C   UNL A   1      31.582  29.552  25.453  1.00  0.00     0.047 A 
ATOM     22  C   UNL A   1      32.118  28.400  27.495  1.00  0.00     0.001 A 
ATOM     23  C   UNL A   1      32.126  29.564  26.734  1.00  0.00     0.004 A 
ENDBRANCH   9  14
ENDBRANCH   6   9
ENDBRANCH   4   5
ENDBRANCH   3   4
ENDBRANCH   2   3
ENDBRANCH   1   2
BRANCH   1  24
ATOM     24  C   UNL A   1      36.875  20.339  24.975  1.00  0.00     0.021 C 
BRANCH  24  25
ATOM     25  C   UNL A   1      38.179  21.055  25.310  1.00  0.00     0.116 C 
BRANCH  25  26
ATOM     26  N   UNL A   1      39.105  20.173  26.005  1.00  0.00    -0.352 N 
ATOM     27  C   UNL A   1      40.255  20.494  26.679  1.00  0.00     0.251 C 
ATOM     28  H   UNL A   1      38.874  19.216  25.987  1.00  0.00     0.163 HD
ATOM     29  O   UNL A   1      41.055  19.612  26.985  1.00  0.00    -0.269 OA
BRANCH  27  30
ATOM     30  C   UNL A   1      40.528  21.906  27.013  1.00  0.00     0.039 A 
ATOM     31  C   UNL A   1      41.439  22.202  28.029  1.00  0.00     0.014 A 
ATOM     32  C   UNL A   1      39.899  22.934  26.304  1.00  0.00     0.014 A 
ATOM     33  C   UNL A   1      41.772  23.533  28.285  1.00  0.00     0.010 A 
ATOM     34  C   UNL A   1      40.287  24.253  26.513  1.00  0.00     0.010 A 
ATOM     35  C   UNL A   1      41.233  24.566  27.501  1.00  0.00    -0.014 A 
BRANCH  35  36
ATOM     36  C   UNL A   1      41.665  25.977  27.677  1.00  0.00     0.031 A 
ATOM     37  C   UNL A   1      43.000  26.429  27.153  1.00  0.00     0.074 A 
ATOM     38  C   UNL A   1      40.887  26.825  28.380  1.00  0.00     0.049 A 
ATOM     39  N   UNL A   1      43.596  27.584  27.297  1.00  0.00    -0.248 NA
ATOM     40  C   UNL A   1      43.780  25.442  26.388  1.00  0.00     0.031 C 
ATOM     41  C   UNL A   1      39.586  26.488  28.966  1.00  0.00     0.029 A 
ATOM     42  N   UNL A   1      41.078  28.137  28.740  1.00  0.00    -0.354 N 
ATOM     43  C   UNL A   1      44.826  27.460  26.660  1.00  0.00     0.074 A 
ATOM     44  C   UNL A   1      44.908  26.101  26.168  1.00  0.00     0.031 C 
ATOM     45  C   UNL A   1      39.093  27.565  29.597  1.00  0.00     0.029 A 
ATOM     46  C   UNL A   1      40.063  28.652  29.516  1.00  0.00     0.049 A 
ATOM     47  H   UNL A   1      41.866  28.659  28.469  1.00  0.00     0.167 HD
ATOM     48  C   UNL A   1      45.790  28.398  26.495  1.00  0.00     0.034 A 
ATOM     49  C   UNL A   1      39.941  29.852  30.120  1.00  0.00     0.034 A 
ATOM     50  C   UNL A   1      45.679  29.752  26.979  1.00  0.00     0.049 A 
ATOM     51  C   UNL A   1      41.049  30.864  29.951  1.00  0.00     0.074 A 
ATOM     52  C   UNL A   1      46.555  30.806  26.788  1.00  0.00     0.029 A 
ATOM     53  N   UNL A   1      44.641  30.236  27.765  1.00  0.00    -0.354 N 
ATOM     54  N   UNL A   1      42.170  30.754  29.277  1.00  0.00    -0.248 NA
ATOM     55  C   UNL A   1      40.874  32.160  30.619  1.00  0.00     0.031 C 
ATOM     56  C   UNL A   1      46.097  31.896  27.532  1.00  0.00     0.029 A 
ATOM     57  C   UNL A   1      44.887  31.556  28.114  1.00  0.00     0.049 A 
ATOM     58  H   UNL A   1      43.850  29.719  28.036  1.00  0.00     0.167 HD
ATOM     59  C   UNL A   1      42.820  31.978  29.420  1.00  0.00     0.074 A 
ATOM     60  C   UNL A   1      41.956  32.815  30.226  1.00  0.00     0.031 C 
ATOM     61  C   UNL A   1      44.021  32.375  28.929  1.00  0.00     0.034 A 
BRANCH  48  62
ATOM     62  C   UNL A   1      47.063  27.990  25.794  1.00  0.00     0.023 A 
ATOM     63  C   UNL A   1      47.221  28.110  24.404  1.00  0.00     0.031 A 
ATOM     64  C   UNL A   1      48.144  27.483  26.539  1.00  0.00     0.131 A 
ATOM     65  C   UNL A   1      48.410  27.679  23.795  1.00  0.00     0.055 A 
ATOM     66  C   UNL A   1      49.352  27.130  25.937  1.00  0.00     0.041 A 
ATOM     67  F   UNL A   1      48.043  27.323  27.868  1.00  0.00    -0.206 F 
ATOM     68  C   UNL A   1      49.487  27.215  24.554  1.00  0.00     0.022 A 
BRANCH  65  69
ATOM     69  S   UNL A   1      48.485  27.618  21.983  1.00  0.00     0.124 S 
ATOM     70  O   UNL A   1      48.709  26.194  21.747  1.00  0.00    -0.237 OA
ATOM     71  O   UNL A   1      47.178  28.132  21.596  1.00  0.00    -0.237 OA
ATOM     72  O   UNL A   1      49.618  28.482  21.658  1.00  0.00    -0.744 OA
ENDBRANCH  65  69
ENDBRANCH  48  62
BRANCH  49  73
ATOM     73  C   UNL A   1      38.757  30.157  30.976  1.00  0.00     0.023 A 
ATOM     74  C   UNL A   1      37.665  30.882  30.474  1.00  0.00     0.031 A 
ATOM     75  C   UNL A   1      38.730  29.788  32.334  1.00  0.00     0.131 A 
ATOM     76  C   UNL A   1      36.624  31.268  31.332  1.00  0.00     0.055 A 
ATOM     77  C   UNL A   1      37.660  30.115  33.169  1.00  0.00     0.041 A 
ATOM     78  F   UNL A   1      39.748  29.097  32.872  1.00  0.00    -0.206 F 
ATOM     79  C   UNL A   1      36.606  30.875  32.673  1.00  0.00     0.022 A 
BRANCH  76  80
ATOM     80  S   UNL A   1      35.354  32.399  30.702  1.00  0.00     0.124 S 
ATOM     81  O   UNL A   1      35.036  31.796  29.413  1.00  0.00    -0.237 OA
ATOM     82  O   UNL A   1      34.323  32.297  31.730  1.00  0.00    -0.237 OA
ATOM     83  O   UNL A   1      36.045  33.685  30.639  1.00  0.00    -0.744 OA
ENDBRANCH  76  80
ENDBRANCH  49  73
BRANCH  61  84
ATOM     84  C   UNL A   1      44.455  33.791  29.222  1.00  0.00     0.023 A 
ATOM     85  C   UNL A   1      44.159  34.850  28.347  1.00  0.00     0.031 A 
ATOM     86  C   UNL A   1      45.160  34.084  30.403  1.00  0.00     0.131 A 
ATOM     87  C   UNL A   1      44.606  36.146  28.645  1.00  0.00     0.055 A 
ATOM     88  C   UNL A   1      45.547  35.385  30.724  1.00  0.00     0.041 A 
ATOM     89  F   UNL A   1      45.474  33.109  31.272  1.00  0.00    -0.206 F 
ATOM     90  C   UNL A   1      45.279  36.424  29.837  1.00  0.00     0.022 A 
BRANCH  87  91
ATOM     91  S   UNL A   1      44.361  37.456  27.415  1.00  0.00     0.124 S 
ATOM     92  O   UNL A   1      45.571  37.342  26.606  1.00  0.00    -0.237 OA
ATOM     93  O   UNL A   1      43.120  37.048  26.765  1.00  0.00    -0.237 OA
ATOM     94  O   UNL A   1      44.266  38.671  28.222  1.00  0.00    -0.744 OA
ENDBRANCH  87  91
ENDBRANCH  61  84
ENDBRANCH  35  36
ENDBRANCH  27  30
ENDBRANCH  25  26
ENDBRANCH  24  25
ENDBRANCH   1  24
TORSDOF 19
ENDMDL
