MODEL 1
REMARK VINA RESULT:     -12.0      0.000      0.000
REMARK SMILES Cc1nsc(N(C)C(=O)[C@@H]2CC(=O)N(C)C2)c1C(=O)NCCCCCCNC(=O)c1ccc(-c2c3nc(c(-c4cc(S(=O)(=O)[O-])ccc4F)c4ccc([nH]4)c(-c4cc(S(=O)(=O)[O-])ccc4F)c4nc(c(-c5cc(S(=O)(=O)[O-])ccc5F)c5ccc2[nH]5)C=C4)C=C3)cc1
REMARK SMILES IDX 23 1 22 2 21 3 20 4 18 5 19 6 17 8 1 9 2 10 3 11 4 12 5 13
REMARK SMILES IDX 6 14 7 15 8 16 9 17 10 18 11 19 16 20 12 21 14 22 13 23
REMARK SMILES IDX 15 24 24 25 25 26 26 27 27 28 28 29 29 31 30 32 31 33 92 34
REMARK SMILES IDX 32 35 91 36 33 37 34 38 35 39 85 40 36 41 90 42 84 43 86 44
REMARK SMILES IDX 37 45 89 46 83 47 82 48 38 50 70 51 50 52 69 53 51 54 54 55
REMARK SMILES IDX 68 56 87 57 52 58 53 59 67 61 88 62 55 63 39 64 40 65 48 66
REMARK SMILES IDX 41 67 47 68 49 69 46 70 42 71 43 72 44 73 45 74 71 75 72 76
REMARK SMILES IDX 80 77 73 78 79 79 81 80 78 81 74 82 75 83 76 84 77 85 56 86
REMARK SMILES IDX 57 87 65 88 58 89 64 90 66 91 63 92 59 93 60 94 61 95 62 96
REMARK H PARENT 20 7 27 30 86 49 54 60
REMARK Flexibility Score: inf
ROOT
ATOM      1  C   UNL A   1      33.077  27.922  26.422  1.00  0.00     0.002 C 
ENDROOT
BRANCH   1   2
ATOM      2  C   UNL A   1      33.418  28.208  24.961  1.00  0.00     0.021 C 
BRANCH   2   3
ATOM      3  C   UNL A   1      32.601  27.461  23.916  1.00  0.00     0.116 C 
BRANCH   3   4
ATOM      4  N   UNL A   1      33.124  26.195  23.481  1.00  0.00    -0.352 N 
ATOM      5  C   UNL A   1      32.817  24.907  23.861  1.00  0.00     0.256 C 
ATOM      6  O   UNL A   1      32.853  24.080  22.939  1.00  0.00    -0.269 OA
ATOM      7  H   UNL A   1      33.822  26.259  22.790  1.00  0.00     0.163 HD
BRANCH   5   8
ATOM      8  C   UNL A   1      32.541  24.443  25.239  1.00  0.00     0.097 A 
ATOM      9  C   UNL A   1      30.135  25.386  26.039  1.00  0.00     0.069 C 
ATOM     10  C   UNL A   1      31.382  24.575  26.134  1.00  0.00     0.066 A 
ATOM     11  N   UNL A   1      31.398  23.809  27.226  1.00  0.00    -0.195 NA
ATOM     12  S   UNL A   1      32.772  22.946  27.282  1.00  0.00    -0.017 S 
ATOM     13  C   UNL A   1      33.490  23.612  25.886  1.00  0.00     0.131 A 
BRANCH  13  14
ATOM     14  N   UNL A   1      34.847  23.265  25.616  1.00  0.00    -0.305 N 
ATOM     15  C   UNL A   1      35.982  24.131  25.937  1.00  0.00     0.154 C 
BRANCH  14  16
ATOM     16  C   UNL A   1      35.036  22.129  24.823  1.00  0.00     0.232 C 
ATOM     17  O   UNL A   1      35.829  22.135  23.870  1.00  0.00    -0.274 OA
BRANCH  16  18
ATOM     18  C   UNL A   1      34.386  20.784  25.175  1.00  0.00     0.108 C 
ATOM     19  C   UNL A   1      35.431  19.677  24.916  1.00  0.00     0.115 C 
ATOM     20  C   UNL A   1      33.156  20.290  24.431  1.00  0.00     0.133 C 
ATOM     21  C   UNL A   1      34.639  18.469  24.510  1.00  0.00     0.223 C 
ATOM     22  N   UNL A   1      33.333  18.865  24.307  1.00  0.00    -0.345 N 
ATOM     23  O   UNL A   1      35.083  17.341  24.378  1.00  0.00    -0.275 OA
ATOM     24  C   UNL A   1      32.259  17.956  23.983  1.00  0.00     0.146 C 
ENDBRANCH  16  18
ENDBRANCH  14  16
ENDBRANCH  13  14
ENDBRANCH   5   8
ENDBRANCH   3   4
ENDBRANCH   2   3
ENDBRANCH   1   2
BRANCH   1  25
ATOM     25  C   UNL A   1      32.198  28.950  27.150  1.00  0.00     0.002 C 
BRANCH  25  26
ATOM     26  C   UNL A   1      32.498  30.440  26.923  1.00  0.00     0.021 C 
BRANCH  26  27
ATOM     27  C   UNL A   1      33.903  30.877  27.305  1.00  0.00     0.116 C 
BRANCH  27  28
ATOM     28  N   UNL A   1      33.917  31.839  28.401  1.00  0.00    -0.352 N 
ATOM     29  C   UNL A   1      34.783  31.903  29.481  1.00  0.00     0.251 C 
ATOM     30  H   UNL A   1      33.220  32.534  28.370  1.00  0.00     0.163 HD
ATOM     31  O   UNL A   1      34.456  32.490  30.499  1.00  0.00    -0.269 OA
BRANCH  29  32
ATOM     32  C   UNL A   1      36.097  31.236  29.375  1.00  0.00     0.039 A 
ATOM     33  C   UNL A   1      37.282  31.972  29.324  1.00  0.00     0.014 A 
ATOM     34  C   UNL A   1      36.126  29.845  29.349  1.00  0.00     0.014 A 
ATOM     35  C   UNL A   1      38.496  31.287  29.335  1.00  0.00     0.010 A 
ATOM     36  C   UNL A   1      37.312  29.181  29.528  1.00  0.00     0.010 A 
ATOM     37  C   UNL A   1      38.505  29.888  29.464  1.00  0.00    -0.014 A 
BRANCH  37  38
ATOM     38  C   UNL A   1      39.755  29.156  29.644  1.00  0.00     0.031 A 
ATOM     39  C   UNL A   1      40.115  28.888  31.060  1.00  0.00     0.074 A 
ATOM     40  C   UNL A   1      40.448  28.586  28.635  1.00  0.00     0.049 A 
ATOM     41  N   UNL A   1      41.063  29.442  31.738  1.00  0.00    -0.248 NA
ATOM     42  C   UNL A   1      39.238  28.026  31.865  1.00  0.00     0.031 C 
ATOM     43  C   UNL A   1      40.099  28.501  27.213  1.00  0.00     0.029 A 
ATOM     44  N   UNL A   1      41.593  27.854  28.701  1.00  0.00    -0.354 N 
ATOM     45  C   UNL A   1      41.062  28.825  32.982  1.00  0.00     0.074 A 
ATOM     46  C   UNL A   1      39.806  28.127  33.071  1.00  0.00     0.031 C 
ATOM     47  C   UNL A   1      40.877  27.576  26.608  1.00  0.00     0.029 A 
ATOM     48  C   UNL A   1      41.890  27.131  27.549  1.00  0.00     0.049 A 
ATOM     49  H   UNL A   1      42.166  27.836  29.501  1.00  0.00     0.167 HD
ATOM     50  C   UNL A   1      42.199  28.757  33.730  1.00  0.00     0.034 A 
ATOM     51  C   UNL A   1      42.890  26.225  27.381  1.00  0.00     0.034 A 
ATOM     52  C   UNL A   1      43.199  29.680  33.235  1.00  0.00     0.049 A 
ATOM     53  C   UNL A   1      43.928  26.560  28.390  1.00  0.00     0.074 A 
ATOM     54  C   UNL A   1      43.216  31.046  33.011  1.00  0.00     0.029 A 
ATOM     55  N   UNL A   1      44.236  29.177  32.477  1.00  0.00    -0.354 N 
ATOM     56  N   UNL A   1      44.598  27.681  28.372  1.00  0.00    -0.248 NA
ATOM     57  C   UNL A   1      43.858  25.905  29.688  1.00  0.00     0.031 C 
ATOM     58  C   UNL A   1      43.864  31.196  31.748  1.00  0.00     0.029 A 
ATOM     59  C   UNL A   1      44.302  29.936  31.331  1.00  0.00     0.049 A 
ATOM     60  H   UNL A   1      44.818  28.419  32.712  1.00  0.00     0.167 HD
ATOM     61  C   UNL A   1      44.637  28.097  29.694  1.00  0.00     0.074 A 
ATOM     62  C   UNL A   1      44.255  26.915  30.469  1.00  0.00     0.031 C 
ATOM     63  C   UNL A   1      44.692  29.422  30.029  1.00  0.00     0.034 A 
BRANCH  50  64
ATOM     64  C   UNL A   1      42.544  27.638  34.686  1.00  0.00     0.023 A 
ATOM     65  C   UNL A   1      43.301  26.562  34.182  1.00  0.00     0.031 A 
ATOM     66  C   UNL A   1      41.956  27.433  35.954  1.00  0.00     0.131 A 
ATOM     67  C   UNL A   1      43.373  25.341  34.876  1.00  0.00     0.055 A 
ATOM     68  C   UNL A   1      42.091  26.241  36.672  1.00  0.00     0.041 A 
ATOM     69  F   UNL A   1      41.142  28.326  36.529  1.00  0.00    -0.206 F 
ATOM     70  C   UNL A   1      42.776  25.174  36.122  1.00  0.00     0.022 A 
BRANCH  67  71
ATOM     71  S   UNL A   1      44.111  23.916  34.035  1.00  0.00     0.124 S 
ATOM     72  O   UNL A   1      43.014  22.955  34.065  1.00  0.00    -0.237 OA
ATOM     73  O   UNL A   1      44.444  24.476  32.730  1.00  0.00    -0.237 OA
ATOM     74  O   UNL A   1      45.256  23.582  34.879  1.00  0.00    -0.744 OA
ENDBRANCH  67  71
ENDBRANCH  50  64
BRANCH  51  75
ATOM     75  C   UNL A   1      42.835  24.941  26.625  1.00  0.00     0.023 A 
ATOM     76  C   UNL A   1      43.911  24.460  25.844  1.00  0.00     0.031 A 
ATOM     77  C   UNL A   1      41.778  24.032  26.866  1.00  0.00     0.131 A 
ATOM     78  C   UNL A   1      43.900  23.132  25.351  1.00  0.00     0.055 A 
ATOM     79  C   UNL A   1      41.773  22.724  26.376  1.00  0.00     0.041 A 
ATOM     80  F   UNL A   1      40.749  24.356  27.664  1.00  0.00    -0.206 F 
ATOM     81  C   UNL A   1      42.840  22.264  25.625  1.00  0.00     0.022 A 
BRANCH  78  82
ATOM     82  S   UNL A   1      45.324  22.470  24.422  1.00  0.00     0.124 S 
ATOM     83  O   UNL A   1      44.680  21.584  23.459  1.00  0.00    -0.237 OA
ATOM     84  O   UNL A   1      45.938  23.677  23.884  1.00  0.00    -0.237 OA
ATOM     85  O   UNL A   1      46.115  21.789  25.448  1.00  0.00    -0.744 OA
ENDBRANCH  78  82
ENDBRANCH  51  75
BRANCH  63  86
ATOM     86  C   UNL A   1      44.965  30.446  28.937  1.00  0.00     0.023 A 
ATOM     87  C   UNL A   1      46.247  30.905  28.552  1.00  0.00     0.031 A 
ATOM     88  C   UNL A   1      43.869  30.874  28.166  1.00  0.00     0.131 A 
ATOM     89  C   UNL A   1      46.389  31.765  27.442  1.00  0.00     0.055 A 
ATOM     90  C   UNL A   1      44.016  31.702  27.053  1.00  0.00     0.041 A 
ATOM     91  F   UNL A   1      42.625  30.460  28.460  1.00  0.00    -0.206 F 
ATOM     92  C   UNL A   1      45.278  32.156  26.690  1.00  0.00     0.022 A 
BRANCH  89  93
ATOM     93  S   UNL A   1      48.026  32.412  26.961  1.00  0.00     0.124 S 
ATOM     94  O   UNL A   1      48.737  31.228  26.490  1.00  0.00    -0.237 OA
ATOM     95  O   UNL A   1      47.690  33.403  25.943  1.00  0.00    -0.237 OA
ATOM     96  O   UNL A   1      48.547  32.977  28.207  1.00  0.00    -0.744 OA
ENDBRANCH  89  93
ENDBRANCH  63  86
ENDBRANCH  37  38
ENDBRANCH  29  32
ENDBRANCH  27  28
ENDBRANCH  26  27
ENDBRANCH  25  26
ENDBRANCH   1  25
TORSDOF 19
ENDMDL
MODEL 2
REMARK VINA RESULT:     -12.0      2.821      7.165
REMARK SMILES Cc1nsc(N(C)C(=O)[C@@H]2CC(=O)N(C)C2)c1C(=O)NCCCCCCNC(=O)c1ccc(-c2c3nc(c(-c4cc(S(=O)(=O)[O-])ccc4F)c4ccc([nH]4)c(-c4cc(S(=O)(=O)[O-])ccc4F)c4nc(c(-c5cc(S(=O)(=O)[O-])ccc5F)c5ccc2[nH]5)C=C4)C=C3)cc1
REMARK SMILES IDX 23 1 22 2 21 3 20 4 18 5 19 6 17 8 1 9 2 10 3 11 4 12 5 13
REMARK SMILES IDX 6 14 7 15 8 16 9 17 10 18 11 19 16 20 12 21 14 22 13 23
REMARK SMILES IDX 15 24 24 25 25 26 26 27 27 28 28 29 29 31 30 32 31 33 92 34
REMARK SMILES IDX 32 35 91 36 33 37 34 38 35 39 85 40 36 41 90 42 84 43 86 44
REMARK SMILES IDX 37 45 89 46 83 47 82 48 38 50 70 51 50 52 69 53 51 54 54 55
REMARK SMILES IDX 68 56 87 57 52 58 53 59 67 61 88 62 55 63 39 64 40 65 48 66
REMARK SMILES IDX 41 67 47 68 49 69 46 70 42 71 43 72 44 73 45 74 71 75 72 76
REMARK SMILES IDX 80 77 73 78 79 79 81 80 78 81 74 82 75 83 76 84 77 85 56 86
REMARK SMILES IDX 57 87 65 88 58 89 64 90 66 91 63 92 59 93 60 94 61 95 62 96
REMARK H PARENT 20 7 27 30 86 49 54 60
REMARK Flexibility Score: inf
ROOT
ATOM      1  C   UNL A   1      32.030  29.576  26.068  1.00  0.00     0.002 C 
ENDROOT
BRANCH   1   2
ATOM      2  C   UNL A   1      31.404  28.888  24.856  1.00  0.00     0.021 C 
BRANCH   2   3
ATOM      3  C   UNL A   1      31.007  27.429  25.034  1.00  0.00     0.116 C 
BRANCH   3   4
ATOM      4  N   UNL A   1      31.976  26.575  25.664  1.00  0.00    -0.352 N 
ATOM      5  C   UNL A   1      32.995  25.815  25.136  1.00  0.00     0.256 C 
ATOM      6  O   UNL A   1      34.016  25.772  25.837  1.00  0.00    -0.269 OA
ATOM      7  H   UNL A   1      31.897  26.525  26.644  1.00  0.00     0.163 HD
BRANCH   5   8
ATOM      8  C   UNL A   1      32.938  25.015  23.892  1.00  0.00     0.097 A 
ATOM      9  C   UNL A   1      33.223  26.653  21.757  1.00  0.00     0.069 C 
ATOM     10  C   UNL A   1      33.110  25.349  22.470  1.00  0.00     0.066 A 
ATOM     11  N   UNL A   1      33.233  24.313  21.639  1.00  0.00    -0.195 NA
ATOM     12  S   UNL A   1      33.105  22.919  22.461  1.00  0.00    -0.017 S 
ATOM     13  C   UNL A   1      32.781  23.610  23.986  1.00  0.00     0.131 A 
BRANCH  13  14
ATOM     14  N   UNL A   1      32.411  22.725  25.043  1.00  0.00    -0.305 N 
ATOM     15  C   UNL A   1      31.065  22.665  25.613  1.00  0.00     0.154 C 
BRANCH  14  16
ATOM     16  C   UNL A   1      33.466  22.052  25.667  1.00  0.00     0.232 C 
ATOM     17  O   UNL A   1      33.263  21.269  26.606  1.00  0.00    -0.274 OA
BRANCH  16  18
ATOM     18  C   UNL A   1      34.902  22.134  25.133  1.00  0.00     0.108 C 
ATOM     19  C   UNL A   1      35.376  20.694  24.842  1.00  0.00     0.115 C 
ATOM     20  C   UNL A   1      36.023  22.711  25.984  1.00  0.00     0.133 C 
ATOM     21  C   UNL A   1      36.857  20.706  25.087  1.00  0.00     0.223 C 
ATOM     22  N   UNL A   1      37.180  21.907  25.683  1.00  0.00    -0.345 N 
ATOM     23  O   UNL A   1      37.629  19.803  24.810  1.00  0.00    -0.275 OA
ATOM     24  C   UNL A   1      38.531  22.311  25.995  1.00  0.00     0.146 C 
ENDBRANCH  16  18
ENDBRANCH  14  16
ENDBRANCH  13  14
ENDBRANCH   5   8
ENDBRANCH   3   4
ENDBRANCH   2   3
ENDBRANCH   1   2
BRANCH   1  25
ATOM     25  C   UNL A   1      33.558  29.497  26.205  1.00  0.00     0.002 C 
BRANCH  25  26
ATOM     26  C   UNL A   1      34.221  30.303  27.332  1.00  0.00     0.021 C 
BRANCH  26  27
ATOM     27  C   UNL A   1      35.460  29.661  27.936  1.00  0.00     0.116 C 
BRANCH  27  28
ATOM     28  N   UNL A   1      35.605  29.943  29.360  1.00  0.00    -0.352 N 
ATOM     29  C   UNL A   1      36.578  29.487  30.234  1.00  0.00     0.251 C 
ATOM     30  H   UNL A   1      34.922  30.536  29.751  1.00  0.00     0.163 HD
ATOM     31  O   UNL A   1      36.369  29.472  31.435  1.00  0.00    -0.269 OA
BRANCH  29  32
ATOM     32  C   UNL A   1      37.861  29.009  29.678  1.00  0.00     0.039 A 
ATOM     33  C   UNL A   1      38.479  29.666  28.613  1.00  0.00     0.014 A 
ATOM     34  C   UNL A   1      38.454  27.894  30.261  1.00  0.00     0.014 A 
ATOM     35  C   UNL A   1      39.740  29.237  28.203  1.00  0.00     0.010 A 
ATOM     36  C   UNL A   1      39.757  27.579  29.972  1.00  0.00     0.010 A 
ATOM     37  C   UNL A   1      40.388  28.206  28.906  1.00  0.00    -0.014 A 
BRANCH  37  38
ATOM     38  C   UNL A   1      41.770  27.844  28.609  1.00  0.00     0.031 A 
ATOM     39  C   UNL A   1      41.927  26.582  27.843  1.00  0.00     0.074 A 
ATOM     40  C   UNL A   1      42.826  28.658  28.823  1.00  0.00     0.049 A 
ATOM     41  N   UNL A   1      42.378  25.456  28.283  1.00  0.00    -0.248 NA
ATOM     42  C   UNL A   1      41.381  26.506  26.479  1.00  0.00     0.031 C 
ATOM     43  C   UNL A   1      42.837  30.043  29.305  1.00  0.00     0.029 A 
ATOM     44  N   UNL A   1      44.139  28.433  28.546  1.00  0.00    -0.354 N 
ATOM     45  C   UNL A   1      42.407  24.595  27.194  1.00  0.00     0.074 A 
ATOM     46  C   UNL A   1      41.598  25.222  26.181  1.00  0.00     0.031 C 
ATOM     47  C   UNL A   1      44.046  30.599  29.064  1.00  0.00     0.029 A 
ATOM     48  C   UNL A   1      44.944  29.568  28.576  1.00  0.00     0.049 A 
ATOM     49  H   UNL A   1      44.492  27.537  28.339  1.00  0.00     0.167 HD
ATOM     50  C   UNL A   1      43.285  23.555  27.147  1.00  0.00     0.034 A 
ATOM     51  C   UNL A   1      46.253  29.658  28.217  1.00  0.00     0.034 A 
ATOM     52  C   UNL A   1      43.850  23.296  28.455  1.00  0.00     0.049 A 
ATOM     53  C   UNL A   1      46.816  28.290  28.352  1.00  0.00     0.074 A 
ATOM     54  C   UNL A   1      43.305  23.012  29.696  1.00  0.00     0.029 A 
ATOM     55  N   UNL A   1      45.128  23.744  28.716  1.00  0.00    -0.354 N 
ATOM     56  N   UNL A   1      46.911  27.672  29.498  1.00  0.00    -0.248 NA
ATOM     57  C   UNL A   1      46.790  27.420  27.185  1.00  0.00     0.031 C 
ATOM     58  C   UNL A   1      44.054  23.812  30.610  1.00  0.00     0.029 A 
ATOM     59  C   UNL A   1      45.075  24.446  29.898  1.00  0.00     0.049 A 
ATOM     60  H   UNL A   1      45.927  23.589  28.162  1.00  0.00     0.167 HD
ATOM     61  C   UNL A   1      46.502  26.372  29.241  1.00  0.00     0.074 A 
ATOM     62  C   UNL A   1      46.538  26.251  27.782  1.00  0.00     0.031 C 
ATOM     63  C   UNL A   1      45.899  25.606  30.200  1.00  0.00     0.034 A 
BRANCH  50  64
ATOM     64  C   UNL A   1      43.894  22.990  25.884  1.00  0.00     0.023 A 
ATOM     65  C   UNL A   1      43.905  21.589  25.736  1.00  0.00     0.031 A 
ATOM     66  C   UNL A   1      44.694  23.709  24.967  1.00  0.00     0.131 A 
ATOM     67  C   UNL A   1      44.738  20.967  24.789  1.00  0.00     0.055 A 
ATOM     68  C   UNL A   1      45.465  23.088  23.980  1.00  0.00     0.041 A 
ATOM     69  F   UNL A   1      44.854  25.035  25.029  1.00  0.00    -0.206 F 
ATOM     70  C   UNL A   1      45.515  21.709  23.905  1.00  0.00     0.022 A 
BRANCH  67  71
ATOM     71  S   UNL A   1      44.921  19.167  24.855  1.00  0.00     0.124 S 
ATOM     72  O   UNL A   1      44.852  18.812  23.442  1.00  0.00    -0.237 OA
ATOM     73  O   UNL A   1      46.224  19.019  25.495  1.00  0.00    -0.237 OA
ATOM     74  O   UNL A   1      43.779  18.740  25.661  1.00  0.00    -0.744 OA
ENDBRANCH  67  71
ENDBRANCH  50  64
BRANCH  51  75
ATOM     75  C   UNL A   1      46.921  30.775  27.489  1.00  0.00     0.023 A 
ATOM     76  C   UNL A   1      46.214  31.873  26.949  1.00  0.00     0.031 A 
ATOM     77  C   UNL A   1      48.330  30.891  27.529  1.00  0.00     0.131 A 
ATOM     78  C   UNL A   1      46.912  33.017  26.489  1.00  0.00     0.055 A 
ATOM     79  C   UNL A   1      49.013  32.022  27.071  1.00  0.00     0.041 A 
ATOM     80  F   UNL A   1      49.092  29.945  28.098  1.00  0.00    -0.206 F 
ATOM     81  C   UNL A   1      48.306  33.095  26.559  1.00  0.00     0.022 A 
BRANCH  78  82
ATOM     82  S   UNL A   1      46.009  34.479  25.877  1.00  0.00     0.124 S 
ATOM     83  O   UNL A   1      45.118  34.781  26.991  1.00  0.00    -0.237 OA
ATOM     84  O   UNL A   1      47.082  35.432  25.627  1.00  0.00    -0.237 OA
ATOM     85  O   UNL A   1      45.339  33.986  24.672  1.00  0.00    -0.744 OA
ENDBRANCH  78  82
ENDBRANCH  51  75
BRANCH  63  86
ATOM     86  C   UNL A   1      45.900  26.094  31.641  1.00  0.00     0.023 A 
ATOM     87  C   UNL A   1      44.791  26.664  32.310  1.00  0.00     0.031 A 
ATOM     88  C   UNL A   1      47.054  25.842  32.405  1.00  0.00     0.131 A 
ATOM     89  C   UNL A   1      44.872  26.968  33.686  1.00  0.00     0.055 A 
ATOM     90  C   UNL A   1      47.121  26.118  33.771  1.00  0.00     0.041 A 
ATOM     91  F   UNL A   1      48.137  25.281  31.841  1.00  0.00    -0.206 F 
ATOM     92  C   UNL A   1      46.031  26.688  34.416  1.00  0.00     0.022 A 
BRANCH  89  93
ATOM     93  S   UNL A   1      43.474  27.753  34.556  1.00  0.00     0.124 S 
ATOM     94  O   UNL A   1      42.897  26.661  35.332  1.00  0.00    -0.237 OA
ATOM     95  O   UNL A   1      44.129  28.807  35.325  1.00  0.00    -0.237 OA
ATOM     96  O   UNL A   1      42.625  28.238  33.466  1.00  0.00    -0.744 OA
ENDBRANCH  89  93
ENDBRANCH  63  86
ENDBRANCH  37  38
ENDBRANCH  29  32
ENDBRANCH  27  28
ENDBRANCH  26  27
ENDBRANCH  25  26
ENDBRANCH   1  25
TORSDOF 19
ENDMDL
MODEL 3
REMARK VINA RESULT:     -11.9      1.384      1.958
REMARK SMILES Cc1nsc(N(C)C(=O)[C@@H]2CC(=O)N(C)C2)c1C(=O)NCCCCCCNC(=O)c1ccc(-c2c3nc(c(-c4cc(S(=O)(=O)[O-])ccc4F)c4ccc([nH]4)c(-c4cc(S(=O)(=O)[O-])ccc4F)c4nc(c(-c5cc(S(=O)(=O)[O-])ccc5F)c5ccc2[nH]5)C=C4)C=C3)cc1
REMARK SMILES IDX 23 1 22 2 21 3 20 4 18 5 19 6 17 8 1 9 2 10 3 11 4 12 5 13
REMARK SMILES IDX 6 14 7 15 8 16 9 17 10 18 11 19 16 20 12 21 14 22 13 23
REMARK SMILES IDX 15 24 24 25 25 26 26 27 27 28 28 29 29 31 30 32 31 33 92 34
REMARK SMILES IDX 32 35 91 36 33 37 34 38 35 39 85 40 36 41 90 42 84 43 86 44
REMARK SMILES IDX 37 45 89 46 83 47 82 48 38 50 70 51 50 52 69 53 51 54 54 55
REMARK SMILES IDX 68 56 87 57 52 58 53 59 67 61 88 62 55 63 39 64 40 65 48 66
REMARK SMILES IDX 41 67 47 68 49 69 46 70 42 71 43 72 44 73 45 74 71 75 72 76
REMARK SMILES IDX 80 77 73 78 79 79 81 80 78 81 74 82 75 83 76 84 77 85 56 86
REMARK SMILES IDX 57 87 65 88 58 89 64 90 66 91 63 92 59 93 60 94 61 95 62 96
REMARK H PARENT 20 7 27 30 86 49 54 60
REMARK Flexibility Score: inf
ROOT
ATOM      1  C   UNL A   1      34.029  28.985  25.996  1.00  0.00     0.002 C 
ENDROOT
BRANCH   1   2
ATOM      2  C   UNL A   1      33.357  28.608  24.677  1.00  0.00     0.021 C 
BRANCH   2   3
ATOM      3  C   UNL A   1      34.029  27.511  23.862  1.00  0.00     0.116 C 
BRANCH   3   4
ATOM      4  N   UNL A   1      33.175  26.737  23.005  1.00  0.00    -0.352 N 
ATOM      5  C   UNL A   1      32.018  26.038  23.267  1.00  0.00     0.256 C 
ATOM      6  O   UNL A   1      31.180  26.078  22.355  1.00  0.00    -0.269 OA
ATOM      7  H   UNL A   1      33.468  26.700  22.065  1.00  0.00     0.163 HD
BRANCH   5   8
ATOM      8  C   UNL A   1      31.746  25.213  24.465  1.00  0.00     0.097 A 
ATOM      9  C   UNL A   1      30.767  26.788  26.436  1.00  0.00     0.069 C 
ATOM     10  C   UNL A   1      31.147  25.506  25.776  1.00  0.00     0.066 A 
ATOM     11  N   UNL A   1      30.836  24.447  26.524  1.00  0.00    -0.195 NA
ATOM     12  S   UNL A   1      31.266  23.079  25.763  1.00  0.00    -0.017 S 
ATOM     13  C   UNL A   1      31.990  23.818  24.407  1.00  0.00     0.131 A 
BRANCH  13  14
ATOM     14  N   UNL A   1      32.697  22.975  23.498  1.00  0.00    -0.305 N 
ATOM     15  C   UNL A   1      32.096  21.819  22.834  1.00  0.00     0.154 C 
BRANCH  14  16
ATOM     16  C   UNL A   1      34.078  23.182  23.429  1.00  0.00     0.232 C 
ATOM     17  O   UNL A   1      34.586  23.818  22.495  1.00  0.00    -0.274 OA
BRANCH  16  18
ATOM     18  C   UNL A   1      35.013  22.761  24.570  1.00  0.00     0.108 C 
ATOM     19  C   UNL A   1      35.751  24.025  25.061  1.00  0.00     0.115 C 
ATOM     20  C   UNL A   1      36.138  21.765  24.334  1.00  0.00     0.133 C 
ATOM     21  C   UNL A   1      37.092  23.545  25.534  1.00  0.00     0.223 C 
ATOM     22  N   UNL A   1      37.234  22.229  25.146  1.00  0.00    -0.345 N 
ATOM     23  O   UNL A   1      37.908  24.212  26.147  1.00  0.00    -0.275 OA
ATOM     24  C   UNL A   1      38.368  21.405  25.496  1.00  0.00     0.146 C 
ENDBRANCH  16  18
ENDBRANCH  14  16
ENDBRANCH  13  14
ENDBRANCH   5   8
ENDBRANCH   3   4
ENDBRANCH   2   3
ENDBRANCH   1   2
BRANCH   1  25
ATOM     25  C   UNL A   1      33.131  29.566  27.097  1.00  0.00     0.002 C 
BRANCH  25  26
ATOM     26  C   UNL A   1      33.115  31.091  27.282  1.00  0.00     0.021 C 
BRANCH  26  27
ATOM     27  C   UNL A   1      34.449  31.703  27.678  1.00  0.00     0.116 C 
BRANCH  27  28
ATOM     28  N   UNL A   1      34.408  32.350  28.986  1.00  0.00    -0.352 N 
ATOM     29  C   UNL A   1      35.158  32.061  30.114  1.00  0.00     0.251 C 
ATOM     30  H   UNL A   1      33.762  33.088  29.078  1.00  0.00     0.163 HD
ATOM     31  O   UNL A   1      34.764  32.395  31.218  1.00  0.00    -0.269 OA
BRANCH  29  32
ATOM     32  C   UNL A   1      36.432  31.332  29.949  1.00  0.00     0.039 A 
ATOM     33  C   UNL A   1      37.657  32.002  29.948  1.00  0.00     0.014 A 
ATOM     34  C   UNL A   1      36.383  29.948  29.815  1.00  0.00     0.014 A 
ATOM     35  C   UNL A   1      38.830  31.251  29.899  1.00  0.00     0.010 A 
ATOM     36  C   UNL A   1      37.530  29.205  29.936  1.00  0.00     0.010 A 
ATOM     37  C   UNL A   1      38.761  29.847  29.920  1.00  0.00    -0.014 A 
BRANCH  37  38
ATOM     38  C   UNL A   1      39.967  29.035  30.035  1.00  0.00     0.031 A 
ATOM     39  C   UNL A   1      40.360  28.706  31.429  1.00  0.00     0.074 A 
ATOM     40  C   UNL A   1      40.587  28.450  28.987  1.00  0.00     0.049 A 
ATOM     41  N   UNL A   1      41.363  29.182  32.086  1.00  0.00    -0.248 NA
ATOM     42  C   UNL A   1      39.459  27.879  32.245  1.00  0.00     0.031 C 
ATOM     43  C   UNL A   1      40.185  28.426  27.577  1.00  0.00     0.029 A 
ATOM     44  N   UNL A   1      41.685  27.647  28.993  1.00  0.00    -0.354 N 
ATOM     45  C   UNL A   1      41.368  28.532  33.314  1.00  0.00     0.074 A 
ATOM     46  C   UNL A   1      40.074  27.911  33.431  1.00  0.00     0.031 C 
ATOM     47  C   UNL A   1      40.881  27.471  26.922  1.00  0.00     0.029 A 
ATOM     48  C   UNL A   1      41.896  26.939  27.813  1.00  0.00     0.049 A 
ATOM     49  H   UNL A   1      42.284  27.571  29.771  1.00  0.00     0.167 HD
ATOM     50  C   UNL A   1      42.524  28.373  34.018  1.00  0.00     0.034 A 
ATOM     51  C   UNL A   1      42.831  25.977  27.586  1.00  0.00     0.034 A 
ATOM     52  C   UNL A   1      43.561  29.246  33.510  1.00  0.00     0.049 A 
ATOM     53  C   UNL A   1      43.923  26.220  28.564  1.00  0.00     0.074 A 
ATOM     54  C   UNL A   1      43.656  30.614  33.319  1.00  0.00     0.029 A 
ATOM     55  N   UNL A   1      44.537  28.700  32.702  1.00  0.00    -0.354 N 
ATOM     56  N   UNL A   1      44.660  27.297  28.550  1.00  0.00    -0.248 NA
ATOM     57  C   UNL A   1      43.857  25.535  29.847  1.00  0.00     0.031 C 
ATOM     58  C   UNL A   1      44.268  30.757  32.038  1.00  0.00     0.029 A 
ATOM     59  C   UNL A   1      44.611  29.485  31.574  1.00  0.00     0.049 A 
ATOM     60  H   UNL A   1      45.078  27.901  32.896  1.00  0.00     0.167 HD
ATOM     61  C   UNL A   1      44.772  27.674  29.880  1.00  0.00     0.074 A 
ATOM     62  C   UNL A   1      44.343  26.497  30.639  1.00  0.00     0.031 C 
ATOM     63  C   UNL A   1      44.922  28.983  30.245  1.00  0.00     0.034 A 
BRANCH  50  64
ATOM     64  C   UNL A   1      42.830  27.209  34.932  1.00  0.00     0.023 A 
ATOM     65  C   UNL A   1      43.658  26.186  34.428  1.00  0.00     0.031 A 
ATOM     66  C   UNL A   1      42.153  26.912  36.136  1.00  0.00     0.131 A 
ATOM     67  C   UNL A   1      43.717  24.929  35.054  1.00  0.00     0.055 A 
ATOM     68  C   UNL A   1      42.271  25.684  36.793  1.00  0.00     0.041 A 
ATOM     69  F   UNL A   1      41.269  27.745  36.695  1.00  0.00    -0.206 F 
ATOM     70  C   UNL A   1      43.032  24.672  36.238  1.00  0.00     0.022 A 
BRANCH  67  71
ATOM     71  S   UNL A   1      44.564  23.579  34.194  1.00  0.00     0.124 S 
ATOM     72  O   UNL A   1      45.919  24.106  34.081  1.00  0.00    -0.237 OA
ATOM     73  O   UNL A   1      44.379  22.468  35.122  1.00  0.00    -0.237 OA
ATOM     74  O   UNL A   1      43.831  23.467  32.935  1.00  0.00    -0.744 OA
ENDBRANCH  67  71
ENDBRANCH  50  64
BRANCH  51  75
ATOM     75  C   UNL A   1      42.669  24.721  26.800  1.00  0.00     0.023 A 
ATOM     76  C   UNL A   1      43.707  24.158  26.024  1.00  0.00     0.031 A 
ATOM     77  C   UNL A   1      41.528  23.910  27.006  1.00  0.00     0.131 A 
ATOM     78  C   UNL A   1      43.581  22.847  25.501  1.00  0.00     0.055 A 
ATOM     79  C   UNL A   1      41.408  22.618  26.487  1.00  0.00     0.041 A 
ATOM     80  F   UNL A   1      40.521  24.312  27.797  1.00  0.00    -0.206 F 
ATOM     81  C   UNL A   1      42.440  22.077  25.740  1.00  0.00     0.022 A 
BRANCH  78  82
ATOM     82  S   UNL A   1      44.951  22.075  24.577  1.00  0.00     0.124 S 
ATOM     83  O   UNL A   1      44.391  20.778  24.218  1.00  0.00    -0.237 OA
ATOM     84  O   UNL A   1      45.163  23.016  23.484  1.00  0.00    -0.237 OA
ATOM     85  O   UNL A   1      46.037  22.024  25.557  1.00  0.00    -0.744 OA
ENDBRANCH  78  82
ENDBRANCH  51  75
BRANCH  63  86
ATOM     86  C   UNL A   1      45.221  30.017  29.171  1.00  0.00     0.023 A 
ATOM     87  C   UNL A   1      46.514  30.381  28.725  1.00  0.00     0.031 A 
ATOM     88  C   UNL A   1      44.124  30.562  28.477  1.00  0.00     0.131 A 
ATOM     89  C   UNL A   1      46.667  31.263  27.635  1.00  0.00     0.055 A 
ATOM     90  C   UNL A   1      44.280  31.413  27.383  1.00  0.00     0.041 A 
ATOM     91  F   UNL A   1      42.868  30.243  28.831  1.00  0.00    -0.206 F 
ATOM     92  C   UNL A   1      45.553  31.771  26.961  1.00  0.00     0.022 A 
BRANCH  89  93
ATOM     93  S   UNL A   1      48.324  31.787  27.079  1.00  0.00     0.124 S 
ATOM     94  O   UNL A   1      48.042  32.825  26.094  1.00  0.00    -0.237 OA
ATOM     95  O   UNL A   1      48.949  32.237  28.319  1.00  0.00    -0.237 OA
ATOM     96  O   UNL A   1      48.899  30.561  26.521  1.00  0.00    -0.744 OA
ENDBRANCH  89  93
ENDBRANCH  63  86
ENDBRANCH  37  38
ENDBRANCH  29  32
ENDBRANCH  27  28
ENDBRANCH  26  27
ENDBRANCH  25  26
ENDBRANCH   1  25
TORSDOF 19
ENDMDL
