MODEL 1
REMARK VINA RESULT:     -11.6      0.000      0.000
REMARK SMILES C[C@H]1[C@H](C(=O)NCCCCCCNC(=O)c2ccc(-c3c4nc(c(-c5cc(S(=O)(=O)[O-])ccc5F)c5ccc([nH]5)c(-c5cc(S(=O)(=O)[O-])ccc5F)c5nc(c(-c6cc(S(=O)(=O)[O-])ccc6F)c6ccc3[nH]6)C=C5)C=C4)cc2)CC[N@@H+]1CC(=O)N1CCCC1
REMARK SMILES IDX 10 1 9 2 8 3 7 4 6 5 4 6 5 7 3 9 1 10 2 11 81 12 79 13 80 14
REMARK SMILES IDX 82 16 83 17 84 18 85 19 86 20 89 21 87 22 88 23 11 24 12 25
REMARK SMILES IDX 13 26 14 27 15 29 16 30 17 31 78 32 18 33 77 34 19 35 20 36
REMARK SMILES IDX 21 37 71 38 22 39 76 40 70 41 72 42 23 43 75 44 69 45 68 46
REMARK SMILES IDX 24 48 56 49 36 50 55 51 37 52 40 53 54 54 73 55 38 56 39 57
REMARK SMILES IDX 53 59 74 60 41 61 25 62 26 63 34 64 27 65 33 66 35 67 32 68
REMARK SMILES IDX 28 69 29 70 30 71 31 72 57 73 58 74 66 75 59 76 65 77 67 78
REMARK SMILES IDX 64 79 60 80 61 81 62 82 63 83 42 84 43 85 51 86 44 87 50 88
REMARK SMILES IDX 52 89 49 90 45 91 46 92 47 93 48 94
REMARK H PARENT 6 8 81 15 13 28 72 47 40 58
REMARK Flexibility Score: inf
ROOT
ATOM      1  C   UNL A   1      31.542  27.560  26.563  1.00  0.00     0.002 C 
ENDROOT
BRANCH   1   2
ATOM      2  C   UNL A   1      30.695  26.638  25.685  1.00  0.00     0.002 C 
BRANCH   2   3
ATOM      3  C   UNL A   1      31.119  26.562  24.215  1.00  0.00     0.021 C 
BRANCH   3   4
ATOM      4  C   UNL A   1      30.699  25.407  23.271  1.00  0.00     0.116 C 
BRANCH   4   5
ATOM      5  N   UNL A   1      31.706  24.876  22.344  1.00  0.00    -0.356 N 
ATOM      6  C   UNL A   1      32.918  24.257  22.421  1.00  0.00     0.229 C 
ATOM      7  O   UNL A   1      33.320  23.819  21.326  1.00  0.00    -0.275 OA
ATOM      8  H   UNL A   1      31.430  25.003  21.408  1.00  0.00     0.163 HD
BRANCH   6   9
ATOM      9  C   UNL A   1      33.895  24.100  23.615  1.00  0.00     0.142 C 
ATOM     10  C   UNL A   1      33.362  24.282  26.193  1.00  0.00     0.076 C 
ATOM     11  C   UNL A   1      33.226  23.521  24.870  1.00  0.00     0.194 C 
ATOM     12  N   UNL A   1      33.845  22.227  25.130  1.00  0.00    -0.324 N 
ATOM     13  C   UNL A   1      35.164  23.307  23.430  1.00  0.00     0.081 C 
ATOM     14  C   UNL A   1      34.980  22.024  24.235  1.00  0.00     0.263 C 
ATOM     15  H   UNL A   1      34.243  22.238  26.070  1.00  0.00     0.348 HD
BRANCH  12  16
ATOM     16  C   UNL A   1      32.893  21.109  25.285  1.00  0.00     0.364 C 
BRANCH  16  17
ATOM     17  C   UNL A   1      32.721  20.298  23.996  1.00  0.00     0.277 C 
ATOM     18  O   UNL A   1      32.150  20.857  23.062  1.00  0.00    -0.268 OA
ATOM     19  N   UNL A   1      33.153  18.975  23.979  1.00  0.00    -0.338 N 
ATOM     20  C   UNL A   1      34.307  18.457  24.683  1.00  0.00     0.119 C 
ATOM     21  C   UNL A   1      32.519  17.872  23.275  1.00  0.00     0.119 C 
ATOM     22  C   UNL A   1      34.660  17.144  23.969  1.00  0.00     0.023 C 
ATOM     23  C   UNL A   1      33.656  16.991  22.835  1.00  0.00     0.023 C 
ENDBRANCH  16  17
ENDBRANCH  12  16
ENDBRANCH   6   9
ENDBRANCH   4   5
ENDBRANCH   3   4
ENDBRANCH   2   3
ENDBRANCH   1   2
BRANCH   1  24
ATOM     24  C   UNL A   1      31.851  28.947  25.980  1.00  0.00     0.021 C 
BRANCH  24  25
ATOM     25  C   UNL A   1      33.194  29.550  26.396  1.00  0.00     0.116 C 
BRANCH  25  26
ATOM     26  N   UNL A   1      33.071  30.978  26.657  1.00  0.00    -0.352 N 
ATOM     27  C   UNL A   1      33.805  31.731  27.540  1.00  0.00     0.251 C 
ATOM     28  H   UNL A   1      32.385  31.459  26.141  1.00  0.00     0.163 HD
ATOM     29  O   UNL A   1      33.402  32.830  27.920  1.00  0.00    -0.269 OA
BRANCH  27  30
ATOM     30  C   UNL A   1      35.088  31.187  28.020  1.00  0.00     0.039 A 
ATOM     31  C   UNL A   1      36.249  31.956  27.939  1.00  0.00     0.014 A 
ATOM     32  C   UNL A   1      35.106  29.920  28.613  1.00  0.00     0.014 A 
ATOM     33  C   UNL A   1      37.428  31.469  28.505  1.00  0.00     0.010 A 
ATOM     34  C   UNL A   1      36.262  29.474  29.242  1.00  0.00     0.010 A 
ATOM     35  C   UNL A   1      37.438  30.237  29.184  1.00  0.00    -0.014 A 
BRANCH  35  36
ATOM     36  C   UNL A   1      38.677  29.715  29.813  1.00  0.00     0.031 A 
ATOM     37  C   UNL A   1      39.098  30.232  31.163  1.00  0.00     0.074 A 
ATOM     38  C   UNL A   1      39.439  28.820  29.154  1.00  0.00     0.049 A 
ATOM     39  N   UNL A   1      40.163  29.945  31.865  1.00  0.00    -0.248 NA
ATOM     40  C   UNL A   1      38.219  31.232  31.788  1.00  0.00     0.031 C 
ATOM     41  C   UNL A   1      39.149  28.284  27.822  1.00  0.00     0.029 A 
ATOM     42  N   UNL A   1      40.612  28.203  29.511  1.00  0.00    -0.354 N 
ATOM     43  C   UNL A   1      40.085  30.733  33.008  1.00  0.00     0.074 A 
ATOM     44  C   UNL A   1      38.912  31.566  32.864  1.00  0.00     0.031 C 
ATOM     45  C   UNL A   1      40.096  27.391  27.491  1.00  0.00     0.029 A 
ATOM     46  C   UNL A   1      41.086  27.326  28.561  1.00  0.00     0.049 A 
ATOM     47  H   UNL A   1      41.070  28.371  30.365  1.00  0.00     0.167 HD
ATOM     48  C   UNL A   1      40.900  30.738  34.092  1.00  0.00     0.034 A 
ATOM     49  C   UNL A   1      42.198  26.564  28.555  1.00  0.00     0.034 A 
ATOM     50  C   UNL A   1      42.061  29.893  34.213  1.00  0.00     0.049 A 
ATOM     51  C   UNL A   1      43.112  26.614  29.756  1.00  0.00     0.074 A 
ATOM     52  C   UNL A   1      42.934  29.774  35.281  1.00  0.00     0.029 A 
ATOM     53  N   UNL A   1      42.521  29.028  33.227  1.00  0.00    -0.354 N 
ATOM     54  N   UNL A   1      42.993  27.321  30.857  1.00  0.00    -0.248 NA
ATOM     55  C   UNL A   1      44.302  25.756  29.717  1.00  0.00     0.031 C 
ATOM     56  C   UNL A   1      43.962  28.901  34.910  1.00  0.00     0.029 A 
ATOM     57  C   UNL A   1      43.685  28.402  33.646  1.00  0.00     0.049 A 
ATOM     58  H   UNL A   1      42.084  28.881  32.357  1.00  0.00     0.167 HD
ATOM     59  C   UNL A   1      44.078  26.967  31.654  1.00  0.00     0.074 A 
ATOM     60  C   UNL A   1      44.827  25.972  30.914  1.00  0.00     0.031 C 
ATOM     61  C   UNL A   1      44.425  27.421  32.887  1.00  0.00     0.034 A 
BRANCH  48  62
ATOM     62  C   UNL A   1      40.569  31.704  35.207  1.00  0.00     0.023 A 
ATOM     63  C   UNL A   1      39.576  31.418  36.162  1.00  0.00     0.031 A 
ATOM     64  C   UNL A   1      41.225  32.943  35.295  1.00  0.00     0.131 A 
ATOM     65  C   UNL A   1      39.210  32.388  37.105  1.00  0.00     0.055 A 
ATOM     66  C   UNL A   1      40.919  33.870  36.296  1.00  0.00     0.041 A 
ATOM     67  F   UNL A   1      42.164  33.286  34.400  1.00  0.00    -0.206 F 
ATOM     68  C   UNL A   1      39.893  33.603  37.197  1.00  0.00     0.022 A 
BRANCH  65  69
ATOM     69  S   UNL A   1      37.720  32.107  38.102  1.00  0.00     0.124 S 
ATOM     70  O   UNL A   1      36.824  33.144  37.594  1.00  0.00    -0.237 OA
ATOM     71  O   UNL A   1      37.366  30.734  37.762  1.00  0.00    -0.237 OA
ATOM     72  O   UNL A   1      38.181  32.311  39.474  1.00  0.00    -0.744 OA
ENDBRANCH  65  69
ENDBRANCH  48  62
BRANCH  49  73
ATOM     73  C   UNL A   1      42.518  25.695  27.385  1.00  0.00     0.023 A 
ATOM     74  C   UNL A   1      42.081  24.362  27.329  1.00  0.00     0.031 A 
ATOM     75  C   UNL A   1      43.305  26.172  26.320  1.00  0.00     0.131 A 
ATOM     76  C   UNL A   1      42.472  23.539  26.261  1.00  0.00     0.055 A 
ATOM     77  C   UNL A   1      43.642  25.367  25.230  1.00  0.00     0.041 A 
ATOM     78  F   UNL A   1      43.751  27.439  26.319  1.00  0.00    -0.206 F 
ATOM     79  C   UNL A   1      43.236  24.037  25.204  1.00  0.00     0.022 A 
BRANCH  76  80
ATOM     80  S   UNL A   1      42.047  21.776  26.322  1.00  0.00     0.124 S 
ATOM     81  O   UNL A   1      40.621  21.804  26.019  1.00  0.00    -0.237 OA
ATOM     82  O   UNL A   1      42.913  21.219  25.288  1.00  0.00    -0.237 OA
ATOM     83  O   UNL A   1      42.386  21.393  27.691  1.00  0.00    -0.744 OA
ENDBRANCH  76  80
ENDBRANCH  49  73
BRANCH  61  84
ATOM     84  C   UNL A   1      45.649  26.808  33.524  1.00  0.00     0.023 A 
ATOM     85  C   UNL A   1      45.578  25.616  34.267  1.00  0.00     0.031 A 
ATOM     86  C   UNL A   1      46.902  27.429  33.389  1.00  0.00     0.131 A 
ATOM     87  C   UNL A   1      46.728  25.117  34.896  1.00  0.00     0.055 A 
ATOM     88  C   UNL A   1      48.057  26.889  33.957  1.00  0.00     0.041 A 
ATOM     89  F   UNL A   1      47.029  28.572  32.694  1.00  0.00    -0.206 F 
ATOM     90  C   UNL A   1      47.970  25.733  34.728  1.00  0.00     0.022 A 
BRANCH  87  91
ATOM     91  S   UNL A   1      46.558  23.708  36.026  1.00  0.00     0.124 S 
ATOM     92  O   UNL A   1      47.121  24.241  37.261  1.00  0.00    -0.237 OA
ATOM     93  O   UNL A   1      45.116  23.481  36.027  1.00  0.00    -0.237 OA
ATOM     94  O   UNL A   1      47.349  22.658  35.385  1.00  0.00    -0.744 OA
ENDBRANCH  87  91
ENDBRANCH  61  84
ENDBRANCH  35  36
ENDBRANCH  27  30
ENDBRANCH  25  26
ENDBRANCH  24  25
ENDBRANCH   1  24
TORSDOF 18
ENDMDL
MODEL 2
REMARK VINA RESULT:     -11.3      1.693      2.191
REMARK SMILES C[C@H]1[C@H](C(=O)NCCCCCCNC(=O)c2ccc(-c3c4nc(c(-c5cc(S(=O)(=O)[O-])ccc5F)c5ccc([nH]5)c(-c5cc(S(=O)(=O)[O-])ccc5F)c5nc(c(-c6cc(S(=O)(=O)[O-])ccc6F)c6ccc3[nH]6)C=C5)C=C4)cc2)CC[N@@H+]1CC(=O)N1CCCC1
REMARK SMILES IDX 10 1 9 2 8 3 7 4 6 5 4 6 5 7 3 9 1 10 2 11 81 12 79 13 80 14
REMARK SMILES IDX 82 16 83 17 84 18 85 19 86 20 89 21 87 22 88 23 11 24 12 25
REMARK SMILES IDX 13 26 14 27 15 29 16 30 17 31 78 32 18 33 77 34 19 35 20 36
REMARK SMILES IDX 21 37 71 38 22 39 76 40 70 41 72 42 23 43 75 44 69 45 68 46
REMARK SMILES IDX 24 48 56 49 36 50 55 51 37 52 40 53 54 54 73 55 38 56 39 57
REMARK SMILES IDX 53 59 74 60 41 61 25 62 26 63 34 64 27 65 33 66 35 67 32 68
REMARK SMILES IDX 28 69 29 70 30 71 31 72 57 73 58 74 66 75 59 76 65 77 67 78
REMARK SMILES IDX 64 79 60 80 61 81 62 82 63 83 42 84 43 85 51 86 44 87 50 88
REMARK SMILES IDX 52 89 49 90 45 91 46 92 47 93 48 94
REMARK H PARENT 6 8 81 15 13 28 72 47 40 58
REMARK Flexibility Score: inf
ROOT
ATOM      1  C   UNL A   1      31.093  28.974  24.450  1.00  0.00     0.002 C 
ENDROOT
BRANCH   1   2
ATOM      2  C   UNL A   1      30.337  28.188  23.378  1.00  0.00     0.002 C 
BRANCH   2   3
ATOM      3  C   UNL A   1      29.863  26.794  23.799  1.00  0.00     0.021 C 
BRANCH   3   4
ATOM      4  C   UNL A   1      30.728  25.518  23.631  1.00  0.00     0.116 C 
BRANCH   4   5
ATOM      5  N   UNL A   1      30.466  24.387  24.530  1.00  0.00    -0.356 N 
ATOM      6  C   UNL A   1      30.948  23.908  25.712  1.00  0.00     0.229 C 
ATOM      7  O   UNL A   1      30.260  22.985  26.189  1.00  0.00    -0.275 OA
ATOM      8  H   UNL A   1      29.744  23.817  24.183  1.00  0.00     0.163 HD
BRANCH   6   9
ATOM      9  C   UNL A   1      32.241  24.264  26.491  1.00  0.00     0.142 C 
ATOM     10  C   UNL A   1      33.869  22.635  27.778  1.00  0.00     0.076 C 
ATOM     11  C   UNL A   1      33.294  23.147  26.454  1.00  0.00     0.194 C 
ATOM     12  N   UNL A   1      34.450  23.669  25.734  1.00  0.00    -0.324 N 
ATOM     13  C   UNL A   1      32.982  25.532  26.150  1.00  0.00     0.081 C 
ATOM     14  C   UNL A   1      34.274  25.094  25.467  1.00  0.00     0.263 C 
ATOM     15  H   UNL A   1      35.267  23.609  26.342  1.00  0.00     0.348 HD
BRANCH  12  16
ATOM     16  C   UNL A   1      34.915  22.822  24.619  1.00  0.00     0.364 C 
BRANCH  16  17
ATOM     17  C   UNL A   1      33.774  22.045  23.953  1.00  0.00     0.277 C 
ATOM     18  O   UNL A   1      33.060  22.670  23.174  1.00  0.00    -0.268 OA
ATOM     19  N   UNL A   1      33.574  20.715  24.314  1.00  0.00    -0.338 N 
ATOM     20  C   UNL A   1      34.615  19.772  24.663  1.00  0.00     0.119 C 
ATOM     21  C   UNL A   1      32.293  20.038  24.430  1.00  0.00     0.119 C 
ATOM     22  C   UNL A   1      33.983  18.385  24.475  1.00  0.00     0.023 C 
ATOM     23  C   UNL A   1      32.561  18.626  23.988  1.00  0.00     0.023 C 
ENDBRANCH  16  17
ENDBRANCH  12  16
ENDBRANCH   6   9
ENDBRANCH   4   5
ENDBRANCH   3   4
ENDBRANCH   2   3
ENDBRANCH   1   2
BRANCH   1  24
ATOM     24  C   UNL A   1      32.623  28.835  24.433  1.00  0.00     0.021 C 
BRANCH  24  25
ATOM     25  C   UNL A   1      33.337  29.297  25.704  1.00  0.00     0.116 C 
BRANCH  25  26
ATOM     26  N   UNL A   1      32.967  30.664  26.049  1.00  0.00    -0.352 N 
ATOM     27  C   UNL A   1      33.445  31.420  27.091  1.00  0.00     0.251 C 
ATOM     28  H   UNL A   1      32.299  31.095  25.469  1.00  0.00     0.163 HD
ATOM     29  O   UNL A   1      32.832  32.413  27.483  1.00  0.00    -0.269 OA
BRANCH  27  30
ATOM     30  C   UNL A   1      34.710  31.011  27.725  1.00  0.00     0.039 A 
ATOM     31  C   UNL A   1      35.738  31.938  27.899  1.00  0.00     0.014 A 
ATOM     32  C   UNL A   1      34.836  29.702  28.203  1.00  0.00     0.014 A 
ATOM     33  C   UNL A   1      36.881  31.561  28.606  1.00  0.00     0.010 A 
ATOM     34  C   UNL A   1      35.940  29.356  28.972  1.00  0.00     0.010 A 
ATOM     35  C   UNL A   1      36.979  30.277  29.171  1.00  0.00    -0.014 A 
BRANCH  35  36
ATOM     36  C   UNL A   1      38.177  29.867  29.947  1.00  0.00     0.031 A 
ATOM     37  C   UNL A   1      38.392  30.423  31.329  1.00  0.00     0.074 A 
ATOM     38  C   UNL A   1      39.085  29.039  29.393  1.00  0.00     0.049 A 
ATOM     39  N   UNL A   1      39.388  30.232  32.153  1.00  0.00    -0.248 NA
ATOM     40  C   UNL A   1      37.363  31.345  31.834  1.00  0.00     0.031 C 
ATOM     41  C   UNL A   1      39.000  28.475  28.043  1.00  0.00     0.029 A 
ATOM     42  N   UNL A   1      40.257  28.528  29.891  1.00  0.00    -0.354 N 
ATOM     43  C   UNL A   1      39.109  31.015  33.269  1.00  0.00     0.074 A 
ATOM     44  C   UNL A   1      37.893  31.742  32.979  1.00  0.00     0.031 C 
ATOM     45  C   UNL A   1      40.053  27.667  27.837  1.00  0.00     0.029 A 
ATOM     46  C   UNL A   1      40.913  27.693  29.015  1.00  0.00     0.049 A 
ATOM     47  H   UNL A   1      40.596  28.738  30.790  1.00  0.00     0.167 HD
ATOM     48  C   UNL A   1      39.788  31.094  34.440  1.00  0.00     0.034 A 
ATOM     49  C   UNL A   1      42.079  27.030  29.149  1.00  0.00     0.034 A 
ATOM     50  C   UNL A   1      40.997  30.354  34.707  1.00  0.00     0.049 A 
ATOM     51  C   UNL A   1      42.839  27.164  30.446  1.00  0.00     0.074 A 
ATOM     52  C   UNL A   1      41.745  30.316  35.870  1.00  0.00     0.029 A 
ATOM     53  N   UNL A   1      41.641  29.530  33.792  1.00  0.00    -0.354 N 
ATOM     54  N   UNL A   1      42.531  27.861  31.517  1.00  0.00    -0.248 NA
ATOM     55  C   UNL A   1      44.095  26.413  30.557  1.00  0.00     0.031 C 
ATOM     56  C   UNL A   1      42.881  29.535  35.633  1.00  0.00     0.029 A 
ATOM     57  C   UNL A   1      42.797  29.009  34.352  1.00  0.00     0.049 A 
ATOM     58  H   UNL A   1      41.323  29.342  32.879  1.00  0.00     0.167 HD
ATOM     59  C   UNL A   1      43.543  27.607  32.439  1.00  0.00     0.074 A 
ATOM     60  C   UNL A   1      44.456  26.678  31.805  1.00  0.00     0.031 C 
ATOM     61  C   UNL A   1      43.704  28.093  33.698  1.00  0.00     0.034 A 
BRANCH  48  62
ATOM     62  C   UNL A   1      39.248  32.032  35.496  1.00  0.00     0.023 A 
ATOM     63  C   UNL A   1      39.657  33.376  35.569  1.00  0.00     0.031 A 
ATOM     64  C   UNL A   1      38.343  31.569  36.466  1.00  0.00     0.131 A 
ATOM     65  C   UNL A   1      39.231  34.182  36.635  1.00  0.00     0.055 A 
ATOM     66  C   UNL A   1      37.850  32.404  37.472  1.00  0.00     0.041 A 
ATOM     67  F   UNL A   1      37.932  30.291  36.465  1.00  0.00    -0.206 F 
ATOM     68  C   UNL A   1      38.308  33.714  37.572  1.00  0.00     0.022 A 
BRANCH  65  69
ATOM     69  S   UNL A   1      40.028  35.795  36.871  1.00  0.00     0.124 S 
ATOM     70  O   UNL A   1      41.433  35.415  36.996  1.00  0.00    -0.237 OA
ATOM     71  O   UNL A   1      39.664  36.509  35.653  1.00  0.00    -0.237 OA
ATOM     72  O   UNL A   1      39.416  36.303  38.098  1.00  0.00    -0.744 OA
ENDBRANCH  65  69
ENDBRANCH  48  62
BRANCH  49  73
ATOM     73  C   UNL A   1      42.608  26.189  28.035  1.00  0.00     0.023 A 
ATOM     74  C   UNL A   1      42.084  24.911  27.779  1.00  0.00     0.031 A 
ATOM     75  C   UNL A   1      43.677  26.632  27.234  1.00  0.00     0.131 A 
ATOM     76  C   UNL A   1      42.658  24.103  26.785  1.00  0.00     0.055 A 
ATOM     77  C   UNL A   1      44.206  25.848  26.207  1.00  0.00     0.041 A 
ATOM     78  F   UNL A   1      44.218  27.845  27.433  1.00  0.00    -0.206 F 
ATOM     79  C   UNL A   1      43.705  24.569  25.988  1.00  0.00     0.022 A 
BRANCH  76  80
ATOM     80  S   UNL A   1      42.079  22.392  26.614  1.00  0.00     0.124 S 
ATOM     81  O   UNL A   1      40.632  22.563  26.664  1.00  0.00    -0.237 OA
ATOM     82  O   UNL A   1      42.637  22.011  25.322  1.00  0.00    -0.237 OA
ATOM     83  O   UNL A   1      42.668  21.718  27.769  1.00  0.00    -0.744 OA
ENDBRANCH  76  80
ENDBRANCH  49  73
BRANCH  61  84
ATOM     84  C   UNL A   1      44.893  27.591  34.481  1.00  0.00     0.023 A 
ATOM     85  C   UNL A   1      44.832  26.411  35.242  1.00  0.00     0.031 A 
ATOM     86  C   UNL A   1      46.101  28.309  34.468  1.00  0.00     0.131 A 
ATOM     87  C   UNL A   1      45.940  26.016  36.006  1.00  0.00     0.055 A 
ATOM     88  C   UNL A   1      47.223  27.874  35.173  1.00  0.00     0.041 A 
ATOM     89  F   UNL A   1      46.215  29.447  33.762  1.00  0.00    -0.206 F 
ATOM     90  C   UNL A   1      47.141  26.728  35.960  1.00  0.00     0.022 A 
BRANCH  87  91
ATOM     91  S   UNL A   1      45.756  24.618  37.146  1.00  0.00     0.124 S 
ATOM     92  O   UNL A   1      44.691  23.849  36.511  1.00  0.00    -0.237 OA
ATOM     93  O   UNL A   1      47.084  24.014  37.117  1.00  0.00    -0.237 OA
ATOM     94  O   UNL A   1      45.392  25.254  38.412  1.00  0.00    -0.744 OA
ENDBRANCH  87  91
ENDBRANCH  61  84
ENDBRANCH  35  36
ENDBRANCH  27  30
ENDBRANCH  25  26
ENDBRANCH  24  25
ENDBRANCH   1  24
TORSDOF 18
ENDMDL
MODEL 3
REMARK VINA RESULT:     -11.3      2.138      8.355
REMARK SMILES C[C@H]1[C@H](C(=O)NCCCCCCNC(=O)c2ccc(-c3c4nc(c(-c5cc(S(=O)(=O)[O-])ccc5F)c5ccc([nH]5)c(-c5cc(S(=O)(=O)[O-])ccc5F)c5nc(c(-c6cc(S(=O)(=O)[O-])ccc6F)c6ccc3[nH]6)C=C5)C=C4)cc2)CC[N@@H+]1CC(=O)N1CCCC1
REMARK SMILES IDX 10 1 9 2 8 3 7 4 6 5 4 6 5 7 3 9 1 10 2 11 81 12 79 13 80 14
REMARK SMILES IDX 82 16 83 17 84 18 85 19 86 20 89 21 87 22 88 23 11 24 12 25
REMARK SMILES IDX 13 26 14 27 15 29 16 30 17 31 78 32 18 33 77 34 19 35 20 36
REMARK SMILES IDX 21 37 71 38 22 39 76 40 70 41 72 42 23 43 75 44 69 45 68 46
REMARK SMILES IDX 24 48 56 49 36 50 55 51 37 52 40 53 54 54 73 55 38 56 39 57
REMARK SMILES IDX 53 59 74 60 41 61 25 62 26 63 34 64 27 65 33 66 35 67 32 68
REMARK SMILES IDX 28 69 29 70 30 71 31 72 57 73 58 74 66 75 59 76 65 77 67 78
REMARK SMILES IDX 64 79 60 80 61 81 62 82 63 83 42 84 43 85 51 86 44 87 50 88
REMARK SMILES IDX 52 89 49 90 45 91 46 92 47 93 48 94
REMARK H PARENT 6 8 81 15 13 28 72 47 40 58
REMARK Flexibility Score: inf
ROOT
ATOM      1  C   UNL A   1      32.176  29.978  27.211  1.00  0.00     0.002 C 
ENDROOT
BRANCH   1   2
ATOM      2  C   UNL A   1      31.672  28.892  26.261  1.00  0.00     0.002 C 
BRANCH   2   3
ATOM      3  C   UNL A   1      31.438  27.519  26.899  1.00  0.00     0.021 C 
BRANCH   3   4
ATOM      4  C   UNL A   1      30.873  26.306  26.117  1.00  0.00     0.116 C 
BRANCH   4   5
ATOM      5  N   UNL A   1      31.001  24.976  26.724  1.00  0.00    -0.356 N 
ATOM      6  C   UNL A   1      31.932  23.982  26.783  1.00  0.00     0.229 C 
ATOM      7  O   UNL A   1      31.647  23.085  27.600  1.00  0.00    -0.275 OA
ATOM      8  H   UNL A   1      30.190  24.735  27.227  1.00  0.00     0.163 HD
BRANCH   6   9
ATOM      9  C   UNL A   1      33.215  23.752  25.944  1.00  0.00     0.142 C 
ATOM     10  C   UNL A   1      33.631  21.954  24.059  1.00  0.00     0.076 C 
ATOM     11  C   UNL A   1      32.926  23.230  24.530  1.00  0.00     0.194 C 
ATOM     12  N   UNL A   1      33.369  24.256  23.592  1.00  0.00    -0.324 N 
ATOM     13  C   UNL A   1      34.192  24.887  25.766  1.00  0.00     0.081 C 
ATOM     14  C   UNL A   1      34.079  25.314  24.305  1.00  0.00     0.263 C 
ATOM     15  H   UNL A   1      34.059  23.847  22.962  1.00  0.00     0.348 HD
BRANCH  12  16
ATOM     16  C   UNL A   1      32.353  24.667  22.604  1.00  0.00     0.364 C 
BRANCH  16  17
ATOM     17  C   UNL A   1      32.602  26.074  22.052  1.00  0.00     0.277 C 
ATOM     18  O   UNL A   1      33.546  26.206  21.277  1.00  0.00    -0.268 OA
ATOM     19  N   UNL A   1      31.801  27.119  22.505  1.00  0.00    -0.338 N 
ATOM     20  C   UNL A   1      30.399  27.015  22.852  1.00  0.00     0.119 C 
ATOM     21  C   UNL A   1      32.223  28.491  22.734  1.00  0.00     0.119 C 
ATOM     22  C   UNL A   1      29.859  28.451  22.785  1.00  0.00     0.023 C 
ATOM     23  C   UNL A   1      31.030  29.329  22.365  1.00  0.00     0.023 C 
ENDBRANCH  16  17
ENDBRANCH  12  16
ENDBRANCH   6   9
ENDBRANCH   4   5
ENDBRANCH   3   4
ENDBRANCH   2   3
ENDBRANCH   1   2
BRANCH   1  24
ATOM     24  C   UNL A   1      31.679  31.403  26.928  1.00  0.00     0.021 C 
BRANCH  24  25
ATOM     25  C   UNL A   1      32.759  32.407  26.522  1.00  0.00     0.116 C 
BRANCH  25  26
ATOM     26  N   UNL A   1      32.523  33.709  27.131  1.00  0.00    -0.352 N 
ATOM     27  C   UNL A   1      33.048  34.189  28.306  1.00  0.00     0.251 C 
ATOM     28  H   UNL A   1      31.918  34.315  26.646  1.00  0.00     0.163 HD
ATOM     29  O   UNL A   1      32.531  35.143  28.886  1.00  0.00    -0.269 OA
BRANCH  27  30
ATOM     30  C   UNL A   1      34.248  33.531  28.852  1.00  0.00     0.039 A 
ATOM     31  C   UNL A   1      35.499  34.137  28.727  1.00  0.00     0.014 A 
ATOM     32  C   UNL A   1      34.101  32.326  29.549  1.00  0.00     0.014 A 
ATOM     33  C   UNL A   1      36.602  33.555  29.352  1.00  0.00     0.010 A 
ATOM     34  C   UNL A   1      35.186  31.793  30.233  1.00  0.00     0.010 A 
ATOM     35  C   UNL A   1      36.450  32.394  30.132  1.00  0.00    -0.014 A 
BRANCH  35  36
ATOM     36  C   UNL A   1      37.608  31.776  30.824  1.00  0.00     0.031 A 
ATOM     37  C   UNL A   1      38.438  30.745  30.107  1.00  0.00     0.074 A 
ATOM     38  C   UNL A   1      37.880  32.104  32.103  1.00  0.00     0.049 A 
ATOM     39  N   UNL A   1      39.459  30.053  30.542  1.00  0.00    -0.248 NA
ATOM     40  C   UNL A   1      38.044  30.428  28.725  1.00  0.00     0.031 C 
ATOM     41  C   UNL A   1      37.114  33.058  32.910  1.00  0.00     0.029 A 
ATOM     42  N   UNL A   1      38.870  31.675  32.950  1.00  0.00    -0.354 N 
ATOM     43  C   UNL A   1      39.821  29.216  29.493  1.00  0.00     0.074 A 
ATOM     44  C   UNL A   1      38.862  29.431  28.432  1.00  0.00     0.031 C 
ATOM     45  C   UNL A   1      37.686  33.169  34.120  1.00  0.00     0.029 A 
ATOM     46  C   UNL A   1      38.826  32.261  34.195  1.00  0.00     0.049 A 
ATOM     47  H   UNL A   1      39.549  31.011  32.692  1.00  0.00     0.167 HD
ATOM     48  C   UNL A   1      40.877  28.369  29.410  1.00  0.00     0.034 A 
ATOM     49  C   UNL A   1      39.613  32.080  35.274  1.00  0.00     0.034 A 
ATOM     50  C   UNL A   1      41.824  28.176  30.480  1.00  0.00     0.049 A 
ATOM     51  C   UNL A   1      40.759  31.103  35.173  1.00  0.00     0.074 A 
ATOM     52  C   UNL A   1      42.958  27.383  30.496  1.00  0.00     0.029 A 
ATOM     53  N   UNL A   1      41.740  28.774  31.731  1.00  0.00    -0.354 N 
ATOM     54  N   UNL A   1      41.127  30.361  34.152  1.00  0.00    -0.248 NA
ATOM     55  C   UNL A   1      41.603  30.947  36.364  1.00  0.00     0.031 C 
ATOM     56  C   UNL A   1      43.512  27.440  31.778  1.00  0.00     0.029 A 
ATOM     57  C   UNL A   1      42.780  28.339  32.538  1.00  0.00     0.049 A 
ATOM     58  H   UNL A   1      41.044  29.414  32.005  1.00  0.00     0.167 HD
ATOM     59  C   UNL A   1      42.263  29.675  34.571  1.00  0.00     0.074 A 
ATOM     60  C   UNL A   1      42.529  30.106  35.928  1.00  0.00     0.031 C 
ATOM     61  C   UNL A   1      43.021  28.771  33.896  1.00  0.00     0.034 A 
BRANCH  48  62
ATOM     62  C   UNL A   1      41.036  27.578  28.131  1.00  0.00     0.023 A 
ATOM     63  C   UNL A   1      40.642  26.230  28.043  1.00  0.00     0.031 A 
ATOM     64  C   UNL A   1      41.625  28.163  26.998  1.00  0.00     0.131 A 
ATOM     65  C   UNL A   1      40.918  25.493  26.882  1.00  0.00     0.055 A 
ATOM     66  C   UNL A   1      41.814  27.448  25.812  1.00  0.00     0.041 A 
ATOM     67  F   UNL A   1      42.045  29.438  27.026  1.00  0.00    -0.206 F 
ATOM     68  C   UNL A   1      41.476  26.100  25.755  1.00  0.00     0.022 A 
BRANCH  65  69
ATOM     69  S   UNL A   1      40.688  23.693  26.925  1.00  0.00     0.124 S 
ATOM     70  O   UNL A   1      41.177  23.366  28.263  1.00  0.00    -0.237 OA
ATOM     71  O   UNL A   1      39.252  23.553  26.717  1.00  0.00    -0.237 OA
ATOM     72  O   UNL A   1      41.528  23.214  25.829  1.00  0.00    -0.744 OA
ENDBRANCH  65  69
ENDBRANCH  48  62
BRANCH  49  73
ATOM     73  C   UNL A   1      39.352  32.825  36.541  1.00  0.00     0.023 A 
ATOM     74  C   UNL A   1      38.547  32.276  37.553  1.00  0.00     0.031 A 
ATOM     75  C   UNL A   1      39.868  34.118  36.742  1.00  0.00     0.131 A 
ATOM     76  C   UNL A   1      38.242  33.034  38.695  1.00  0.00     0.055 A 
ATOM     77  C   UNL A   1      39.610  34.845  37.907  1.00  0.00     0.041 A 
ATOM     78  F   UNL A   1      40.644  34.694  35.810  1.00  0.00    -0.206 F 
ATOM     79  C   UNL A   1      38.780  34.307  38.885  1.00  0.00     0.022 A 
BRANCH  76  80
ATOM     80  S   UNL A   1      37.048  32.366  39.887  1.00  0.00     0.124 S 
ATOM     81  O   UNL A   1      35.930  32.013  39.020  1.00  0.00    -0.237 OA
ATOM     82  O   UNL A   1      37.789  31.251  40.466  1.00  0.00    -0.237 OA
ATOM     83  O   UNL A   1      36.807  33.489  40.790  1.00  0.00    -0.744 OA
ENDBRANCH  76  80
ENDBRANCH  49  73
BRANCH  61  84
ATOM     84  C   UNL A   1      44.234  28.224  34.609  1.00  0.00     0.023 A 
ATOM     85  C   UNL A   1      44.171  27.054  35.386  1.00  0.00     0.031 A 
ATOM     86  C   UNL A   1      45.470  28.888  34.512  1.00  0.00     0.131 A 
ATOM     87  C   UNL A   1      45.307  26.618  36.083  1.00  0.00     0.055 A 
ATOM     88  C   UNL A   1      46.614  28.410  35.151  1.00  0.00     0.041 A 
ATOM     89  F   UNL A   1      45.588  30.013  33.787  1.00  0.00    -0.206 F 
ATOM     90  C   UNL A   1      46.533  27.276  35.953  1.00  0.00     0.022 A 
BRANCH  87  91
ATOM     91  S   UNL A   1      45.134  25.239  37.249  1.00  0.00     0.124 S 
ATOM     92  O   UNL A   1      44.317  24.301  36.488  1.00  0.00    -0.237 OA
ATOM     93  O   UNL A   1      46.521  24.843  37.471  1.00  0.00    -0.237 OA
ATOM     94  O   UNL A   1      44.471  25.846  38.402  1.00  0.00    -0.744 OA
ENDBRANCH  87  91
ENDBRANCH  61  84
ENDBRANCH  35  36
ENDBRANCH  27  30
ENDBRANCH  25  26
ENDBRANCH  24  25
ENDBRANCH   1  24
TORSDOF 18
ENDMDL
