MODEL 1
REMARK VINA RESULT:     -12.0      0.000      0.000
REMARK SMILES O=C(NCCCCCCNC(=O)c1c(F)cccc1NC(=O)C1CCCCC1)c1ccc(-c2c3nc(c(-c4cc(S(=O)(=O)[O-])ccc4F)c4ccc([nH]4)c(-c4cc(S(=O)(=O)[O-])ccc4F)c4nc(c(-c5cc(S(=O)(=O)[O-])ccc5F)c5ccc2[nH]5)C=C4)C=C3)cc1
REMARK SMILES IDX 6 1 5 2 4 3 3 4 1 5 2 6 29 8 30 9 91 10 31 11 90 12 32 13
REMARK SMILES IDX 33 14 34 15 84 16 35 17 89 18 83 19 85 20 36 21 88 22 82 23
REMARK SMILES IDX 81 24 37 26 69 27 49 28 68 29 50 30 53 31 67 32 86 33 51 34
REMARK SMILES IDX 52 35 66 37 87 38 54 39 38 40 39 41 47 42 40 43 46 44 48 45
REMARK SMILES IDX 45 46 41 47 42 48 43 49 44 50 70 51 71 52 79 53 72 54 78 55
REMARK SMILES IDX 80 56 77 57 73 58 74 59 75 60 76 61 55 62 56 63 64 64 57 65
REMARK SMILES IDX 63 66 65 67 62 68 58 69 59 70 60 71 61 72 7 73 8 74 9 75
REMARK SMILES IDX 10 76 11 77 12 79 13 80 14 81 19 82 15 83 16 84 18 85 17 86
REMARK SMILES IDX 20 87 21 88 22 90 23 91 24 92 28 93 25 94 27 95 26 96
REMARK H PARENT 3 7 85 25 53 36 10 78 20 89
REMARK Flexibility Score: inf
ROOT
ATOM      1  C   UNL A   1      36.779  20.715  24.860  1.00  0.00     0.002 C 
ENDROOT
BRANCH   1   2
ATOM      2  C   UNL A   1      37.970  19.754  24.967  1.00  0.00     0.021 C 
BRANCH   2   3
ATOM      3  C   UNL A   1      39.074  20.147  25.946  1.00  0.00     0.116 C 
BRANCH   3   4
ATOM      4  N   UNL A   1      40.167  19.193  25.967  1.00  0.00    -0.352 N 
ATOM      5  O   UNL A   1      42.280  18.445  25.913  1.00  0.00    -0.269 OA
ATOM      6  C   UNL A   1      41.520  19.399  26.062  1.00  0.00     0.251 C 
ATOM      7  H   UNL A   1      39.894  18.250  25.902  1.00  0.00     0.163 HD
BRANCH   6   8
ATOM      8  C   UNL A   1      42.080  20.747  26.324  1.00  0.00     0.039 A 
ATOM      9  C   UNL A   1      42.322  21.662  25.294  1.00  0.00     0.014 A 
ATOM     10  C   UNL A   1      42.293  21.128  27.654  1.00  0.00     0.014 A 
ATOM     11  C   UNL A   1      42.850  22.922  25.588  1.00  0.00     0.010 A 
ATOM     12  C   UNL A   1      42.787  22.403  27.950  1.00  0.00     0.010 A 
ATOM     13  C   UNL A   1      43.083  23.305  26.918  1.00  0.00    -0.014 A 
BRANCH  13  14
ATOM     14  C   UNL A   1      43.607  24.659  27.234  1.00  0.00     0.031 A 
ATOM     15  C   UNL A   1      42.691  25.728  27.760  1.00  0.00     0.074 A 
ATOM     16  C   UNL A   1      44.913  24.926  27.046  1.00  0.00     0.049 A 
ATOM     17  N   UNL A   1      42.949  26.986  28.013  1.00  0.00    -0.248 NA
ATOM     18  C   UNL A   1      41.302  25.331  28.035  1.00  0.00     0.031 C 
ATOM     19  C   UNL A   1      45.910  23.972  26.558  1.00  0.00     0.029 A 
ATOM     20  N   UNL A   1      45.625  26.081  27.247  1.00  0.00    -0.354 N 
ATOM     21  C   UNL A   1      41.756  27.536  28.465  1.00  0.00     0.074 A 
ATOM     22  C   UNL A   1      40.770  26.475  28.441  1.00  0.00     0.031 C 
ATOM     23  C   UNL A   1      47.109  24.575  26.517  1.00  0.00     0.029 A 
ATOM     24  C   UNL A   1      46.958  25.966  26.933  1.00  0.00     0.049 A 
ATOM     25  H   UNL A   1      45.221  26.912  27.584  1.00  0.00     0.167 HD
ATOM     26  C   UNL A   1      41.506  28.808  28.863  1.00  0.00     0.034 A 
ATOM     27  C   UNL A   1      47.944  26.883  26.955  1.00  0.00     0.034 A 
ATOM     28  C   UNL A   1      42.485  29.865  28.883  1.00  0.00     0.049 A 
ATOM     29  C   UNL A   1      47.632  28.295  27.359  1.00  0.00     0.074 A 
ATOM     30  C   UNL A   1      42.322  31.189  29.255  1.00  0.00     0.029 A 
ATOM     31  N   UNL A   1      43.814  29.719  28.515  1.00  0.00    -0.354 N 
ATOM     32  N   UNL A   1      46.483  28.813  27.723  1.00  0.00    -0.248 NA
ATOM     33  C   UNL A   1      48.749  29.250  27.339  1.00  0.00     0.031 C 
ATOM     34  C   UNL A   1      43.545  31.849  29.082  1.00  0.00     0.029 A 
ATOM     35  C   UNL A   1      44.479  30.928  28.640  1.00  0.00     0.049 A 
ATOM     36  H   UNL A   1      44.227  28.878  28.210  1.00  0.00     0.167 HD
ATOM     37  C   UNL A   1      46.737  30.157  27.969  1.00  0.00     0.074 A 
ATOM     38  C   UNL A   1      48.151  30.369  27.726  1.00  0.00     0.031 C 
ATOM     39  C   UNL A   1      45.879  31.130  28.361  1.00  0.00     0.034 A 
BRANCH  26  40
ATOM     40  C   UNL A   1      40.095  29.130  29.269  1.00  0.00     0.023 A 
ATOM     41  C   UNL A   1      39.708  29.153  30.619  1.00  0.00     0.031 A 
ATOM     42  C   UNL A   1      39.124  29.403  28.290  1.00  0.00     0.131 A 
ATOM     43  C   UNL A   1      38.368  29.401  30.952  1.00  0.00     0.055 A 
ATOM     44  C   UNL A   1      37.804  29.700  28.631  1.00  0.00     0.041 A 
ATOM     45  F   UNL A   1      39.443  29.373  26.986  1.00  0.00    -0.206 F 
ATOM     46  C   UNL A   1      37.419  29.693  29.969  1.00  0.00     0.022 A 
BRANCH  43  47
ATOM     47  S   UNL A   1      37.860  29.279  32.689  1.00  0.00     0.124 S 
ATOM     48  O   UNL A   1      37.723  27.834  32.853  1.00  0.00    -0.237 OA
ATOM     49  O   UNL A   1      38.977  29.896  33.396  1.00  0.00    -0.237 OA
ATOM     50  O   UNL A   1      36.607  30.030  32.731  1.00  0.00    -0.744 OA
ENDBRANCH  43  47
ENDBRANCH  26  40
BRANCH  27  51
ATOM     51  C   UNL A   1      49.316  26.505  26.531  1.00  0.00     0.023 A 
ATOM     52  C   UNL A   1      49.839  26.950  25.309  1.00  0.00     0.031 A 
ATOM     53  C   UNL A   1      50.113  25.683  27.343  1.00  0.00     0.131 A 
ATOM     54  C   UNL A   1      51.127  26.552  24.921  1.00  0.00     0.055 A 
ATOM     55  C   UNL A   1      51.403  25.310  26.965  1.00  0.00     0.041 A 
ATOM     56  F   UNL A   1      49.651  25.244  28.524  1.00  0.00    -0.206 F 
ATOM     57  C   UNL A   1      51.915  25.742  25.744  1.00  0.00     0.022 A 
BRANCH  54  58
ATOM     58  S   UNL A   1      51.761  27.103  23.314  1.00  0.00     0.124 S 
ATOM     59  O   UNL A   1      52.146  28.480  23.603  1.00  0.00    -0.237 OA
ATOM     60  O   UNL A   1      52.854  26.166  23.079  1.00  0.00    -0.237 OA
ATOM     61  O   UNL A   1      50.612  26.948  22.424  1.00  0.00    -0.744 OA
ENDBRANCH  54  58
ENDBRANCH  27  51
BRANCH  39  62
ATOM     62  C   UNL A   1      46.457  32.502  28.553  1.00  0.00     0.023 A 
ATOM     63  C   UNL A   1      46.633  33.375  27.467  1.00  0.00     0.031 A 
ATOM     64  C   UNL A   1      46.848  32.933  29.831  1.00  0.00     0.131 A 
ATOM     65  C   UNL A   1      47.220  34.632  27.674  1.00  0.00     0.055 A 
ATOM     66  C   UNL A   1      47.403  34.196  30.037  1.00  0.00     0.041 A 
ATOM     67  F   UNL A   1      46.701  32.129  30.896  1.00  0.00    -0.206 F 
ATOM     68  C   UNL A   1      47.598  35.051  28.954  1.00  0.00     0.022 A 
BRANCH  65  69
ATOM     69  S   UNL A   1      47.517  35.707  26.244  1.00  0.00     0.124 S 
ATOM     70  O   UNL A   1      46.300  36.512  26.215  1.00  0.00    -0.237 OA
ATOM     71  O   UNL A   1      48.738  36.409  26.624  1.00  0.00    -0.237 OA
ATOM     72  O   UNL A   1      47.666  34.768  25.135  1.00  0.00    -0.744 OA
ENDBRANCH  65  69
ENDBRANCH  39  62
ENDBRANCH  13  14
ENDBRANCH   6   8
ENDBRANCH   3   4
ENDBRANCH   2   3
ENDBRANCH   1   2
BRANCH   1  73
ATOM     73  C   UNL A   1      37.085  22.151  24.420  1.00  0.00     0.002 C 
BRANCH  73  74
ATOM     74  C   UNL A   1      36.180  22.736  23.336  1.00  0.00     0.021 C 
BRANCH  74  75
ATOM     75  C   UNL A   1      35.403  23.987  23.728  1.00  0.00     0.116 C 
BRANCH  75  76
ATOM     76  N   UNL A   1      34.037  24.001  23.227  1.00  0.00    -0.352 N 
ATOM     77  C   UNL A   1      32.904  23.541  23.868  1.00  0.00     0.256 C 
ATOM     78  H   UNL A   1      33.905  24.382  22.329  1.00  0.00     0.163 HD
ATOM     79  O   UNL A   1      31.814  23.551  23.312  1.00  0.00    -0.269 OA
BRANCH  77  80
ATOM     80  C   UNL A   1      33.057  22.909  25.192  1.00  0.00     0.099 A 
ATOM     81  C   UNL A   1      33.303  23.724  26.297  1.00  0.00     0.138 A 
ATOM     82  C   UNL A   1      33.072  21.507  25.319  1.00  0.00     0.057 A 
ATOM     83  F   UNL A   1      33.202  25.058  26.199  1.00  0.00    -0.206 F 
ATOM     84  C   UNL A   1      33.725  23.172  27.497  1.00  0.00     0.040 A 
ATOM     85  C   UNL A   1      33.619  20.972  26.485  1.00  0.00     0.027 A 
ATOM     86  C   UNL A   1      33.934  21.797  27.574  1.00  0.00     0.005 A 
BRANCH  82  87
ATOM     87  N   UNL A   1      32.594  20.718  24.261  1.00  0.00    -0.325 N 
ATOM     88  C   UNL A   1      32.637  19.404  23.930  1.00  0.00     0.227 C 
ATOM     89  H   UNL A   1      32.105  21.251  23.595  1.00  0.00     0.169 HD
ATOM     90  O   UNL A   1      32.234  19.155  22.783  1.00  0.00    -0.274 OA
BRANCH  88  91
ATOM     91  C   UNL A   1      33.119  18.241  24.827  1.00  0.00     0.079 C 
ATOM     92  C   UNL A   1      32.249  16.979  24.911  1.00  0.00     0.013 C 
ATOM     93  C   UNL A   1      34.512  17.811  24.273  1.00  0.00     0.013 C 
ATOM     94  C   UNL A   1      32.907  15.876  25.741  1.00  0.00     0.001 C 
ATOM     95  C   UNL A   1      35.163  16.646  25.013  1.00  0.00     0.001 C 
ATOM     96  C   UNL A   1      34.231  15.452  25.135  1.00  0.00     0.000 C 
ENDBRANCH  88  91
ENDBRANCH  82  87
ENDBRANCH  77  80
ENDBRANCH  75  76
ENDBRANCH  74  75
ENDBRANCH  73  74
ENDBRANCH   1  73
TORSDOF 18
ENDMDL
MODEL 2
REMARK VINA RESULT:     -12.0      5.583     10.368
REMARK SMILES O=C(NCCCCCCNC(=O)c1c(F)cccc1NC(=O)C1CCCCC1)c1ccc(-c2c3nc(c(-c4cc(S(=O)(=O)[O-])ccc4F)c4ccc([nH]4)c(-c4cc(S(=O)(=O)[O-])ccc4F)c4nc(c(-c5cc(S(=O)(=O)[O-])ccc5F)c5ccc2[nH]5)C=C4)C=C3)cc1
REMARK SMILES IDX 6 1 5 2 4 3 3 4 1 5 2 6 29 8 30 9 91 10 31 11 90 12 32 13
REMARK SMILES IDX 33 14 34 15 84 16 35 17 89 18 83 19 85 20 36 21 88 22 82 23
REMARK SMILES IDX 81 24 37 26 69 27 49 28 68 29 50 30 53 31 67 32 86 33 51 34
REMARK SMILES IDX 52 35 66 37 87 38 54 39 38 40 39 41 47 42 40 43 46 44 48 45
REMARK SMILES IDX 45 46 41 47 42 48 43 49 44 50 70 51 71 52 79 53 72 54 78 55
REMARK SMILES IDX 80 56 77 57 73 58 74 59 75 60 76 61 55 62 56 63 64 64 57 65
REMARK SMILES IDX 63 66 65 67 62 68 58 69 59 70 60 71 61 72 7 73 8 74 9 75
REMARK SMILES IDX 10 76 11 77 12 79 13 80 14 81 19 82 15 83 16 84 18 85 17 86
REMARK SMILES IDX 20 87 21 88 22 90 23 91 24 92 28 93 25 94 27 95 26 96
REMARK H PARENT 3 7 85 25 53 36 10 78 20 89
REMARK Flexibility Score: inf
ROOT
ATOM      1  C   UNL A   1      31.597  27.219  26.146  1.00  0.00     0.002 C 
ENDROOT
BRANCH   1   2
ATOM      2  C   UNL A   1      31.919  28.173  24.989  1.00  0.00     0.021 C 
BRANCH   2   3
ATOM      3  C   UNL A   1      32.998  29.221  25.252  1.00  0.00     0.116 C 
BRANCH   3   4
ATOM      4  N   UNL A   1      32.452  30.478  25.727  1.00  0.00    -0.352 N 
ATOM      5  O   UNL A   1      32.156  32.242  27.079  1.00  0.00    -0.269 OA
ATOM      6  C   UNL A   1      32.860  31.288  26.756  1.00  0.00     0.251 C 
ATOM      7  H   UNL A   1      31.665  30.800  25.233  1.00  0.00     0.163 HD
BRANCH   6   8
ATOM      8  C   UNL A   1      34.119  31.025  27.493  1.00  0.00     0.039 A 
ATOM      9  C   UNL A   1      35.022  32.046  27.808  1.00  0.00     0.014 A 
ATOM     10  C   UNL A   1      34.360  29.723  27.950  1.00  0.00     0.014 A 
ATOM     11  C   UNL A   1      36.196  31.751  28.506  1.00  0.00     0.010 A 
ATOM     12  C   UNL A   1      35.517  29.436  28.680  1.00  0.00     0.010 A 
ATOM     13  C   UNL A   1      36.452  30.446  28.952  1.00  0.00    -0.014 A 
BRANCH  13  14
ATOM     14  C   UNL A   1      37.681  30.139  29.728  1.00  0.00     0.031 A 
ATOM     15  C   UNL A   1      38.766  29.285  29.132  1.00  0.00     0.074 A 
ATOM     16  C   UNL A   1      37.821  30.629  30.973  1.00  0.00     0.049 A 
ATOM     17  N   UNL A   1      39.867  28.844  29.686  1.00  0.00    -0.248 NA
ATOM     18  C   UNL A   1      38.588  28.872  27.733  1.00  0.00     0.031 C 
ATOM     19  C   UNL A   1      36.850  31.484  31.659  1.00  0.00     0.029 A 
ATOM     20  N   UNL A   1      38.836  30.481  31.883  1.00  0.00    -0.354 N 
ATOM     21  C   UNL A   1      40.509  28.092  28.710  1.00  0.00     0.074 A 
ATOM     22  C   UNL A   1      39.667  28.128  27.532  1.00  0.00     0.031 C 
ATOM     23  C   UNL A   1      37.327  31.801  32.874  1.00  0.00     0.029 A 
ATOM     24  C   UNL A   1      38.614  31.139  33.069  1.00  0.00     0.049 A 
ATOM     25  H   UNL A   1      39.649  29.955  31.704  1.00  0.00     0.167 HD
ATOM     26  C   UNL A   1      41.691  27.432  28.789  1.00  0.00     0.034 A 
ATOM     27  C   UNL A   1      39.350  31.186  34.195  1.00  0.00     0.034 A 
ATOM     28  C   UNL A   1      42.527  27.392  29.961  1.00  0.00     0.049 A 
ATOM     29  C   UNL A   1      40.635  30.411  34.271  1.00  0.00     0.074 A 
ATOM     30  C   UNL A   1      43.734  26.736  30.141  1.00  0.00     0.029 A 
ATOM     31  N   UNL A   1      42.244  28.035  31.157  1.00  0.00    -0.354 N 
ATOM     32  N   UNL A   1      41.195  29.653  33.359  1.00  0.00    -0.248 NA
ATOM     33  C   UNL A   1      41.377  30.487  35.537  1.00  0.00     0.031 C 
ATOM     34  C   UNL A   1      44.164  26.958  31.455  1.00  0.00     0.029 A 
ATOM     35  C   UNL A   1      43.245  27.784  32.081  1.00  0.00     0.049 A 
ATOM     36  H   UNL A   1      41.448  28.590  31.325  1.00  0.00     0.167 HD
ATOM     37  C   UNL A   1      42.353  29.155  33.944  1.00  0.00     0.074 A 
ATOM     38  C   UNL A   1      42.421  29.709  35.282  1.00  0.00     0.031 C 
ATOM     39  C   UNL A   1      43.280  28.315  33.421  1.00  0.00     0.034 A 
BRANCH  26  40
ATOM     40  C   UNL A   1      42.123  26.660  27.573  1.00  0.00     0.023 A 
ATOM     41  C   UNL A   1      41.878  25.282  27.455  1.00  0.00     0.031 A 
ATOM     42  C   UNL A   1      42.801  27.310  26.527  1.00  0.00     0.131 A 
ATOM     43  C   UNL A   1      42.347  24.587  26.331  1.00  0.00     0.055 A 
ATOM     44  C   UNL A   1      43.220  26.623  25.388  1.00  0.00     0.041 A 
ATOM     45  F   UNL A   1      43.075  28.623  26.605  1.00  0.00    -0.206 F 
ATOM     46  C   UNL A   1      42.999  25.252  25.288  1.00  0.00     0.022 A 
BRANCH  43  47
ATOM     47  S   UNL A   1      42.151  22.786  26.268  1.00  0.00     0.124 S 
ATOM     48  O   UNL A   1      42.716  22.474  24.958  1.00  0.00    -0.237 OA
ATOM     49  O   UNL A   1      42.926  22.336  27.419  1.00  0.00    -0.237 OA
ATOM     50  O   UNL A   1      40.706  22.596  26.381  1.00  0.00    -0.744 OA
ENDBRANCH  43  47
ENDBRANCH  26  40
BRANCH  27  51
ATOM     51  C   UNL A   1      38.863  31.956  35.366  1.00  0.00     0.023 A 
ATOM     52  C   UNL A   1      38.243  31.309  36.445  1.00  0.00     0.031 A 
ATOM     53  C   UNL A   1      39.004  33.353  35.411  1.00  0.00     0.131 A 
ATOM     54  C   UNL A   1      37.765  32.068  37.524  1.00  0.00     0.055 A 
ATOM     55  C   UNL A   1      38.550  34.099  36.498  1.00  0.00     0.041 A 
ATOM     56  F   UNL A   1      39.600  34.006  34.402  1.00  0.00    -0.206 F 
ATOM     57  C   UNL A   1      37.922  33.456  37.562  1.00  0.00     0.022 A 
BRANCH  54  58
ATOM     58  S   UNL A   1      36.925  31.212  38.884  1.00  0.00     0.124 S 
ATOM     59  O   UNL A   1      36.836  29.850  38.369  1.00  0.00    -0.237 OA
ATOM     60  O   UNL A   1      37.849  31.420  39.994  1.00  0.00    -0.237 OA
ATOM     61  O   UNL A   1      35.652  31.921  38.998  1.00  0.00    -0.744 OA
ENDBRANCH  54  58
ENDBRANCH  27  51
BRANCH  39  62
ATOM     62  C   UNL A   1      44.440  27.957  34.303  1.00  0.00     0.023 A 
ATOM     63  C   UNL A   1      44.402  26.821  35.129  1.00  0.00     0.031 A 
ATOM     64  C   UNL A   1      45.586  28.768  34.329  1.00  0.00     0.131 A 
ATOM     65  C   UNL A   1      45.484  26.543  35.977  1.00  0.00     0.055 A 
ATOM     66  C   UNL A   1      46.673  28.470  35.152  1.00  0.00     0.041 A 
ATOM     67  F   UNL A   1      45.663  29.865  33.559  1.00  0.00    -0.206 F 
ATOM     68  C   UNL A   1      46.623  27.355  35.987  1.00  0.00     0.022 A 
BRANCH  65  69
ATOM     69  S   UNL A   1      45.377  25.120  37.097  1.00  0.00     0.124 S 
ATOM     70  O   UNL A   1      44.234  24.394  36.552  1.00  0.00    -0.237 OA
ATOM     71  O   UNL A   1      46.678  24.483  36.925  1.00  0.00    -0.237 OA
ATOM     72  O   UNL A   1      45.157  25.731  38.406  1.00  0.00    -0.744 OA
ENDBRANCH  65  69
ENDBRANCH  39  62
ENDBRANCH  13  14
ENDBRANCH   6   8
ENDBRANCH   3   4
ENDBRANCH   2   3
ENDBRANCH   1   2
BRANCH   1  73
ATOM     73  C   UNL A   1      30.733  25.997  25.817  1.00  0.00     0.002 C 
BRANCH  73  74
ATOM     74  C   UNL A   1      30.382  25.791  24.344  1.00  0.00     0.021 C 
BRANCH  74  75
ATOM     75  C   UNL A   1      30.711  24.416  23.773  1.00  0.00     0.116 C 
BRANCH  75  76
ATOM     76  N   UNL A   1      31.658  24.459  22.669  1.00  0.00    -0.352 N 
ATOM     77  C   UNL A   1      32.958  23.995  22.661  1.00  0.00     0.256 C 
ATOM     78  H   UNL A   1      31.335  24.864  21.832  1.00  0.00     0.163 HD
ATOM     79  O   UNL A   1      33.680  24.147  21.684  1.00  0.00    -0.269 OA
BRANCH  77  80
ATOM     80  C   UNL A   1      33.507  23.431  23.909  1.00  0.00     0.099 A 
ATOM     81  C   UNL A   1      34.122  24.292  24.818  1.00  0.00     0.138 A 
ATOM     82  C   UNL A   1      33.516  22.040  24.123  1.00  0.00     0.057 A 
ATOM     83  F   UNL A   1      34.039  25.622  24.664  1.00  0.00    -0.206 F 
ATOM     84  C   UNL A   1      34.889  23.786  25.856  1.00  0.00     0.040 A 
ATOM     85  C   UNL A   1      34.390  21.542  25.088  1.00  0.00     0.027 A 
ATOM     86  C   UNL A   1      35.065  22.409  25.959  1.00  0.00     0.005 A 
BRANCH  82  87
ATOM     87  N   UNL A   1      32.697  21.219  23.331  1.00  0.00    -0.325 N 
ATOM     88  C   UNL A   1      32.531  19.885  23.159  1.00  0.00     0.227 C 
ATOM     89  H   UNL A   1      32.093  21.744  22.758  1.00  0.00     0.169 HD
ATOM     90  O   UNL A   1      31.808  19.582  22.197  1.00  0.00    -0.274 OA
BRANCH  88  91
ATOM     91  C   UNL A   1      33.136  18.760  24.029  1.00  0.00     0.079 C 
ATOM     92  C   UNL A   1      32.264  18.146  25.133  1.00  0.00     0.013 C 
ATOM     93  C   UNL A   1      33.525  17.611  23.049  1.00  0.00     0.013 C 
ATOM     94  C   UNL A   1      32.953  16.973  25.831  1.00  0.00     0.001 C 
ATOM     95  C   UNL A   1      34.129  16.378  23.715  1.00  0.00     0.001 C 
ATOM     96  C   UNL A   1      33.262  15.858  24.851  1.00  0.00     0.000 C 
ENDBRANCH  88  91
ENDBRANCH  82  87
ENDBRANCH  77  80
ENDBRANCH  75  76
ENDBRANCH  74  75
ENDBRANCH  73  74
ENDBRANCH   1  73
TORSDOF 18
ENDMDL
MODEL 3
REMARK VINA RESULT:     -11.9      2.778      8.294
REMARK SMILES O=C(NCCCCCCNC(=O)c1c(F)cccc1NC(=O)C1CCCCC1)c1ccc(-c2c3nc(c(-c4cc(S(=O)(=O)[O-])ccc4F)c4ccc([nH]4)c(-c4cc(S(=O)(=O)[O-])ccc4F)c4nc(c(-c5cc(S(=O)(=O)[O-])ccc5F)c5ccc2[nH]5)C=C4)C=C3)cc1
REMARK SMILES IDX 6 1 5 2 4 3 3 4 1 5 2 6 29 8 30 9 91 10 31 11 90 12 32 13
REMARK SMILES IDX 33 14 34 15 84 16 35 17 89 18 83 19 85 20 36 21 88 22 82 23
REMARK SMILES IDX 81 24 37 26 69 27 49 28 68 29 50 30 53 31 67 32 86 33 51 34
REMARK SMILES IDX 52 35 66 37 87 38 54 39 38 40 39 41 47 42 40 43 46 44 48 45
REMARK SMILES IDX 45 46 41 47 42 48 43 49 44 50 70 51 71 52 79 53 72 54 78 55
REMARK SMILES IDX 80 56 77 57 73 58 74 59 75 60 76 61 55 62 56 63 64 64 57 65
REMARK SMILES IDX 63 66 65 67 62 68 58 69 59 70 60 71 61 72 7 73 8 74 9 75
REMARK SMILES IDX 10 76 11 77 12 79 13 80 14 81 19 82 15 83 16 84 18 85 17 86
REMARK SMILES IDX 20 87 21 88 22 90 23 91 24 92 28 93 25 94 27 95 26 96
REMARK H PARENT 3 7 85 25 53 36 10 78 20 89
REMARK Flexibility Score: inf
ROOT
ATOM      1  C   UNL A   1      35.336  22.627  26.033  1.00  0.00     0.002 C 
ENDROOT
BRANCH   1   2
ATOM      2  C   UNL A   1      35.801  21.616  24.978  1.00  0.00     0.021 C 
BRANCH   2   3
ATOM      3  C   UNL A   1      37.285  21.644  24.617  1.00  0.00     0.116 C 
BRANCH   3   4
ATOM      4  N   UNL A   1      38.061  20.677  25.370  1.00  0.00    -0.352 N 
ATOM      5  O   UNL A   1      39.775  19.853  26.559  1.00  0.00    -0.269 OA
ATOM      6  C   UNL A   1      39.195  20.846  26.123  1.00  0.00     0.251 C 
ATOM      7  H   UNL A   1      37.720  19.755  25.335  1.00  0.00     0.163 HD
BRANCH   6   8
ATOM      8  C   UNL A   1      39.743  22.195  26.403  1.00  0.00     0.039 A 
ATOM      9  C   UNL A   1      39.011  23.360  26.150  1.00  0.00     0.014 A 
ATOM     10  C   UNL A   1      41.001  22.286  27.012  1.00  0.00     0.014 A 
ATOM     11  C   UNL A   1      39.567  24.611  26.432  1.00  0.00     0.010 A 
ATOM     12  C   UNL A   1      41.541  23.536  27.326  1.00  0.00     0.010 A 
ATOM     13  C   UNL A   1      40.834  24.710  27.026  1.00  0.00    -0.014 A 
BRANCH  13  14
ATOM     14  C   UNL A   1      41.410  26.037  27.361  1.00  0.00     0.031 A 
ATOM     15  C   UNL A   1      42.792  26.409  26.899  1.00  0.00     0.074 A 
ATOM     16  C   UNL A   1      40.688  26.912  28.086  1.00  0.00     0.049 A 
ATOM     17  N   UNL A   1      43.490  27.484  27.163  1.00  0.00    -0.248 NA
ATOM     18  C   UNL A   1      43.477  25.444  26.026  1.00  0.00     0.031 C 
ATOM     19  C   UNL A   1      39.330  26.680  28.582  1.00  0.00     0.029 A 
ATOM     20  N   UNL A   1      40.995  28.172  28.530  1.00  0.00    -0.354 N 
ATOM     21  C   UNL A   1      44.701  27.323  26.501  1.00  0.00     0.074 A 
ATOM     22  C   UNL A   1      44.646  26.040  25.832  1.00  0.00     0.031 C 
ATOM     23  C   UNL A   1      38.913  27.772  29.244  1.00  0.00     0.029 A 
ATOM     24  C   UNL A   1      39.988  28.760  29.257  1.00  0.00     0.049 A 
ATOM     25  H   UNL A   1      41.855  28.615  28.346  1.00  0.00     0.167 HD
ATOM     26  C   UNL A   1      45.762  28.167  26.457  1.00  0.00     0.034 A 
ATOM     27  C   UNL A   1      39.941  29.952  29.883  1.00  0.00     0.034 A 
ATOM     28  C   UNL A   1      45.819  29.441  27.126  1.00  0.00     0.049 A 
ATOM     29  C   UNL A   1      41.145  30.849  29.855  1.00  0.00     0.074 A 
ATOM     30  C   UNL A   1      46.857  30.359  27.153  1.00  0.00     0.029 A 
ATOM     31  N   UNL A   1      44.795  29.981  27.889  1.00  0.00    -0.354 N 
ATOM     32  N   UNL A   1      42.306  30.652  29.277  1.00  0.00    -0.248 NA
ATOM     33  C   UNL A   1      41.036  32.124  30.577  1.00  0.00     0.031 C 
ATOM     34  C   UNL A   1      46.471  31.438  27.957  1.00  0.00     0.029 A 
ATOM     35  C   UNL A   1      45.178  31.212  28.399  1.00  0.00     0.049 A 
ATOM     36  H   UNL A   1      43.922  29.554  28.045  1.00  0.00     0.167 HD
ATOM     37  C   UNL A   1      43.068  31.776  29.573  1.00  0.00     0.074 A 
ATOM     38  C   UNL A   1      42.233  32.654  30.368  1.00  0.00     0.031 C 
ATOM     39  C   UNL A   1      44.347  32.058  29.218  1.00  0.00     0.034 A 
BRANCH  26  40
ATOM     40  C   UNL A   1      46.967  27.706  25.686  1.00  0.00     0.023 A 
ATOM     41  C   UNL A   1      47.123  28.006  24.323  1.00  0.00     0.031 A 
ATOM     42  C   UNL A   1      47.964  26.945  26.321  1.00  0.00     0.131 A 
ATOM     43  C   UNL A   1      48.234  27.509  23.625  1.00  0.00     0.055 A 
ATOM     44  C   UNL A   1      49.092  26.497  25.635  1.00  0.00     0.041 A 
ATOM     45  F   UNL A   1      47.847  26.617  27.618  1.00  0.00    -0.206 F 
ATOM     46  C   UNL A   1      49.228  26.773  24.276  1.00  0.00     0.022 A 
BRANCH  43  47
ATOM     47  S   UNL A   1      48.340  27.782  21.836  1.00  0.00     0.124 S 
ATOM     48  O   UNL A   1      49.463  28.712  21.747  1.00  0.00    -0.237 OA
ATOM     49  O   UNL A   1      48.583  26.440  21.318  1.00  0.00    -0.237 OA
ATOM     50  O   UNL A   1      47.037  28.351  21.500  1.00  0.00    -0.744 OA
ENDBRANCH  43  47
ENDBRANCH  26  40
BRANCH  27  51
ATOM     51  C   UNL A   1      38.726  30.344  30.638  1.00  0.00     0.023 A 
ATOM     52  C   UNL A   1      37.714  31.101  30.029  1.00  0.00     0.031 A 
ATOM     53  C   UNL A   1      38.570  29.975  31.984  1.00  0.00     0.131 A 
ATOM     54  C   UNL A   1      36.590  31.482  30.778  1.00  0.00     0.055 A 
ATOM     55  C   UNL A   1      37.440  30.335  32.716  1.00  0.00     0.041 A 
ATOM     56  F   UNL A   1      39.513  29.243  32.598  1.00  0.00    -0.206 F 
ATOM     57  C   UNL A   1      36.443  31.098  32.114  1.00  0.00     0.022 A 
BRANCH  54  58
ATOM     58  S   UNL A   1      35.319  32.500  29.980  1.00  0.00     0.124 S 
ATOM     59  O   UNL A   1      34.391  32.734  31.081  1.00  0.00    -0.237 OA
ATOM     60  O   UNL A   1      36.089  33.656  29.533  1.00  0.00    -0.237 OA
ATOM     61  O   UNL A   1      34.816  31.641  28.910  1.00  0.00    -0.744 OA
ENDBRANCH  54  58
ENDBRANCH  27  51
BRANCH  39  62
ATOM     62  C   UNL A   1      44.903  33.370  29.687  1.00  0.00     0.023 A 
ATOM     63  C   UNL A   1      44.771  34.535  28.913  1.00  0.00     0.031 A 
ATOM     64  C   UNL A   1      45.584  33.452  30.913  1.00  0.00     0.131 A 
ATOM     65  C   UNL A   1      45.345  35.734  29.359  1.00  0.00     0.055 A 
ATOM     66  C   UNL A   1      46.126  34.655  31.367  1.00  0.00     0.041 A 
ATOM     67  F   UNL A   1      45.736  32.364  31.683  1.00  0.00    -0.206 F 
ATOM     68  C   UNL A   1      46.013  35.804  30.586  1.00  0.00     0.022 A 
BRANCH  65  69
ATOM     69  S   UNL A   1      45.236  37.204  28.302  1.00  0.00     0.124 S 
ATOM     70  O   UNL A   1      44.404  38.093  29.107  1.00  0.00    -0.237 OA
ATOM     71  O   UNL A   1      46.634  37.594  28.158  1.00  0.00    -0.237 OA
ATOM     72  O   UNL A   1      44.608  36.702  27.082  1.00  0.00    -0.744 OA
ENDBRANCH  65  69
ENDBRANCH  39  62
ENDBRANCH  13  14
ENDBRANCH   6   8
ENDBRANCH   3   4
ENDBRANCH   2   3
ENDBRANCH   1   2
BRANCH   1  73
ATOM     73  C   UNL A   1      35.312  24.102  25.617  1.00  0.00     0.002 C 
BRANCH  73  74
ATOM     74  C   UNL A   1      33.943  24.782  25.606  1.00  0.00     0.021 C 
BRANCH  74  75
ATOM     75  C   UNL A   1      33.957  26.293  25.413  1.00  0.00     0.116 C 
BRANCH  75  76
ATOM     76  N   UNL A   1      33.331  27.023  26.505  1.00  0.00    -0.352 N 
ATOM     77  C   UNL A   1      32.019  27.443  26.589  1.00  0.00     0.256 C 
ATOM     78  H   UNL A   1      33.909  27.243  27.271  1.00  0.00     0.163 HD
ATOM     79  O   UNL A   1      31.626  28.108  27.538  1.00  0.00    -0.269 OA
BRANCH  77  80
ATOM     80  C   UNL A   1      31.127  27.188  25.441  1.00  0.00     0.099 A 
ATOM     81  C   UNL A   1      31.147  28.081  24.369  1.00  0.00     0.138 A 
ATOM     82  C   UNL A   1      30.194  26.136  25.479  1.00  0.00     0.057 A 
ATOM     83  F   UNL A   1      32.092  29.030  24.286  1.00  0.00    -0.206 F 
ATOM     84  C   UNL A   1      30.149  28.046  23.408  1.00  0.00     0.040 A 
ATOM     85  C   UNL A   1      29.126  26.189  24.584  1.00  0.00     0.027 A 
ATOM     86  C   UNL A   1      29.108  27.132  23.546  1.00  0.00     0.005 A 
BRANCH  82  87
ATOM     87  N   UNL A   1      30.344  25.120  26.437  1.00  0.00    -0.325 N 
ATOM     88  C   UNL A   1      30.501  23.774  26.412  1.00  0.00     0.227 C 
ATOM     89  H   UNL A   1      30.334  25.474  27.355  1.00  0.00     0.169 HD
ATOM     90  O   UNL A   1      30.407  23.231  27.524  1.00  0.00    -0.274 OA
BRANCH  88  91
ATOM     91  C   UNL A   1      30.781  22.900  25.168  1.00  0.00     0.079 C 
ATOM     92  C   UNL A   1      31.431  23.564  23.946  1.00  0.00     0.013 C 
ATOM     93  C   UNL A   1      31.732  21.759  25.641  1.00  0.00     0.013 C 
ATOM     94  C   UNL A   1      31.750  22.557  22.841  1.00  0.00     0.001 C 
ATOM     95  C   UNL A   1      32.155  20.784  24.546  1.00  0.00     0.001 C 
ATOM     96  C   UNL A   1      32.721  21.498  23.329  1.00  0.00     0.000 C 
ENDBRANCH  88  91
ENDBRANCH  82  87
ENDBRANCH  77  80
ENDBRANCH  75  76
ENDBRANCH  74  75
ENDBRANCH  73  74
ENDBRANCH   1  73
TORSDOF 18
ENDMDL
