MODEL 1
REMARK VINA RESULT:     -10.5      0.000      0.000
REMARK SMILES CCOc1ccc([C@H](C)[C@](O)(C(=O)NCCCCCCNC(=O)c2ccc(-c3c4nc(c(-c5cc(S(=O)(=O)[O-])ccc5F)c5ccc([nH]5)c(-c5cc(S(=O)(=O)[O-])ccc5F)c5nc(c(-c6cc(S(=O)(=O)[O-])ccc6F)c6ccc3[nH]6)C=C5)C=C4)cc2)C(C)C)cc1
REMARK SMILES IDX 17 1 16 2 15 3 14 4 12 5 13 6 10 8 8 9 9 10 7 11 4 12 5 13
REMARK SMILES IDX 91 14 6 15 90 16 3 17 2 18 1 19 87 20 88 21 89 22 11 23
REMARK SMILES IDX 18 25 19 26 20 27 21 28 22 29 23 31 24 32 25 33 86 34 26 35
REMARK SMILES IDX 85 36 27 37 28 38 29 39 79 40 30 41 84 42 78 43 80 44 31 45
REMARK SMILES IDX 83 46 77 47 76 48 32 50 64 51 44 52 63 53 45 54 48 55 62 56
REMARK SMILES IDX 81 57 46 58 47 59 61 61 82 62 49 63 33 64 34 65 42 66 35 67
REMARK SMILES IDX 41 68 43 69 40 70 36 71 37 72 38 73 39 74 65 75 66 76 74 77
REMARK SMILES IDX 67 78 73 79 75 80 72 81 68 82 69 83 70 84 71 85 50 86 51 87
REMARK SMILES IDX 59 88 52 89 58 90 60 91 57 92 53 93 54 94 55 95 56 96
REMARK H PARENT 14 7 11 24 21 30 80 49 48 60
REMARK Flexibility Score: inf
ROOT
ATOM      1  C   UNL A   1      34.174  21.746  27.181  1.00  0.00     0.002 C 
ENDROOT
BRANCH   1   2
ATOM      2  C   UNL A   1      32.905  22.541  27.513  1.00  0.00     0.021 C 
BRANCH   2   3
ATOM      3  C   UNL A   1      32.780  23.845  26.740  1.00  0.00     0.116 C 
BRANCH   3   4
ATOM      4  N   UNL A   1      31.463  24.443  26.893  1.00  0.00    -0.354 N 
ATOM      5  C   UNL A   1      30.584  24.899  25.954  1.00  0.00     0.252 C 
ATOM      6  O   UNL A   1      29.431  25.125  26.335  1.00  0.00    -0.272 OA
ATOM      7  H   UNL A   1      31.156  24.533  27.824  1.00  0.00     0.163 HD
BRANCH   5   8
ATOM      8  C   UNL A   1      31.009  25.049  24.460  1.00  0.00     0.151 C 
BRANCH   8   9
ATOM      9  C   UNL A   1      31.363  26.592  24.199  1.00  0.00     0.058 C 
ATOM     10  C   UNL A   1      30.214  27.542  23.784  1.00  0.00     0.016 C 
BRANCH   9  11
ATOM     11  C   UNL A   1      32.121  27.294  25.313  1.00  0.00    -0.041 A 
ATOM     12  C   UNL A   1      33.462  28.798  27.252  1.00  0.00     0.119 A 
ATOM     13  C   UNL A   1      34.182  27.967  26.396  1.00  0.00     0.047 A 
ATOM     14  C   UNL A   1      32.074  28.850  27.165  1.00  0.00     0.047 A 
ATOM     15  C   UNL A   1      33.516  27.209  25.434  1.00  0.00     0.008 A 
ATOM     16  C   UNL A   1      31.403  28.075  26.226  1.00  0.00     0.008 A 
BRANCH  12  17
ATOM     17  O   UNL A   1      34.184  29.626  28.063  1.00  0.00    -0.494 OA
BRANCH  17  18
ATOM     18  C   UNL A   1      34.558  30.870  27.462  1.00  0.00     0.226 C 
ATOM     19  C   UNL A   1      36.039  31.168  27.628  1.00  0.00     0.049 C 
ENDBRANCH  17  18
ENDBRANCH  12  17
ENDBRANCH   9  11
ENDBRANCH   8   9
BRANCH   8  20
ATOM     20  C   UNL A   1      32.124  23.977  24.101  1.00  0.00     0.025 C 
ATOM     21  C   UNL A   1      31.570  22.662  23.500  1.00  0.00     0.011 C 
ATOM     22  C   UNL A   1      33.147  24.462  23.051  1.00  0.00     0.011 C 
ENDBRANCH   8  20
BRANCH   8  23
ATOM     23  O   UNL A   1      29.903  24.718  23.589  1.00  0.00    -0.379 OA
ATOM     24  H   UNL A   1      29.091  25.124  23.929  1.00  0.00     0.212 HD
ENDBRANCH   8  23
ENDBRANCH   5   8
ENDBRANCH   3   4
ENDBRANCH   2   3
ENDBRANCH   1   2
BRANCH   1  25
ATOM     25  C   UNL A   1      34.194  21.089  25.795  1.00  0.00     0.002 C 
BRANCH  25  26
ATOM     26  C   UNL A   1      35.328  21.544  24.874  1.00  0.00     0.021 C 
BRANCH  26  27
ATOM     27  C   UNL A   1      36.568  22.051  25.598  1.00  0.00     0.116 C 
BRANCH  27  28
ATOM     28  N   UNL A   1      37.576  21.014  25.752  1.00  0.00    -0.352 N 
ATOM     29  C   UNL A   1      38.904  21.143  26.069  1.00  0.00     0.251 C 
ATOM     30  H   UNL A   1      37.260  20.092  25.610  1.00  0.00     0.163 HD
ATOM     31  O   UNL A   1      39.654  20.176  25.971  1.00  0.00    -0.269 OA
BRANCH  29  32
ATOM     32  C   UNL A   1      39.426  22.458  26.496  1.00  0.00     0.039 A 
ATOM     33  C   UNL A   1      40.459  22.506  27.436  1.00  0.00     0.014 A 
ATOM     34  C   UNL A   1      38.913  23.640  25.954  1.00  0.00     0.014 A 
ATOM     35  C   UNL A   1      41.019  23.736  27.784  1.00  0.00     0.010 A 
ATOM     36  C   UNL A   1      39.523  24.856  26.245  1.00  0.00     0.010 A 
ATOM     37  C   UNL A   1      40.582  24.919  27.164  1.00  0.00    -0.014 A 
BRANCH  37  38
ATOM     38  C   UNL A   1      41.216  26.230  27.462  1.00  0.00     0.031 A 
ATOM     39  C   UNL A   1      42.589  26.538  26.929  1.00  0.00     0.074 A 
ATOM     40  C   UNL A   1      40.584  27.111  28.265  1.00  0.00     0.049 A 
ATOM     41  N   UNL A   1      43.347  27.582  27.149  1.00  0.00    -0.248 NA
ATOM     42  C   UNL A   1      43.202  25.524  26.057  1.00  0.00     0.031 C 
ATOM     43  C   UNL A   1      39.261  26.912  28.862  1.00  0.00     0.029 A 
ATOM     44  N   UNL A   1      40.971  28.346  28.725  1.00  0.00    -0.354 N 
ATOM     45  C   UNL A   1      44.531  27.343  26.461  1.00  0.00     0.074 A 
ATOM     46  C   UNL A   1      44.410  26.032  25.860  1.00  0.00     0.031 C 
ATOM     47  C   UNL A   1      38.937  27.997  29.583  1.00  0.00     0.029 A 
ATOM     48  C   UNL A   1      40.046  28.945  29.550  1.00  0.00     0.049 A 
ATOM     49  H   UNL A   1      41.828  28.763  28.485  1.00  0.00     0.167 HD
ATOM     50  C   UNL A   1      45.612  28.151  26.329  1.00  0.00     0.034 A 
ATOM     51  C   UNL A   1      40.094  30.115  30.217  1.00  0.00     0.034 A 
ATOM     52  C   UNL A   1      45.707  29.463  26.920  1.00  0.00     0.049 A 
ATOM     53  C   UNL A   1      41.328  30.976  30.087  1.00  0.00     0.074 A 
ATOM     54  C   UNL A   1      46.725  30.392  26.792  1.00  0.00     0.029 A 
ATOM     55  N   UNL A   1      44.758  30.030  27.762  1.00  0.00    -0.354 N 
ATOM     56  N   UNL A   1      42.417  30.760  29.385  1.00  0.00    -0.248 NA
ATOM     57  C   UNL A   1      41.336  32.241  30.833  1.00  0.00     0.031 C 
ATOM     58  C   UNL A   1      46.433  31.480  27.620  1.00  0.00     0.029 A 
ATOM     59  C   UNL A   1      45.189  31.274  28.194  1.00  0.00     0.049 A 
ATOM     60  H   UNL A   1      43.905  29.609  28.015  1.00  0.00     0.167 HD
ATOM     61  C   UNL A   1      43.218  31.883  29.573  1.00  0.00     0.074 A 
ATOM     62  C   UNL A   1      42.484  32.776  30.445  1.00  0.00     0.031 C 
ATOM     63  C   UNL A   1      44.448  32.155  29.067  1.00  0.00     0.034 A 
BRANCH  50  64
ATOM     64  C   UNL A   1      46.792  27.624  25.547  1.00  0.00     0.023 A 
ATOM     65  C   UNL A   1      47.044  28.020  24.223  1.00  0.00     0.031 A 
ATOM     66  C   UNL A   1      47.679  26.706  26.138  1.00  0.00     0.131 A 
ATOM     67  C   UNL A   1      48.113  27.452  23.512  1.00  0.00     0.055 A 
ATOM     68  C   UNL A   1      48.789  26.207  25.454  1.00  0.00     0.041 A 
ATOM     69  F   UNL A   1      47.478  26.272  27.393  1.00  0.00    -0.206 F 
ATOM     70  C   UNL A   1      49.002  26.569  24.127  1.00  0.00     0.022 A 
BRANCH  67  71
ATOM     71  S   UNL A   1      48.241  27.776  21.732  1.00  0.00     0.124 S 
ATOM     72  O   UNL A   1      48.491  26.435  21.206  1.00  0.00    -0.237 OA
ATOM     73  O   UNL A   1      46.939  28.352  21.421  1.00  0.00    -0.237 OA
ATOM     74  O   UNL A   1      49.372  28.696  21.633  1.00  0.00    -0.744 OA
ENDBRANCH  67  71
ENDBRANCH  50  64
BRANCH  51  75
ATOM     75  C   UNL A   1      38.958  30.549  31.083  1.00  0.00     0.023 A 
ATOM     76  C   UNL A   1      38.015  31.480  30.621  1.00  0.00     0.031 A 
ATOM     77  C   UNL A   1      38.835  30.093  32.408  1.00  0.00     0.131 A 
ATOM     78  C   UNL A   1      37.030  31.973  31.490  1.00  0.00     0.055 A 
ATOM     79  C   UNL A   1      37.813  30.538  33.250  1.00  0.00     0.041 A 
ATOM     80  F   UNL A   1      39.707  29.202  32.906  1.00  0.00    -0.206 F 
ATOM     81  C   UNL A   1      36.913  31.497  32.796  1.00  0.00     0.022 A 
BRANCH  78  82
ATOM     82  S   UNL A   1      35.976  33.335  30.922  1.00  0.00     0.124 S 
ATOM     83  O   UNL A   1      36.708  33.806  29.751  1.00  0.00    -0.237 OA
ATOM     84  O   UNL A   1      34.714  32.652  30.659  1.00  0.00    -0.237 OA
ATOM     85  O   UNL A   1      35.962  34.251  32.060  1.00  0.00    -0.744 OA
ENDBRANCH  78  82
ENDBRANCH  51  75
BRANCH  63  86
ATOM     86  C   UNL A   1      45.048  33.501  29.395  1.00  0.00     0.023 A 
ATOM     87  C   UNL A   1      44.798  34.640  28.610  1.00  0.00     0.031 A 
ATOM     88  C   UNL A   1      45.883  33.644  30.519  1.00  0.00     0.131 A 
ATOM     89  C   UNL A   1      45.420  35.858  28.927  1.00  0.00     0.055 A 
ATOM     90  C   UNL A   1      46.444  34.872  30.868  1.00  0.00     0.041 A 
ATOM     91  F   UNL A   1      46.160  32.589  31.303  1.00  0.00    -0.206 F 
ATOM     92  C   UNL A   1      46.224  35.986  30.063  1.00  0.00     0.022 A 
BRANCH  89  93
ATOM     93  S   UNL A   1      45.235  37.255  27.786  1.00  0.00     0.124 S 
ATOM     94  O   UNL A   1      46.441  38.029  28.056  1.00  0.00    -0.237 OA
ATOM     95  O   UNL A   1      45.182  36.592  26.486  1.00  0.00    -0.237 OA
ATOM     96  O   UNL A   1      43.986  37.883  28.212  1.00  0.00    -0.744 OA
ENDBRANCH  89  93
ENDBRANCH  63  86
ENDBRANCH  37  38
ENDBRANCH  29  32
ENDBRANCH  27  28
ENDBRANCH  26  27
ENDBRANCH  25  26
ENDBRANCH   1  25
TORSDOF 22
ENDMDL
MODEL 2
REMARK VINA RESULT:     -10.5      4.795      8.091
REMARK SMILES CCOc1ccc([C@H](C)[C@](O)(C(=O)NCCCCCCNC(=O)c2ccc(-c3c4nc(c(-c5cc(S(=O)(=O)[O-])ccc5F)c5ccc([nH]5)c(-c5cc(S(=O)(=O)[O-])ccc5F)c5nc(c(-c6cc(S(=O)(=O)[O-])ccc6F)c6ccc3[nH]6)C=C5)C=C4)cc2)C(C)C)cc1
REMARK SMILES IDX 17 1 16 2 15 3 14 4 12 5 13 6 10 8 8 9 9 10 7 11 4 12 5 13
REMARK SMILES IDX 91 14 6 15 90 16 3 17 2 18 1 19 87 20 88 21 89 22 11 23
REMARK SMILES IDX 18 25 19 26 20 27 21 28 22 29 23 31 24 32 25 33 86 34 26 35
REMARK SMILES IDX 85 36 27 37 28 38 29 39 79 40 30 41 84 42 78 43 80 44 31 45
REMARK SMILES IDX 83 46 77 47 76 48 32 50 64 51 44 52 63 53 45 54 48 55 62 56
REMARK SMILES IDX 81 57 46 58 47 59 61 61 82 62 49 63 33 64 34 65 42 66 35 67
REMARK SMILES IDX 41 68 43 69 40 70 36 71 37 72 38 73 39 74 65 75 66 76 74 77
REMARK SMILES IDX 67 78 73 79 75 80 72 81 68 82 69 83 70 84 71 85 50 86 51 87
REMARK SMILES IDX 59 88 52 89 58 90 60 91 57 92 53 93 54 94 55 95 56 96
REMARK H PARENT 14 7 11 24 21 30 80 49 48 60
REMARK Flexibility Score: inf
ROOT
ATOM      1  C   UNL A   1      33.240  28.738  24.544  1.00  0.00     0.002 C 
ENDROOT
BRANCH   1   2
ATOM      2  C   UNL A   1      33.721  27.675  23.549  1.00  0.00     0.021 C 
BRANCH   2   3
ATOM      3  C   UNL A   1      33.441  26.248  23.995  1.00  0.00     0.116 C 
BRANCH   3   4
ATOM      4  N   UNL A   1      33.638  25.293  22.915  1.00  0.00    -0.354 N 
ATOM      5  C   UNL A   1      33.834  23.943  22.952  1.00  0.00     0.252 C 
ATOM      6  O   UNL A   1      33.719  23.335  21.884  1.00  0.00    -0.272 OA
ATOM      7  H   UNL A   1      33.628  25.684  22.012  1.00  0.00     0.163 HD
BRANCH   5   8
ATOM      8  C   UNL A   1      34.114  23.208  24.300  1.00  0.00     0.151 C 
BRANCH   8   9
ATOM      9  C   UNL A   1      32.748  22.517  24.780  1.00  0.00     0.058 C 
ATOM     10  C   UNL A   1      31.413  23.119  24.278  1.00  0.00     0.016 C 
BRANCH   9  11
ATOM     11  C   UNL A   1      32.653  21.016  24.558  1.00  0.00    -0.041 A 
ATOM     12  C   UNL A   1      32.723  18.247  24.181  1.00  0.00     0.119 A 
ATOM     13  C   UNL A   1      32.394  19.085  23.117  1.00  0.00     0.047 A 
ATOM     14  C   UNL A   1      32.981  18.787  25.437  1.00  0.00     0.047 A 
ATOM     15  C   UNL A   1      32.350  20.466  23.304  1.00  0.00     0.008 A 
ATOM     16  C   UNL A   1      32.910  20.161  25.635  1.00  0.00     0.008 A 
BRANCH  12  17
ATOM     17  O   UNL A   1      32.900  16.923  23.893  1.00  0.00    -0.494 OA
BRANCH  17  18
ATOM     18  C   UNL A   1      33.478  16.156  24.953  1.00  0.00     0.226 C 
ATOM     19  C   UNL A   1      32.522  15.104  25.492  1.00  0.00     0.049 C 
ENDBRANCH  17  18
ENDBRANCH  12  17
ENDBRANCH   9  11
ENDBRANCH   8   9
BRANCH   8  20
ATOM     20  C   UNL A   1      35.390  22.272  24.156  1.00  0.00     0.025 C 
ATOM     21  C   UNL A   1      36.544  22.898  23.336  1.00  0.00     0.011 C 
ATOM     22  C   UNL A   1      36.049  21.898  25.500  1.00  0.00     0.011 C 
ENDBRANCH   8  20
BRANCH   8  23
ATOM     23  O   UNL A   1      34.485  24.162  25.322  1.00  0.00    -0.379 OA
ATOM     24  H   UNL A   1      34.068  23.914  26.161  1.00  0.00     0.212 HD
ENDBRANCH   8  23
ENDBRANCH   5   8
ENDBRANCH   3   4
ENDBRANCH   2   3
ENDBRANCH   1   2
BRANCH   1  25
ATOM     25  C   UNL A   1      31.718  28.896  24.651  1.00  0.00     0.002 C 
BRANCH  25  26
ATOM     26  C   UNL A   1      31.241  30.188  25.319  1.00  0.00     0.021 C 
BRANCH  26  27
ATOM     27  C   UNL A   1      32.148  30.698  26.432  1.00  0.00     0.116 C 
BRANCH  27  28
ATOM     28  N   UNL A   1      31.996  32.127  26.652  1.00  0.00    -0.352 N 
ATOM     29  C   UNL A   1      32.759  32.966  27.422  1.00  0.00     0.251 C 
ATOM     30  H   UNL A   1      31.240  32.550  26.183  1.00  0.00     0.163 HD
ATOM     31  O   UNL A   1      32.376  34.112  27.647  1.00  0.00    -0.269 OA
BRANCH  29  32
ATOM     32  C   UNL A   1      34.026  32.472  28.002  1.00  0.00     0.039 A 
ATOM     33  C   UNL A   1      35.098  33.356  28.145  1.00  0.00     0.014 A 
ATOM     34  C   UNL A   1      34.147  31.144  28.425  1.00  0.00     0.014 A 
ATOM     35  C   UNL A   1      36.270  32.924  28.769  1.00  0.00     0.010 A 
ATOM     36  C   UNL A   1      35.285  30.739  29.113  1.00  0.00     0.010 A 
ATOM     37  C   UNL A   1      36.361  31.624  29.292  1.00  0.00    -0.014 A 
BRANCH  37  38
ATOM     38  C   UNL A   1      37.569  31.167  30.028  1.00  0.00     0.031 A 
ATOM     39  C   UNL A   1      38.501  30.171  29.395  1.00  0.00     0.074 A 
ATOM     40  C   UNL A   1      37.788  31.599  31.287  1.00  0.00     0.049 A 
ATOM     41  N   UNL A   1      39.554  29.583  29.904  1.00  0.00    -0.248 NA
ATOM     42  C   UNL A   1      38.191  29.758  28.018  1.00  0.00     0.031 C 
ATOM     43  C   UNL A   1      36.939  32.546  32.015  1.00  0.00     0.029 A 
ATOM     44  N   UNL A   1      38.784  31.295  32.182  1.00  0.00    -0.354 N 
ATOM     45  C   UNL A   1      40.020  28.718  28.919  1.00  0.00     0.074 A 
ATOM     46  C   UNL A   1      39.104  28.821  27.804  1.00  0.00     0.031 C 
ATOM     47  C   UNL A   1      37.467  32.765  33.230  1.00  0.00     0.029 A 
ATOM     48  C   UNL A   1      38.655  31.935  33.394  1.00  0.00     0.049 A 
ATOM     49  H   UNL A   1      39.521  30.677  31.975  1.00  0.00     0.167 HD
ATOM     50  C   UNL A   1      41.120  27.927  28.939  1.00  0.00     0.034 A 
ATOM     51  C   UNL A   1      39.401  31.850  34.514  1.00  0.00     0.034 A 
ATOM     52  C   UNL A   1      42.033  27.852  30.054  1.00  0.00     0.049 A 
ATOM     53  C   UNL A   1      40.597  30.927  34.523  1.00  0.00     0.074 A 
ATOM     54  C   UNL A   1      43.215  27.138  30.151  1.00  0.00     0.029 A 
ATOM     55  N   UNL A   1      41.863  28.503  31.269  1.00  0.00    -0.354 N 
ATOM     56  N   UNL A   1      41.057  30.160  33.562  1.00  0.00    -0.248 NA
ATOM     57  C   UNL A   1      41.378  30.865  35.765  1.00  0.00     0.031 C 
ATOM     58  C   UNL A   1      43.712  27.288  31.449  1.00  0.00     0.029 A 
ATOM     59  C   UNL A   1      42.893  28.170  32.134  1.00  0.00     0.049 A 
ATOM     60  H   UNL A   1      41.119  29.111  31.484  1.00  0.00     0.167 HD
ATOM     61  C   UNL A   1      42.204  29.558  34.072  1.00  0.00     0.074 A 
ATOM     62  C   UNL A   1      42.371  30.060  35.420  1.00  0.00     0.031 C 
ATOM     63  C   UNL A   1      43.048  28.675  33.479  1.00  0.00     0.034 A 
BRANCH  50  64
ATOM     64  C   UNL A   1      41.377  27.051  27.736  1.00  0.00     0.023 A 
ATOM     65  C   UNL A   1      41.028  25.690  27.716  1.00  0.00     0.031 A 
ATOM     66  C   UNL A   1      41.986  27.590  26.587  1.00  0.00     0.131 A 
ATOM     67  C   UNL A   1      41.349  24.900  26.602  1.00  0.00     0.055 A 
ATOM     68  C   UNL A   1      42.226  26.817  25.449  1.00  0.00     0.041 A 
ATOM     69  F   UNL A   1      42.363  28.877  26.553  1.00  0.00    -0.206 F 
ATOM     70  C   UNL A   1      41.921  25.460  25.458  1.00  0.00     0.022 A 
BRANCH  67  71
ATOM     71  S   UNL A   1      41.135  23.103  26.723  1.00  0.00     0.124 S 
ATOM     72  O   UNL A   1      41.563  22.847  28.096  1.00  0.00    -0.237 OA
ATOM     73  O   UNL A   1      39.712  22.935  26.456  1.00  0.00    -0.237 OA
ATOM     74  O   UNL A   1      42.030  22.581  25.692  1.00  0.00    -0.744 OA
ENDBRANCH  67  71
ENDBRANCH  50  64
BRANCH  51  75
ATOM     75  C   UNL A   1      39.046  32.638  35.731  1.00  0.00     0.023 A 
ATOM     76  C   UNL A   1      39.501  33.956  35.892  1.00  0.00     0.031 A 
ATOM     77  C   UNL A   1      38.305  32.066  36.780  1.00  0.00     0.131 A 
ATOM     78  C   UNL A   1      39.266  34.637  37.097  1.00  0.00     0.055 A 
ATOM     79  C   UNL A   1      38.018  32.771  37.952  1.00  0.00     0.041 A 
ATOM     80  F   UNL A   1      37.844  30.809  36.683  1.00  0.00    -0.206 F 
ATOM     81  C   UNL A   1      38.515  34.059  38.121  1.00  0.00     0.022 A 
BRANCH  78  82
ATOM     82  S   UNL A   1      40.060  36.248  37.350  1.00  0.00     0.124 S 
ATOM     83  O   UNL A   1      41.399  35.854  37.772  1.00  0.00    -0.237 OA
ATOM     84  O   UNL A   1      39.955  36.848  36.025  1.00  0.00    -0.237 OA
ATOM     85  O   UNL A   1      39.237  36.874  38.382  1.00  0.00    -0.744 OA
ENDBRANCH  78  82
ENDBRANCH  51  75
BRANCH  63  86
ATOM     86  C   UNL A   1      44.262  28.245  34.265  1.00  0.00     0.023 A 
ATOM     87  C   UNL A   1      45.487  28.931  34.181  1.00  0.00     0.031 A 
ATOM     88  C   UNL A   1      44.188  27.129  35.119  1.00  0.00     0.131 A 
ATOM     89  C   UNL A   1      46.601  28.462  34.893  1.00  0.00     0.055 A 
ATOM     90  C   UNL A   1      45.281  26.707  35.876  1.00  0.00     0.041 A 
ATOM     91  F   UNL A   1      43.045  26.433  35.237  1.00  0.00    -0.206 F 
ATOM     92  C   UNL A   1      46.501  27.367  35.757  1.00  0.00     0.022 A 
BRANCH  89  93
ATOM     93  S   UNL A   1      48.211  29.247  34.610  1.00  0.00     0.124 S 
ATOM     94  O   UNL A   1      48.902  28.985  35.868  1.00  0.00    -0.237 OA
ATOM     95  O   UNL A   1      48.712  28.524  33.445  1.00  0.00    -0.237 OA
ATOM     96  O   UNL A   1      47.871  30.649  34.369  1.00  0.00    -0.744 OA
ENDBRANCH  89  93
ENDBRANCH  63  86
ENDBRANCH  37  38
ENDBRANCH  29  32
ENDBRANCH  27  28
ENDBRANCH  26  27
ENDBRANCH  25  26
ENDBRANCH   1  25
TORSDOF 22
ENDMDL
MODEL 3
REMARK VINA RESULT:     -10.1      1.000      2.963
REMARK SMILES CCOc1ccc([C@H](C)[C@](O)(C(=O)NCCCCCCNC(=O)c2ccc(-c3c4nc(c(-c5cc(S(=O)(=O)[O-])ccc5F)c5ccc([nH]5)c(-c5cc(S(=O)(=O)[O-])ccc5F)c5nc(c(-c6cc(S(=O)(=O)[O-])ccc6F)c6ccc3[nH]6)C=C5)C=C4)cc2)C(C)C)cc1
REMARK SMILES IDX 17 1 16 2 15 3 14 4 12 5 13 6 10 8 8 9 9 10 7 11 4 12 5 13
REMARK SMILES IDX 91 14 6 15 90 16 3 17 2 18 1 19 87 20 88 21 89 22 11 23
REMARK SMILES IDX 18 25 19 26 20 27 21 28 22 29 23 31 24 32 25 33 86 34 26 35
REMARK SMILES IDX 85 36 27 37 28 38 29 39 79 40 30 41 84 42 78 43 80 44 31 45
REMARK SMILES IDX 83 46 77 47 76 48 32 50 64 51 44 52 63 53 45 54 48 55 62 56
REMARK SMILES IDX 81 57 46 58 47 59 61 61 82 62 49 63 33 64 34 65 42 66 35 67
REMARK SMILES IDX 41 68 43 69 40 70 36 71 37 72 38 73 39 74 65 75 66 76 74 77
REMARK SMILES IDX 67 78 73 79 75 80 72 81 68 82 69 83 70 84 71 85 50 86 51 87
REMARK SMILES IDX 59 88 52 89 58 90 60 91 57 92 53 93 54 94 55 95 56 96
REMARK H PARENT 14 7 11 24 21 30 80 49 48 60
REMARK Flexibility Score: inf
ROOT
ATOM      1  C   UNL A   1      34.225  21.500  26.678  1.00  0.00     0.002 C 
ENDROOT
BRANCH   1   2
ATOM      2  C   UNL A   1      32.919  22.301  26.619  1.00  0.00     0.021 C 
BRANCH   2   3
ATOM      3  C   UNL A   1      33.121  23.807  26.691  1.00  0.00     0.116 C 
BRANCH   3   4
ATOM      4  N   UNL A   1      31.864  24.516  26.873  1.00  0.00    -0.354 N 
ATOM      5  C   UNL A   1      31.430  25.698  26.348  1.00  0.00     0.252 C 
ATOM      6  O   UNL A   1      30.226  25.948  26.461  1.00  0.00    -0.272 OA
ATOM      7  H   UNL A   1      31.222  24.070  27.472  1.00  0.00     0.163 HD
BRANCH   5   8
ATOM      8  C   UNL A   1      32.405  26.641  25.577  1.00  0.00     0.151 C 
BRANCH   8   9
ATOM      9  C   UNL A   1      32.102  26.492  24.008  1.00  0.00     0.058 C 
ATOM     10  C   UNL A   1      32.882  27.400  23.028  1.00  0.00     0.016 C 
BRANCH   9  11
ATOM     11  C   UNL A   1      32.188  25.082  23.450  1.00  0.00    -0.041 A 
ATOM     12  C   UNL A   1      32.323  22.405  22.653  1.00  0.00     0.119 A 
ATOM     13  C   UNL A   1      33.447  23.221  22.539  1.00  0.00     0.047 A 
ATOM     14  C   UNL A   1      31.126  22.932  23.129  1.00  0.00     0.047 A 
ATOM     15  C   UNL A   1      33.380  24.559  22.927  1.00  0.00     0.008 A 
ATOM     16  C   UNL A   1      31.048  24.272  23.490  1.00  0.00     0.008 A 
BRANCH  12  17
ATOM     17  O   UNL A   1      32.498  21.073  22.403  1.00  0.00    -0.494 OA
BRANCH  17  18
ATOM     18  C   UNL A   1      32.071  20.208  23.459  1.00  0.00     0.226 C 
ATOM     19  C   UNL A   1      32.492  18.766  23.230  1.00  0.00     0.049 C 
ENDBRANCH  17  18
ENDBRANCH  12  17
ENDBRANCH   9  11
ENDBRANCH   8   9
BRANCH   8  20
ATOM     20  C   UNL A   1      32.347  28.105  26.192  1.00  0.00     0.025 C 
ATOM     21  C   UNL A   1      31.771  28.167  27.627  1.00  0.00     0.011 C 
ATOM     22  C   UNL A   1      33.725  28.790  26.315  1.00  0.00     0.011 C 
ENDBRANCH   8  20
BRANCH   8  23
ATOM     23  O   UNL A   1      33.774  26.222  25.783  1.00  0.00    -0.379 OA
ATOM     24  H   UNL A   1      34.257  26.272  24.944  1.00  0.00     0.212 HD
ENDBRANCH   8  23
ENDBRANCH   5   8
ENDBRANCH   3   4
ENDBRANCH   2   3
ENDBRANCH   1   2
BRANCH   1  25
ATOM     25  C   UNL A   1      34.618  20.788  25.377  1.00  0.00     0.002 C 
BRANCH  25  26
ATOM     26  C   UNL A   1      35.812  21.395  24.636  1.00  0.00     0.021 C 
BRANCH  26  27
ATOM     27  C   UNL A   1      36.924  21.909  25.541  1.00  0.00     0.116 C 
BRANCH  27  28
ATOM     28  N   UNL A   1      37.939  20.899  25.792  1.00  0.00    -0.352 N 
ATOM     29  C   UNL A   1      39.246  21.066  26.172  1.00  0.00     0.251 C 
ATOM     30  H   UNL A   1      37.647  19.966  25.671  1.00  0.00     0.163 HD
ATOM     31  O   UNL A   1      40.017  20.110  26.154  1.00  0.00    -0.269 OA
BRANCH  29  32
ATOM     32  C   UNL A   1      39.723  22.407  26.571  1.00  0.00     0.039 A 
ATOM     33  C   UNL A   1      40.779  22.510  27.480  1.00  0.00     0.014 A 
ATOM     34  C   UNL A   1      39.143  23.560  26.031  1.00  0.00     0.014 A 
ATOM     35  C   UNL A   1      41.294  23.767  27.799  1.00  0.00     0.010 A 
ATOM     36  C   UNL A   1      39.708  24.804  26.292  1.00  0.00     0.010 A 
ATOM     37  C   UNL A   1      40.789  24.923  27.180  1.00  0.00    -0.014 A 
BRANCH  37  38
ATOM     38  C   UNL A   1      41.373  26.263  27.446  1.00  0.00     0.031 A 
ATOM     39  C   UNL A   1      42.748  26.598  26.935  1.00  0.00     0.074 A 
ATOM     40  C   UNL A   1      40.695  27.150  28.203  1.00  0.00     0.049 A 
ATOM     41  N   UNL A   1      43.467  27.672  27.135  1.00  0.00    -0.248 NA
ATOM     42  C   UNL A   1      43.414  25.575  26.113  1.00  0.00     0.031 C 
ATOM     43  C   UNL A   1      39.365  26.929  28.776  1.00  0.00     0.029 A 
ATOM     44  N   UNL A   1      41.031  28.412  28.628  1.00  0.00    -0.354 N 
ATOM     45  C   UNL A   1      44.675  27.449  26.483  1.00  0.00     0.074 A 
ATOM     46  C   UNL A   1      44.610  26.114  25.926  1.00  0.00     0.031 C 
ATOM     47  C   UNL A   1      38.989  28.027  29.451  1.00  0.00     0.029 A 
ATOM     48  C   UNL A   1      40.068  29.008  29.411  1.00  0.00     0.049 A 
ATOM     49  H   UNL A   1      41.880  28.849  28.394  1.00  0.00     0.167 HD
ATOM     50  C   UNL A   1      45.732  28.286  26.348  1.00  0.00     0.034 A 
ATOM     51  C   UNL A   1      40.063  30.202  30.037  1.00  0.00     0.034 A 
ATOM     52  C   UNL A   1      45.771  29.621  26.895  1.00  0.00     0.049 A 
ATOM     53  C   UNL A   1      41.271  31.097  29.905  1.00  0.00     0.074 A 
ATOM     54  C   UNL A   1      46.762  30.578  26.758  1.00  0.00     0.029 A 
ATOM     55  N   UNL A   1      44.785  30.184  27.694  1.00  0.00    -0.354 N 
ATOM     56  N   UNL A   1      42.383  30.894  29.236  1.00  0.00    -0.248 NA
ATOM     57  C   UNL A   1      41.222  32.386  30.607  1.00  0.00     0.031 C 
ATOM     58  C   UNL A   1      46.415  31.683  27.540  1.00  0.00     0.029 A 
ATOM     59  C   UNL A   1      45.165  31.457  28.092  1.00  0.00     0.049 A 
ATOM     60  H   UNL A   1      43.939  29.745  27.942  1.00  0.00     0.167 HD
ATOM     61  C   UNL A   1      43.144  32.048  29.404  1.00  0.00     0.074 A 
ATOM     62  C   UNL A   1      42.361  32.945  30.226  1.00  0.00     0.031 C 
ATOM     63  C   UNL A   1      44.376  32.342  28.916  1.00  0.00     0.034 A 
BRANCH  50  64
ATOM     64  C   UNL A   1      46.946  27.772  25.612  1.00  0.00     0.023 A 
ATOM     65  C   UNL A   1      47.173  28.060  24.256  1.00  0.00     0.031 A 
ATOM     66  C   UNL A   1      47.894  26.976  26.281  1.00  0.00     0.131 A 
ATOM     67  C   UNL A   1      48.279  27.503  23.596  1.00  0.00     0.055 A 
ATOM     68  C   UNL A   1      49.037  26.494  25.640  1.00  0.00     0.041 A 
ATOM     69  F   UNL A   1      47.721  26.647  27.571  1.00  0.00    -0.206 F 
ATOM     70  C   UNL A   1      49.227  26.745  24.285  1.00  0.00     0.022 A 
BRANCH  67  71
ATOM     71  S   UNL A   1      48.387  27.669  21.793  1.00  0.00     0.124 S 
ATOM     72  O   UNL A   1      49.508  28.597  21.649  1.00  0.00    -0.237 OA
ATOM     73  O   UNL A   1      48.633  26.298  21.363  1.00  0.00    -0.237 OA
ATOM     74  O   UNL A   1      47.085  28.217  21.421  1.00  0.00    -0.744 OA
ENDBRANCH  67  71
ENDBRANCH  50  64
BRANCH  51  75
ATOM     75  C   UNL A   1      38.893  30.628  30.861  1.00  0.00     0.023 A 
ATOM     76  C   UNL A   1      37.887  31.441  30.316  1.00  0.00     0.031 A 
ATOM     77  C   UNL A   1      38.796  30.286  32.222  1.00  0.00     0.131 A 
ATOM     78  C   UNL A   1      36.863  31.937  31.139  1.00  0.00     0.055 A 
ATOM     79  C   UNL A   1      37.739  30.730  33.021  1.00  0.00     0.041 A 
ATOM     80  F   UNL A   1      39.729  29.511  32.798  1.00  0.00    -0.206 F 
ATOM     81  C   UNL A   1      36.774  31.574  32.483  1.00  0.00     0.022 A 
BRANCH  78  82
ATOM     82  S   UNL A   1      35.715  33.160  30.449  1.00  0.00     0.124 S 
ATOM     83  O   UNL A   1      36.535  33.787  29.419  1.00  0.00    -0.237 OA
ATOM     84  O   UNL A   1      34.623  32.316  29.976  1.00  0.00    -0.237 OA
ATOM     85  O   UNL A   1      35.393  34.008  31.594  1.00  0.00    -0.744 OA
ENDBRANCH  78  82
ENDBRANCH  51  75
BRANCH  63  86
ATOM     86  C   UNL A   1      44.925  33.718  29.211  1.00  0.00     0.023 A 
ATOM     87  C   UNL A   1      44.646  34.823  28.389  1.00  0.00     0.031 A 
ATOM     88  C   UNL A   1      45.739  33.923  30.340  1.00  0.00     0.131 A 
ATOM     89  C   UNL A   1      45.221  36.071  28.676  1.00  0.00     0.055 A 
ATOM     90  C   UNL A   1      46.253  35.179  30.659  1.00  0.00     0.041 A 
ATOM     91  F   UNL A   1      46.041  32.902  31.159  1.00  0.00    -0.206 F 
ATOM     92  C   UNL A   1      46.005  36.261  29.818  1.00  0.00     0.022 A 
BRANCH  89  93
ATOM     93  S   UNL A   1      45.004  37.425  27.491  1.00  0.00     0.124 S 
ATOM     94  O   UNL A   1      46.104  37.194  26.561  1.00  0.00    -0.237 OA
ATOM     95  O   UNL A   1      43.664  37.173  26.969  1.00  0.00    -0.237 OA
ATOM     96  O   UNL A   1      45.130  38.626  28.315  1.00  0.00    -0.744 OA
ENDBRANCH  89  93
ENDBRANCH  63  86
ENDBRANCH  37  38
ENDBRANCH  29  32
ENDBRANCH  27  28
ENDBRANCH  26  27
ENDBRANCH  25  26
ENDBRANCH   1  25
TORSDOF 22
ENDMDL
