MODEL 1
REMARK VINA RESULT:     -11.8      0.000      0.000
REMARK SMILES O=C(NCCCCCCNC(=O)c1cc(=O)[nH]c2c(Br)cccc12)c1ccc(-c2c3nc(c(-c4cc(S(=O)(=O)[O-])ccc4F)c4ccc([nH]4)c(-c4cc(S(=O)(=O)[O-])ccc4F)c4nc(c(-c5cc(S(=O)(=O)[O-])ccc5F)c5ccc2[nH]5)C=C4)C=C3)cc1
REMARK SMILES IDX 5 1 4 2 3 3 1 4 2 5 25 7 26 8 87 9 27 10 86 11 28 12 29 13
REMARK SMILES IDX 30 14 80 15 31 16 85 17 79 18 81 19 32 20 84 21 78 22 77 23
REMARK SMILES IDX 33 25 65 26 45 27 64 28 46 29 49 30 63 31 82 32 47 33 48 34
REMARK SMILES IDX 62 36 83 37 50 38 34 39 35 40 43 41 36 42 42 43 44 44 41 45
REMARK SMILES IDX 37 46 38 47 39 48 40 49 66 50 67 51 75 52 68 53 74 54 76 55
REMARK SMILES IDX 73 56 69 57 70 58 71 59 72 60 51 61 52 62 60 63 53 64 59 65
REMARK SMILES IDX 61 66 58 67 54 68 55 69 56 70 57 71 6 72 7 73 8 74 9 75
REMARK SMILES IDX 10 76 11 77 12 79 13 80 14 81 24 82 15 83 18 84 23 85 16 86
REMARK SMILES IDX 17 87 19 88 22 89 20 91 21 92
REMARK H PARENT 3 6 81 24 49 35 10 78 17 90
REMARK Flexibility Score: inf
ROOT
ATOM      1  C   UNL A   1      35.911  22.198  24.164  1.00  0.00     0.021 C 
ENDROOT
BRANCH   1   2
ATOM      2  C   UNL A   1      36.405  21.967  25.586  1.00  0.00     0.116 C 
BRANCH   2   3
ATOM      3  N   UNL A   1      37.388  20.902  25.657  1.00  0.00    -0.352 N 
ATOM      4  O   UNL A   1      39.436  19.984  25.744  1.00  0.00    -0.269 OA
ATOM      5  C   UNL A   1      38.730  20.971  25.932  1.00  0.00     0.251 C 
ATOM      6  H   UNL A   1      37.041  19.997  25.483  1.00  0.00     0.163 HD
BRANCH   5   7
ATOM      7  C   UNL A   1      39.326  22.223  26.453  1.00  0.00     0.039 A 
ATOM      8  C   UNL A   1      38.776  23.445  26.058  1.00  0.00     0.014 A 
ATOM      9  C   UNL A   1      40.457  22.201  27.275  1.00  0.00     0.014 A 
ATOM     10  C   UNL A   1      39.359  24.639  26.488  1.00  0.00     0.010 A 
ATOM     11  C   UNL A   1      40.978  23.390  27.779  1.00  0.00     0.010 A 
ATOM     12  C   UNL A   1      40.465  24.622  27.352  1.00  0.00    -0.014 A 
BRANCH  12  13
ATOM     13  C   UNL A   1      41.157  25.881  27.735  1.00  0.00     0.031 A 
ATOM     14  C   UNL A   1      42.571  26.125  27.270  1.00  0.00     0.074 A 
ATOM     15  C   UNL A   1      40.526  26.800  28.493  1.00  0.00     0.049 A 
ATOM     16  N   UNL A   1      43.346  27.154  27.493  1.00  0.00    -0.248 NA
ATOM     17  C   UNL A   1      43.208  25.064  26.469  1.00  0.00     0.031 C 
ATOM     18  C   UNL A   1      39.170  26.661  29.022  1.00  0.00     0.029 A 
ATOM     19  N   UNL A   1      40.934  28.032  28.941  1.00  0.00    -0.354 N 
ATOM     20  C   UNL A   1      44.555  26.860  26.871  1.00  0.00     0.074 A 
ATOM     21  C   UNL A   1      44.440  25.528  26.326  1.00  0.00     0.031 C 
ATOM     22  C   UNL A   1      38.840  27.784  29.679  1.00  0.00     0.029 A 
ATOM     23  C   UNL A   1      39.974  28.706  29.660  1.00  0.00     0.049 A 
ATOM     24  H   UNL A   1      41.831  28.399  28.764  1.00  0.00     0.167 HD
ATOM     25  C   UNL A   1      45.648  27.646  26.731  1.00  0.00     0.034 A 
ATOM     26  C   UNL A   1      39.999  29.932  30.226  1.00  0.00     0.034 A 
ATOM     27  C   UNL A   1      45.733  28.990  27.240  1.00  0.00     0.049 A 
ATOM     28  C   UNL A   1      41.235  30.785  30.062  1.00  0.00     0.074 A 
ATOM     29  C   UNL A   1      46.780  29.885  27.109  1.00  0.00     0.029 A 
ATOM     30  N   UNL A   1      44.740  29.637  27.958  1.00  0.00    -0.354 N 
ATOM     31  N   UNL A   1      42.342  30.519  29.408  1.00  0.00    -0.248 NA
ATOM     32  C   UNL A   1      41.222  32.111  30.696  1.00  0.00     0.031 C 
ATOM     33  C   UNL A   1      46.450  31.043  27.809  1.00  0.00     0.029 A 
ATOM     34  C   UNL A   1      45.160  30.912  28.297  1.00  0.00     0.049 A 
ATOM     35  H   UNL A   1      43.865  29.248  28.193  1.00  0.00     0.167 HD
ATOM     36  C   UNL A   1      43.133  31.661  29.513  1.00  0.00     0.074 A 
ATOM     37  C   UNL A   1      42.371  32.624  30.276  1.00  0.00     0.031 C 
ATOM     38  C   UNL A   1      44.380  31.886  29.023  1.00  0.00     0.034 A 
BRANCH  25  39
ATOM     39  C   UNL A   1      46.838  27.114  25.970  1.00  0.00     0.023 A 
ATOM     40  C   UNL A   1      47.905  26.517  26.667  1.00  0.00     0.031 A 
ATOM     41  C   UNL A   1      46.990  27.340  24.590  1.00  0.00     0.131 A 
ATOM     42  C   UNL A   1      49.096  26.220  25.995  1.00  0.00     0.055 A 
ATOM     43  C   UNL A   1      48.159  26.990  23.914  1.00  0.00     0.041 A 
ATOM     44  F   UNL A   1      46.002  27.906  23.877  1.00  0.00    -0.206 F 
ATOM     45  C   UNL A   1      49.226  26.444  24.621  1.00  0.00     0.022 A 
BRANCH  42  46
ATOM     46  S   UNL A   1      50.550  25.613  26.893  1.00  0.00     0.124 S 
ATOM     47  O   UNL A   1      51.472  25.308  25.801  1.00  0.00    -0.237 OA
ATOM     48  O   UNL A   1      50.907  26.769  27.708  1.00  0.00    -0.237 OA
ATOM     49  O   UNL A   1      50.052  24.452  27.623  1.00  0.00    -0.744 OA
ENDBRANCH  42  46
ENDBRANCH  25  39
BRANCH  26  50
ATOM     50  C   UNL A   1      38.779  30.448  30.919  1.00  0.00     0.023 A 
ATOM     51  C   UNL A   1      37.724  31.037  30.200  1.00  0.00     0.031 A 
ATOM     52  C   UNL A   1      38.692  30.435  32.322  1.00  0.00     0.131 A 
ATOM     53  C   UNL A   1      36.662  31.640  30.887  1.00  0.00     0.055 A 
ATOM     54  C   UNL A   1      37.594  30.968  33.000  1.00  0.00     0.041 A 
ATOM     55  F   UNL A   1      39.680  29.900  33.057  1.00  0.00    -0.206 F 
ATOM     56  C   UNL A   1      36.579  31.590  32.281  1.00  0.00     0.022 A 
BRANCH  53  57
ATOM     57  S   UNL A   1      35.420  32.623  30.001  1.00  0.00     0.124 S 
ATOM     58  O   UNL A   1      35.056  31.735  28.901  1.00  0.00    -0.237 OA
ATOM     59  O   UNL A   1      34.397  32.806  31.028  1.00  0.00    -0.237 OA
ATOM     60  O   UNL A   1      36.142  33.832  29.624  1.00  0.00    -0.744 OA
ENDBRANCH  53  57
ENDBRANCH  26  50
BRANCH  38  61
ATOM     61  C   UNL A   1      45.021  33.238  29.243  1.00  0.00     0.023 A 
ATOM     62  C   UNL A   1      44.902  34.234  28.251  1.00  0.00     0.031 A 
ATOM     63  C   UNL A   1      45.878  33.485  30.329  1.00  0.00     0.131 A 
ATOM     64  C   UNL A   1      45.663  35.406  28.342  1.00  0.00     0.055 A 
ATOM     65  C   UNL A   1      46.587  34.681  30.446  1.00  0.00     0.041 A 
ATOM     66  F   UNL A   1      46.044  32.562  31.290  1.00  0.00    -0.206 F 
ATOM     67  C   UNL A   1      46.495  35.640  29.441  1.00  0.00     0.022 A 
BRANCH  64  68
ATOM     68  S   UNL A   1      45.689  36.611  26.987  1.00  0.00     0.124 S 
ATOM     69  O   UNL A   1      44.277  36.971  26.877  1.00  0.00    -0.237 OA
ATOM     70  O   UNL A   1      46.557  37.657  27.523  1.00  0.00    -0.237 OA
ATOM     71  O   UNL A   1      46.230  35.864  25.858  1.00  0.00    -0.744 OA
ENDBRANCH  64  68
ENDBRANCH  38  61
ENDBRANCH  12  13
ENDBRANCH   5   7
ENDBRANCH   2   3
ENDBRANCH   1   2
BRANCH   1  72
ATOM     72  C   UNL A   1      35.365  23.601  23.893  1.00  0.00     0.002 C 
BRANCH  72  73
ATOM     73  C   UNL A   1      35.170  24.478  25.133  1.00  0.00     0.002 C 
BRANCH  73  74
ATOM     74  C   UNL A   1      34.403  25.783  24.900  1.00  0.00     0.021 C 
BRANCH  74  75
ATOM     75  C   UNL A   1      33.429  25.758  23.726  1.00  0.00     0.116 C 
BRANCH  75  76
ATOM     76  N   UNL A   1      32.059  26.003  24.150  1.00  0.00    -0.352 N 
ATOM     77  C   UNL A   1      31.209  25.189  24.837  1.00  0.00     0.252 C 
ATOM     78  H   UNL A   1      31.693  26.882  23.904  1.00  0.00     0.163 HD
ATOM     79  O   UNL A   1      30.041  25.525  25.018  1.00  0.00    -0.269 OA
BRANCH  77  80
ATOM     80  C   UNL A   1      31.717  23.886  25.332  1.00  0.00     0.054 A 
ATOM     81  C   UNL A   1      31.952  23.802  26.652  1.00  0.00     0.086 A 
ATOM     82  C   UNL A   1      31.889  22.706  24.466  1.00  0.00     0.012 A 
ATOM     83  C   UNL A   1      32.487  22.567  27.251  1.00  0.00     0.249 A 
ATOM     84  C   UNL A   1      32.367  21.518  25.045  1.00  0.00     0.063 A 
ATOM     85  C   UNL A   1      31.603  22.723  23.094  1.00  0.00     0.011 A 
ATOM     86  O   UNL A   1      32.759  22.522  28.446  1.00  0.00    -0.270 OA
ATOM     87  N   UNL A   1      32.664  21.504  26.418  1.00  0.00    -0.321 N 
ATOM     88  C   UNL A   1      32.543  20.369  24.262  1.00  0.00     0.042 A 
ATOM     89  C   UNL A   1      31.779  21.576  22.316  1.00  0.00     0.002 A 
ATOM     90  H   UNL A   1      33.023  20.672  26.803  1.00  0.00     0.170 HD
ATOM     91  Br  UNL A   1      33.169  18.742  25.013  1.00  0.00    -0.049 Br
ATOM     92  C   UNL A   1      32.246  20.399  22.899  1.00  0.00     0.018 A 
ENDBRANCH  77  80
ENDBRANCH  75  76
ENDBRANCH  74  75
ENDBRANCH  73  74
ENDBRANCH  72  73
ENDBRANCH   1  72
TORSDOF 16
ENDMDL
MODEL 2
REMARK VINA RESULT:     -11.8      5.013     10.161
REMARK SMILES O=C(NCCCCCCNC(=O)c1cc(=O)[nH]c2c(Br)cccc12)c1ccc(-c2c3nc(c(-c4cc(S(=O)(=O)[O-])ccc4F)c4ccc([nH]4)c(-c4cc(S(=O)(=O)[O-])ccc4F)c4nc(c(-c5cc(S(=O)(=O)[O-])ccc5F)c5ccc2[nH]5)C=C4)C=C3)cc1
REMARK SMILES IDX 5 1 4 2 3 3 1 4 2 5 25 7 26 8 87 9 27 10 86 11 28 12 29 13
REMARK SMILES IDX 30 14 80 15 31 16 85 17 79 18 81 19 32 20 84 21 78 22 77 23
REMARK SMILES IDX 33 25 65 26 45 27 64 28 46 29 49 30 63 31 82 32 47 33 48 34
REMARK SMILES IDX 62 36 83 37 50 38 34 39 35 40 43 41 36 42 42 43 44 44 41 45
REMARK SMILES IDX 37 46 38 47 39 48 40 49 66 50 67 51 75 52 68 53 74 54 76 55
REMARK SMILES IDX 73 56 69 57 70 58 71 59 72 60 51 61 52 62 60 63 53 64 59 65
REMARK SMILES IDX 61 66 58 67 54 68 55 69 56 70 57 71 6 72 7 73 8 74 9 75
REMARK SMILES IDX 10 76 11 77 12 79 13 80 14 81 24 82 15 83 18 84 23 85 16 86
REMARK SMILES IDX 17 87 19 88 22 89 20 91 21 92
REMARK H PARENT 3 6 81 24 49 35 10 78 17 90
REMARK Flexibility Score: inf
ROOT
ATOM      1  C   UNL A   1      32.161  29.498  25.602  1.00  0.00     0.021 C 
ENDROOT
BRANCH   1   2
ATOM      2  C   UNL A   1      31.888  30.198  26.927  1.00  0.00     0.116 C 
BRANCH   2   3
ATOM      3  N   UNL A   1      31.946  31.643  26.804  1.00  0.00    -0.352 N 
ATOM      4  O   UNL A   1      32.656  33.727  27.250  1.00  0.00    -0.269 OA
ATOM      5  C   UNL A   1      32.888  32.521  27.278  1.00  0.00     0.251 C 
ATOM      6  H   UNL A   1      31.202  32.053  26.307  1.00  0.00     0.163 HD
BRANCH   5   7
ATOM      7  C   UNL A   1      34.173  32.023  27.819  1.00  0.00     0.039 A 
ATOM      8  C   UNL A   1      34.270  30.680  28.195  1.00  0.00     0.014 A 
ATOM      9  C   UNL A   1      35.260  32.881  28.014  1.00  0.00     0.014 A 
ATOM     10  C   UNL A   1      35.454  30.204  28.764  1.00  0.00     0.010 A 
ATOM     11  C   UNL A   1      36.469  32.381  28.492  1.00  0.00     0.010 A 
ATOM     12  C   UNL A   1      36.563  31.050  28.917  1.00  0.00    -0.014 A 
BRANCH  12  13
ATOM     13  C   UNL A   1      37.792  30.583  29.613  1.00  0.00     0.031 A 
ATOM     14  C   UNL A   1      38.050  31.011  31.036  1.00  0.00     0.074 A 
ATOM     15  C   UNL A   1      38.670  29.784  28.977  1.00  0.00     0.049 A 
ATOM     16  N   UNL A   1      39.055  30.713  31.817  1.00  0.00    -0.248 NA
ATOM     17  C   UNL A   1      37.060  31.910  31.658  1.00  0.00     0.031 C 
ATOM     18  C   UNL A   1      38.539  29.328  27.593  1.00  0.00     0.029 A 
ATOM     19  N   UNL A   1      39.838  29.205  29.409  1.00  0.00    -0.354 N 
ATOM     20  C   UNL A   1      38.823  31.392  33.009  1.00  0.00     0.074 A 
ATOM     21  C   UNL A   1      37.625  32.175  32.827  1.00  0.00     0.031 C 
ATOM     22  C   UNL A   1      39.557  28.501  27.307  1.00  0.00     0.029 A 
ATOM     23  C   UNL A   1      40.440  28.401  28.469  1.00  0.00     0.049 A 
ATOM     24  H   UNL A   1      40.210  29.351  30.309  1.00  0.00     0.167 HD
ATOM     25  C   UNL A   1      39.525  31.334  34.165  1.00  0.00     0.034 A 
ATOM     26  C   UNL A   1      41.565  27.658  28.537  1.00  0.00     0.034 A 
ATOM     27  C   UNL A   1      40.693  30.514  34.348  1.00  0.00     0.049 A 
ATOM     28  C   UNL A   1      42.333  27.619  29.837  1.00  0.00     0.074 A 
ATOM     29  C   UNL A   1      41.446  30.351  35.497  1.00  0.00     0.029 A 
ATOM     30  N   UNL A   1      41.268  29.713  33.374  1.00  0.00    -0.354 N 
ATOM     31  N   UNL A   1      42.059  28.209  30.978  1.00  0.00    -0.248 NA
ATOM     32  C   UNL A   1      43.554  26.800  29.869  1.00  0.00     0.031 C 
ATOM     33  C   UNL A   1      42.517  29.511  35.197  1.00  0.00     0.029 A 
ATOM     34  C   UNL A   1      42.381  29.071  33.890  1.00  0.00     0.049 A 
ATOM     35  H   UNL A   1      40.935  29.614  32.452  1.00  0.00     0.167 HD
ATOM     36  C   UNL A   1      43.044  27.795  31.871  1.00  0.00     0.074 A 
ATOM     37  C   UNL A   1      43.909  26.891  31.145  1.00  0.00     0.031 C 
ATOM     38  C   UNL A   1      43.217  28.138  33.174  1.00  0.00     0.034 A 
BRANCH  25  39
ATOM     39  C   UNL A   1      39.047  32.139  35.349  1.00  0.00     0.023 A 
ATOM     40  C   UNL A   1      39.520  33.451  35.540  1.00  0.00     0.031 A 
ATOM     41  C   UNL A   1      38.263  31.563  36.364  1.00  0.00     0.131 A 
ATOM     42  C   UNL A   1      39.254  34.120  36.741  1.00  0.00     0.055 A 
ATOM     43  C   UNL A   1      37.953  32.255  37.535  1.00  0.00     0.041 A 
ATOM     44  F   UNL A   1      37.786  30.314  36.232  1.00  0.00    -0.206 F 
ATOM     45  C   UNL A   1      38.465  33.533  37.735  1.00  0.00     0.022 A 
BRANCH  42  46
ATOM     46  S   UNL A   1      39.990  35.739  37.093  1.00  0.00     0.124 S 
ATOM     47  O   UNL A   1      39.654  36.491  35.886  1.00  0.00    -0.237 OA
ATOM     48  O   UNL A   1      39.275  36.141  38.300  1.00  0.00    -0.237 OA
ATOM     49  O   UNL A   1      41.410  35.449  37.265  1.00  0.00    -0.744 OA
ENDBRANCH  42  46
ENDBRANCH  25  39
BRANCH  26  50
ATOM     50  C   UNL A   1      41.972  26.826  27.364  1.00  0.00     0.023 A 
ATOM     51  C   UNL A   1      41.711  25.445  27.321  1.00  0.00     0.031 A 
ATOM     52  C   UNL A   1      42.705  27.389  26.305  1.00  0.00     0.131 A 
ATOM     53  C   UNL A   1      42.230  24.668  26.277  1.00  0.00     0.055 A 
ATOM     54  C   UNL A   1      43.153  26.625  25.227  1.00  0.00     0.041 A 
ATOM     55  F   UNL A   1      42.996  28.700  26.305  1.00  0.00    -0.206 F 
ATOM     56  C   UNL A   1      42.931  25.252  25.218  1.00  0.00     0.022 A 
BRANCH  53  57
ATOM     57  S   UNL A   1      42.125  22.857  26.324  1.00  0.00     0.124 S 
ATOM     58  O   UNL A   1      40.695  22.639  26.521  1.00  0.00    -0.237 OA
ATOM     59  O   UNL A   1      42.643  22.495  25.007  1.00  0.00    -0.237 OA
ATOM     60  O   UNL A   1      42.980  22.492  27.448  1.00  0.00    -0.744 OA
ENDBRANCH  53  57
ENDBRANCH  26  50
BRANCH  38  61
ATOM     61  C   UNL A   1      44.357  27.518  33.951  1.00  0.00     0.023 A 
ATOM     62  C   UNL A   1      44.148  26.311  34.650  1.00  0.00     0.031 A 
ATOM     63  C   UNL A   1      45.577  28.189  34.140  1.00  0.00     0.131 A 
ATOM     64  C   UNL A   1      45.121  25.841  35.540  1.00  0.00     0.055 A 
ATOM     65  C   UNL A   1      46.568  27.684  34.982  1.00  0.00     0.041 A 
ATOM     66  F   UNL A   1      45.819  29.352  33.515  1.00  0.00    -0.206 F 
ATOM     67  C   UNL A   1      46.336  26.514  35.700  1.00  0.00     0.022 A 
BRANCH  64  68
ATOM     68  S   UNL A   1      44.799  24.408  36.605  1.00  0.00     0.124 S 
ATOM     69  O   UNL A   1      46.152  23.927  36.880  1.00  0.00    -0.237 OA
ATOM     70  O   UNL A   1      44.114  25.018  37.742  1.00  0.00    -0.237 OA
ATOM     71  O   UNL A   1      43.983  23.528  35.778  1.00  0.00    -0.744 OA
ENDBRANCH  64  68
ENDBRANCH  38  61
ENDBRANCH  12  13
ENDBRANCH   5   7
ENDBRANCH   2   3
ENDBRANCH   1   2
BRANCH   1  72
ATOM     72  C   UNL A   1      32.786  28.108  25.726  1.00  0.00     0.002 C 
BRANCH  72  73
ATOM     73  C   UNL A   1      32.260  27.255  26.884  1.00  0.00     0.002 C 
BRANCH  73  74
ATOM     74  C   UNL A   1      31.929  25.801  26.532  1.00  0.00     0.021 C 
BRANCH  74  75
ATOM     75  C   UNL A   1      33.079  25.009  25.917  1.00  0.00     0.116 C 
BRANCH  75  76
ATOM     76  N   UNL A   1      32.608  24.020  24.960  1.00  0.00    -0.352 N 
ATOM     77  C   UNL A   1      32.039  24.204  23.736  1.00  0.00     0.252 C 
ATOM     78  H   UNL A   1      32.715  23.082  25.238  1.00  0.00     0.163 HD
ATOM     79  O   UNL A   1      31.603  23.245  23.104  1.00  0.00    -0.269 OA
BRANCH  77  80
ATOM     80  C   UNL A   1      31.934  25.585  23.202  1.00  0.00     0.054 A 
ATOM     81  C   UNL A   1      33.023  26.065  22.578  1.00  0.00     0.086 A 
ATOM     82  C   UNL A   1      30.696  26.381  23.262  1.00  0.00     0.012 A 
ATOM     83  C   UNL A   1      33.045  27.434  22.035  1.00  0.00     0.249 A 
ATOM     84  C   UNL A   1      30.708  27.675  22.713  1.00  0.00     0.063 A 
ATOM     85  C   UNL A   1      29.515  25.906  23.848  1.00  0.00     0.011 A 
ATOM     86  O   UNL A   1      34.066  27.886  21.526  1.00  0.00    -0.270 OA
ATOM     87  N   UNL A   1      31.895  28.156  22.135  1.00  0.00    -0.321 N 
ATOM     88  C   UNL A   1      29.553  28.468  22.744  1.00  0.00     0.042 A 
ATOM     89  C   UNL A   1      28.365  26.698  23.877  1.00  0.00     0.002 A 
ATOM     90  H   UNL A   1      31.894  29.074  21.778  1.00  0.00     0.170 HD
ATOM     91  Br  UNL A   1      29.526  30.212  21.996  1.00  0.00    -0.049 Br
ATOM     92  C   UNL A   1      28.382  27.978  23.323  1.00  0.00     0.018 A 
ENDBRANCH  77  80
ENDBRANCH  75  76
ENDBRANCH  74  75
ENDBRANCH  73  74
ENDBRANCH  72  73
ENDBRANCH   1  72
TORSDOF 16
ENDMDL
MODEL 3
REMARK VINA RESULT:     -11.8      4.903      9.713
REMARK SMILES O=C(NCCCCCCNC(=O)c1cc(=O)[nH]c2c(Br)cccc12)c1ccc(-c2c3nc(c(-c4cc(S(=O)(=O)[O-])ccc4F)c4ccc([nH]4)c(-c4cc(S(=O)(=O)[O-])ccc4F)c4nc(c(-c5cc(S(=O)(=O)[O-])ccc5F)c5ccc2[nH]5)C=C4)C=C3)cc1
REMARK SMILES IDX 5 1 4 2 3 3 1 4 2 5 25 7 26 8 87 9 27 10 86 11 28 12 29 13
REMARK SMILES IDX 30 14 80 15 31 16 85 17 79 18 81 19 32 20 84 21 78 22 77 23
REMARK SMILES IDX 33 25 65 26 45 27 64 28 46 29 49 30 63 31 82 32 47 33 48 34
REMARK SMILES IDX 62 36 83 37 50 38 34 39 35 40 43 41 36 42 42 43 44 44 41 45
REMARK SMILES IDX 37 46 38 47 39 48 40 49 66 50 67 51 75 52 68 53 74 54 76 55
REMARK SMILES IDX 73 56 69 57 70 58 71 59 72 60 51 61 52 62 60 63 53 64 59 65
REMARK SMILES IDX 61 66 58 67 54 68 55 69 56 70 57 71 6 72 7 73 8 74 9 75
REMARK SMILES IDX 10 76 11 77 12 79 13 80 14 81 24 82 15 83 18 84 23 85 16 86
REMARK SMILES IDX 17 87 19 88 22 89 20 91 21 92
REMARK H PARENT 3 6 81 24 49 35 10 78 17 90
REMARK Flexibility Score: inf
ROOT
ATOM      1  C   UNL A   1      31.851  28.878  27.114  1.00  0.00     0.021 C 
ENDROOT
BRANCH   1   2
ATOM      2  C   UNL A   1      33.011  29.673  26.528  1.00  0.00     0.116 C 
BRANCH   2   3
ATOM      3  N   UNL A   1      32.928  31.084  26.856  1.00  0.00    -0.352 N 
ATOM      4  O   UNL A   1      33.403  32.979  27.965  1.00  0.00    -0.269 OA
ATOM      5  C   UNL A   1      33.755  31.847  27.640  1.00  0.00     0.251 C 
ATOM      6  H   UNL A   1      32.167  31.564  26.456  1.00  0.00     0.163 HD
BRANCH   5   7
ATOM      7  C   UNL A   1      35.060  31.315  28.094  1.00  0.00     0.039 A 
ATOM      8  C   UNL A   1      35.113  30.022  28.623  1.00  0.00     0.014 A 
ATOM      9  C   UNL A   1      36.216  32.101  28.058  1.00  0.00     0.014 A 
ATOM     10  C   UNL A   1      36.322  29.523  29.112  1.00  0.00     0.010 A 
ATOM     11  C   UNL A   1      37.438  31.566  28.458  1.00  0.00     0.010 A 
ATOM     12  C   UNL A   1      37.495  30.291  29.035  1.00  0.00    -0.014 A 
BRANCH  12  13
ATOM     13  C   UNL A   1      38.765  29.813  29.643  1.00  0.00     0.031 A 
ATOM     14  C   UNL A   1      39.182  30.329  30.997  1.00  0.00     0.074 A 
ATOM     15  C   UNL A   1      39.539  28.925  28.989  1.00  0.00     0.049 A 
ATOM     16  N   UNL A   1      40.246  30.037  31.698  1.00  0.00    -0.248 NA
ATOM     17  C   UNL A   1      38.301  31.321  31.640  1.00  0.00     0.031 C 
ATOM     18  C   UNL A   1      39.251  28.377  27.664  1.00  0.00     0.029 A 
ATOM     19  N   UNL A   1      40.717  28.319  29.351  1.00  0.00    -0.354 N 
ATOM     20  C   UNL A   1      40.165  30.812  32.851  1.00  0.00     0.074 A 
ATOM     21  C   UNL A   1      38.991  31.641  32.725  1.00  0.00     0.031 C 
ATOM     22  C   UNL A   1      40.197  27.479  27.346  1.00  0.00     0.029 A 
ATOM     23  C   UNL A   1      41.185  27.418  28.422  1.00  0.00     0.049 A 
ATOM     24  H   UNL A   1      41.183  28.511  30.197  1.00  0.00     0.167 HD
ATOM     25  C   UNL A   1      40.975  30.802  33.936  1.00  0.00     0.034 A 
ATOM     26  C   UNL A   1      42.278  26.625  28.440  1.00  0.00     0.034 A 
ATOM     27  C   UNL A   1      42.118  29.938  34.068  1.00  0.00     0.049 A 
ATOM     28  C   UNL A   1      43.169  26.640  29.659  1.00  0.00     0.074 A 
ATOM     29  C   UNL A   1      42.974  29.819  35.148  1.00  0.00     0.029 A 
ATOM     30  N   UNL A   1      42.557  29.039  33.109  1.00  0.00    -0.354 N 
ATOM     31  N   UNL A   1      43.037  27.325  30.771  1.00  0.00    -0.248 NA
ATOM     32  C   UNL A   1      44.349  25.764  29.637  1.00  0.00     0.031 C 
ATOM     33  C   UNL A   1      43.971  28.906  34.814  1.00  0.00     0.029 A 
ATOM     34  C   UNL A   1      43.686  28.380  33.564  1.00  0.00     0.049 A 
ATOM     35  H   UNL A   1      42.129  28.891  32.233  1.00  0.00     0.167 HD
ATOM     36  C   UNL A   1      44.087  26.927  31.596  1.00  0.00     0.074 A 
ATOM     37  C   UNL A   1      44.833  25.928  30.862  1.00  0.00     0.031 C 
ATOM     38  C   UNL A   1      44.404  27.354  32.845  1.00  0.00     0.034 A 
BRANCH  25  39
ATOM     39  C   UNL A   1      40.655  31.715  35.094  1.00  0.00     0.023 A 
ATOM     40  C   UNL A   1      39.627  31.372  35.992  1.00  0.00     0.031 A 
ATOM     41  C   UNL A   1      41.246  32.985  35.217  1.00  0.00     0.131 A 
ATOM     42  C   UNL A   1      39.182  32.309  36.932  1.00  0.00     0.055 A 
ATOM     43  C   UNL A   1      40.838  33.894  36.193  1.00  0.00     0.041 A 
ATOM     44  F   UNL A   1      42.232  33.362  34.386  1.00  0.00    -0.206 F 
ATOM     45  C   UNL A   1      39.788  33.564  37.044  1.00  0.00     0.022 A 
BRANCH  42  46
ATOM     46  S   UNL A   1      37.747  31.966  37.987  1.00  0.00     0.124 S 
ATOM     47  O   UNL A   1      36.778  32.947  37.504  1.00  0.00    -0.237 OA
ATOM     48  O   UNL A   1      37.450  30.577  37.652  1.00  0.00    -0.237 OA
ATOM     49  O   UNL A   1      38.241  32.200  39.340  1.00  0.00    -0.744 OA
ENDBRANCH  42  46
ENDBRANCH  25  39
BRANCH  26  50
ATOM     50  C   UNL A   1      42.528  25.689  27.301  1.00  0.00     0.023 A 
ATOM     51  C   UNL A   1      42.026  24.376  27.310  1.00  0.00     0.031 A 
ATOM     52  C   UNL A   1      43.347  26.073  26.224  1.00  0.00     0.131 A 
ATOM     53  C   UNL A   1      42.397  23.479  26.298  1.00  0.00     0.055 A 
ATOM     54  C   UNL A   1      43.650  25.201  25.178  1.00  0.00     0.041 A 
ATOM     55  F   UNL A   1      43.865  27.310  26.176  1.00  0.00    -0.206 F 
ATOM     56  C   UNL A   1      43.188  23.889  25.221  1.00  0.00     0.022 A 
BRANCH  53  57
ATOM     57  S   UNL A   1      41.973  21.719  26.414  1.00  0.00     0.124 S 
ATOM     58  O   UNL A   1      42.876  21.123  25.435  1.00  0.00    -0.237 OA
ATOM     59  O   UNL A   1      42.281  21.430  27.813  1.00  0.00    -0.237 OA
ATOM     60  O   UNL A   1      40.556  21.682  26.072  1.00  0.00    -0.744 OA
ENDBRANCH  53  57
ENDBRANCH  26  50
BRANCH  38  61
ATOM     61  C   UNL A   1      45.587  26.734  33.554  1.00  0.00     0.023 A 
ATOM     62  C   UNL A   1      45.388  25.620  34.396  1.00  0.00     0.031 A 
ATOM     63  C   UNL A   1      46.858  27.332  33.538  1.00  0.00     0.131 A 
ATOM     64  C   UNL A   1      46.427  25.171  35.220  1.00  0.00     0.055 A 
ATOM     65  C   UNL A   1      47.908  26.842  34.315  1.00  0.00     0.041 A 
ATOM     66  F   UNL A   1      47.096  28.407  32.770  1.00  0.00    -0.206 F 
ATOM     67  C   UNL A   1      47.691  25.768  35.174  1.00  0.00     0.022 A 
BRANCH  64  68
ATOM     68  S   UNL A   1      46.146  23.877  36.460  1.00  0.00     0.124 S 
ATOM     69  O   UNL A   1      46.672  22.693  35.783  1.00  0.00    -0.237 OA
ATOM     70  O   UNL A   1      46.942  24.354  37.588  1.00  0.00    -0.237 OA
ATOM     71  O   UNL A   1      44.702  23.887  36.662  1.00  0.00    -0.744 OA
ENDBRANCH  64  68
ENDBRANCH  38  61
ENDBRANCH  12  13
ENDBRANCH   5   7
ENDBRANCH   2   3
ENDBRANCH   1   2
BRANCH   1  72
ATOM     72  C   UNL A   1      31.937  27.366  26.904  1.00  0.00     0.002 C 
BRANCH  72  73
ATOM     73  C   UNL A   1      33.057  26.897  25.971  1.00  0.00     0.002 C 
BRANCH  73  74
ATOM     74  C   UNL A   1      33.450  25.422  26.104  1.00  0.00     0.021 C 
BRANCH  74  75
ATOM     75  C   UNL A   1      32.282  24.458  26.282  1.00  0.00     0.116 C 
BRANCH  75  76
ATOM     76  N   UNL A   1      31.613  24.174  25.022  1.00  0.00    -0.352 N 
ATOM     77  C   UNL A   1      31.809  23.142  24.153  1.00  0.00     0.252 C 
ATOM     78  H   UNL A   1      30.920  24.820  24.758  1.00  0.00     0.163 HD
ATOM     79  O   UNL A   1      31.219  23.120  23.076  1.00  0.00    -0.269 OA
BRANCH  77  80
ATOM     80  C   UNL A   1      32.766  22.071  24.527  1.00  0.00     0.054 A 
ATOM     81  C   UNL A   1      32.230  20.939  25.013  1.00  0.00     0.086 A 
ATOM     82  C   UNL A   1      34.219  22.178  24.313  1.00  0.00     0.012 A 
ATOM     83  C   UNL A   1      33.084  19.820  25.445  1.00  0.00     0.249 A 
ATOM     84  C   UNL A   1      35.031  21.095  24.694  1.00  0.00     0.063 A 
ATOM     85  C   UNL A   1      34.823  23.312  23.754  1.00  0.00     0.011 A 
ATOM     86  O   UNL A   1      32.589  18.816  25.949  1.00  0.00    -0.270 OA
ATOM     87  N   UNL A   1      34.426  19.962  25.263  1.00  0.00    -0.321 N 
ATOM     88  C   UNL A   1      36.418  21.150  24.506  1.00  0.00     0.042 A 
ATOM     89  C   UNL A   1      36.207  23.364  23.568  1.00  0.00     0.002 A 
ATOM     90  H   UNL A   1      35.011  19.223  25.549  1.00  0.00     0.170 HD
ATOM     91  Br  UNL A   1      37.543  19.700  24.991  1.00  0.00    -0.049 Br
ATOM     92  C   UNL A   1      37.005  22.282  23.941  1.00  0.00     0.018 A 
ENDBRANCH  77  80
ENDBRANCH  75  76
ENDBRANCH  74  75
ENDBRANCH  73  74
ENDBRANCH  72  73
ENDBRANCH   1  72
TORSDOF 16
ENDMDL
