MODEL 1
REMARK VINA RESULT:     -11.8      0.000      0.000
REMARK SMILES CC[N@@H+](C)Cc1cc2c(cc1Cl)C=C(C(=O)NCCCCCCNC(=O)c1ccc(-c3c4nc(c(-c5cc(S(=O)(=O)[O-])ccc5F)c5ccc([nH]5)c(-c5cc(S(=O)(=O)[O-])ccc5F)c5nc(c(-c6cc(S(=O)(=O)[O-])ccc6F)c6ccc3[nH]6)C=C5)C=C4)cc1)[C@@H](C(F)(F)F)O2
REMARK SMILES IDX 20 1 19 2 18 3 17 4 15 5 16 6 14 8 6 9 7 10 11 11 8 12 10 13
REMARK SMILES IDX 12 14 9 15 95 16 13 17 90 18 5 19 3 20 4 21 2 23 1 24 91 25
REMARK SMILES IDX 92 26 93 27 94 28 21 29 22 30 23 31 24 32 25 33 26 35 27 36
REMARK SMILES IDX 28 37 89 38 29 39 88 40 30 41 31 42 32 43 82 44 33 45 87 46
REMARK SMILES IDX 81 47 83 48 34 49 86 50 80 51 79 52 35 54 67 55 47 56 66 57
REMARK SMILES IDX 48 58 51 59 65 60 84 61 49 62 50 63 64 65 85 66 52 67 36 68
REMARK SMILES IDX 37 69 45 70 38 71 44 72 46 73 43 74 39 75 40 76 41 77 42 78
REMARK SMILES IDX 68 79 69 80 77 81 70 82 76 83 78 84 75 85 71 86 72 87 73 88
REMARK SMILES IDX 74 89 53 90 54 91 62 92 55 93 61 94 63 95 60 96 56 97 57 98
REMARK SMILES IDX 58 99 59 100
REMARK H PARENT 17 7 3 22 24 34 83 53 51 64
REMARK Flexibility Score: inf
ROOT
ATOM      1  C   UNL A   1      33.218  28.063  26.784  1.00  0.00     0.002 C 
ENDROOT
BRANCH   1   2
ATOM      2  C   UNL A   1      33.666  27.966  25.323  1.00  0.00     0.021 C 
BRANCH   2   3
ATOM      3  C   UNL A   1      33.667  26.549  24.757  1.00  0.00     0.116 C 
BRANCH   3   4
ATOM      4  N   UNL A   1      32.387  26.189  24.171  1.00  0.00    -0.352 N 
ATOM      5  C   UNL A   1      31.679  25.054  23.963  1.00  0.00     0.251 C 
ATOM      6  O   UNL A   1      30.565  25.214  23.451  1.00  0.00    -0.270 OA
ATOM      7  H   UNL A   1      31.909  26.981  23.835  1.00  0.00     0.163 HD
BRANCH   5   8
ATOM      8  C   UNL A   1      32.145  23.670  24.288  1.00  0.00     0.067 C 
ATOM      9  C   UNL A   1      33.486  18.811  23.848  1.00  0.00     0.029 A 
ATOM     10  C   UNL A   1      33.690  19.818  24.802  1.00  0.00     0.058 A 
ATOM     11  C   UNL A   1      32.571  19.075  22.815  1.00  0.00     0.050 A 
ATOM     12  C   UNL A   1      33.136  21.083  24.646  1.00  0.00     0.128 A 
ATOM     13  C   UNL A   1      31.993  20.346  22.674  1.00  0.00     0.033 A 
ATOM     14  Cl  UNL A   1      32.095  17.876  21.664  1.00  0.00    -0.084 Cl
ATOM     15  C   UNL A   1      32.308  21.368  23.570  1.00  0.00     0.019 A 
ATOM     16  O   UNL A   1      33.523  22.002  25.567  1.00  0.00    -0.475 OA
ATOM     17  C   UNL A   1      31.849  22.734  23.365  1.00  0.00     0.025 C 
ATOM     18  C   UNL A   1      32.875  23.298  25.550  1.00  0.00     0.314 C 
BRANCH   9  19
ATOM     19  C   UNL A   1      34.294  17.533  23.968  1.00  0.00     0.300 C 
BRANCH  19  20
ATOM     20  N   UNL A   1      34.327  16.891  25.303  1.00  0.00    -0.334 N 
ATOM     21  C   UNL A   1      35.325  15.831  25.429  1.00  0.00     0.333 C 
ATOM     22  H   UNL A   1      34.616  17.662  25.906  1.00  0.00     0.348 HD
BRANCH  20  23
ATOM     23  C   UNL A   1      33.026  16.437  25.808  1.00  0.00     0.258 C 
ATOM     24  C   UNL A   1      32.711  15.003  25.407  1.00  0.00     0.071 C 
ENDBRANCH  20  23
ENDBRANCH  19  20
ENDBRANCH   9  19
BRANCH  18  25
ATOM     25  C   UNL A   1      31.989  23.396  26.803  1.00  0.00     0.429 C 
ATOM     26  F   UNL A   1      32.541  22.707  27.831  1.00  0.00    -0.167 F 
ATOM     27  F   UNL A   1      31.829  24.667  27.233  1.00  0.00    -0.167 F 
ATOM     28  F   UNL A   1      30.752  22.890  26.591  1.00  0.00    -0.167 F 
ENDBRANCH  18  25
ENDBRANCH   5   8
ENDBRANCH   3   4
ENDBRANCH   2   3
ENDBRANCH   1   2
BRANCH   1  29
ATOM     29  C   UNL A   1      31.775  28.531  27.007  1.00  0.00     0.002 C 
BRANCH  29  30
ATOM     30  C   UNL A   1      31.590  30.029  27.270  1.00  0.00     0.021 C 
BRANCH  30  31
ATOM     31  C   UNL A   1      32.378  30.952  26.349  1.00  0.00     0.116 C 
BRANCH  31  32
ATOM     32  N   UNL A   1      32.292  32.347  26.747  1.00  0.00    -0.352 N 
ATOM     33  C   UNL A   1      33.133  33.067  27.560  1.00  0.00     0.251 C 
ATOM     34  H   UNL A   1      31.524  32.844  26.384  1.00  0.00     0.163 HD
ATOM     35  O   UNL A   1      32.824  34.203  27.910  1.00  0.00    -0.269 OA
BRANCH  33  36
ATOM     36  C   UNL A   1      34.390  32.451  28.037  1.00  0.00     0.039 A 
ATOM     37  C   UNL A   1      34.416  31.119  28.459  1.00  0.00     0.014 A 
ATOM     38  C   UNL A   1      35.549  33.230  28.093  1.00  0.00     0.014 A 
ATOM     39  C   UNL A   1      35.554  30.615  29.080  1.00  0.00     0.010 A 
ATOM     40  C   UNL A   1      36.714  32.696  28.650  1.00  0.00     0.010 A 
ATOM     41  C   UNL A   1      36.713  31.400  29.190  1.00  0.00    -0.014 A 
BRANCH  41  42
ATOM     42  C   UNL A   1      37.915  30.855  29.874  1.00  0.00     0.031 A 
ATOM     43  C   UNL A   1      38.224  31.235  31.296  1.00  0.00     0.074 A 
ATOM     44  C   UNL A   1      38.710  29.989  29.216  1.00  0.00     0.049 A 
ATOM     45  N   UNL A   1      39.232  30.867  32.045  1.00  0.00    -0.248 NA
ATOM     46  C   UNL A   1      37.283  32.147  31.968  1.00  0.00     0.031 C 
ATOM     47  C   UNL A   1      38.493  29.539  27.842  1.00  0.00     0.029 A 
ATOM     48  N   UNL A   1      39.843  29.324  29.611  1.00  0.00    -0.354 N 
ATOM     49  C   UNL A   1      39.057  31.512  33.265  1.00  0.00     0.074 A 
ATOM     50  C   UNL A   1      37.863  32.319  33.148  1.00  0.00     0.031 C 
ATOM     51  C   UNL A   1      39.436  28.641  27.522  1.00  0.00     0.029 A 
ATOM     52  C   UNL A   1      40.367  28.504  28.639  1.00  0.00     0.049 A 
ATOM     53  H   UNL A   1      40.243  29.424  30.506  1.00  0.00     0.167 HD
ATOM     54  C   UNL A   1      39.818  31.424  34.382  1.00  0.00     0.034 A 
ATOM     55  C   UNL A   1      41.481  27.743  28.634  1.00  0.00     0.034 A 
ATOM     56  C   UNL A   1      40.995  30.600  34.488  1.00  0.00     0.049 A 
ATOM     57  C   UNL A   1      42.334  27.698  29.874  1.00  0.00     0.074 A 
ATOM     58  C   UNL A   1      41.818  30.426  35.587  1.00  0.00     0.029 A 
ATOM     59  N   UNL A   1      41.514  29.813  33.471  1.00  0.00    -0.354 N 
ATOM     60  N   UNL A   1      42.135  28.286  31.030  1.00  0.00    -0.248 NA
ATOM     61  C   UNL A   1      43.562  26.893  29.816  1.00  0.00     0.031 C 
ATOM     62  C   UNL A   1      42.863  29.579  35.218  1.00  0.00     0.029 A 
ATOM     63  C   UNL A   1      42.660  29.171  33.909  1.00  0.00     0.049 A 
ATOM     64  H   UNL A   1      41.126  29.723  32.570  1.00  0.00     0.167 HD
ATOM     65  C   UNL A   1      43.202  27.911  31.841  1.00  0.00     0.074 A 
ATOM     66  C   UNL A   1      44.031  27.023  31.050  1.00  0.00     0.031 C 
ATOM     67  C   UNL A   1      43.473  28.275  33.119  1.00  0.00     0.034 A 
BRANCH  54  68
ATOM     68  C   UNL A   1      39.416  32.223  35.597  1.00  0.00     0.023 A 
ATOM     69  C   UNL A   1      38.672  31.613  36.626  1.00  0.00     0.031 A 
ATOM     70  C   UNL A   1      39.649  33.607  35.675  1.00  0.00     0.131 A 
ATOM     71  C   UNL A   1      38.163  32.392  37.672  1.00  0.00     0.055 A 
ATOM     72  C   UNL A   1      39.171  34.373  36.739  1.00  0.00     0.041 A 
ATOM     73  F   UNL A   1      40.354  34.234  34.718  1.00  0.00    -0.206 F 
ATOM     74  C   UNL A   1      38.412  33.768  37.738  1.00  0.00     0.022 A 
BRANCH  71  75
ATOM     75  S   UNL A   1      37.108  31.667  38.957  1.00  0.00     0.124 S 
ATOM     76  O   UNL A   1      35.962  32.574  38.948  1.00  0.00    -0.237 OA
ATOM     77  O   UNL A   1      36.851  30.332  38.423  1.00  0.00    -0.237 OA
ATOM     78  O   UNL A   1      37.932  31.719  40.159  1.00  0.00    -0.744 OA
ENDBRANCH  71  75
ENDBRANCH  54  68
BRANCH  55  79
ATOM     79  C   UNL A   1      41.805  26.943  27.417  1.00  0.00     0.023 A 
ATOM     80  C   UNL A   1      41.524  25.565  27.362  1.00  0.00     0.031 A 
ATOM     81  C   UNL A   1      42.511  27.516  26.346  1.00  0.00     0.131 A 
ATOM     82  C   UNL A   1      42.017  24.794  26.301  1.00  0.00     0.055 A 
ATOM     83  C   UNL A   1      42.936  26.757  25.254  1.00  0.00     0.041 A 
ATOM     84  F   UNL A   1      42.813  28.823  26.359  1.00  0.00    -0.206 F 
ATOM     85  C   UNL A   1      42.707  25.384  25.239  1.00  0.00     0.022 A 
BRANCH  82  86
ATOM     86  S   UNL A   1      41.913  22.982  26.344  1.00  0.00     0.124 S 
ATOM     87  O   UNL A   1      40.471  22.763  26.387  1.00  0.00    -0.237 OA
ATOM     88  O   UNL A   1      42.571  22.616  25.092  1.00  0.00    -0.237 OA
ATOM     89  O   UNL A   1      42.643  22.624  27.555  1.00  0.00    -0.744 OA
ENDBRANCH  82  86
ENDBRANCH  55  79
BRANCH  67  90
ATOM     90  C   UNL A   1      44.713  27.728  33.781  1.00  0.00     0.023 A 
ATOM     91  C   UNL A   1      44.633  26.565  34.571  1.00  0.00     0.031 A 
ATOM     92  C   UNL A   1      45.921  28.444  33.769  1.00  0.00     0.131 A 
ATOM     93  C   UNL A   1      45.726  26.181  35.356  1.00  0.00     0.055 A 
ATOM     94  C   UNL A   1      47.023  28.031  34.519  1.00  0.00     0.041 A 
ATOM     95  F   UNL A   1      46.042  29.565  33.038  1.00  0.00    -0.206 F 
ATOM     96  C   UNL A   1      46.923  26.904  35.330  1.00  0.00     0.022 A 
BRANCH  93  97
ATOM     97  S   UNL A   1      45.606  24.785  36.509  1.00  0.00     0.124 S 
ATOM     98  O   UNL A   1      46.965  24.715  37.042  1.00  0.00    -0.237 OA
ATOM     99  O   UNL A   1      44.589  25.250  37.450  1.00  0.00    -0.237 OA
ATOM    100  O   UNL A   1      45.213  23.663  35.664  1.00  0.00    -0.744 OA
ENDBRANCH  93  97
ENDBRANCH  67  90
ENDBRANCH  41  42
ENDBRANCH  33  36
ENDBRANCH  31  32
ENDBRANCH  30  31
ENDBRANCH  29  30
ENDBRANCH   1  29
TORSDOF 20
ENDMDL
MODEL 2
REMARK VINA RESULT:     -11.4      2.917      3.420
REMARK SMILES CC[N@@H+](C)Cc1cc2c(cc1Cl)C=C(C(=O)NCCCCCCNC(=O)c1ccc(-c3c4nc(c(-c5cc(S(=O)(=O)[O-])ccc5F)c5ccc([nH]5)c(-c5cc(S(=O)(=O)[O-])ccc5F)c5nc(c(-c6cc(S(=O)(=O)[O-])ccc6F)c6ccc3[nH]6)C=C5)C=C4)cc1)[C@@H](C(F)(F)F)O2
REMARK SMILES IDX 20 1 19 2 18 3 17 4 15 5 16 6 14 8 6 9 7 10 11 11 8 12 10 13
REMARK SMILES IDX 12 14 9 15 95 16 13 17 90 18 5 19 3 20 4 21 2 23 1 24 91 25
REMARK SMILES IDX 92 26 93 27 94 28 21 29 22 30 23 31 24 32 25 33 26 35 27 36
REMARK SMILES IDX 28 37 89 38 29 39 88 40 30 41 31 42 32 43 82 44 33 45 87 46
REMARK SMILES IDX 81 47 83 48 34 49 86 50 80 51 79 52 35 54 67 55 47 56 66 57
REMARK SMILES IDX 48 58 51 59 65 60 84 61 49 62 50 63 64 65 85 66 52 67 36 68
REMARK SMILES IDX 37 69 45 70 38 71 44 72 46 73 43 74 39 75 40 76 41 77 42 78
REMARK SMILES IDX 68 79 69 80 77 81 70 82 76 83 78 84 75 85 71 86 72 87 73 88
REMARK SMILES IDX 74 89 53 90 54 91 62 92 55 93 61 94 63 95 60 96 56 97 57 98
REMARK SMILES IDX 58 99 59 100
REMARK H PARENT 17 7 3 22 24 34 83 53 51 64
REMARK Flexibility Score: inf
ROOT
ATOM      1  C   UNL A   1      33.354  27.559  26.454  1.00  0.00     0.002 C 
ENDROOT
BRANCH   1   2
ATOM      2  C   UNL A   1      33.669  27.830  24.980  1.00  0.00     0.021 C 
BRANCH   2   3
ATOM      3  C   UNL A   1      33.566  26.603  24.079  1.00  0.00     0.116 C 
BRANCH   3   4
ATOM      4  N   UNL A   1      32.188  26.198  23.855  1.00  0.00    -0.352 N 
ATOM      5  C   UNL A   1      31.466  25.056  23.948  1.00  0.00     0.251 C 
ATOM      6  O   UNL A   1      30.260  25.175  23.698  1.00  0.00    -0.270 OA
ATOM      7  H   UNL A   1      31.634  26.954  23.556  1.00  0.00     0.163 HD
BRANCH   5   8
ATOM      8  C   UNL A   1      32.013  23.711  24.305  1.00  0.00     0.067 C 
ATOM      9  C   UNL A   1      33.610  18.920  23.985  1.00  0.00     0.029 A 
ATOM     10  C   UNL A   1      33.778  19.967  24.903  1.00  0.00     0.058 A 
ATOM     11  C   UNL A   1      32.662  19.101  22.964  1.00  0.00     0.050 A 
ATOM     12  C   UNL A   1      33.151  21.195  24.720  1.00  0.00     0.128 A 
ATOM     13  C   UNL A   1      32.012  20.334  22.797  1.00  0.00     0.033 A 
ATOM     14  Cl  UNL A   1      32.229  17.842  21.861  1.00  0.00    -0.084 Cl
ATOM     15  C   UNL A   1      32.289  21.400  23.654  1.00  0.00     0.019 A 
ATOM     16  O   UNL A   1      33.506  22.162  25.604  1.00  0.00    -0.475 OA
ATOM     17  C   UNL A   1      31.751  22.732  23.418  1.00  0.00     0.025 C 
ATOM     18  C   UNL A   1      32.787  23.419  25.562  1.00  0.00     0.314 C 
BRANCH   9  19
ATOM     19  C   UNL A   1      34.489  17.692  24.126  1.00  0.00     0.300 C 
BRANCH  19  20
ATOM     20  N   UNL A   1      34.374  16.936  25.395  1.00  0.00    -0.334 N 
ATOM     21  C   UNL A   1      35.314  15.823  25.512  1.00  0.00     0.333 C 
ATOM     22  H   UNL A   1      34.637  17.638  26.089  1.00  0.00     0.348 HD
BRANCH  20  23
ATOM     23  C   UNL A   1      33.015  16.503  25.741  1.00  0.00     0.258 C 
ATOM     24  C   UNL A   1      32.738  15.064  25.331  1.00  0.00     0.071 C 
ENDBRANCH  20  23
ENDBRANCH  19  20
ENDBRANCH   9  19
BRANCH  18  25
ATOM     25  C   UNL A   1      31.923  23.509  26.830  1.00  0.00     0.429 C 
ATOM     26  F   UNL A   1      32.544  22.906  27.872  1.00  0.00    -0.167 F 
ATOM     27  F   UNL A   1      31.681  24.783  27.210  1.00  0.00    -0.167 F 
ATOM     28  F   UNL A   1      30.721  22.909  26.668  1.00  0.00    -0.167 F 
ENDBRANCH  18  25
ENDBRANCH   5   8
ENDBRANCH   3   4
ENDBRANCH   2   3
ENDBRANCH   1   2
BRANCH   1  29
ATOM     29  C   UNL A   1      32.212  28.389  27.054  1.00  0.00     0.002 C 
BRANCH  29  30
ATOM     30  C   UNL A   1      32.364  29.909  26.953  1.00  0.00     0.021 C 
BRANCH  30  31
ATOM     31  C   UNL A   1      33.760  30.443  27.251  1.00  0.00     0.116 C 
BRANCH  31  32
ATOM     32  N   UNL A   1      33.735  31.689  27.999  1.00  0.00    -0.352 N 
ATOM     33  C   UNL A   1      34.635  32.160  28.925  1.00  0.00     0.251 C 
ATOM     34  H   UNL A   1      32.968  32.277  27.816  1.00  0.00     0.163 HD
ATOM     35  O   UNL A   1      34.378  33.172  29.570  1.00  0.00    -0.269 OA
BRANCH  33  36
ATOM     36  C   UNL A   1      35.893  31.419  29.161  1.00  0.00     0.039 A 
ATOM     37  C   UNL A   1      35.882  30.190  29.827  1.00  0.00     0.014 A 
ATOM     38  C   UNL A   1      37.101  31.981  28.738  1.00  0.00     0.014 A 
ATOM     39  C   UNL A   1      37.085  29.602  30.208  1.00  0.00     0.010 A 
ATOM     40  C   UNL A   1      38.306  31.349  29.057  1.00  0.00     0.010 A 
ATOM     41  C   UNL A   1      38.310  30.179  29.835  1.00  0.00    -0.014 A 
BRANCH  41  42
ATOM     42  C   UNL A   1      39.586  29.551  30.266  1.00  0.00     0.031 A 
ATOM     43  C   UNL A   1      40.295  30.030  31.502  1.00  0.00     0.074 A 
ATOM     44  C   UNL A   1      40.086  28.523  29.553  1.00  0.00     0.049 A 
ATOM     45  N   UNL A   1      41.421  29.609  32.020  1.00  0.00    -0.248 NA
ATOM     46  C   UNL A   1      39.663  31.124  32.258  1.00  0.00     0.031 C 
ATOM     47  C   UNL A   1      39.471  27.967  28.348  1.00  0.00     0.029 A 
ATOM     48  N   UNL A   1      41.209  27.756  29.740  1.00  0.00    -0.354 N 
ATOM     49  C   UNL A   1      41.640  30.393  33.147  1.00  0.00     0.074 A 
ATOM     50  C   UNL A   1      40.547  31.337  33.224  1.00  0.00     0.031 C 
ATOM     51  C   UNL A   1      40.199  26.923  27.928  1.00  0.00     0.029 A 
ATOM     52  C   UNL A   1      41.371  26.778  28.786  1.00  0.00     0.049 A 
ATOM     53  H   UNL A   1      41.837  27.892  30.485  1.00  0.00     0.167 HD
ATOM     54  C   UNL A   1      42.654  30.320  34.042  1.00  0.00     0.034 A 
ATOM     55  C   UNL A   1      42.360  25.877  28.607  1.00  0.00     0.034 A 
ATOM     56  C   UNL A   1      43.726  29.360  33.962  1.00  0.00     0.049 A 
ATOM     57  C   UNL A   1      43.499  25.846  29.592  1.00  0.00     0.074 A 
ATOM     58  C   UNL A   1      44.786  29.191  34.836  1.00  0.00     0.029 A 
ATOM     59  N   UNL A   1      43.876  28.410  32.962  1.00  0.00    -0.354 N 
ATOM     60  N   UNL A   1      43.673  26.571  30.671  1.00  0.00    -0.248 NA
ATOM     61  C   UNL A   1      44.579  24.882  29.339  1.00  0.00     0.031 C 
ATOM     62  C   UNL A   1      45.605  28.178  34.335  1.00  0.00     0.029 A 
ATOM     63  C   UNL A   1      45.024  27.669  33.184  1.00  0.00     0.049 A 
ATOM     64  H   UNL A   1      43.257  28.282  32.207  1.00  0.00     0.167 HD
ATOM     65  C   UNL A   1      44.871  26.141  31.234  1.00  0.00     0.074 A 
ATOM     66  C   UNL A   1      45.366  25.074  30.389  1.00  0.00     0.031 C 
ATOM     67  C   UNL A   1      45.503  26.595  32.345  1.00  0.00     0.034 A 
BRANCH  54  68
ATOM     68  C   UNL A   1      42.669  31.285  35.201  1.00  0.00     0.023 A 
ATOM     69  C   UNL A   1      43.199  32.579  35.033  1.00  0.00     0.031 A 
ATOM     70  C   UNL A   1      42.286  30.885  36.494  1.00  0.00     0.131 A 
ATOM     71  C   UNL A   1      43.360  33.415  36.145  1.00  0.00     0.055 A 
ATOM     72  C   UNL A   1      42.414  31.736  37.593  1.00  0.00     0.041 A 
ATOM     73  F   UNL A   1      41.774  29.662  36.704  1.00  0.00    -0.206 F 
ATOM     74  C   UNL A   1      42.966  33.003  37.423  1.00  0.00     0.022 A 
BRANCH  71  75
ATOM     75  S   UNL A   1      44.142  35.045  35.991  1.00  0.00     0.124 S 
ATOM     76  O   UNL A   1      43.731  35.691  37.236  1.00  0.00    -0.237 OA
ATOM     77  O   UNL A   1      45.558  34.697  35.906  1.00  0.00    -0.237 OA
ATOM     78  O   UNL A   1      43.554  35.603  34.778  1.00  0.00    -0.744 OA
ENDBRANCH  71  75
ENDBRANCH  54  68
BRANCH  55  79
ATOM     79  C   UNL A   1      42.269  24.920  27.467  1.00  0.00     0.023 A 
ATOM     80  C   UNL A   1      41.455  23.775  27.547  1.00  0.00     0.031 A 
ATOM     81  C   UNL A   1      43.087  25.071  26.334  1.00  0.00     0.131 A 
ATOM     82  C   UNL A   1      41.539  22.788  26.556  1.00  0.00     0.055 A 
ATOM     83  C   UNL A   1      43.111  24.121  25.312  1.00  0.00     0.041 A 
ATOM     84  F   UNL A   1      43.888  26.139  26.217  1.00  0.00    -0.206 F 
ATOM     85  C   UNL A   1      42.349  22.962  25.431  1.00  0.00     0.022 A 
BRANCH  82  86
ATOM     86  S   UNL A   1      40.717  21.184  26.772  1.00  0.00     0.124 S 
ATOM     87  O   UNL A   1      40.787  21.001  28.218  1.00  0.00    -0.237 OA
ATOM     88  O   UNL A   1      39.387  21.455  26.232  1.00  0.00    -0.237 OA
ATOM     89  O   UNL A   1      41.532  20.270  25.980  1.00  0.00    -0.744 OA
ENDBRANCH  82  86
ENDBRANCH  55  79
BRANCH  67  90
ATOM     90  C   UNL A   1      46.810  25.957  32.745  1.00  0.00     0.023 A 
ATOM     91  C   UNL A   1      47.986  26.259  32.031  1.00  0.00     0.031 A 
ATOM     92  C   UNL A   1      46.859  24.936  33.709  1.00  0.00     0.131 A 
ATOM     93  C   UNL A   1      49.148  25.511  32.257  1.00  0.00     0.055 A 
ATOM     94  C   UNL A   1      48.031  24.225  33.962  1.00  0.00     0.041 A 
ATOM     95  F   UNL A   1      45.760  24.607  34.408  1.00  0.00    -0.206 F 
ATOM     96  C   UNL A   1      49.179  24.500  33.223  1.00  0.00     0.022 A 
BRANCH  93  97
ATOM     97  S   UNL A   1      50.632  25.759  31.243  1.00  0.00     0.124 S 
ATOM     98  O   UNL A   1      50.945  27.162  31.503  1.00  0.00    -0.237 OA
ATOM     99  O   UNL A   1      51.564  24.794  31.822  1.00  0.00    -0.237 OA
ATOM    100  O   UNL A   1      50.186  25.464  29.886  1.00  0.00    -0.744 OA
ENDBRANCH  93  97
ENDBRANCH  67  90
ENDBRANCH  41  42
ENDBRANCH  33  36
ENDBRANCH  31  32
ENDBRANCH  30  31
ENDBRANCH  29  30
ENDBRANCH   1  29
TORSDOF 20
ENDMDL
MODEL 3
REMARK VINA RESULT:     -10.9      2.169      7.516
REMARK SMILES CC[N@@H+](C)Cc1cc2c(cc1Cl)C=C(C(=O)NCCCCCCNC(=O)c1ccc(-c3c4nc(c(-c5cc(S(=O)(=O)[O-])ccc5F)c5ccc([nH]5)c(-c5cc(S(=O)(=O)[O-])ccc5F)c5nc(c(-c6cc(S(=O)(=O)[O-])ccc6F)c6ccc3[nH]6)C=C5)C=C4)cc1)[C@@H](C(F)(F)F)O2
REMARK SMILES IDX 20 1 19 2 18 3 17 4 15 5 16 6 14 8 6 9 7 10 11 11 8 12 10 13
REMARK SMILES IDX 12 14 9 15 95 16 13 17 90 18 5 19 3 20 4 21 2 23 1 24 91 25
REMARK SMILES IDX 92 26 93 27 94 28 21 29 22 30 23 31 24 32 25 33 26 35 27 36
REMARK SMILES IDX 28 37 89 38 29 39 88 40 30 41 31 42 32 43 82 44 33 45 87 46
REMARK SMILES IDX 81 47 83 48 34 49 86 50 80 51 79 52 35 54 67 55 47 56 66 57
REMARK SMILES IDX 48 58 51 59 65 60 84 61 49 62 50 63 64 65 85 66 52 67 36 68
REMARK SMILES IDX 37 69 45 70 38 71 44 72 46 73 43 74 39 75 40 76 41 77 42 78
REMARK SMILES IDX 68 79 69 80 77 81 70 82 76 83 78 84 75 85 71 86 72 87 73 88
REMARK SMILES IDX 74 89 53 90 54 91 62 92 55 93 61 94 63 95 60 96 56 97 57 98
REMARK SMILES IDX 58 99 59 100
REMARK H PARENT 17 7 3 22 24 34 83 53 51 64
REMARK Flexibility Score: inf
ROOT
ATOM      1  C   UNL A   1      33.673  27.872  26.029  1.00  0.00     0.002 C 
ENDROOT
BRANCH   1   2
ATOM      2  C   UNL A   1      33.378  28.231  24.570  1.00  0.00     0.021 C 
BRANCH   2   3
ATOM      3  C   UNL A   1      33.324  27.035  23.625  1.00  0.00     0.116 C 
BRANCH   3   4
ATOM      4  N   UNL A   1      31.969  26.551  23.425  1.00  0.00    -0.352 N 
ATOM      5  C   UNL A   1      31.295  25.391  23.612  1.00  0.00     0.251 C 
ATOM      6  O   UNL A   1      30.089  25.434  23.342  1.00  0.00    -0.270 OA
ATOM      7  H   UNL A   1      31.386  27.252  23.056  1.00  0.00     0.163 HD
BRANCH   5   8
ATOM      8  C   UNL A   1      31.895  24.108  24.092  1.00  0.00     0.067 C 
ATOM      9  C   UNL A   1      33.696  19.381  24.213  1.00  0.00     0.029 A 
ATOM     10  C   UNL A   1      33.811  20.511  25.034  1.00  0.00     0.058 A 
ATOM     11  C   UNL A   1      32.751  19.428  23.174  1.00  0.00     0.050 A 
ATOM     12  C   UNL A   1      33.135  21.690  24.738  1.00  0.00     0.128 A 
ATOM     13  C   UNL A   1      32.050  20.612  22.894  1.00  0.00     0.033 A 
ATOM     14  Cl  UNL A   1      32.382  18.059  22.187  1.00  0.00    -0.084 Cl
ATOM     15  C   UNL A   1      32.274  21.762  23.653  1.00  0.00     0.019 A 
ATOM     16  O   UNL A   1      33.440  22.747  25.533  1.00  0.00    -0.475 OA
ATOM     17  C   UNL A   1      31.683  23.043  23.295  1.00  0.00     0.025 C 
ATOM     18  C   UNL A   1      32.670  23.964  25.374  1.00  0.00     0.314 C 
BRANCH   9  19
ATOM     19  C   UNL A   1      34.625  18.209  24.469  1.00  0.00     0.300 C 
BRANCH  19  20
ATOM     20  N   UNL A   1      34.190  17.228  25.490  1.00  0.00    -0.334 N 
ATOM     21  C   UNL A   1      34.811  15.912  25.354  1.00  0.00     0.333 C 
ATOM     22  H   UNL A   1      34.537  17.647  26.353  1.00  0.00     0.348 HD
BRANCH  20  23
ATOM     23  C   UNL A   1      32.737  17.098  25.649  1.00  0.00     0.258 C 
ATOM     24  C   UNL A   1      32.249  15.674  25.429  1.00  0.00     0.071 C 
ENDBRANCH  20  23
ENDBRANCH  19  20
ENDBRANCH   9  19
BRANCH  18  25
ATOM     25  C   UNL A   1      31.790  24.129  26.624  1.00  0.00     0.429 C 
ATOM     26  F   UNL A   1      32.244  23.345  27.631  1.00  0.00    -0.167 F 
ATOM     27  F   UNL A   1      31.783  25.396  27.095  1.00  0.00    -0.167 F 
ATOM     28  F   UNL A   1      30.503  23.787  26.388  1.00  0.00    -0.167 F 
ENDBRANCH  18  25
ENDBRANCH   5   8
ENDBRANCH   3   4
ENDBRANCH   2   3
ENDBRANCH   1   2
BRANCH   1  29
ATOM     29  C   UNL A   1      33.057  28.802  27.081  1.00  0.00     0.002 C 
BRANCH  29  30
ATOM     30  C   UNL A   1      33.121  30.300  26.771  1.00  0.00     0.021 C 
BRANCH  30  31
ATOM     31  C   UNL A   1      34.375  31.012  27.264  1.00  0.00     0.116 C 
BRANCH  31  32
ATOM     32  N   UNL A   1      34.109  31.904  28.380  1.00  0.00    -0.352 N 
ATOM     33  C   UNL A   1      34.825  32.073  29.541  1.00  0.00     0.251 C 
ATOM     34  H   UNL A   1      33.306  32.465  28.291  1.00  0.00     0.163 HD
ATOM     35  O   UNL A   1      34.370  32.768  30.446  1.00  0.00    -0.269 OA
BRANCH  33  36
ATOM     36  C   UNL A   1      36.123  31.383  29.704  1.00  0.00     0.039 A 
ATOM     37  C   UNL A   1      36.222  30.225  30.478  1.00  0.00     0.014 A 
ATOM     38  C   UNL A   1      37.260  31.926  29.098  1.00  0.00     0.014 A 
ATOM     39  C   UNL A   1      37.476  29.700  30.776  1.00  0.00     0.010 A 
ATOM     40  C   UNL A   1      38.511  31.352  29.339  1.00  0.00     0.010 A 
ATOM     41  C   UNL A   1      38.635  30.263  30.217  1.00  0.00    -0.014 A 
BRANCH  41  42
ATOM     42  C   UNL A   1      39.969  29.705  30.560  1.00  0.00     0.031 A 
ATOM     43  C   UNL A   1      40.548  28.565  29.768  1.00  0.00     0.074 A 
ATOM     44  C   UNL A   1      40.672  30.254  31.570  1.00  0.00     0.049 A 
ATOM     45  N   UNL A   1      41.689  27.945  29.932  1.00  0.00    -0.248 NA
ATOM     46  C   UNL A   1      39.745  28.050  28.647  1.00  0.00     0.031 C 
ATOM     47  C   UNL A   1      40.214  31.373  32.391  1.00  0.00     0.029 A 
ATOM     48  N   UNL A   1      41.916  29.960  32.069  1.00  0.00    -0.354 N 
ATOM     49  C   UNL A   1      41.734  26.961  28.951  1.00  0.00     0.074 A 
ATOM     50  C   UNL A   1      40.493  27.044  28.213  1.00  0.00     0.031 C 
ATOM     51  C   UNL A   1      41.178  31.700  33.263  1.00  0.00     0.029 A 
ATOM     52  C   UNL A   1      42.294  30.770  33.115  1.00  0.00     0.049 A 
ATOM     53  H   UNL A   1      42.484  29.239  31.712  1.00  0.00     0.167 HD
ATOM     54  C   UNL A   1      42.727  26.080  28.684  1.00  0.00     0.034 A 
ATOM     55  C   UNL A   1      43.403  30.756  33.884  1.00  0.00     0.034 A 
ATOM     56  C   UNL A   1      43.966  26.023  29.417  1.00  0.00     0.049 A 
ATOM     57  C   UNL A   1      44.474  29.737  33.595  1.00  0.00     0.074 A 
ATOM     58  C   UNL A   1      45.045  25.182  29.205  1.00  0.00     0.029 A 
ATOM     59  N   UNL A   1      44.297  26.834  30.492  1.00  0.00    -0.354 N 
ATOM     60  N   UNL A   1      44.515  28.837  32.641  1.00  0.00    -0.248 NA
ATOM     61  C   UNL A   1      45.646  29.724  34.481  1.00  0.00     0.031 C 
ATOM     62  C   UNL A   1      46.002  25.447  30.185  1.00  0.00     0.029 A 
ATOM     63  C   UNL A   1      45.552  26.497  30.970  1.00  0.00     0.049 A 
ATOM     64  H   UNL A   1      43.725  27.546  30.862  1.00  0.00     0.167 HD
ATOM     65  C   UNL A   1      45.721  28.162  32.803  1.00  0.00     0.074 A 
ATOM     66  C   UNL A   1      46.392  28.776  33.930  1.00  0.00     0.031 C 
ATOM     67  C   UNL A   1      46.222  27.124  32.085  1.00  0.00     0.034 A 
BRANCH  54  68
ATOM     68  C   UNL A   1      42.544  25.103  27.550  1.00  0.00     0.023 A 
ATOM     69  C   UNL A   1      41.987  23.833  27.796  1.00  0.00     0.031 A 
ATOM     70  C   UNL A   1      43.039  25.374  26.261  1.00  0.00     0.131 A 
ATOM     71  C   UNL A   1      41.966  22.872  26.777  1.00  0.00     0.055 A 
ATOM     72  C   UNL A   1      42.983  24.425  25.239  1.00  0.00     0.041 A 
ATOM     73  F   UNL A   1      43.579  26.571  25.977  1.00  0.00    -0.206 F 
ATOM     74  C   UNL A   1      42.457  23.163  25.499  1.00  0.00     0.022 A 
BRANCH  71  75
ATOM     75  S   UNL A   1      41.361  21.190  27.084  1.00  0.00     0.124 S 
ATOM     76  O   UNL A   1      40.558  21.378  28.291  1.00  0.00    -0.237 OA
ATOM     77  O   UNL A   1      40.603  20.912  25.867  1.00  0.00    -0.237 OA
ATOM     78  O   UNL A   1      42.577  20.406  27.264  1.00  0.00    -0.744 OA
ENDBRANCH  71  75
ENDBRANCH  54  68
BRANCH  55  79
ATOM     79  C   UNL A   1      43.546  31.774  34.965  1.00  0.00     0.023 A 
ATOM     80  C   UNL A   1      42.921  31.596  36.213  1.00  0.00     0.031 A 
ATOM     81  C   UNL A   1      44.203  32.992  34.724  1.00  0.00     0.131 A 
ATOM     82  C   UNL A   1      42.896  32.648  37.138  1.00  0.00     0.055 A 
ATOM     83  C   UNL A   1      44.240  34.010  35.678  1.00  0.00     0.041 A 
ATOM     84  F   UNL A   1      44.804  33.214  33.545  1.00  0.00    -0.206 F 
ATOM     85  C   UNL A   1      43.566  33.848  36.885  1.00  0.00     0.022 A 
BRANCH  82  86
ATOM     86  S   UNL A   1      41.866  32.548  38.629  1.00  0.00     0.124 S 
ATOM     87  O   UNL A   1      40.576  32.144  38.080  1.00  0.00    -0.237 OA
ATOM     88  O   UNL A   1      42.568  31.530  39.409  1.00  0.00    -0.237 OA
ATOM     89  O   UNL A   1      41.924  33.897  39.180  1.00  0.00    -0.744 OA
ENDBRANCH  82  86
ENDBRANCH  55  79
BRANCH  67  90
ATOM     90  C   UNL A   1      47.566  26.560  32.471  1.00  0.00     0.023 A 
ATOM     91  C   UNL A   1      47.652  25.570  33.470  1.00  0.00     0.031 A 
ATOM     92  C   UNL A   1      48.759  27.116  31.980  1.00  0.00     0.131 A 
ATOM     93  C   UNL A   1      48.903  25.204  33.980  1.00  0.00     0.055 A 
ATOM     94  C   UNL A   1      50.005  26.714  32.460  1.00  0.00     0.041 A 
ATOM     95  F   UNL A   1      48.726  28.069  31.034  1.00  0.00    -0.206 F 
ATOM     96  C   UNL A   1      50.081  25.766  33.476  1.00  0.00     0.022 A 
BRANCH  93  97
ATOM     97  S   UNL A   1      49.044  24.056  35.378  1.00  0.00     0.124 S 
ATOM     98  O   UNL A   1      50.448  23.659  35.304  1.00  0.00    -0.237 OA
ATOM     99  O   UNL A   1      48.695  24.908  36.512  1.00  0.00    -0.237 OA
ATOM    100  O   UNL A   1      48.084  23.002  35.066  1.00  0.00    -0.744 OA
ENDBRANCH  93  97
ENDBRANCH  67  90
ENDBRANCH  41  42
ENDBRANCH  33  36
ENDBRANCH  31  32
ENDBRANCH  30  31
ENDBRANCH  29  30
ENDBRANCH   1  29
TORSDOF 20
ENDMDL
