MODEL 1
REMARK VINA RESULT:     -13.0      0.000      0.000
REMARK SMILES O=C(NCCCCCCNC(=O)[C@H]1[C@H]2CC[C@H](CC2)[C@@H]1C(=O)Nc1sc2c(c1C(=O)N1CCCCC1)CCCC2)c1ccc(-c2c3nc(c(-c4cc(S(=O)(=O)[O-])ccc4F)c4ccc([nH]4)c(-c4cc(S(=O)(=O)[O-])ccc4F)c4nc(c(-c5cc(S(=O)(=O)[O-])ccc5F)c5ccc2[nH]5)C=C4)C=C3)cc1
REMARK SMILES IDX 6 1 5 2 4 3 3 4 1 5 2 6 41 8 42 9 103 10 43 11 102 12 44 13
REMARK SMILES IDX 45 14 46 15 96 16 47 17 101 18 95 19 97 20 48 21 100 22
REMARK SMILES IDX 94 23 93 24 49 26 81 27 61 28 80 29 62 30 65 31 79 32 98 33
REMARK SMILES IDX 63 34 64 35 78 37 99 38 66 39 50 40 51 41 59 42 52 43 58 44
REMARK SMILES IDX 60 45 57 46 53 47 54 48 55 49 56 50 82 51 83 52 91 53 84 54
REMARK SMILES IDX 90 55 92 56 89 57 85 58 86 59 87 60 88 61 67 62 68 63 76 64
REMARK SMILES IDX 69 65 75 66 77 67 74 68 70 69 71 70 72 71 73 72 7 73 8 74
REMARK SMILES IDX 9 75 10 76 11 77 12 79 13 80 14 81 20 82 15 83 19 84 17 85
REMARK SMILES IDX 16 86 18 87 21 88 22 89 23 90 24 92 25 93 28 94 26 95 27 96
REMARK SMILES IDX 40 97 37 98 39 99 38 100 29 101 30 102 31 103 32 104 36 105
REMARK SMILES IDX 33 106 35 107 34 108
REMARK H PARENT 3 7 97 25 65 36 10 78 23 91
REMARK Flexibility Score: inf
ROOT
ATOM      1  C   UNL A   1      34.850  31.169  27.674  1.00  0.00     0.002 C 
ENDROOT
BRANCH   1   2
ATOM      2  C   UNL A   1      33.501  31.869  27.836  1.00  0.00     0.021 C 
BRANCH   2   3
ATOM      3  C   UNL A   1      33.423  33.272  27.249  1.00  0.00     0.116 C 
BRANCH   3   4
ATOM      4  N   UNL A   1      32.909  34.249  28.195  1.00  0.00    -0.352 N 
ATOM      5  O   UNL A   1      32.694  35.282  30.190  1.00  0.00    -0.269 OA
ATOM      6  C   UNL A   1      33.343  34.530  29.469  1.00  0.00     0.251 C 
ATOM      7  H   UNL A   1      32.144  34.783  27.880  1.00  0.00     0.163 HD
BRANCH   6   8
ATOM      8  C   UNL A   1      34.587  33.906  29.969  1.00  0.00     0.039 A 
ATOM      9  C   UNL A   1      34.530  32.904  30.941  1.00  0.00     0.014 A 
ATOM     10  C   UNL A   1      35.821  34.329  29.467  1.00  0.00     0.014 A 
ATOM     11  C   UNL A   1      35.704  32.433  31.511  1.00  0.00     0.010 A 
ATOM     12  C   UNL A   1      37.003  33.778  29.974  1.00  0.00     0.010 A 
ATOM     13  C   UNL A   1      36.955  32.841  31.017  1.00  0.00    -0.014 A 
BRANCH  13  14
ATOM     14  C   UNL A   1      38.178  32.198  31.566  1.00  0.00     0.031 A 
ATOM     15  C   UNL A   1      38.752  32.602  32.895  1.00  0.00     0.074 A 
ATOM     16  C   UNL A   1      38.728  31.186  30.864  1.00  0.00     0.049 A 
ATOM     17  N   UNL A   1      39.772  32.090  33.538  1.00  0.00    -0.248 NA
ATOM     18  C   UNL A   1      38.110  33.726  33.589  1.00  0.00     0.031 C 
ATOM     19  C   UNL A   1      38.261  30.729  29.551  1.00  0.00     0.029 A 
ATOM     20  N   UNL A   1      39.765  30.341  31.158  1.00  0.00    -0.354 N 
ATOM     21  C   UNL A   1      39.899  32.828  34.709  1.00  0.00     0.074 A 
ATOM     22  C   UNL A   1      38.873  33.851  34.667  1.00  0.00     0.031 C 
ATOM     23  C   UNL A   1      38.964  29.649  29.185  1.00  0.00     0.029 A 
ATOM     24  C   UNL A   1      39.981  29.382  30.194  1.00  0.00     0.049 A 
ATOM     25  H   UNL A   1      40.303  30.412  31.978  1.00  0.00     0.167 HD
ATOM     26  C   UNL A   1      40.782  32.659  35.726  1.00  0.00     0.034 A 
ATOM     27  C   UNL A   1      40.904  28.405  30.119  1.00  0.00     0.034 A 
ATOM     28  C   UNL A   1      41.805  31.639  35.743  1.00  0.00     0.049 A 
ATOM     29  C   UNL A   1      41.879  28.253  31.254  1.00  0.00     0.074 A 
ATOM     30  C   UNL A   1      42.754  31.383  36.718  1.00  0.00     0.029 A 
ATOM     31  N   UNL A   1      42.018  30.705  34.735  1.00  0.00    -0.354 N 
ATOM     32  N   UNL A   1      41.974  28.958  32.358  1.00  0.00    -0.248 NA
ATOM     33  C   UNL A   1      42.860  27.171  31.137  1.00  0.00     0.031 C 
ATOM     34  C   UNL A   1      43.571  30.335  36.278  1.00  0.00     0.029 A 
ATOM     35  C   UNL A   1      43.091  29.887  35.057  1.00  0.00     0.049 A 
ATOM     36  H   UNL A   1      41.484  30.635  33.910  1.00  0.00     0.167 HD
ATOM     37  C   UNL A   1      43.029  28.398  33.070  1.00  0.00     0.074 A 
ATOM     38  C   UNL A   1      43.503  27.272  32.291  1.00  0.00     0.031 C 
ATOM     39  C   UNL A   1      43.568  28.786  34.255  1.00  0.00     0.034 A 
BRANCH  26  40
ATOM     40  C   UNL A   1      40.694  33.616  36.890  1.00  0.00     0.023 A 
ATOM     41  C   UNL A   1      41.572  34.708  37.010  1.00  0.00     0.031 A 
ATOM     42  C   UNL A   1      39.726  33.438  37.894  1.00  0.00     0.131 A 
ATOM     43  C   UNL A   1      41.502  35.545  38.134  1.00  0.00     0.055 A 
ATOM     44  C   UNL A   1      39.616  34.315  38.975  1.00  0.00     0.041 A 
ATOM     45  F   UNL A   1      38.871  32.404  37.843  1.00  0.00    -0.206 F 
ATOM     46  C   UNL A   1      40.514  35.370  39.107  1.00  0.00     0.022 A 
BRANCH  43  47
ATOM     47  S   UNL A   1      42.795  36.797  38.361  1.00  0.00     0.124 S 
ATOM     48  O   UNL A   1      42.983  37.277  36.993  1.00  0.00    -0.237 OA
ATOM     49  O   UNL A   1      42.167  37.737  39.282  1.00  0.00    -0.237 OA
ATOM     50  O   UNL A   1      43.916  36.037  38.909  1.00  0.00    -0.744 OA
ENDBRANCH  43  47
ENDBRANCH  26  40
BRANCH  27  51
ATOM     51  C   UNL A   1      40.973  27.529  28.915  1.00  0.00     0.023 A 
ATOM     52  C   UNL A   1      41.962  27.709  27.937  1.00  0.00     0.031 A 
ATOM     53  C   UNL A   1      40.021  26.512  28.712  1.00  0.00     0.131 A 
ATOM     54  C   UNL A   1      41.949  26.916  26.778  1.00  0.00     0.055 A 
ATOM     55  C   UNL A   1      40.050  25.686  27.589  1.00  0.00     0.041 A 
ATOM     56  F   UNL A   1      39.056  26.294  29.619  1.00  0.00    -0.206 F 
ATOM     57  C   UNL A   1      41.011  25.896  26.606  1.00  0.00     0.022 A 
BRANCH  54  58
ATOM     58  S   UNL A   1      43.123  27.302  25.451  1.00  0.00     0.124 S 
ATOM     59  O   UNL A   1      43.453  25.973  24.948  1.00  0.00    -0.237 OA
ATOM     60  O   UNL A   1      42.315  28.139  24.569  1.00  0.00    -0.237 OA
ATOM     61  O   UNL A   1      44.206  27.994  26.145  1.00  0.00    -0.744 OA
ENDBRANCH  54  58
ENDBRANCH  27  51
BRANCH  39  62
ATOM     62  C   UNL A   1      44.721  27.959  34.769  1.00  0.00     0.023 A 
ATOM     63  C   UNL A   1      44.509  26.852  35.610  1.00  0.00     0.031 A 
ATOM     64  C   UNL A   1      46.045  28.315  34.462  1.00  0.00     0.131 A 
ATOM     65  C   UNL A   1      45.606  26.189  36.180  1.00  0.00     0.055 A 
ATOM     66  C   UNL A   1      47.132  27.608  34.978  1.00  0.00     0.041 A 
ATOM     67  F   UNL A   1      46.304  29.364  33.666  1.00  0.00    -0.206 F 
ATOM     68  C   UNL A   1      46.916  26.550  35.858  1.00  0.00     0.022 A 
BRANCH  65  69
ATOM     69  S   UNL A   1      45.294  24.927  37.446  1.00  0.00     0.124 S 
ATOM     70  O   UNL A   1      45.724  23.708  36.769  1.00  0.00    -0.237 OA
ATOM     71  O   UNL A   1      46.139  25.376  38.547  1.00  0.00    -0.237 OA
ATOM     72  O   UNL A   1      43.856  25.030  37.684  1.00  0.00    -0.744 OA
ENDBRANCH  65  69
ENDBRANCH  39  62
ENDBRANCH  13  14
ENDBRANCH   6   8
ENDBRANCH   3   4
ENDBRANCH   2   3
ENDBRANCH   1   2
BRANCH   1  73
ATOM     73  C   UNL A   1      34.845  29.651  27.884  1.00  0.00     0.002 C 
BRANCH  73  74
ATOM     74  C   UNL A   1      35.142  28.801  26.647  1.00  0.00     0.021 C 
BRANCH  74  75
ATOM     75  C   UNL A   1      33.996  27.908  26.179  1.00  0.00     0.116 C 
BRANCH  75  76
ATOM     76  N   UNL A   1      32.816  28.050  27.003  1.00  0.00    -0.356 N 
ATOM     77  C   UNL A   1      31.627  27.407  27.057  1.00  0.00     0.224 C 
ATOM     78  H   UNL A   1      32.895  28.772  27.667  1.00  0.00     0.163 HD
ATOM     79  O   UNL A   1      30.845  27.836  27.919  1.00  0.00    -0.275 OA
BRANCH  77  80
ATOM     80  C   UNL A   1      31.140  26.302  26.106  1.00  0.00     0.094 C 
ATOM     81  C   UNL A   1      30.790  26.873  24.703  1.00  0.00     0.002 C 
ATOM     82  C   UNL A   1      31.941  24.970  25.981  1.00  0.00     0.094 C 
ATOM     83  C   UNL A   1      32.053  27.103  23.864  1.00  0.00     0.005 C 
ATOM     84  C   UNL A   1      29.927  25.823  23.969  1.00  0.00     0.005 C 
ATOM     85  C   UNL A   1      32.102  24.659  24.452  1.00  0.00     0.002 C 
ATOM     86  C   UNL A   1      32.836  25.798  23.725  1.00  0.00     0.005 C 
ATOM     87  C   UNL A   1      30.713  24.519  23.803  1.00  0.00     0.005 C 
BRANCH  82  88
ATOM     88  C   UNL A   1      31.247  23.803  26.737  1.00  0.00     0.229 C 
ATOM     89  O   UNL A   1      30.108  23.925  27.198  1.00  0.00    -0.274 OA
ATOM     90  N   UNL A   1      31.839  22.573  26.864  1.00  0.00    -0.317 N 
ATOM     91  H   UNL A   1      31.260  21.859  27.215  1.00  0.00     0.170 HD
BRANCH  90  92
ATOM     92  C   UNL A   1      33.132  22.199  26.566  1.00  0.00     0.108 A 
ATOM     93  S   UNL A   1      34.407  23.062  27.279  1.00  0.00    -0.122 S 
ATOM     94  C   UNL A   1      33.546  21.129  25.776  1.00  0.00     0.078 A 
ATOM     95  C   UNL A   1      35.537  22.275  26.298  1.00  0.00     0.011 A 
ATOM     96  C   UNL A   1      34.991  21.213  25.594  1.00  0.00    -0.019 A 
ATOM     97  C   UNL A   1      36.968  22.722  26.247  1.00  0.00     0.047 C 
ATOM     98  C   UNL A   1      35.868  20.379  24.701  1.00  0.00     0.037 C 
ATOM     99  C   UNL A   1      37.633  22.190  24.973  1.00  0.00     0.006 C 
ATOM    100  C   UNL A   1      37.366  20.694  24.819  1.00  0.00     0.005 C 
BRANCH  94 101
ATOM    101  C   UNL A   1      32.541  20.252  25.130  1.00  0.00     0.257 C 
ATOM    102  O   UNL A   1      31.454  20.692  24.744  1.00  0.00    -0.269 OA
ATOM    103  N   UNL A   1      32.913  18.947  24.827  1.00  0.00    -0.339 N 
ATOM    104  C   UNL A   1      32.630  18.488  23.474  1.00  0.00     0.120 C 
ATOM    105  C   UNL A   1      32.745  17.917  25.844  1.00  0.00     0.120 C 
ATOM    106  C   UNL A   1      33.556  17.339  23.100  1.00  0.00     0.022 C 
ATOM    107  C   UNL A   1      33.624  16.700  25.549  1.00  0.00     0.022 C 
ATOM    108  C   UNL A   1      33.453  16.198  24.113  1.00  0.00     0.004 C 
ENDBRANCH  94 101
ENDBRANCH  90  92
ENDBRANCH  82  88
ENDBRANCH  77  80
ENDBRANCH  75  76
ENDBRANCH  74  75
ENDBRANCH  73  74
ENDBRANCH   1  73
TORSDOF 19
ENDMDL
MODEL 2
REMARK VINA RESULT:     -12.8      1.837      2.142
REMARK SMILES O=C(NCCCCCCNC(=O)[C@H]1[C@H]2CC[C@H](CC2)[C@@H]1C(=O)Nc1sc2c(c1C(=O)N1CCCCC1)CCCC2)c1ccc(-c2c3nc(c(-c4cc(S(=O)(=O)[O-])ccc4F)c4ccc([nH]4)c(-c4cc(S(=O)(=O)[O-])ccc4F)c4nc(c(-c5cc(S(=O)(=O)[O-])ccc5F)c5ccc2[nH]5)C=C4)C=C3)cc1
REMARK SMILES IDX 6 1 5 2 4 3 3 4 1 5 2 6 41 8 42 9 103 10 43 11 102 12 44 13
REMARK SMILES IDX 45 14 46 15 96 16 47 17 101 18 95 19 97 20 48 21 100 22
REMARK SMILES IDX 94 23 93 24 49 26 81 27 61 28 80 29 62 30 65 31 79 32 98 33
REMARK SMILES IDX 63 34 64 35 78 37 99 38 66 39 50 40 51 41 59 42 52 43 58 44
REMARK SMILES IDX 60 45 57 46 53 47 54 48 55 49 56 50 82 51 83 52 91 53 84 54
REMARK SMILES IDX 90 55 92 56 89 57 85 58 86 59 87 60 88 61 67 62 68 63 76 64
REMARK SMILES IDX 69 65 75 66 77 67 74 68 70 69 71 70 72 71 73 72 7 73 8 74
REMARK SMILES IDX 9 75 10 76 11 77 12 79 13 80 14 81 20 82 15 83 19 84 17 85
REMARK SMILES IDX 16 86 18 87 21 88 22 89 23 90 24 92 25 93 28 94 26 95 27 96
REMARK SMILES IDX 40 97 37 98 39 99 38 100 29 101 30 102 31 103 32 104 36 105
REMARK SMILES IDX 33 106 35 107 34 108
REMARK H PARENT 3 7 97 25 65 36 10 78 23 91
REMARK Flexibility Score: inf
ROOT
ATOM      1  C   UNL A   1      34.940  31.382  27.584  1.00  0.00     0.002 C 
ENDROOT
BRANCH   1   2
ATOM      2  C   UNL A   1      33.741  32.181  28.096  1.00  0.00     0.021 C 
BRANCH   2   3
ATOM      3  C   UNL A   1      33.796  33.679  27.826  1.00  0.00     0.116 C 
BRANCH   3   4
ATOM      4  N   UNL A   1      33.170  34.463  28.877  1.00  0.00    -0.352 N 
ATOM      5  O   UNL A   1      32.763  35.134  30.994  1.00  0.00    -0.269 OA
ATOM      6  C   UNL A   1      33.496  34.537  30.211  1.00  0.00     0.251 C 
ATOM      7  H   UNL A   1      32.407  35.018  28.596  1.00  0.00     0.163 HD
BRANCH   6   8
ATOM      8  C   UNL A   1      34.728  33.879  30.698  1.00  0.00     0.039 A 
ATOM      9  C   UNL A   1      35.981  34.339  30.286  1.00  0.00     0.014 A 
ATOM     10  C   UNL A   1      34.631  32.790  31.569  1.00  0.00     0.014 A 
ATOM     11  C   UNL A   1      37.121  33.624  30.627  1.00  0.00     0.010 A 
ATOM     12  C   UNL A   1      35.791  32.132  31.991  1.00  0.00     0.010 A 
ATOM     13  C   UNL A   1      37.045  32.530  31.505  1.00  0.00    -0.014 A 
BRANCH  13  14
ATOM     14  C   UNL A   1      38.311  31.890  31.950  1.00  0.00     0.031 A 
ATOM     15  C   UNL A   1      38.961  32.251  33.255  1.00  0.00     0.074 A 
ATOM     16  C   UNL A   1      38.833  30.917  31.175  1.00  0.00     0.049 A 
ATOM     17  N   UNL A   1      40.028  31.734  33.812  1.00  0.00    -0.248 NA
ATOM     18  C   UNL A   1      38.345  33.334  34.034  1.00  0.00     0.031 C 
ATOM     19  C   UNL A   1      38.292  30.503  29.875  1.00  0.00     0.029 A 
ATOM     20  N   UNL A   1      39.900  30.082  31.368  1.00  0.00    -0.354 N 
ATOM     21  C   UNL A   1      40.216  32.428  35.002  1.00  0.00     0.074 A 
ATOM     22  C   UNL A   1      39.172  33.431  35.066  1.00  0.00     0.031 C 
ATOM     23  C   UNL A   1      38.989  29.453  29.423  1.00  0.00     0.029 A 
ATOM     24  C   UNL A   1      40.072  29.166  30.355  1.00  0.00     0.049 A 
ATOM     25  H   UNL A   1      40.489  30.131  32.155  1.00  0.00     0.167 HD
ATOM     26  C   UNL A   1      41.164  32.237  35.954  1.00  0.00     0.034 A 
ATOM     27  C   UNL A   1      41.005  28.211  30.182  1.00  0.00     0.034 A 
ATOM     28  C   UNL A   1      42.204  31.237  35.866  1.00  0.00     0.049 A 
ATOM     29  C   UNL A   1      42.052  28.034  31.247  1.00  0.00     0.074 A 
ATOM     30  C   UNL A   1      43.217  30.962  36.769  1.00  0.00     0.029 A 
ATOM     31  N   UNL A   1      42.368  30.349  34.810  1.00  0.00    -0.354 N 
ATOM     32  N   UNL A   1      42.204  28.696  32.371  1.00  0.00    -0.248 NA
ATOM     33  C   UNL A   1      43.042  26.977  31.025  1.00  0.00     0.031 C 
ATOM     34  C   UNL A   1      44.023  29.949  36.236  1.00  0.00     0.029 A 
ATOM     35  C   UNL A   1      43.474  29.540  35.030  1.00  0.00     0.049 A 
ATOM     36  H   UNL A   1      41.785  30.301  34.017  1.00  0.00     0.167 HD
ATOM     37  C   UNL A   1      43.312  28.130  32.992  1.00  0.00     0.074 A 
ATOM     38  C   UNL A   1      43.755  27.045  32.139  1.00  0.00     0.031 C 
ATOM     39  C   UNL A   1      43.918  28.481  34.156  1.00  0.00     0.034 A 
BRANCH  26  40
ATOM     40  C   UNL A   1      41.134  33.145  37.159  1.00  0.00     0.023 A 
ATOM     41  C   UNL A   1      40.422  32.801  38.321  1.00  0.00     0.031 A 
ATOM     42  C   UNL A   1      41.822  34.372  37.150  1.00  0.00     0.131 A 
ATOM     43  C   UNL A   1      40.365  33.695  39.402  1.00  0.00     0.055 A 
ATOM     44  C   UNL A   1      41.821  35.226  38.254  1.00  0.00     0.041 A 
ATOM     45  F   UNL A   1      42.506  34.763  36.063  1.00  0.00    -0.206 F 
ATOM     46  C   UNL A   1      41.080  34.896  39.385  1.00  0.00     0.022 A 
BRANCH  43  47
ATOM     47  S   UNL A   1      39.253  33.314  40.782  1.00  0.00     0.124 S 
ATOM     48  O   UNL A   1      39.497  34.442  41.678  1.00  0.00    -0.237 OA
ATOM     49  O   UNL A   1      37.945  33.287  40.137  1.00  0.00    -0.237 OA
ATOM     50  O   UNL A   1      39.738  32.023  41.267  1.00  0.00    -0.744 OA
ENDBRANCH  43  47
ENDBRANCH  26  40
BRANCH  27  51
ATOM     51  C   UNL A   1      41.013  27.385  28.941  1.00  0.00     0.023 A 
ATOM     52  C   UNL A   1      41.985  27.570  27.947  1.00  0.00     0.031 A 
ATOM     53  C   UNL A   1      40.019  26.413  28.720  1.00  0.00     0.131 A 
ATOM     54  C   UNL A   1      41.916  26.828  26.758  1.00  0.00     0.055 A 
ATOM     55  C   UNL A   1      39.991  25.635  27.564  1.00  0.00     0.041 A 
ATOM     56  F   UNL A   1      39.068  26.193  29.641  1.00  0.00    -0.206 F 
ATOM     57  C   UNL A   1      40.935  25.851  26.566  1.00  0.00     0.022 A 
BRANCH  54  58
ATOM     58  S   UNL A   1      43.072  27.227  25.418  1.00  0.00     0.124 S 
ATOM     59  O   UNL A   1      44.169  27.853  26.148  1.00  0.00    -0.237 OA
ATOM     60  O   UNL A   1      43.346  25.908  24.856  1.00  0.00    -0.237 OA
ATOM     61  O   UNL A   1      42.302  28.122  24.559  1.00  0.00    -0.744 OA
ENDBRANCH  54  58
ENDBRANCH  27  51
BRANCH  39  62
ATOM     62  C   UNL A   1      45.115  27.657  34.562  1.00  0.00     0.023 A 
ATOM     63  C   UNL A   1      46.415  28.007  34.157  1.00  0.00     0.031 A 
ATOM     64  C   UNL A   1      44.949  26.480  35.312  1.00  0.00     0.131 A 
ATOM     65  C   UNL A   1      47.489  27.148  34.435  1.00  0.00     0.055 A 
ATOM     66  C   UNL A   1      46.031  25.663  35.644  1.00  0.00     0.041 A 
ATOM     67  F   UNL A   1      43.729  26.097  35.722  1.00  0.00    -0.206 F 
ATOM     68  C   UNL A   1      47.307  25.986  35.189  1.00  0.00     0.022 A 
BRANCH  65  69
ATOM     69  S   UNL A   1      49.103  27.508  33.691  1.00  0.00     0.124 S 
ATOM     70  O   UNL A   1      48.868  28.810  33.075  1.00  0.00    -0.237 OA
ATOM     71  O   UNL A   1      49.988  27.503  34.851  1.00  0.00    -0.237 OA
ATOM     72  O   UNL A   1      49.302  26.405  32.754  1.00  0.00    -0.744 OA
ENDBRANCH  65  69
ENDBRANCH  39  62
ENDBRANCH  13  14
ENDBRANCH   6   8
ENDBRANCH   3   4
ENDBRANCH   2   3
ENDBRANCH   1   2
BRANCH   1  73
ATOM     73  C   UNL A   1      34.848  29.861  27.747  1.00  0.00     0.002 C 
BRANCH  73  74
ATOM     74  C   UNL A   1      34.886  29.044  26.455  1.00  0.00     0.021 C 
BRANCH  74  75
ATOM     75  C   UNL A   1      34.023  27.785  26.453  1.00  0.00     0.116 C 
BRANCH  75  76
ATOM     76  N   UNL A   1      32.786  27.966  27.181  1.00  0.00    -0.356 N 
ATOM     77  C   UNL A   1      31.575  27.363  27.138  1.00  0.00     0.224 C 
ATOM     78  H   UNL A   1      32.835  28.685  27.851  1.00  0.00     0.163 HD
ATOM     79  O   UNL A   1      30.742  27.817  27.936  1.00  0.00    -0.275 OA
BRANCH  77  80
ATOM     80  C   UNL A   1      31.130  26.276  26.147  1.00  0.00     0.094 C 
ATOM     81  C   UNL A   1      30.825  26.874  24.745  1.00  0.00     0.002 C 
ATOM     82  C   UNL A   1      31.945  24.951  26.021  1.00  0.00     0.094 C 
ATOM     83  C   UNL A   1      32.115  27.130  23.956  1.00  0.00     0.005 C 
ATOM     84  C   UNL A   1      29.996  25.835  23.959  1.00  0.00     0.005 C 
ATOM     85  C   UNL A   1      32.161  24.674  24.493  1.00  0.00     0.002 C 
ATOM     86  C   UNL A   1      32.912  25.833  23.816  1.00  0.00     0.005 C 
ATOM     87  C   UNL A   1      30.796  24.539  23.793  1.00  0.00     0.005 C 
BRANCH  82  88
ATOM     88  C   UNL A   1      31.233  23.764  26.727  1.00  0.00     0.229 C 
ATOM     89  O   UNL A   1      30.086  23.876  27.172  1.00  0.00    -0.274 OA
ATOM     90  N   UNL A   1      31.818  22.528  26.826  1.00  0.00    -0.317 N 
ATOM     91  H   UNL A   1      31.231  21.806  27.144  1.00  0.00     0.170 HD
BRANCH  90  92
ATOM     92  C   UNL A   1      33.115  22.158  26.540  1.00  0.00     0.108 A 
ATOM     93  S   UNL A   1      34.381  23.041  27.244  1.00  0.00    -0.122 S 
ATOM     94  C   UNL A   1      33.539  21.078  25.768  1.00  0.00     0.078 A 
ATOM     95  C   UNL A   1      35.520  22.247  26.280  1.00  0.00     0.011 A 
ATOM     96  C   UNL A   1      34.985  21.170  25.591  1.00  0.00    -0.019 A 
ATOM     97  C   UNL A   1      36.948  22.702  26.228  1.00  0.00     0.047 C 
ATOM     98  C   UNL A   1      35.871  20.328  24.715  1.00  0.00     0.037 C 
ATOM     99  C   UNL A   1      37.623  22.154  24.966  1.00  0.00     0.006 C 
ATOM    100  C   UNL A   1      37.366  20.655  24.834  1.00  0.00     0.005 C 
BRANCH  94 101
ATOM    101  C   UNL A   1      32.542  20.185  25.133  1.00  0.00     0.257 C 
ATOM    102  O   UNL A   1      31.440  20.604  24.767  1.00  0.00    -0.269 OA
ATOM    103  N   UNL A   1      32.937  18.890  24.813  1.00  0.00    -0.339 N 
ATOM    104  C   UNL A   1      32.643  18.435  23.462  1.00  0.00     0.120 C 
ATOM    105  C   UNL A   1      32.808  17.850  25.826  1.00  0.00     0.120 C 
ATOM    106  C   UNL A   1      33.587  17.308  23.065  1.00  0.00     0.022 C 
ATOM    107  C   UNL A   1      33.708  16.654  25.507  1.00  0.00     0.022 C 
ATOM    108  C   UNL A   1      33.525  16.159  24.071  1.00  0.00     0.004 C 
ENDBRANCH  94 101
ENDBRANCH  90  92
ENDBRANCH  82  88
ENDBRANCH  77  80
ENDBRANCH  75  76
ENDBRANCH  74  75
ENDBRANCH  73  74
ENDBRANCH   1  73
TORSDOF 19
ENDMDL
MODEL 3
REMARK VINA RESULT:     -12.7      5.549     11.054
REMARK SMILES O=C(NCCCCCCNC(=O)[C@H]1[C@H]2CC[C@H](CC2)[C@@H]1C(=O)Nc1sc2c(c1C(=O)N1CCCCC1)CCCC2)c1ccc(-c2c3nc(c(-c4cc(S(=O)(=O)[O-])ccc4F)c4ccc([nH]4)c(-c4cc(S(=O)(=O)[O-])ccc4F)c4nc(c(-c5cc(S(=O)(=O)[O-])ccc5F)c5ccc2[nH]5)C=C4)C=C3)cc1
REMARK SMILES IDX 6 1 5 2 4 3 3 4 1 5 2 6 41 8 42 9 103 10 43 11 102 12 44 13
REMARK SMILES IDX 45 14 46 15 96 16 47 17 101 18 95 19 97 20 48 21 100 22
REMARK SMILES IDX 94 23 93 24 49 26 81 27 61 28 80 29 62 30 65 31 79 32 98 33
REMARK SMILES IDX 63 34 64 35 78 37 99 38 66 39 50 40 51 41 59 42 52 43 58 44
REMARK SMILES IDX 60 45 57 46 53 47 54 48 55 49 56 50 82 51 83 52 91 53 84 54
REMARK SMILES IDX 90 55 92 56 89 57 85 58 86 59 87 60 88 61 67 62 68 63 76 64
REMARK SMILES IDX 69 65 75 66 77 67 74 68 70 69 71 70 72 71 73 72 7 73 8 74
REMARK SMILES IDX 9 75 10 76 11 77 12 79 13 80 14 81 20 82 15 83 19 84 17 85
REMARK SMILES IDX 16 86 18 87 21 88 22 89 23 90 24 92 25 93 28 94 26 95 27 96
REMARK SMILES IDX 40 97 37 98 39 99 38 100 29 101 30 102 31 103 32 104 36 105
REMARK SMILES IDX 33 106 35 107 34 108
REMARK H PARENT 3 7 97 25 65 36 10 78 23 91
REMARK Flexibility Score: inf
ROOT
ATOM      1  C   UNL A   1      39.429  22.557  26.806  1.00  0.00     0.002 C 
ENDROOT
BRANCH   1   2
ATOM      2  C   UNL A   1      39.608  21.241  26.050  1.00  0.00     0.021 C 
BRANCH   2   3
ATOM      3  C   UNL A   1      40.276  20.124  26.840  1.00  0.00     0.116 C 
BRANCH   3   4
ATOM      4  N   UNL A   1      41.339  19.468  26.096  1.00  0.00    -0.352 N 
ATOM      5  O   UNL A   1      43.242  19.335  24.889  1.00  0.00    -0.269 OA
ATOM      6  C   UNL A   1      42.524  19.993  25.637  1.00  0.00     0.251 C 
ATOM      7  H   UNL A   1      41.190  18.516  25.892  1.00  0.00     0.163 HD
BRANCH   6   8
ATOM      8  C   UNL A   1      42.919  21.361  26.038  1.00  0.00     0.039 A 
ATOM      9  C   UNL A   1      43.207  21.646  27.375  1.00  0.00     0.014 A 
ATOM     10  C   UNL A   1      42.999  22.367  25.071  1.00  0.00     0.014 A 
ATOM     11  C   UNL A   1      43.429  22.960  27.764  1.00  0.00     0.010 A 
ATOM     12  C   UNL A   1      43.323  23.674  25.454  1.00  0.00     0.010 A 
ATOM     13  C   UNL A   1      43.518  23.986  26.807  1.00  0.00    -0.014 A 
BRANCH  13  14
ATOM     14  C   UNL A   1      43.900  25.348  27.263  1.00  0.00     0.031 A 
ATOM     15  C   UNL A   1      45.311  25.850  27.150  1.00  0.00     0.074 A 
ATOM     16  C   UNL A   1      42.923  26.156  27.725  1.00  0.00     0.049 A 
ATOM     17  N   UNL A   1      45.786  27.035  27.442  1.00  0.00    -0.248 NA
ATOM     18  C   UNL A   1      46.322  24.905  26.658  1.00  0.00     0.031 C 
ATOM     19  C   UNL A   1      41.521  25.759  27.896  1.00  0.00     0.029 A 
ATOM     20  N   UNL A   1      42.941  27.472  28.102  1.00  0.00    -0.354 N 
ATOM     21  C   UNL A   1      47.149  26.981  27.173  1.00  0.00     0.074 A 
ATOM     22  C   UNL A   1      47.431  25.629  26.731  1.00  0.00     0.031 C 
ATOM     23  C   UNL A   1      40.806  26.825  28.279  1.00  0.00     0.029 A 
ATOM     24  C   UNL A   1      41.704  27.958  28.458  1.00  0.00     0.049 A 
ATOM     25  H   UNL A   1      43.760  28.018  28.118  1.00  0.00     0.167 HD
ATOM     26  C   UNL A   1      48.074  27.969  27.275  1.00  0.00     0.034 A 
ATOM     27  C   UNL A   1      41.332  29.176  28.895  1.00  0.00     0.034 A 
ATOM     28  C   UNL A   1      47.774  29.308  27.728  1.00  0.00     0.049 A 
ATOM     29  C   UNL A   1      42.381  30.246  29.013  1.00  0.00     0.074 A 
ATOM     30  C   UNL A   1      48.635  30.383  27.875  1.00  0.00     0.029 A 
ATOM     31  N   UNL A   1      46.517  29.758  28.113  1.00  0.00    -0.354 N 
ATOM     32  N   UNL A   1      43.664  30.174  28.743  1.00  0.00    -0.248 NA
ATOM     33  C   UNL A   1      41.931  31.559  29.483  1.00  0.00     0.031 C 
ATOM     34  C   UNL A   1      47.911  31.462  28.398  1.00  0.00     0.029 A 
ATOM     35  C   UNL A   1      46.582  31.085  28.513  1.00  0.00     0.049 A 
ATOM     36  H   UNL A   1      45.697  29.212  28.104  1.00  0.00     0.167 HD
ATOM     37  C   UNL A   1      44.175  31.439  29.010  1.00  0.00     0.074 A 
ATOM     38  C   UNL A   1      43.052  32.261  29.415  1.00  0.00     0.031 C 
ATOM     39  C   UNL A   1      45.457  31.882  28.940  1.00  0.00     0.034 A 
BRANCH  26  40
ATOM     40  C   UNL A   1      49.500  27.629  26.915  1.00  0.00     0.023 A 
ATOM     41  C   UNL A   1      49.997  27.830  25.616  1.00  0.00     0.031 A 
ATOM     42  C   UNL A   1      50.375  27.094  27.878  1.00  0.00     0.131 A 
ATOM     43  C   UNL A   1      51.310  27.448  25.299  1.00  0.00     0.055 A 
ATOM     44  C   UNL A   1      51.701  26.781  27.576  1.00  0.00     0.041 A 
ATOM     45  F   UNL A   1      49.952  26.864  29.131  1.00  0.00    -0.206 F 
ATOM     46  C   UNL A   1      52.174  26.946  26.277  1.00  0.00     0.022 A 
BRANCH  43  47
ATOM     47  S   UNL A   1      51.835  27.512  23.564  1.00  0.00     0.124 S 
ATOM     48  O   UNL A   1      52.160  28.928  23.407  1.00  0.00    -0.237 OA
ATOM     49  O   UNL A   1      52.967  26.595  23.541  1.00  0.00    -0.237 OA
ATOM     50  O   UNL A   1      50.652  27.065  22.832  1.00  0.00    -0.744 OA
ENDBRANCH  43  47
ENDBRANCH  26  40
BRANCH  27  51
ATOM     51  C   UNL A   1      39.916  29.431  29.289  1.00  0.00     0.023 A 
ATOM     52  C   UNL A   1      39.531  29.479  30.637  1.00  0.00     0.031 A 
ATOM     53  C   UNL A   1      38.919  29.599  28.310  1.00  0.00     0.131 A 
ATOM     54  C   UNL A   1      38.177  29.644  30.970  1.00  0.00     0.055 A 
ATOM     55  C   UNL A   1      37.584  29.825  28.647  1.00  0.00     0.041 A 
ATOM     56  F   UNL A   1      39.233  29.566  27.006  1.00  0.00    -0.206 F 
ATOM     57  C   UNL A   1      37.204  29.833  29.985  1.00  0.00     0.022 A 
BRANCH  54  58
ATOM     58  S   UNL A   1      37.690  29.510  32.711  1.00  0.00     0.124 S 
ATOM     59  O   UNL A   1      37.541  28.068  32.871  1.00  0.00    -0.237 OA
ATOM     60  O   UNL A   1      38.832  30.115  33.390  1.00  0.00    -0.237 OA
ATOM     61  O   UNL A   1      36.449  30.277  32.777  1.00  0.00    -0.744 OA
ENDBRANCH  54  58
ENDBRANCH  27  51
BRANCH  39  62
ATOM     62  C   UNL A   1      45.687  33.329  29.299  1.00  0.00     0.023 A 
ATOM     63  C   UNL A   1      45.564  34.349  28.338  1.00  0.00     0.031 A 
ATOM     64  C   UNL A   1      46.088  33.686  30.597  1.00  0.00     0.131 A 
ATOM     65  C   UNL A   1      45.917  35.666  28.669  1.00  0.00     0.055 A 
ATOM     66  C   UNL A   1      46.373  35.009  30.938  1.00  0.00     0.041 A 
ATOM     67  F   UNL A   1      46.224  32.753  31.552  1.00  0.00    -0.206 F 
ATOM     68  C   UNL A   1      46.306  36.005  29.967  1.00  0.00     0.022 A 
BRANCH  65  69
ATOM     69  S   UNL A   1      45.979  36.905  27.346  1.00  0.00     0.124 S 
ATOM     70  O   UNL A   1      46.774  37.964  27.961  1.00  0.00    -0.237 OA
ATOM     71  O   UNL A   1      46.625  36.172  26.263  1.00  0.00    -0.237 OA
ATOM     72  O   UNL A   1      44.574  37.235  27.121  1.00  0.00    -0.744 OA
ENDBRANCH  65  69
ENDBRANCH  39  62
ENDBRANCH  13  14
ENDBRANCH   6   8
ENDBRANCH   3   4
ENDBRANCH   2   3
ENDBRANCH   1   2
BRANCH   1  73
ATOM     73  C   UNL A   1      38.726  23.681  26.037  1.00  0.00     0.002 C 
BRANCH  73  74
ATOM     74  C   UNL A   1      37.410  24.182  26.634  1.00  0.00     0.021 C 
BRANCH  74  75
ATOM     75  C   UNL A   1      36.189  24.050  25.727  1.00  0.00     0.116 C 
BRANCH  75  76
ATOM     76  N   UNL A   1      36.526  23.512  24.427  1.00  0.00    -0.356 N 
ATOM     77  C   UNL A   1      35.820  23.279  23.297  1.00  0.00     0.224 C 
ATOM     78  H   UNL A   1      37.474  23.259  24.349  1.00  0.00     0.163 HD
ATOM     79  O   UNL A   1      36.477  22.787  22.368  1.00  0.00    -0.275 OA
BRANCH  77  80
ATOM     80  C   UNL A   1      34.306  23.466  23.109  1.00  0.00     0.094 C 
ATOM     81  C   UNL A   1      33.500  22.358  23.843  1.00  0.00     0.002 C 
ATOM     82  C   UNL A   1      33.658  24.867  23.335  1.00  0.00     0.094 C 
ATOM     83  C   UNL A   1      33.396  22.647  25.345  1.00  0.00     0.005 C 
ATOM     84  C   UNL A   1      32.067  22.358  23.268  1.00  0.00     0.005 C 
ATOM     85  C   UNL A   1      32.385  24.659  24.228  1.00  0.00     0.002 C 
ATOM     86  C   UNL A   1      32.749  24.012  25.575  1.00  0.00     0.005 C 
ATOM     87  C   UNL A   1      31.401  23.715  23.514  1.00  0.00     0.005 C 
BRANCH  82  88
ATOM     88  C   UNL A   1      33.311  25.569  21.992  1.00  0.00     0.229 C 
ATOM     89  O   UNL A   1      33.382  24.966  20.916  1.00  0.00    -0.274 OA
ATOM     90  N   UNL A   1      32.849  26.858  21.951  1.00  0.00    -0.317 N 
ATOM     91  H   UNL A   1      32.508  27.158  21.078  1.00  0.00     0.170 HD
BRANCH  90  92
ATOM     92  C   UNL A   1      32.795  27.793  22.963  1.00  0.00     0.108 A 
ATOM     93  S   UNL A   1      34.218  28.136  23.822  1.00  0.00    -0.122 S 
ATOM     94  C   UNL A   1      31.701  28.564  23.350  1.00  0.00     0.078 A 
ATOM     95  C   UNL A   1      33.358  29.053  24.953  1.00  0.00     0.011 A 
ATOM     96  C   UNL A   1      32.046  29.286  24.570  1.00  0.00    -0.019 A 
ATOM     97  C   UNL A   1      34.007  29.542  26.213  1.00  0.00     0.047 C 
ATOM     98  C   UNL A   1      31.150  30.119  25.444  1.00  0.00     0.037 C 
ATOM     99  C   UNL A   1      32.932  29.902  27.245  1.00  0.00     0.006 C 
ATOM    100  C   UNL A   1      31.871  30.801  26.616  1.00  0.00     0.005 C 
BRANCH  94 101
ATOM    101  C   UNL A   1      30.403  28.410  22.652  1.00  0.00     0.257 C 
ATOM    102  O   UNL A   1      30.034  27.319  22.208  1.00  0.00    -0.269 OA
ATOM    103  N   UNL A   1      29.534  29.496  22.646  1.00  0.00    -0.339 N 
ATOM    104  C   UNL A   1      28.156  29.228  23.034  1.00  0.00     0.120 C 
ATOM    105  C   UNL A   1      29.665  30.491  21.589  1.00  0.00     0.120 C 
ATOM    106  C   UNL A   1      27.490  30.502  23.536  1.00  0.00     0.022 C 
ATOM    107  C   UNL A   1      29.005  31.813  21.988  1.00  0.00     0.022 C 
ATOM    108  C   UNL A   1      27.574  31.615  22.491  1.00  0.00     0.004 C 
ENDBRANCH  94 101
ENDBRANCH  90  92
ENDBRANCH  82  88
ENDBRANCH  77  80
ENDBRANCH  75  76
ENDBRANCH  74  75
ENDBRANCH  73  74
ENDBRANCH   1  73
TORSDOF 19
ENDMDL
