MODEL 1
REMARK VINA RESULT:     -12.1      0.000      0.000
REMARK SMILES O=C(Nc1ccc2c(c1)OCO2)N[C@H]1C=C[C@@H](C(=O)NCCCCCCNC(=O)c2ccc(-c3c4nc(c(-c5cc(S(=O)(=O)[O-])ccc5F)c5ccc([nH]5)c(-c5cc(S(=O)(=O)[O-])ccc5F)c5nc(c(-c6cc(S(=O)(=O)[O-])ccc6F)c6ccc3[nH]6)C=C5)C=C4)cc2)C1
REMARK SMILES IDX 24 1 23 2 22 3 21 4 20 5 18 6 19 7 17 9 14 10 15 11 93 12
REMARK SMILES IDX 16 13 13 14 1 15 2 16 3 17 4 20 5 21 9 22 6 23 8 24 7 25
REMARK SMILES IDX 10 26 12 27 11 28 25 29 26 30 27 31 28 32 29 34 30 35 31 36
REMARK SMILES IDX 92 37 32 38 91 39 33 40 34 41 35 42 85 43 36 44 90 45 84 46
REMARK SMILES IDX 86 47 37 48 89 49 83 50 82 51 38 53 70 54 50 55 69 56 51 57
REMARK SMILES IDX 54 58 68 59 87 60 52 61 53 62 67 64 88 65 55 66 39 67 40 68
REMARK SMILES IDX 48 69 41 70 47 71 49 72 46 73 42 74 43 75 44 76 45 77 71 78
REMARK SMILES IDX 72 79 80 80 73 81 79 82 81 83 78 84 74 85 75 86 76 87 77 88
REMARK SMILES IDX 56 89 57 90 65 91 58 92 64 93 66 94 63 95 59 96 60 97 61 98
REMARK SMILES IDX 62 99
REMARK H PARENT 20 8 3 18 13 19 27 33 86 52 54 63
REMARK Flexibility Score: inf
ROOT
ATOM      1  C   UNL A   1      33.821  28.725  25.307  1.00  0.00     0.002 C 
ENDROOT
BRANCH   1   2
ATOM      2  C   UNL A   1      34.026  27.981  23.982  1.00  0.00     0.002 C 
BRANCH   2   3
ATOM      3  C   UNL A   1      33.776  26.471  24.053  1.00  0.00     0.021 C 
BRANCH   3   4
ATOM      4  C   UNL A   1      33.032  25.915  22.839  1.00  0.00     0.116 C 
BRANCH   4   5
ATOM      5  N   UNL A   1      32.180  26.939  22.270  1.00  0.00    -0.356 N 
ATOM      6  C   UNL A   1      30.874  27.238  22.496  1.00  0.00     0.227 C 
ATOM      7  O   UNL A   1      30.372  28.125  21.797  1.00  0.00    -0.274 OA
ATOM      8  H   UNL A   1      32.622  27.516  21.606  1.00  0.00     0.163 HD
BRANCH   6   9
ATOM      9  C   UNL A   1      30.053  26.584  23.608  1.00  0.00     0.103 C 
ATOM     10  C   UNL A   1      30.405  24.987  25.456  1.00  0.00     0.107 C 
ATOM     11  C   UNL A   1      30.501  26.412  25.901  1.00  0.00    -0.006 C 
ATOM     12  C   UNL A   1      30.307  25.101  23.919  1.00  0.00     0.047 C 
ATOM     13  C   UNL A   1      30.291  27.281  24.910  1.00  0.00    -0.016 C 
BRANCH  10  14
ATOM     14  N   UNL A   1      31.553  24.222  25.903  1.00  0.00    -0.332 N 
ATOM     15  O   UNL A   1      30.400  23.057  27.490  1.00  0.00    -0.248 OA
ATOM     16  C   UNL A   1      31.442  23.267  26.871  1.00  0.00     0.319 C 
ATOM     17  N   UNL A   1      32.501  22.441  27.085  1.00  0.00    -0.308 N 
ATOM     18  H   UNL A   1      32.294  21.691  27.690  1.00  0.00     0.171 HD
ATOM     19  H   UNL A   1      32.433  24.396  25.498  1.00  0.00     0.165 HD
BRANCH  17  20
ATOM     20  C   UNL A   1      33.827  22.433  26.627  1.00  0.00     0.046 A 
ATOM     21  C   UNL A   1      34.660  23.566  26.613  1.00  0.00     0.030 A 
ATOM     22  C   UNL A   1      34.323  21.202  26.176  1.00  0.00     0.076 A 
ATOM     23  C   UNL A   1      35.955  23.498  26.083  1.00  0.00     0.053 A 
ATOM     24  C   UNL A   1      35.590  21.171  25.633  1.00  0.00     0.167 A 
ATOM     25  C   UNL A   1      36.383  22.289  25.580  1.00  0.00     0.165 A 
ATOM     26  O   UNL A   1      36.183  20.084  25.074  1.00  0.00    -0.454 OA
ATOM     27  O   UNL A   1      37.581  22.047  24.987  1.00  0.00    -0.454 OA
ATOM     28  C   UNL A   1      37.435  20.652  24.632  1.00  0.00     0.468 C 
ENDBRANCH  17  20
ENDBRANCH  10  14
ENDBRANCH   6   9
ENDBRANCH   4   5
ENDBRANCH   3   4
ENDBRANCH   2   3
ENDBRANCH   1   2
BRANCH   1  29
ATOM     29  C   UNL A   1      32.641  29.701  25.323  1.00  0.00     0.021 C 
BRANCH  29  30
ATOM     30  C   UNL A   1      32.230  30.173  26.714  1.00  0.00     0.116 C 
BRANCH  30  31
ATOM     31  N   UNL A   1      32.123  31.620  26.784  1.00  0.00    -0.352 N 
ATOM     32  C   UNL A   1      32.936  32.521  27.425  1.00  0.00     0.251 C 
ATOM     33  H   UNL A   1      31.359  32.011  26.301  1.00  0.00     0.163 HD
ATOM     34  O   UNL A   1      32.564  33.684  27.564  1.00  0.00    -0.269 OA
BRANCH  32  35
ATOM     35  C   UNL A   1      34.239  32.081  27.965  1.00  0.00     0.039 A 
ATOM     36  C   UNL A   1      35.285  33.004  28.043  1.00  0.00     0.014 A 
ATOM     37  C   UNL A   1      34.430  30.763  28.395  1.00  0.00     0.014 A 
ATOM     38  C   UNL A   1      36.501  32.623  28.613  1.00  0.00     0.010 A 
ATOM     39  C   UNL A   1      35.616  30.407  29.031  1.00  0.00     0.010 A 
ATOM     40  C   UNL A   1      36.663  31.334  29.149  1.00  0.00    -0.014 A 
BRANCH  40  41
ATOM     41  C   UNL A   1      37.918  30.947  29.847  1.00  0.00     0.031 A 
ATOM     42  C   UNL A   1      38.898  30.019  29.184  1.00  0.00     0.074 A 
ATOM     43  C   UNL A   1      38.142  31.389  31.100  1.00  0.00     0.049 A 
ATOM     44  N   UNL A   1      40.006  29.509  29.660  1.00  0.00    -0.248 NA
ATOM     45  C   UNL A   1      38.578  29.588  27.817  1.00  0.00     0.031 C 
ATOM     46  C   UNL A   1      37.248  32.269  31.857  1.00  0.00     0.029 A 
ATOM     47  N   UNL A   1      39.184  31.157  31.964  1.00  0.00    -0.354 N 
ATOM     48  C   UNL A   1      40.512  28.694  28.654  1.00  0.00     0.074 A 
ATOM     49  C   UNL A   1      39.556  28.730  27.567  1.00  0.00     0.031 C 
ATOM     50  C   UNL A   1      37.792  32.523  33.057  1.00  0.00     0.029 A 
ATOM     51  C   UNL A   1      39.043  31.781  33.182  1.00  0.00     0.049 A 
ATOM     52  H   UNL A   1      39.960  30.596  31.732  1.00  0.00     0.167 HD
ATOM     53  C   UNL A   1      41.676  27.999  28.633  1.00  0.00     0.034 A 
ATOM     54  C   UNL A   1      39.820  31.745  34.282  1.00  0.00     0.034 A 
ATOM     55  C   UNL A   1      42.618  27.978  29.726  1.00  0.00     0.049 A 
ATOM     56  C   UNL A   1      41.084  30.922  34.252  1.00  0.00     0.074 A 
ATOM     57  C   UNL A   1      43.849  27.346  29.791  1.00  0.00     0.029 A 
ATOM     58  N   UNL A   1      42.434  28.607  30.951  1.00  0.00    -0.354 N 
ATOM     59  N   UNL A   1      41.571  30.192  33.274  1.00  0.00    -0.248 NA
ATOM     60  C   UNL A   1      41.906  30.927  35.467  1.00  0.00     0.031 C 
ATOM     61  C   UNL A   1      44.367  27.522  31.078  1.00  0.00     0.029 A 
ATOM     62  C   UNL A   1      43.507  28.342  31.791  1.00  0.00     0.049 A 
ATOM     63  H   UNL A   1      41.655  29.160  31.189  1.00  0.00     0.167 HD
ATOM     64  C   UNL A   1      42.775  29.677  33.751  1.00  0.00     0.074 A 
ATOM     65  C   UNL A   1      42.944  30.195  35.092  1.00  0.00     0.031 C 
ATOM     66  C   UNL A   1      43.661  28.853  33.133  1.00  0.00     0.034 A 
BRANCH  53  67
ATOM     67  C   UNL A   1      41.976  27.178  27.400  1.00  0.00     0.023 A 
ATOM     68  C   UNL A   1      41.730  25.795  27.351  1.00  0.00     0.031 A 
ATOM     69  C   UNL A   1      42.531  27.785  26.258  1.00  0.00     0.131 A 
ATOM     70  C   UNL A   1      42.105  25.053  26.221  1.00  0.00     0.055 A 
ATOM     71  C   UNL A   1      42.822  27.057  25.103  1.00  0.00     0.041 A 
ATOM     72  F   UNL A   1      42.814  29.097  26.251  1.00  0.00    -0.206 F 
ATOM     73  C   UNL A   1      42.624  25.679  25.085  1.00  0.00     0.022 A 
BRANCH  70  74
ATOM     74  S   UNL A   1      42.049  23.243  26.314  1.00  0.00     0.124 S 
ATOM     75  O   UNL A   1      42.639  22.864  25.032  1.00  0.00    -0.237 OA
ATOM     76  O   UNL A   1      42.855  22.963  27.497  1.00  0.00    -0.237 OA
ATOM     77  O   UNL A   1      40.623  22.951  26.446  1.00  0.00    -0.744 OA
ENDBRANCH  70  74
ENDBRANCH  53  67
BRANCH  54  78
ATOM     78  C   UNL A   1      39.424  32.488  35.514  1.00  0.00     0.023 A 
ATOM     79  C   UNL A   1      38.701  31.857  36.539  1.00  0.00     0.031 A 
ATOM     80  C   UNL A   1      39.720  33.855  35.664  1.00  0.00     0.131 A 
ATOM     81  C   UNL A   1      38.254  32.601  37.642  1.00  0.00     0.055 A 
ATOM     82  C   UNL A   1      39.327  34.576  36.792  1.00  0.00     0.041 A 
ATOM     83  F   UNL A   1      40.409  34.508  34.715  1.00  0.00    -0.206 F 
ATOM     84  C   UNL A   1      38.577  33.953  37.783  1.00  0.00     0.022 A 
BRANCH  81  85
ATOM     85  S   UNL A   1      37.156  31.800  38.843  1.00  0.00     0.124 S 
ATOM     86  O   UNL A   1      35.962  32.632  38.753  1.00  0.00    -0.237 OA
ATOM     87  O   UNL A   1      37.044  30.452  38.297  1.00  0.00    -0.237 OA
ATOM     88  O   UNL A   1      37.896  31.902  40.099  1.00  0.00    -0.744 OA
ENDBRANCH  81  85
ENDBRANCH  54  78
BRANCH  66  89
ATOM     89  C   UNL A   1      44.917  28.501  33.894  1.00  0.00     0.023 A 
ATOM     90  C   UNL A   1      44.995  27.358  34.710  1.00  0.00     0.031 A 
ATOM     91  C   UNL A   1      46.049  29.331  33.811  1.00  0.00     0.131 A 
ATOM     92  C   UNL A   1      46.157  27.110  35.457  1.00  0.00     0.055 A 
ATOM     93  C   UNL A   1      47.227  29.041  34.503  1.00  0.00     0.041 A 
ATOM     94  F   UNL A   1      46.032  30.438  33.052  1.00  0.00    -0.206 F 
ATOM     95  C   UNL A   1      47.280  27.933  35.343  1.00  0.00     0.022 A 
BRANCH  92  96
ATOM     96  S   UNL A   1      46.144  25.754  36.661  1.00  0.00     0.124 S 
ATOM     97  O   UNL A   1      47.009  24.770  36.019  1.00  0.00    -0.237 OA
ATOM     98  O   UNL A   1      46.685  26.393  37.857  1.00  0.00    -0.237 OA
ATOM     99  O   UNL A   1      44.733  25.381  36.742  1.00  0.00    -0.744 OA
ENDBRANCH  92  96
ENDBRANCH  66  89
ENDBRANCH  40  41
ENDBRANCH  32  35
ENDBRANCH  30  31
ENDBRANCH  29  30
ENDBRANCH   1  29
TORSDOF 18
ENDMDL
MODEL 2
REMARK VINA RESULT:     -12.1      2.081      7.630
REMARK SMILES O=C(Nc1ccc2c(c1)OCO2)N[C@H]1C=C[C@@H](C(=O)NCCCCCCNC(=O)c2ccc(-c3c4nc(c(-c5cc(S(=O)(=O)[O-])ccc5F)c5ccc([nH]5)c(-c5cc(S(=O)(=O)[O-])ccc5F)c5nc(c(-c6cc(S(=O)(=O)[O-])ccc6F)c6ccc3[nH]6)C=C5)C=C4)cc2)C1
REMARK SMILES IDX 24 1 23 2 22 3 21 4 20 5 18 6 19 7 17 9 14 10 15 11 93 12
REMARK SMILES IDX 16 13 13 14 1 15 2 16 3 17 4 20 5 21 9 22 6 23 8 24 7 25
REMARK SMILES IDX 10 26 12 27 11 28 25 29 26 30 27 31 28 32 29 34 30 35 31 36
REMARK SMILES IDX 92 37 32 38 91 39 33 40 34 41 35 42 85 43 36 44 90 45 84 46
REMARK SMILES IDX 86 47 37 48 89 49 83 50 82 51 38 53 70 54 50 55 69 56 51 57
REMARK SMILES IDX 54 58 68 59 87 60 52 61 53 62 67 64 88 65 55 66 39 67 40 68
REMARK SMILES IDX 48 69 41 70 47 71 49 72 46 73 42 74 43 75 44 76 45 77 71 78
REMARK SMILES IDX 72 79 80 80 73 81 79 82 81 83 78 84 74 85 75 86 76 87 77 88
REMARK SMILES IDX 56 89 57 90 65 91 58 92 64 93 66 94 63 95 59 96 60 97 61 98
REMARK SMILES IDX 62 99
REMARK H PARENT 20 8 3 18 13 19 27 33 86 52 54 63
REMARK Flexibility Score: inf
ROOT
ATOM      1  C   UNL A   1      33.999  26.578  26.087  1.00  0.00     0.002 C 
ENDROOT
BRANCH   1   2
ATOM      2  C   UNL A   1      34.046  25.909  24.708  1.00  0.00     0.002 C 
BRANCH   2   3
ATOM      3  C   UNL A   1      33.623  26.813  23.545  1.00  0.00     0.021 C 
BRANCH   3   4
ATOM      4  C   UNL A   1      32.482  26.238  22.706  1.00  0.00     0.116 C 
BRANCH   4   5
ATOM      5  N   UNL A   1      31.716  27.313  22.109  1.00  0.00    -0.356 N 
ATOM      6  C   UNL A   1      30.512  27.843  22.447  1.00  0.00     0.227 C 
ATOM      7  O   UNL A   1      30.051  28.713  21.700  1.00  0.00    -0.274 OA
ATOM      8  H   UNL A   1      32.141  27.732  21.326  1.00  0.00     0.163 HD
BRANCH   6   9
ATOM      9  C   UNL A   1      29.768  27.462  23.728  1.00  0.00     0.103 C 
ATOM     10  C   UNL A   1      29.919  25.755  25.504  1.00  0.00     0.107 C 
ATOM     11  C   UNL A   1      30.598  27.034  25.876  1.00  0.00    -0.006 C 
ATOM     12  C   UNL A   1      29.546  25.970  24.020  1.00  0.00     0.047 C 
ATOM     13  C   UNL A   1      30.503  27.969  24.928  1.00  0.00    -0.016 C 
BRANCH  10  14
ATOM     14  N   UNL A   1      30.793  24.618  25.717  1.00  0.00    -0.332 N 
ATOM     15  O   UNL A   1      29.500  23.685  27.348  1.00  0.00    -0.248 OA
ATOM     16  C   UNL A   1      30.480  23.633  26.607  1.00  0.00     0.319 C 
ATOM     17  N   UNL A   1      31.226  22.496  26.598  1.00  0.00    -0.308 N 
ATOM     18  H   UNL A   1      30.850  21.780  27.161  1.00  0.00     0.171 HD
ATOM     19  H   UNL A   1      31.633  24.556  25.206  1.00  0.00     0.165 HD
BRANCH  17  20
ATOM     20  C   UNL A   1      32.418  22.128  25.957  1.00  0.00     0.046 A 
ATOM     21  C   UNL A   1      32.488  21.191  24.910  1.00  0.00     0.030 A 
ATOM     22  C   UNL A   1      33.587  22.761  26.400  1.00  0.00     0.076 A 
ATOM     23  C   UNL A   1      33.722  20.825  24.357  1.00  0.00     0.053 A 
ATOM     24  C   UNL A   1      34.790  22.360  25.858  1.00  0.00     0.167 A 
ATOM     25  C   UNL A   1      34.858  21.412  24.869  1.00  0.00     0.165 A 
ATOM     26  O   UNL A   1      36.015  22.808  26.238  1.00  0.00    -0.454 OA
ATOM     27  O   UNL A   1      36.137  21.148  24.493  1.00  0.00    -0.454 OA
ATOM     28  C   UNL A   1      36.871  22.010  25.393  1.00  0.00     0.468 C 
ENDBRANCH  17  20
ENDBRANCH  10  14
ENDBRANCH   6   9
ENDBRANCH   4   5
ENDBRANCH   3   4
ENDBRANCH   2   3
ENDBRANCH   1   2
BRANCH   1  29
ATOM     29  C   UNL A   1      34.053  28.109  26.063  1.00  0.00     0.021 C 
BRANCH  29  30
ATOM     30  C   UNL A   1      33.553  28.778  27.340  1.00  0.00     0.116 C 
BRANCH  30  31
ATOM     31  N   UNL A   1      33.536  30.226  27.220  1.00  0.00    -0.352 N 
ATOM     32  C   UNL A   1      34.399  31.151  27.751  1.00  0.00     0.251 C 
ATOM     33  H   UNL A   1      32.801  30.596  26.679  1.00  0.00     0.163 HD
ATOM     34  O   UNL A   1      34.099  32.344  27.732  1.00  0.00    -0.269 OA
BRANCH  32  35
ATOM     35  C   UNL A   1      35.669  30.707  28.362  1.00  0.00     0.039 A 
ATOM     36  C   UNL A   1      35.629  29.775  29.402  1.00  0.00     0.014 A 
ATOM     37  C   UNL A   1      36.896  31.207  27.911  1.00  0.00     0.014 A 
ATOM     38  C   UNL A   1      36.822  29.294  29.944  1.00  0.00     0.010 A 
ATOM     39  C   UNL A   1      38.083  30.671  28.401  1.00  0.00     0.010 A 
ATOM     40  C   UNL A   1      38.059  29.707  29.421  1.00  0.00    -0.014 A 
BRANCH  40  41
ATOM     41  C   UNL A   1      39.335  29.129  29.922  1.00  0.00     0.031 A 
ATOM     42  C   UNL A   1      40.046  29.760  31.087  1.00  0.00     0.074 A 
ATOM     43  C   UNL A   1      39.876  28.070  29.288  1.00  0.00     0.049 A 
ATOM     44  N   UNL A   1      41.201  29.448  31.617  1.00  0.00    -0.248 NA
ATOM     45  C   UNL A   1      39.385  30.908  31.721  1.00  0.00     0.031 C 
ATOM     46  C   UNL A   1      39.291  27.392  28.128  1.00  0.00     0.029 A 
ATOM     47  N   UNL A   1      41.039  27.379  29.522  1.00  0.00    -0.354 N 
ATOM     48  C   UNL A   1      41.407  30.363  32.644  1.00  0.00     0.074 A 
ATOM     49  C   UNL A   1      40.286  31.279  32.617  1.00  0.00     0.031 C 
ATOM     50  C   UNL A   1      40.084  26.370  27.770  1.00  0.00     0.029 A 
ATOM     51  C   UNL A   1      41.260  26.351  28.634  1.00  0.00     0.049 A 
ATOM     52  H   UNL A   1      41.657  27.599  30.256  1.00  0.00     0.167 HD
ATOM     53  C   UNL A   1      42.427  30.418  33.537  1.00  0.00     0.034 A 
ATOM     54  C   UNL A   1      42.300  25.502  28.516  1.00  0.00     0.034 A 
ATOM     55  C   UNL A   1      43.534  29.492  33.549  1.00  0.00     0.049 A 
ATOM     56  C   UNL A   1      43.446  25.618  29.489  1.00  0.00     0.074 A 
ATOM     57  C   UNL A   1      44.594  29.430  34.437  1.00  0.00     0.029 A 
ATOM     58  N   UNL A   1      43.734  28.475  32.624  1.00  0.00    -0.354 N 
ATOM     59  N   UNL A   1      43.604  26.461  30.484  1.00  0.00    -0.248 NA
ATOM     60  C   UNL A   1      44.548  24.661  29.331  1.00  0.00     0.031 C 
ATOM     61  C   UNL A   1      45.474  28.433  34.002  1.00  0.00     0.029 A 
ATOM     62  C   UNL A   1      44.921  27.809  32.896  1.00  0.00     0.049 A 
ATOM     63  H   UNL A   1      43.124  28.259  31.882  1.00  0.00     0.167 HD
ATOM     64  C   UNL A   1      44.810  26.113  31.087  1.00  0.00     0.074 A 
ATOM     65  C   UNL A   1      45.325  24.974  30.356  1.00  0.00     0.031 C 
ATOM     66  C   UNL A   1      45.433  26.681  32.152  1.00  0.00     0.034 A 
BRANCH  53  67
ATOM     67  C   UNL A   1      42.404  31.537  34.553  1.00  0.00     0.023 A 
ATOM     68  C   UNL A   1      41.490  31.550  35.621  1.00  0.00     0.031 A 
ATOM     69  C   UNL A   1      43.300  32.616  34.444  1.00  0.00     0.131 A 
ATOM     70  C   UNL A   1      41.441  32.651  36.490  1.00  0.00     0.055 A 
ATOM     71  C   UNL A   1      43.305  33.667  35.363  1.00  0.00     0.041 A 
ATOM     72  F   UNL A   1      44.179  32.675  33.431  1.00  0.00    -0.206 F 
ATOM     73  C   UNL A   1      42.361  33.696  36.386  1.00  0.00     0.022 A 
BRANCH  70  74
ATOM     74  S   UNL A   1      40.062  32.769  37.661  1.00  0.00     0.124 S 
ATOM     75  O   UNL A   1      39.552  34.110  37.382  1.00  0.00    -0.237 OA
ATOM     76  O   UNL A   1      39.205  31.662  37.252  1.00  0.00    -0.237 OA
ATOM     77  O   UNL A   1      40.704  32.614  38.965  1.00  0.00    -0.744 OA
ENDBRANCH  70  74
ENDBRANCH  53  67
BRANCH  54  78
ATOM     78  C   UNL A   1      42.325  24.483  27.426  1.00  0.00     0.023 A 
ATOM     79  C   UNL A   1      41.708  23.232  27.591  1.00  0.00     0.031 A 
ATOM     80  C   UNL A   1      43.008  24.725  26.221  1.00  0.00     0.131 A 
ATOM     81  C   UNL A   1      41.830  22.254  26.591  1.00  0.00     0.055 A 
ATOM     82  C   UNL A   1      43.074  23.772  25.204  1.00  0.00     0.041 A 
ATOM     83  F   UNL A   1      43.616  25.904  26.011  1.00  0.00    -0.206 F 
ATOM     84  C   UNL A   1      42.494  22.522  25.392  1.00  0.00     0.022 A 
BRANCH  81  85
ATOM     85  S   UNL A   1      41.191  20.590  26.924  1.00  0.00     0.124 S 
ATOM     86  O   UNL A   1      40.020  20.543  26.056  1.00  0.00    -0.237 OA
ATOM     87  O   UNL A   1      42.317  19.750  26.529  1.00  0.00    -0.237 OA
ATOM     88  O   UNL A   1      40.907  20.615  28.357  1.00  0.00    -0.744 OA
ENDBRANCH  81  85
ENDBRANCH  54  78
BRANCH  66  89
ATOM     89  C   UNL A   1      46.722  26.044  32.614  1.00  0.00     0.023 A 
ATOM     90  C   UNL A   1      46.739  25.004  33.560  1.00  0.00     0.031 A 
ATOM     91  C   UNL A   1      47.955  26.496  32.108  1.00  0.00     0.131 A 
ATOM     92  C   UNL A   1      47.965  24.493  34.015  1.00  0.00     0.055 A 
ATOM     93  C   UNL A   1      49.167  25.935  32.513  1.00  0.00     0.041 A 
ATOM     94  F   UNL A   1      48.001  27.489  31.205  1.00  0.00    -0.206 F 
ATOM     95  C   UNL A   1      49.177  24.938  33.483  1.00  0.00     0.022 A 
BRANCH  92  96
ATOM     96  S   UNL A   1      47.957  23.310  35.391  1.00  0.00     0.124 S 
ATOM     97  O   UNL A   1      46.662  22.658  35.222  1.00  0.00    -0.237 OA
ATOM     98  O   UNL A   1      49.127  22.487  35.102  1.00  0.00    -0.237 OA
ATOM     99  O   UNL A   1      48.073  24.160  36.575  1.00  0.00    -0.744 OA
ENDBRANCH  92  96
ENDBRANCH  66  89
ENDBRANCH  40  41
ENDBRANCH  32  35
ENDBRANCH  30  31
ENDBRANCH  29  30
ENDBRANCH   1  29
TORSDOF 18
ENDMDL
MODEL 3
REMARK VINA RESULT:     -12.0      3.018      7.943
REMARK SMILES O=C(Nc1ccc2c(c1)OCO2)N[C@H]1C=C[C@@H](C(=O)NCCCCCCNC(=O)c2ccc(-c3c4nc(c(-c5cc(S(=O)(=O)[O-])ccc5F)c5ccc([nH]5)c(-c5cc(S(=O)(=O)[O-])ccc5F)c5nc(c(-c6cc(S(=O)(=O)[O-])ccc6F)c6ccc3[nH]6)C=C5)C=C4)cc2)C1
REMARK SMILES IDX 24 1 23 2 22 3 21 4 20 5 18 6 19 7 17 9 14 10 15 11 93 12
REMARK SMILES IDX 16 13 13 14 1 15 2 16 3 17 4 20 5 21 9 22 6 23 8 24 7 25
REMARK SMILES IDX 10 26 12 27 11 28 25 29 26 30 27 31 28 32 29 34 30 35 31 36
REMARK SMILES IDX 92 37 32 38 91 39 33 40 34 41 35 42 85 43 36 44 90 45 84 46
REMARK SMILES IDX 86 47 37 48 89 49 83 50 82 51 38 53 70 54 50 55 69 56 51 57
REMARK SMILES IDX 54 58 68 59 87 60 52 61 53 62 67 64 88 65 55 66 39 67 40 68
REMARK SMILES IDX 48 69 41 70 47 71 49 72 46 73 42 74 43 75 44 76 45 77 71 78
REMARK SMILES IDX 72 79 80 80 73 81 79 82 81 83 78 84 74 85 75 86 76 87 77 88
REMARK SMILES IDX 56 89 57 90 65 91 58 92 64 93 66 94 63 95 59 96 60 97 61 98
REMARK SMILES IDX 62 99
REMARK H PARENT 20 8 3 18 13 19 27 33 86 52 54 63
REMARK Flexibility Score: inf
ROOT
ATOM      1  C   UNL A   1      34.354  26.285  25.813  1.00  0.00     0.002 C 
ENDROOT
BRANCH   1   2
ATOM      2  C   UNL A   1      33.979  25.519  24.539  1.00  0.00     0.002 C 
BRANCH   2   3
ATOM      3  C   UNL A   1      33.597  26.407  23.350  1.00  0.00     0.021 C 
BRANCH   3   4
ATOM      4  C   UNL A   1      32.338  25.943  22.618  1.00  0.00     0.116 C 
BRANCH   4   5
ATOM      5  N   UNL A   1      31.644  27.083  22.056  1.00  0.00    -0.356 N 
ATOM      6  C   UNL A   1      30.506  27.714  22.447  1.00  0.00     0.227 C 
ATOM      7  O   UNL A   1      30.091  28.624  21.721  1.00  0.00    -0.274 OA
ATOM      8  H   UNL A   1      32.068  27.466  21.255  1.00  0.00     0.163 HD
BRANCH   6   9
ATOM      9  C   UNL A   1      29.789  27.396  23.760  1.00  0.00     0.103 C 
ATOM     10  C   UNL A   1      29.920  25.719  25.566  1.00  0.00     0.107 C 
ATOM     11  C   UNL A   1      30.670  26.972  25.888  1.00  0.00    -0.006 C 
ATOM     12  C   UNL A   1      29.508  25.922  24.091  1.00  0.00     0.047 C 
ATOM     13  C   UNL A   1      30.586  27.891  24.923  1.00  0.00    -0.016 C 
BRANCH  10  14
ATOM     14  N   UNL A   1      30.747  24.547  25.775  1.00  0.00    -0.332 N 
ATOM     15  O   UNL A   1      29.412  23.658  27.398  1.00  0.00    -0.248 OA
ATOM     16  C   UNL A   1      30.391  23.570  26.659  1.00  0.00     0.319 C 
ATOM     17  N   UNL A   1      31.091  22.404  26.646  1.00  0.00    -0.308 N 
ATOM     18  H   UNL A   1      30.685  21.701  27.204  1.00  0.00     0.171 HD
ATOM     19  H   UNL A   1      31.585  24.453  25.266  1.00  0.00     0.165 HD
BRANCH  17  20
ATOM     20  C   UNL A   1      32.269  21.992  26.005  1.00  0.00     0.046 A 
ATOM     21  C   UNL A   1      32.300  21.089  24.927  1.00  0.00     0.030 A 
ATOM     22  C   UNL A   1      33.465  22.541  26.484  1.00  0.00     0.076 A 
ATOM     23  C   UNL A   1      33.519  20.673  24.375  1.00  0.00     0.053 A 
ATOM     24  C   UNL A   1      34.651  22.092  25.942  1.00  0.00     0.167 A 
ATOM     25  C   UNL A   1      34.679  21.177  24.921  1.00  0.00     0.165 A 
ATOM     26  O   UNL A   1      35.895  22.456  26.351  1.00  0.00    -0.454 OA
ATOM     27  O   UNL A   1      35.946  20.853  24.550  1.00  0.00    -0.454 OA
ATOM     28  C   UNL A   1      36.715  21.640  25.489  1.00  0.00     0.468 C 
ENDBRANCH  17  20
ENDBRANCH  10  14
ENDBRANCH   6   9
ENDBRANCH   4   5
ENDBRANCH   3   4
ENDBRANCH   2   3
ENDBRANCH   1   2
BRANCH   1  29
ATOM     29  C   UNL A   1      34.075  27.790  25.767  1.00  0.00     0.021 C 
BRANCH  29  30
ATOM     30  C   UNL A   1      33.756  28.416  27.121  1.00  0.00     0.116 C 
BRANCH  30  31
ATOM     31  N   UNL A   1      33.701  29.865  27.047  1.00  0.00    -0.352 N 
ATOM     32  C   UNL A   1      34.539  30.796  27.607  1.00  0.00     0.251 C 
ATOM     33  H   UNL A   1      32.956  30.233  26.518  1.00  0.00     0.163 HD
ATOM     34  O   UNL A   1      34.208  31.980  27.626  1.00  0.00    -0.269 OA
BRANCH  32  35
ATOM     35  C   UNL A   1      35.821  30.366  28.204  1.00  0.00     0.039 A 
ATOM     36  C   UNL A   1      35.806  29.708  29.436  1.00  0.00     0.014 A 
ATOM     37  C   UNL A   1      37.034  30.610  27.552  1.00  0.00     0.014 A 
ATOM     38  C   UNL A   1      37.001  29.235  29.981  1.00  0.00     0.010 A 
ATOM     39  C   UNL A   1      38.214  30.073  28.060  1.00  0.00     0.010 A 
ATOM     40  C   UNL A   1      38.209  29.378  29.279  1.00  0.00    -0.014 A 
BRANCH  40  41
ATOM     41  C   UNL A   1      39.473  28.793  29.800  1.00  0.00     0.031 A 
ATOM     42  C   UNL A   1      40.135  29.380  31.016  1.00  0.00     0.074 A 
ATOM     43  C   UNL A   1      40.050  27.768  29.142  1.00  0.00     0.049 A 
ATOM     44  N   UNL A   1      41.273  29.059  31.575  1.00  0.00    -0.248 NA
ATOM     45  C   UNL A   1      39.436  30.493  31.675  1.00  0.00     0.031 C 
ATOM     46  C   UNL A   1      39.516  27.135  27.933  1.00  0.00     0.029 A 
ATOM     47  N   UNL A   1      41.212  27.081  29.388  1.00  0.00    -0.354 N 
ATOM     48  C   UNL A   1      41.431  29.930  32.646  1.00  0.00     0.074 A 
ATOM     49  C   UNL A   1      40.300  30.835  32.618  1.00  0.00     0.031 C 
ATOM     50  C   UNL A   1      40.334  26.138  27.561  1.00  0.00     0.029 A 
ATOM     51  C   UNL A   1      41.479  26.095  28.465  1.00  0.00     0.049 A 
ATOM     52  H   UNL A   1      41.801  27.276  30.153  1.00  0.00     0.167 HD
ATOM     53  C   UNL A   1      42.417  29.958  33.578  1.00  0.00     0.034 A 
ATOM     54  C   UNL A   1      42.533  25.264  28.348  1.00  0.00     0.034 A 
ATOM     55  C   UNL A   1      43.534  29.045  33.590  1.00  0.00     0.049 A 
ATOM     56  C   UNL A   1      43.642  25.349  29.367  1.00  0.00     0.074 A 
ATOM     57  C   UNL A   1      44.563  28.956  34.513  1.00  0.00     0.029 A 
ATOM     58  N   UNL A   1      43.781  28.071  32.630  1.00  0.00    -0.354 N 
ATOM     59  N   UNL A   1      43.753  26.151  30.402  1.00  0.00    -0.248 NA
ATOM     60  C   UNL A   1      44.761  24.413  29.208  1.00  0.00     0.031 C 
ATOM     61  C   UNL A   1      45.470  27.988  34.068  1.00  0.00     0.029 A 
ATOM     62  C   UNL A   1      44.965  27.407  32.917  1.00  0.00     0.049 A 
ATOM     63  H   UNL A   1      43.200  27.881  31.858  1.00  0.00     0.167 HD
ATOM     64  C   UNL A   1      44.941  25.790  31.034  1.00  0.00     0.074 A 
ATOM     65  C   UNL A   1      45.496  24.690  30.273  1.00  0.00     0.031 C 
ATOM     66  C   UNL A   1      45.518  26.319  32.144  1.00  0.00     0.034 A 
BRANCH  53  67
ATOM     67  C   UNL A   1      42.343  31.031  34.639  1.00  0.00     0.023 A 
ATOM     68  C   UNL A   1      42.895  32.309  34.441  1.00  0.00     0.031 A 
ATOM     69  C   UNL A   1      41.725  30.770  35.875  1.00  0.00     0.131 A 
ATOM     70  C   UNL A   1      42.885  33.248  35.484  1.00  0.00     0.055 A 
ATOM     71  C   UNL A   1      41.641  31.737  36.878  1.00  0.00     0.041 A 
ATOM     72  F   UNL A   1      41.202  29.561  36.135  1.00  0.00    -0.206 F 
ATOM     73  C   UNL A   1      42.237  32.981  36.691  1.00  0.00     0.022 A 
BRANCH  70  74
ATOM     74  S   UNL A   1      43.864  34.763  35.294  1.00  0.00     0.124 S 
ATOM     75  O   UNL A   1      45.187  34.222  34.991  1.00  0.00    -0.237 OA
ATOM     76  O   UNL A   1      43.184  35.442  34.197  1.00  0.00    -0.237 OA
ATOM     77  O   UNL A   1      43.748  35.412  36.599  1.00  0.00    -0.744 OA
ENDBRANCH  70  74
ENDBRANCH  53  67
BRANCH  54  78
ATOM     78  C   UNL A   1      42.609  24.293  27.218  1.00  0.00     0.023 A 
ATOM     79  C   UNL A   1      41.991  23.035  27.301  1.00  0.00     0.031 A 
ATOM     80  C   UNL A   1      43.344  24.589  26.056  1.00  0.00     0.131 A 
ATOM     81  C   UNL A   1      42.161  22.102  26.266  1.00  0.00     0.055 A 
ATOM     82  C   UNL A   1      43.458  23.682  25.002  1.00  0.00     0.041 A 
ATOM     83  F   UNL A   1      43.956  25.777  25.923  1.00  0.00    -0.206 F 
ATOM     84  C   UNL A   1      42.876  22.423  25.110  1.00  0.00     0.022 A 
BRANCH  81  85
ATOM     85  S   UNL A   1      41.516  20.423  26.497  1.00  0.00     0.124 S 
ATOM     86  O   UNL A   1      42.053  19.736  25.328  1.00  0.00    -0.237 OA
ATOM     87  O   UNL A   1      42.094  20.051  27.783  1.00  0.00    -0.237 OA
ATOM     88  O   UNL A   1      40.067  20.613  26.498  1.00  0.00    -0.744 OA
ENDBRANCH  81  85
ENDBRANCH  54  78
BRANCH  66  89
ATOM     89  C   UNL A   1      46.798  25.677  32.625  1.00  0.00     0.023 A 
ATOM     90  C   UNL A   1      48.039  25.955  32.025  1.00  0.00     0.031 A 
ATOM     91  C   UNL A   1      46.772  24.761  33.692  1.00  0.00     0.131 A 
ATOM     92  C   UNL A   1      49.191  25.279  32.456  1.00  0.00     0.055 A 
ATOM     93  C   UNL A   1      47.932  24.145  34.162  1.00  0.00     0.041 A 
ATOM     94  F   UNL A   1      45.615  24.453  34.301  1.00  0.00    -0.206 F 
ATOM     95  C   UNL A   1      49.149  24.391  33.534  1.00  0.00     0.022 A 
BRANCH  92  96
ATOM     96  S   UNL A   1      50.730  25.498  31.520  1.00  0.00     0.124 S 
ATOM     97  O   UNL A   1      51.669  24.686  32.287  1.00  0.00    -0.237 OA
ATOM     98  O   UNL A   1      50.369  24.983  30.203  1.00  0.00    -0.237 OA
ATOM     99  O   UNL A   1      50.965  26.940  31.579  1.00  0.00    -0.744 OA
ENDBRANCH  92  96
ENDBRANCH  66  89
ENDBRANCH  40  41
ENDBRANCH  32  35
ENDBRANCH  30  31
ENDBRANCH  29  30
ENDBRANCH   1  29
TORSDOF 18
ENDMDL
