MODEL 1
REMARK VINA RESULT:      -9.8      0.000      0.000
REMARK SMILES O=C1NC(=O)/C(=C/c2ccc(OCc3cn(-c4ccc(C(=O)NCCCCCCNC(=O)c5ccc(-c6c7nc(c(-c8cc(S(=O)(=O)[O-])ccc8F)c8ccc([nH]8)c(-c8cc(S(=O)(=O)[O-])ccc8F)c8nc(c(-c9cc(S(=O)(=O)[O-])ccc9F)c9ccc6[nH]9)C=C8)C=C7)cc5)cc4)nn3)cc2)S1
REMARK SMILES IDX 25 1 24 2 23 3 21 4 22 5 20 7 17 8 18 9 97 10 19 11 96 12
REMARK SMILES IDX 16 13 14 14 15 15 99 16 98 17 13 18 12 19 11 20 8 21 9 22
REMARK SMILES IDX 101 23 10 24 100 25 7 26 1 27 2 28 3 29 102 30 4 31 6 33
REMARK SMILES IDX 5 34 26 35 27 36 28 37 29 38 30 39 31 40 32 42 33 43 34 44
REMARK SMILES IDX 95 45 35 46 94 47 36 48 37 49 38 50 88 51 39 52 93 53 87 54
REMARK SMILES IDX 89 55 40 56 92 57 86 58 85 59 41 61 73 62 53 63 72 64 54 65
REMARK SMILES IDX 57 66 71 67 90 68 55 69 56 70 70 72 91 73 58 74 42 75 43 76
REMARK SMILES IDX 51 77 44 78 50 79 52 80 49 81 45 82 46 83 47 84 48 85 74 86
REMARK SMILES IDX 75 87 83 88 76 89 82 90 84 91 81 92 77 93 78 94 79 95 80 96
REMARK SMILES IDX 59 97 60 98 68 99 61 100 67 101 69 102 66 103 62 104 63 105
REMARK SMILES IDX 64 106 65 107
REMARK H PARENT 23 6 3 32 30 41 89 60 57 71
REMARK Flexibility Score: inf
ROOT
ATOM      1  C   UNL A   1      45.186  25.238  38.885  1.00  0.00     0.021 C 
ENDROOT
BRANCH   1   2
ATOM      2  C   UNL A   1      45.787  26.295  39.812  1.00  0.00     0.116 C 
BRANCH   2   3
ATOM      3  N   UNL A   1      46.888  26.963  39.151  1.00  0.00    -0.352 N 
ATOM      4  C   UNL A   1      46.961  27.796  38.068  1.00  0.00     0.251 C 
ATOM      5  O   UNL A   1      48.081  28.184  37.730  1.00  0.00    -0.269 OA
ATOM      6  H   UNL A   1      47.763  26.778  39.564  1.00  0.00     0.163 HD
BRANCH   4   7
ATOM      7  C   UNL A   1      45.762  28.328  37.361  1.00  0.00     0.039 A 
ATOM      8  C   UNL A   1      43.339  29.325  36.361  1.00  0.00     0.066 A 
ATOM      9  C   UNL A   1      44.036  30.040  37.342  1.00  0.00     0.029 A 
ATOM     10  C   UNL A   1      43.891  28.167  35.814  1.00  0.00     0.029 A 
ATOM     11  C   UNL A   1      45.221  29.522  37.860  1.00  0.00     0.016 A 
ATOM     12  C   UNL A   1      45.136  27.721  36.268  1.00  0.00     0.016 A 
BRANCH   8  13
ATOM     13  N   UNL A   1      42.087  29.798  35.924  1.00  0.00    -0.220 N 
ATOM     14  C   UNL A   1      40.435  30.862  34.977  1.00  0.00     0.120 A 
ATOM     15  C   UNL A   1      41.812  30.826  35.048  1.00  0.00     0.144 A 
ATOM     16  N   UNL A   1      39.934  29.845  35.746  1.00  0.00    -0.131 NA
ATOM     17  N   UNL A   1      40.942  29.186  36.286  1.00  0.00    -0.062 NA
BRANCH  14  18
ATOM     18  C   UNL A   1      39.512  31.697  34.153  1.00  0.00     0.289 C 
BRANCH  18  19
ATOM     19  O   UNL A   1      38.186  31.874  34.680  1.00  0.00    -0.487 OA
BRANCH  19  20
ATOM     20  C   UNL A   1      37.477  32.987  34.315  1.00  0.00     0.119 A 
ATOM     21  C   UNL A   1      35.691  35.007  33.517  1.00  0.00    -0.024 A 
ATOM     22  C   UNL A   1      35.365  34.161  34.578  1.00  0.00     0.012 A 
ATOM     23  C   UNL A   1      36.953  34.900  32.927  1.00  0.00     0.012 A 
ATOM     24  C   UNL A   1      36.253  33.151  34.968  1.00  0.00     0.047 A 
ATOM     25  C   UNL A   1      37.850  33.916  33.348  1.00  0.00     0.047 A 
BRANCH  21  26
ATOM     26  C   UNL A   1      34.734  36.005  33.032  1.00  0.00     0.029 C 
ATOM     27  O   UNL A   1      32.591  35.115  28.560  1.00  0.00    -0.261 OA
ATOM     28  C   UNL A   1      32.925  35.500  29.679  1.00  0.00     0.290 C 
ATOM     29  N   UNL A   1      32.567  36.674  30.244  1.00  0.00    -0.282 N 
ATOM     30  S   UNL A   1      34.012  34.633  30.739  1.00  0.00    -0.022 SA
ATOM     31  C   UNL A   1      33.141  37.015  31.434  1.00  0.00     0.265 C 
ATOM     32  H   UNL A   1      31.911  37.267  29.810  1.00  0.00     0.174 HD
ATOM     33  C   UNL A   1      34.034  35.917  31.892  1.00  0.00     0.083 C 
ATOM     34  O   UNL A   1      32.986  38.081  32.004  1.00  0.00    -0.268 OA
ENDBRANCH  21  26
ENDBRANCH  19  20
ENDBRANCH  18  19
ENDBRANCH  14  18
ENDBRANCH   8  13
ENDBRANCH   4   7
ENDBRANCH   2   3
ENDBRANCH   1   2
BRANCH   1  35
ATOM     35  C   UNL A   1      45.297  23.819  39.458  1.00  0.00     0.002 C 
BRANCH  35  36
ATOM     36  C   UNL A   1      46.286  22.894  38.725  1.00  0.00     0.002 C 
BRANCH  36  37
ATOM     37  C   UNL A   1      45.806  22.327  37.378  1.00  0.00     0.021 C 
BRANCH  37  38
ATOM     38  C   UNL A   1      46.698  22.716  36.211  1.00  0.00     0.116 C 
BRANCH  38  39
ATOM     39  N   UNL A   1      47.547  23.868  36.538  1.00  0.00    -0.352 N 
ATOM     40  C   UNL A   1      47.971  24.909  35.729  1.00  0.00     0.251 C 
ATOM     41  H   UNL A   1      47.863  23.907  37.470  1.00  0.00     0.163 HD
ATOM     42  O   UNL A   1      48.974  25.551  36.020  1.00  0.00    -0.269 OA
BRANCH  40  43
ATOM     43  C   UNL A   1      47.182  25.238  34.530  1.00  0.00     0.039 A 
ATOM     44  C   UNL A   1      45.805  25.019  34.427  1.00  0.00     0.014 A 
ATOM     45  C   UNL A   1      47.881  25.812  33.478  1.00  0.00     0.014 A 
ATOM     46  C   UNL A   1      45.157  25.406  33.252  1.00  0.00     0.010 A 
ATOM     47  C   UNL A   1      47.204  26.465  32.498  1.00  0.00     0.010 A 
ATOM     48  C   UNL A   1      45.884  26.120  32.289  1.00  0.00    -0.014 A 
BRANCH  48  49
ATOM     49  C   UNL A   1      45.320  26.627  31.051  1.00  0.00     0.031 A 
ATOM     50  C   UNL A   1      45.468  25.682  29.923  1.00  0.00     0.074 A 
ATOM     51  C   UNL A   1      44.448  27.662  31.038  1.00  0.00     0.049 A 
ATOM     52  N   UNL A   1      46.324  25.747  28.961  1.00  0.00    -0.248 NA
ATOM     53  C   UNL A   1      44.763  24.390  30.001  1.00  0.00     0.031 C 
ATOM     54  C   UNL A   1      43.923  28.437  32.171  1.00  0.00     0.029 A 
ATOM     55  N   UNL A   1      43.736  28.164  29.998  1.00  0.00    -0.354 N 
ATOM     56  C   UNL A   1      46.034  24.658  28.148  1.00  0.00     0.074 A 
ATOM     57  C   UNL A   1      45.334  23.731  28.990  1.00  0.00     0.031 C 
ATOM     58  C   UNL A   1      42.824  29.125  31.781  1.00  0.00     0.029 A 
ATOM     59  C   UNL A   1      42.644  28.956  30.349  1.00  0.00     0.049 A 
ATOM     60  H   UNL A   1      43.973  27.981  29.060  1.00  0.00     0.167 HD
ATOM     61  C   UNL A   1      46.096  24.763  26.790  1.00  0.00     0.034 A 
ATOM     62  C   UNL A   1      41.645  29.378  29.521  1.00  0.00     0.034 A 
ATOM     63  C   UNL A   1      46.741  26.009  26.409  1.00  0.00     0.049 A 
ATOM     64  C   UNL A   1      42.183  29.263  28.134  1.00  0.00     0.074 A 
ATOM     65  C   UNL A   1      47.950  26.603  26.728  1.00  0.00     0.029 A 
ATOM     66  N   UNL A   1      45.941  27.037  25.946  1.00  0.00    -0.354 N 
ATOM     67  N   UNL A   1      43.190  29.978  27.701  1.00  0.00    -0.248 NA
ATOM     68  C   UNL A   1      41.989  27.996  27.436  1.00  0.00     0.031 C 
ATOM     69  C   UNL A   1      47.627  27.973  26.963  1.00  0.00     0.029 A 
ATOM     70  C   UNL A   1      46.282  28.171  26.645  1.00  0.00     0.049 A 
ATOM     71  H   UNL A   1      45.254  26.969  25.245  1.00  0.00     0.167 HD
ATOM     72  C   UNL A   1      43.999  29.088  27.007  1.00  0.00     0.074 A 
ATOM     73  C   UNL A   1      43.169  27.898  26.813  1.00  0.00     0.031 C 
ATOM     74  C   UNL A   1      45.357  29.255  26.936  1.00  0.00     0.034 A 
BRANCH  61  75
ATOM     75  C   UNL A   1      45.240  23.984  25.811  1.00  0.00     0.023 A 
ATOM     76  C   UNL A   1      43.982  23.563  26.280  1.00  0.00     0.031 A 
ATOM     77  C   UNL A   1      45.655  23.407  24.588  1.00  0.00     0.131 A 
ATOM     78  C   UNL A   1      43.275  22.533  25.639  1.00  0.00     0.055 A 
ATOM     79  C   UNL A   1      44.913  22.431  23.915  1.00  0.00     0.041 A 
ATOM     80  F   UNL A   1      46.826  23.677  24.005  1.00  0.00    -0.206 F 
ATOM     81  C   UNL A   1      43.734  21.959  24.460  1.00  0.00     0.022 A 
BRANCH  78  82
ATOM     82  S   UNL A   1      41.842  21.833  26.491  1.00  0.00     0.124 S 
ATOM     83  O   UNL A   1      42.439  20.683  27.162  1.00  0.00    -0.237 OA
ATOM     84  O   UNL A   1      41.434  22.941  27.348  1.00  0.00    -0.237 OA
ATOM     85  O   UNL A   1      40.924  21.516  25.400  1.00  0.00    -0.744 OA
ENDBRANCH  78  82
ENDBRANCH  61  75
BRANCH  62  86
ATOM     86  C   UNL A   1      40.187  29.511  29.850  1.00  0.00     0.023 A 
ATOM     87  C   UNL A   1      39.458  30.719  29.730  1.00  0.00     0.031 A 
ATOM     88  C   UNL A   1      39.418  28.346  30.085  1.00  0.00     0.131 A 
ATOM     89  C   UNL A   1      38.041  30.722  29.857  1.00  0.00     0.055 A 
ATOM     90  C   UNL A   1      38.027  28.356  30.211  1.00  0.00     0.041 A 
ATOM     91  F   UNL A   1      39.988  27.130  30.116  1.00  0.00    -0.206 F 
ATOM     92  C   UNL A   1      37.330  29.544  30.090  1.00  0.00     0.022 A 
BRANCH  89  93
ATOM     93  S   UNL A   1      37.075  32.258  29.633  1.00  0.00     0.124 S 
ATOM     94  O   UNL A   1      36.223  32.265  30.817  1.00  0.00    -0.237 OA
ATOM     95  O   UNL A   1      38.114  33.279  29.572  1.00  0.00    -0.237 OA
ATOM     96  O   UNL A   1      36.366  32.037  28.371  1.00  0.00    -0.744 OA
ENDBRANCH  89  93
ENDBRANCH  62  86
BRANCH  74  97
ATOM     97  C   UNL A   1      45.973  30.572  27.377  1.00  0.00     0.023 A 
ATOM     98  C   UNL A   1      45.934  31.787  26.651  1.00  0.00     0.031 A 
ATOM     99  C   UNL A   1      46.506  30.618  28.679  1.00  0.00     0.131 A 
ATOM    100  C   UNL A   1      46.421  32.976  27.236  1.00  0.00     0.055 A 
ATOM    101  C   UNL A   1      46.963  31.798  29.262  1.00  0.00     0.041 A 
ATOM    102  F   UNL A   1      46.555  29.507  29.434  1.00  0.00    -0.206 F 
ATOM    103  C   UNL A   1      46.927  32.982  28.540  1.00  0.00     0.022 A 
BRANCH 100 104
ATOM    104  S   UNL A   1      46.442  34.544  26.305  1.00  0.00     0.124 S 
ATOM    105  O   UNL A   1      46.724  35.546  27.327  1.00  0.00    -0.237 OA
ATOM    106  O   UNL A   1      47.500  34.314  25.325  1.00  0.00    -0.237 OA
ATOM    107  O   UNL A   1      45.094  34.618  25.737  1.00  0.00    -0.744 OA
ENDBRANCH 100 104
ENDBRANCH  74  97
ENDBRANCH  48  49
ENDBRANCH  40  43
ENDBRANCH  38  39
ENDBRANCH  37  38
ENDBRANCH  36  37
ENDBRANCH  35  36
ENDBRANCH   1  35
TORSDOF 21
ENDMDL
MODEL 2
REMARK VINA RESULT:      -9.8      4.493     10.277
REMARK SMILES O=C1NC(=O)/C(=C/c2ccc(OCc3cn(-c4ccc(C(=O)NCCCCCCNC(=O)c5ccc(-c6c7nc(c(-c8cc(S(=O)(=O)[O-])ccc8F)c8ccc([nH]8)c(-c8cc(S(=O)(=O)[O-])ccc8F)c8nc(c(-c9cc(S(=O)(=O)[O-])ccc9F)c9ccc6[nH]9)C=C8)C=C7)cc5)cc4)nn3)cc2)S1
REMARK SMILES IDX 25 1 24 2 23 3 21 4 22 5 20 7 17 8 18 9 97 10 19 11 96 12
REMARK SMILES IDX 16 13 14 14 15 15 99 16 98 17 13 18 12 19 11 20 8 21 9 22
REMARK SMILES IDX 101 23 10 24 100 25 7 26 1 27 2 28 3 29 102 30 4 31 6 33
REMARK SMILES IDX 5 34 26 35 27 36 28 37 29 38 30 39 31 40 32 42 33 43 34 44
REMARK SMILES IDX 95 45 35 46 94 47 36 48 37 49 38 50 88 51 39 52 93 53 87 54
REMARK SMILES IDX 89 55 40 56 92 57 86 58 85 59 41 61 73 62 53 63 72 64 54 65
REMARK SMILES IDX 57 66 71 67 90 68 55 69 56 70 70 72 91 73 58 74 42 75 43 76
REMARK SMILES IDX 51 77 44 78 50 79 52 80 49 81 45 82 46 83 47 84 48 85 74 86
REMARK SMILES IDX 75 87 83 88 76 89 82 90 84 91 81 92 77 93 78 94 79 95 80 96
REMARK SMILES IDX 59 97 60 98 68 99 61 100 67 101 69 102 66 103 62 104 63 105
REMARK SMILES IDX 64 106 65 107
REMARK H PARENT 23 6 3 32 30 41 89 60 57 71
REMARK Flexibility Score: inf
ROOT
ATOM      1  C   UNL A   1      42.093  33.294  31.352  1.00  0.00     0.021 C 
ENDROOT
BRANCH   1   2
ATOM      2  C   UNL A   1      40.966  32.600  32.117  1.00  0.00     0.116 C 
BRANCH   2   3
ATOM      3  N   UNL A   1      40.231  33.570  32.901  1.00  0.00    -0.352 N 
ATOM      4  C   UNL A   1      38.999  34.147  32.756  1.00  0.00     0.251 C 
ATOM      5  O   UNL A   1      38.665  34.980  33.601  1.00  0.00    -0.269 OA
ATOM      6  H   UNL A   1      40.717  33.877  33.700  1.00  0.00     0.163 HD
BRANCH   4   7
ATOM      7  C   UNL A   1      38.023  33.745  31.704  1.00  0.00     0.039 A 
ATOM      8  C   UNL A   1      36.270  32.637  29.816  1.00  0.00     0.066 A 
ATOM      9  C   UNL A   1      36.095  32.360  31.177  1.00  0.00     0.029 A 
ATOM     10  C   UNL A   1      37.255  33.535  29.405  1.00  0.00     0.029 A 
ATOM     11  C   UNL A   1      36.991  32.884  32.107  1.00  0.00     0.016 A 
ATOM     12  C   UNL A   1      38.075  34.138  30.364  1.00  0.00     0.016 A 
BRANCH   8  13
ATOM     13  N   UNL A   1      35.430  32.013  28.873  1.00  0.00    -0.220 N 
ATOM     14  C   UNL A   1      34.257  30.620  27.674  1.00  0.00     0.120 A 
ATOM     15  C   UNL A   1      35.108  30.679  28.759  1.00  0.00     0.144 A 
ATOM     16  N   UNL A   1      34.053  31.893  27.213  1.00  0.00    -0.131 NA
ATOM     17  N   UNL A   1      34.738  32.732  27.967  1.00  0.00    -0.062 NA
BRANCH  14  18
ATOM     18  C   UNL A   1      33.503  29.480  27.073  1.00  0.00     0.289 C 
BRANCH  18  19
ATOM     19  O   UNL A   1      33.996  28.996  25.813  1.00  0.00    -0.487 OA
BRANCH  19  20
ATOM     20  C   UNL A   1      33.614  27.751  25.391  1.00  0.00     0.119 A 
ATOM     21  C   UNL A   1      32.982  25.055  24.898  1.00  0.00    -0.024 A 
ATOM     22  C   UNL A   1      32.535  25.679  26.064  1.00  0.00     0.012 A 
ATOM     23  C   UNL A   1      33.658  25.813  23.940  1.00  0.00     0.012 A 
ATOM     24  C   UNL A   1      32.857  27.019  26.310  1.00  0.00     0.047 A 
ATOM     25  C   UNL A   1      33.942  27.161  24.174  1.00  0.00     0.047 A 
BRANCH  21  26
ATOM     26  C   UNL A   1      32.737  23.629  24.670  1.00  0.00     0.029 C 
ATOM     27  O   UNL A   1      36.667  20.528  25.244  1.00  0.00    -0.261 OA
ATOM     28  C   UNL A   1      35.571  21.071  25.118  1.00  0.00     0.290 C 
ATOM     29  N   UNL A   1      34.434  20.460  24.716  1.00  0.00    -0.282 N 
ATOM     30  S   UNL A   1      35.281  22.779  25.355  1.00  0.00    -0.022 SA
ATOM     31  C   UNL A   1      33.336  21.237  24.489  1.00  0.00     0.265 C 
ATOM     32  H   UNL A   1      34.400  19.485  24.591  1.00  0.00     0.174 HD
ATOM     33  C   UNL A   1      33.645  22.653  24.819  1.00  0.00     0.083 C 
ATOM     34  O   UNL A   1      32.279  20.835  24.032  1.00  0.00    -0.268 OA
ENDBRANCH  21  26
ENDBRANCH  19  20
ENDBRANCH  18  19
ENDBRANCH  14  18
ENDBRANCH   8  13
ENDBRANCH   4   7
ENDBRANCH   2   3
ENDBRANCH   1   2
BRANCH   1  35
ATOM     35  C   UNL A   1      41.753  33.516  29.873  1.00  0.00     0.002 C 
BRANCH  35  36
ATOM     36  C   UNL A   1      41.367  34.959  29.501  1.00  0.00     0.002 C 
BRANCH  36  37
ATOM     37  C   UNL A   1      42.015  35.523  28.225  1.00  0.00     0.021 C 
BRANCH  37  38
ATOM     38  C   UNL A   1      43.344  36.213  28.482  1.00  0.00     0.116 C 
BRANCH  38  39
ATOM     39  N   UNL A   1      44.112  36.391  27.245  1.00  0.00    -0.352 N 
ATOM     40  C   UNL A   1      45.027  35.542  26.644  1.00  0.00     0.251 C 
ATOM     41  H   UNL A   1      43.955  37.239  26.770  1.00  0.00     0.163 HD
ATOM     42  O   UNL A   1      45.864  35.985  25.866  1.00  0.00    -0.269 OA
BRANCH  40  43
ATOM     43  C   UNL A   1      44.959  34.102  26.946  1.00  0.00     0.039 A 
ATOM     44  C   UNL A   1      44.239  33.185  26.175  1.00  0.00     0.014 A 
ATOM     45  C   UNL A   1      45.679  33.675  28.052  1.00  0.00     0.014 A 
ATOM     46  C   UNL A   1      44.278  31.837  26.537  1.00  0.00     0.010 A 
ATOM     47  C   UNL A   1      45.967  32.356  28.199  1.00  0.00     0.010 A 
ATOM     48  C   UNL A   1      45.144  31.445  27.567  1.00  0.00    -0.014 A 
BRANCH  48  49
ATOM     49  C   UNL A   1      45.322  30.072  28.007  1.00  0.00     0.031 A 
ATOM     50  C   UNL A   1      46.636  29.512  27.623  1.00  0.00     0.074 A 
ATOM     51  C   UNL A   1      44.536  29.524  28.963  1.00  0.00     0.049 A 
ATOM     52  N   UNL A   1      46.880  28.693  26.656  1.00  0.00    -0.248 NA
ATOM     53  C   UNL A   1      47.847  30.114  28.208  1.00  0.00     0.031 C 
ATOM     54  C   UNL A   1      43.425  30.138  29.704  1.00  0.00     0.029 A 
ATOM     55  N   UNL A   1      44.652  28.319  29.574  1.00  0.00    -0.354 N 
ATOM     56  C   UNL A   1      48.244  28.444  26.732  1.00  0.00     0.074 A 
ATOM     57  C   UNL A   1      48.795  29.559  27.449  1.00  0.00     0.031 C 
ATOM     58  C   UNL A   1      43.144  29.396  30.800  1.00  0.00     0.029 A 
ATOM     59  C   UNL A   1      43.952  28.187  30.772  1.00  0.00     0.049 A 
ATOM     60  H   UNL A   1      45.194  27.588  29.199  1.00  0.00     0.167 HD
ATOM     61  C   UNL A   1      48.741  27.195  26.502  1.00  0.00     0.034 A 
ATOM     62  C   UNL A   1      44.087  27.185  31.688  1.00  0.00     0.034 A 
ATOM     63  C   UNL A   1      47.713  26.340  25.931  1.00  0.00     0.049 A 
ATOM     64  C   UNL A   1      44.723  26.047  30.962  1.00  0.00     0.074 A 
ATOM     65  C   UNL A   1      46.873  26.446  24.836  1.00  0.00     0.029 A 
ATOM     66  N   UNL A   1      47.121  25.402  26.755  1.00  0.00    -0.354 N 
ATOM     67  N   UNL A   1      44.136  25.414  29.978  1.00  0.00    -0.248 NA
ATOM     68  C   UNL A   1      46.181  25.988  30.943  1.00  0.00     0.031 C 
ATOM     69  C   UNL A   1      45.602  26.008  25.314  1.00  0.00     0.029 A 
ATOM     70  C   UNL A   1      45.759  25.533  26.618  1.00  0.00     0.049 A 
ATOM     71  H   UNL A   1      47.589  24.758  27.334  1.00  0.00     0.167 HD
ATOM     72  C   UNL A   1      45.115  25.264  29.005  1.00  0.00     0.074 A 
ATOM     73  C   UNL A   1      46.374  25.569  29.687  1.00  0.00     0.031 C 
ATOM     74  C   UNL A   1      44.804  25.229  27.671  1.00  0.00     0.034 A 
BRANCH  61  75
ATOM     75  C   UNL A   1      49.986  26.615  27.143  1.00  0.00     0.023 A 
ATOM     76  C   UNL A   1      49.896  26.310  28.514  1.00  0.00     0.031 A 
ATOM     77  C   UNL A   1      51.292  26.591  26.602  1.00  0.00     0.131 A 
ATOM     78  C   UNL A   1      51.050  26.143  29.298  1.00  0.00     0.055 A 
ATOM     79  C   UNL A   1      52.434  26.354  27.373  1.00  0.00     0.041 A 
ATOM     80  F   UNL A   1      51.566  26.872  25.324  1.00  0.00    -0.206 F 
ATOM     81  C   UNL A   1      52.321  26.167  28.738  1.00  0.00     0.022 A 
BRANCH  78  82
ATOM     82  S   UNL A   1      50.851  26.087  31.094  1.00  0.00     0.124 S 
ATOM     83  O   UNL A   1      49.701  25.199  31.230  1.00  0.00    -0.237 OA
ATOM     84  O   UNL A   1      52.138  25.545  31.519  1.00  0.00    -0.237 OA
ATOM     85  O   UNL A   1      50.612  27.483  31.450  1.00  0.00    -0.744 OA
ENDBRANCH  78  82
ENDBRANCH  61  75
BRANCH  62  86
ATOM     86  C   UNL A   1      44.033  27.305  33.183  1.00  0.00     0.023 A 
ATOM     87  C   UNL A   1      43.145  26.567  34.003  1.00  0.00     0.031 A 
ATOM     88  C   UNL A   1      45.051  28.018  33.860  1.00  0.00     0.131 A 
ATOM     89  C   UNL A   1      43.293  26.577  35.417  1.00  0.00     0.055 A 
ATOM     90  C   UNL A   1      45.190  28.026  35.250  1.00  0.00     0.041 A 
ATOM     91  F   UNL A   1      46.011  28.671  33.184  1.00  0.00    -0.206 F 
ATOM     92  C   UNL A   1      44.315  27.298  36.036  1.00  0.00     0.022 A 
BRANCH  89  93
ATOM     93  S   UNL A   1      42.204  25.573  36.489  1.00  0.00     0.124 S 
ATOM     94  O   UNL A   1      42.947  25.541  37.744  1.00  0.00    -0.237 OA
ATOM     95  O   UNL A   1      40.964  26.340  36.486  1.00  0.00    -0.237 OA
ATOM     96  O   UNL A   1      42.126  24.288  35.792  1.00  0.00    -0.744 OA
ENDBRANCH  89  93
ENDBRANCH  62  86
BRANCH  74  97
ATOM     97  C   UNL A   1      43.353  25.069  27.245  1.00  0.00     0.023 A 
ATOM     98  C   UNL A   1      42.653  23.844  27.142  1.00  0.00     0.031 A 
ATOM     99  C   UNL A   1      42.609  26.252  27.073  1.00  0.00     0.131 A 
ATOM    100  C   UNL A   1      41.267  23.842  26.872  1.00  0.00     0.055 A 
ATOM    101  C   UNL A   1      41.237  26.247  26.833  1.00  0.00     0.041 A 
ATOM    102  F   UNL A   1      43.205  27.452  27.178  1.00  0.00    -0.206 F 
ATOM    103  C   UNL A   1      40.561  25.040  26.725  1.00  0.00     0.022 A 
BRANCH 100 104
ATOM    104  S   UNL A   1      40.348  22.279  26.672  1.00  0.00     0.124 S 
ATOM    105  O   UNL A   1      38.999  22.716  26.329  1.00  0.00    -0.237 OA
ATOM    106  O   UNL A   1      41.093  21.610  25.609  1.00  0.00    -0.237 OA
ATOM    107  O   UNL A   1      40.466  21.646  27.988  1.00  0.00    -0.744 OA
ENDBRANCH 100 104
ENDBRANCH  74  97
ENDBRANCH  48  49
ENDBRANCH  40  43
ENDBRANCH  38  39
ENDBRANCH  37  38
ENDBRANCH  36  37
ENDBRANCH  35  36
ENDBRANCH   1  35
TORSDOF 21
ENDMDL
MODEL 3
REMARK VINA RESULT:      -9.7      3.707      9.239
REMARK SMILES O=C1NC(=O)/C(=C/c2ccc(OCc3cn(-c4ccc(C(=O)NCCCCCCNC(=O)c5ccc(-c6c7nc(c(-c8cc(S(=O)(=O)[O-])ccc8F)c8ccc([nH]8)c(-c8cc(S(=O)(=O)[O-])ccc8F)c8nc(c(-c9cc(S(=O)(=O)[O-])ccc9F)c9ccc6[nH]9)C=C8)C=C7)cc5)cc4)nn3)cc2)S1
REMARK SMILES IDX 25 1 24 2 23 3 21 4 22 5 20 7 17 8 18 9 97 10 19 11 96 12
REMARK SMILES IDX 16 13 14 14 15 15 99 16 98 17 13 18 12 19 11 20 8 21 9 22
REMARK SMILES IDX 101 23 10 24 100 25 7 26 1 27 2 28 3 29 102 30 4 31 6 33
REMARK SMILES IDX 5 34 26 35 27 36 28 37 29 38 30 39 31 40 32 42 33 43 34 44
REMARK SMILES IDX 95 45 35 46 94 47 36 48 37 49 38 50 88 51 39 52 93 53 87 54
REMARK SMILES IDX 89 55 40 56 92 57 86 58 85 59 41 61 73 62 53 63 72 64 54 65
REMARK SMILES IDX 57 66 71 67 90 68 55 69 56 70 70 72 91 73 58 74 42 75 43 76
REMARK SMILES IDX 51 77 44 78 50 79 52 80 49 81 45 82 46 83 47 84 48 85 74 86
REMARK SMILES IDX 75 87 83 88 76 89 82 90 84 91 81 92 77 93 78 94 79 95 80 96
REMARK SMILES IDX 59 97 60 98 68 99 61 100 67 101 69 102 66 103 62 104 63 105
REMARK SMILES IDX 64 106 65 107
REMARK H PARENT 23 6 3 32 30 41 89 60 57 71
REMARK Flexibility Score: inf
ROOT
ATOM      1  C   UNL A   1      44.731  29.008  37.361  1.00  0.00     0.021 C 
ENDROOT
BRANCH   1   2
ATOM      2  C   UNL A   1      44.065  29.889  36.304  1.00  0.00     0.116 C 
BRANCH   2   3
ATOM      3  N   UNL A   1      42.627  29.750  36.380  1.00  0.00    -0.352 N 
ATOM      4  C   UNL A   1      41.779  28.692  36.189  1.00  0.00     0.251 C 
ATOM      5  O   UNL A   1      40.571  28.910  36.304  1.00  0.00    -0.269 OA
ATOM      6  H   UNL A   1      42.164  30.586  36.616  1.00  0.00     0.163 HD
BRANCH   4   7
ATOM      7  C   UNL A   1      42.249  27.297  35.959  1.00  0.00     0.039 A 
ATOM      8  C   UNL A   1      43.442  24.772  35.700  1.00  0.00     0.066 A 
ATOM      9  C   UNL A   1      43.209  25.306  36.973  1.00  0.00     0.029 A 
ATOM     10  C   UNL A   1      43.000  25.449  34.564  1.00  0.00     0.029 A 
ATOM     11  C   UNL A   1      42.648  26.577  37.094  1.00  0.00     0.016 A 
ATOM     12  C   UNL A   1      42.339  26.673  34.710  1.00  0.00     0.016 A 
BRANCH   8  13
ATOM     13  N   UNL A   1      44.111  23.539  35.584  1.00  0.00    -0.220 N 
ATOM     14  C   UNL A   1      45.402  21.796  35.821  1.00  0.00     0.120 A 
ATOM     15  C   UNL A   1      45.113  23.025  36.379  1.00  0.00     0.144 A 
ATOM     16  N   UNL A   1      44.550  21.586  34.769  1.00  0.00    -0.131 NA
ATOM     17  N   UNL A   1      43.750  22.630  34.656  1.00  0.00    -0.062 NA
BRANCH  14  18
ATOM     18  C   UNL A   1      46.339  20.716  36.248  1.00  0.00     0.289 C 
BRANCH  18  19
ATOM     19  O   UNL A   1      47.133  20.998  37.414  1.00  0.00    -0.487 OA
BRANCH  19  20
ATOM     20  C   UNL A   1      46.903  20.278  38.555  1.00  0.00     0.119 A 
ATOM     21  C   UNL A   1      46.213  18.534  40.650  1.00  0.00    -0.024 A 
ATOM     22  C   UNL A   1      46.842  18.041  39.505  1.00  0.00     0.012 A 
ATOM     23  C   UNL A   1      46.024  19.911  40.781  1.00  0.00     0.012 A 
ATOM     24  C   UNL A   1      47.177  18.911  38.461  1.00  0.00     0.047 A 
ATOM     25  C   UNL A   1      46.398  20.778  39.752  1.00  0.00     0.047 A 
BRANCH  21  26
ATOM     26  C   UNL A   1      45.767  17.625  41.710  1.00  0.00     0.029 C 
ATOM     27  O   UNL A   1      41.455  15.144  40.912  1.00  0.00    -0.261 OA
ATOM     28  C   UNL A   1      42.543  15.576  41.290  1.00  0.00     0.290 C 
ATOM     29  N   UNL A   1      43.104  15.343  42.497  1.00  0.00    -0.282 N 
ATOM     30  S   UNL A   1      43.552  16.660  40.360  1.00  0.00    -0.022 SA
ATOM     31  C   UNL A   1      44.249  16.015  42.812  1.00  0.00     0.265 C 
ATOM     32  H   UNL A   1      42.699  14.708  43.130  1.00  0.00     0.174 HD
ATOM     33  C   UNL A   1      44.674  16.850  41.657  1.00  0.00     0.083 C 
ATOM     34  O   UNL A   1      44.805  15.977  43.896  1.00  0.00    -0.268 OA
ENDBRANCH  21  26
ENDBRANCH  19  20
ENDBRANCH  18  19
ENDBRANCH  14  18
ENDBRANCH   8  13
ENDBRANCH   4   7
ENDBRANCH   2   3
ENDBRANCH   1   2
BRANCH   1  35
ATOM     35  C   UNL A   1      45.014  29.764  38.666  1.00  0.00     0.002 C 
BRANCH  35  36
ATOM     36  C   UNL A   1      46.371  29.450  39.321  1.00  0.00     0.002 C 
BRANCH  36  37
ATOM     37  C   UNL A   1      47.563  29.288  38.362  1.00  0.00     0.021 C 
BRANCH  37  38
ATOM     38  C   UNL A   1      47.888  27.837  38.050  1.00  0.00     0.116 C 
BRANCH  38  39
ATOM     39  N   UNL A   1      49.158  27.708  37.326  1.00  0.00    -0.352 N 
ATOM     40  C   UNL A   1      49.401  27.223  36.052  1.00  0.00     0.251 C 
ATOM     41  H   UNL A   1      49.955  28.010  37.818  1.00  0.00     0.163 HD
ATOM     42  O   UNL A   1      50.515  26.807  35.749  1.00  0.00    -0.269 OA
BRANCH  40  43
ATOM     43  C   UNL A   1      48.305  27.237  35.068  1.00  0.00     0.039 A 
ATOM     44  C   UNL A   1      46.975  26.948  35.391  1.00  0.00     0.014 A 
ATOM     45  C   UNL A   1      48.653  27.578  33.770  1.00  0.00     0.014 A 
ATOM     46  C   UNL A   1      46.015  27.029  34.381  1.00  0.00     0.010 A 
ATOM     47  C   UNL A   1      47.689  27.962  32.894  1.00  0.00     0.010 A 
ATOM     48  C   UNL A   1      46.399  27.528  33.129  1.00  0.00    -0.014 A 
BRANCH  48  49
ATOM     49  C   UNL A   1      45.491  27.714  32.010  1.00  0.00     0.031 A 
ATOM     50  C   UNL A   1      45.458  26.551  31.098  1.00  0.00     0.074 A 
ATOM     51  C   UNL A   1      44.533  28.671  32.024  1.00  0.00     0.049 A 
ATOM     52  N   UNL A   1      46.034  26.447  29.949  1.00  0.00    -0.248 NA
ATOM     53  C   UNL A   1      44.943  25.272  31.620  1.00  0.00     0.031 C 
ATOM     54  C   UNL A   1      44.224  29.649  33.076  1.00  0.00     0.029 A 
ATOM     55  N   UNL A   1      43.533  28.888  31.133  1.00  0.00    -0.354 N 
ATOM     56  C   UNL A   1      45.675  25.190  29.479  1.00  0.00     0.074 A 
ATOM     57  C   UNL A   1      45.314  24.437  30.646  1.00  0.00     0.031 C 
ATOM     58  C   UNL A   1      42.993  30.171  32.864  1.00  0.00     0.029 A 
ATOM     59  C   UNL A   1      42.482  29.677  31.596  1.00  0.00     0.049 A 
ATOM     60  H   UNL A   1      43.548  28.513  30.222  1.00  0.00     0.167 HD
ATOM     61  C   UNL A   1      45.383  24.992  28.162  1.00  0.00     0.034 A 
ATOM     62  C   UNL A   1      41.267  29.848  30.999  1.00  0.00     0.034 A 
ATOM     63  C   UNL A   1      45.770  26.155  27.380  1.00  0.00     0.049 A 
ATOM     64  C   UNL A   1      41.453  29.456  29.571  1.00  0.00     0.074 A 
ATOM     65  C   UNL A   1      46.946  26.871  27.238  1.00  0.00     0.029 A 
ATOM     66  N   UNL A   1      44.771  27.008  26.951  1.00  0.00    -0.354 N 
ATOM     67  N   UNL A   1      42.233  30.111  28.750  1.00  0.00    -0.248 NA
ATOM     68  C   UNL A   1      41.233  28.057  29.220  1.00  0.00     0.031 C 
ATOM     69  C   UNL A   1      46.542  28.239  27.271  1.00  0.00     0.029 A 
ATOM     70  C   UNL A   1      45.146  28.287  27.290  1.00  0.00     0.049 A 
ATOM     71  H   UNL A   1      43.943  26.748  26.488  1.00  0.00     0.167 HD
ATOM     72  C   UNL A   1      42.938  29.134  28.058  1.00  0.00     0.074 A 
ATOM     73  C   UNL A   1      42.223  27.887  28.337  1.00  0.00     0.031 C 
ATOM     74  C   UNL A   1      44.208  29.355  27.595  1.00  0.00     0.034 A 
BRANCH  61  75
ATOM     75  C   UNL A   1      44.403  23.969  27.625  1.00  0.00     0.023 A 
ATOM     76  C   UNL A   1      44.926  23.011  26.735  1.00  0.00     0.031 A 
ATOM     77  C   UNL A   1      42.991  24.019  27.699  1.00  0.00     0.131 A 
ATOM     78  C   UNL A   1      44.085  22.274  25.885  1.00  0.00     0.055 A 
ATOM     79  C   UNL A   1      42.157  23.232  26.900  1.00  0.00     0.041 A 
ATOM     80  F   UNL A   1      42.325  24.877  28.476  1.00  0.00    -0.206 F 
ATOM     81  C   UNL A   1      42.702  22.380  25.958  1.00  0.00     0.022 A 
BRANCH  78  82
ATOM     82  S   UNL A   1      44.853  21.320  24.555  1.00  0.00     0.124 S 
ATOM     83  O   UNL A   1      44.106  20.069  24.629  1.00  0.00    -0.237 OA
ATOM     84  O   UNL A   1      44.588  22.163  23.393  1.00  0.00    -0.237 OA
ATOM     85  O   UNL A   1      46.253  21.241  24.963  1.00  0.00    -0.744 OA
ENDBRANCH  78  82
ENDBRANCH  61  75
BRANCH  62  86
ATOM     86  C   UNL A   1      39.932  29.970  31.672  1.00  0.00     0.023 A 
ATOM     87  C   UNL A   1      39.045  31.056  31.474  1.00  0.00     0.031 A 
ATOM     88  C   UNL A   1      39.404  28.862  32.375  1.00  0.00     0.131 A 
ATOM     89  C   UNL A   1      37.716  31.003  31.978  1.00  0.00     0.055 A 
ATOM     90  C   UNL A   1      38.098  28.816  32.871  1.00  0.00     0.041 A 
ATOM     91  F   UNL A   1      40.117  27.735  32.536  1.00  0.00    -0.206 F 
ATOM     92  C   UNL A   1      37.244  29.885  32.668  1.00  0.00     0.022 A 
BRANCH  89  93
ATOM     93  S   UNL A   1      36.533  32.363  31.670  1.00  0.00     0.124 S 
ATOM     94  O   UNL A   1      35.534  32.147  32.711  1.00  0.00    -0.237 OA
ATOM     95  O   UNL A   1      37.371  33.548  31.808  1.00  0.00    -0.237 OA
ATOM     96  O   UNL A   1      36.062  32.106  30.308  1.00  0.00    -0.744 OA
ENDBRANCH  89  93
ENDBRANCH  62  86
BRANCH  74  97
ATOM     97  C   UNL A   1      44.764  30.770  27.581  1.00  0.00     0.023 A 
ATOM     98  C   UNL A   1      44.491  31.755  26.601  1.00  0.00     0.031 A 
ATOM     99  C   UNL A   1      45.499  31.173  28.712  1.00  0.00     0.131 A 
ATOM    100  C   UNL A   1      44.956  33.076  26.779  1.00  0.00     0.055 A 
ATOM    101  C   UNL A   1      45.934  32.484  28.896  1.00  0.00     0.041 A 
ATOM    102  F   UNL A   1      45.776  30.296  29.691  1.00  0.00    -0.206 F 
ATOM    103  C   UNL A   1      45.669  33.440  27.926  1.00  0.00     0.022 A 
BRANCH 100 104
ATOM    104  S   UNL A   1      44.676  34.353  25.507  1.00  0.00     0.124 S 
ATOM    105  O   UNL A   1      43.601  33.796  24.693  1.00  0.00    -0.237 OA
ATOM    106  O   UNL A   1      44.329  35.524  26.309  1.00  0.00    -0.237 OA
ATOM    107  O   UNL A   1      45.970  34.443  24.827  1.00  0.00    -0.744 OA
ENDBRANCH 100 104
ENDBRANCH  74  97
ENDBRANCH  48  49
ENDBRANCH  40  43
ENDBRANCH  38  39
ENDBRANCH  37  38
ENDBRANCH  36  37
ENDBRANCH  35  36
ENDBRANCH   1  35
TORSDOF 21
ENDMDL
