MODEL 1
REMARK VINA RESULT:     -10.6      0.000      0.000
REMARK SMILES CCN(CCC(=O)NCCCCCCNC(=O)c1ccc(-c2c3nc(c(-c4cc(S(=O)(=O)[O-])ccc4F)c4ccc([nH]4)c(-c4cc(S(=O)(=O)[O-])ccc4F)c4nc(c(-c5cc(S(=O)(=O)[O-])ccc5F)c5ccc2[nH]5)C=C4)C=C3)cc1)C(=O)C1(C)CCCC1
REMARK SMILES IDX 11 1 10 2 9 3 8 4 6 5 7 6 5 8 4 9 3 10 2 11 1 12 81 13 82 14
REMARK SMILES IDX 83 15 84 16 85 17 88 18 86 19 87 20 12 21 13 22 14 23 15 24
REMARK SMILES IDX 16 25 17 27 18 28 19 29 80 30 20 31 79 32 21 33 22 34 23 35
REMARK SMILES IDX 73 36 24 37 78 38 72 39 74 40 25 41 77 42 71 43 70 44 26 46
REMARK SMILES IDX 58 47 38 48 57 49 39 50 42 51 56 52 75 53 40 54 41 55 55 57
REMARK SMILES IDX 76 58 43 59 27 60 28 61 36 62 29 63 35 64 37 65 34 66 30 67
REMARK SMILES IDX 31 68 32 69 33 70 59 71 60 72 68 73 61 74 67 75 69 76 66 77
REMARK SMILES IDX 62 78 63 79 64 80 65 81 44 82 45 83 53 84 46 85 52 86 54 87
REMARK SMILES IDX 51 88 47 89 48 90 49 91 50 92
REMARK H PARENT 8 7 15 26 74 45 42 56
REMARK Flexibility Score: inf
ROOT
ATOM      1  C   UNL A   1      33.769  19.681  24.921  1.00  0.00     0.002 C 
ENDROOT
BRANCH   1   2
ATOM      2  C   UNL A   1      32.740  20.400  24.032  1.00  0.00     0.021 C 
BRANCH   2   3
ATOM      3  C   UNL A   1      31.967  21.548  24.699  1.00  0.00     0.116 C 
BRANCH   3   4
ATOM      4  N   UNL A   1      32.192  21.699  26.126  1.00  0.00    -0.356 N 
ATOM      5  C   UNL A   1      32.545  22.787  26.867  1.00  0.00     0.221 C 
ATOM      6  O   UNL A   1      32.391  22.740  28.091  1.00  0.00    -0.275 OA
ATOM      7  H   UNL A   1      32.070  20.873  26.647  1.00  0.00     0.163 HD
BRANCH   5   8
ATOM      8  C   UNL A   1      33.085  24.035  26.210  1.00  0.00     0.121 C 
BRANCH   8   9
ATOM      9  C   UNL A   1      31.965  24.921  25.659  1.00  0.00     0.129 C 
BRANCH   9  10
ATOM     10  N   UNL A   1      32.396  25.871  24.615  1.00  0.00    -0.342 N 
BRANCH  10  11
ATOM     11  C   UNL A   1      33.435  25.381  23.711  1.00  0.00     0.116 C 
ATOM     12  C   UNL A   1      32.972  25.168  22.281  1.00  0.00     0.027 C 
ENDBRANCH  10  11
BRANCH  10  13
ATOM     13  C   UNL A   1      31.910  27.170  24.718  1.00  0.00     0.228 C 
ATOM     14  O   UNL A   1      30.764  27.398  24.301  1.00  0.00    -0.274 OA
BRANCH  13  15
ATOM     15  C   UNL A   1      32.790  28.403  25.089  1.00  0.00     0.047 C 
ATOM     16  C   UNL A   1      33.324  28.935  23.747  1.00  0.00     0.022 C 
ATOM     17  C   UNL A   1      31.871  29.498  25.738  1.00  0.00     0.016 C 
ATOM     18  C   UNL A   1      33.947  28.296  26.088  1.00  0.00     0.016 C 
ATOM     19  C   UNL A   1      32.403  29.780  27.138  1.00  0.00     0.001 C 
ATOM     20  C   UNL A   1      33.358  28.646  27.430  1.00  0.00     0.001 C 
ENDBRANCH  13  15
ENDBRANCH  10  13
ENDBRANCH   9  10
ENDBRANCH   8   9
ENDBRANCH   5   8
ENDBRANCH   3   4
ENDBRANCH   2   3
ENDBRANCH   1   2
BRANCH   1  21
ATOM     21  C   UNL A   1      35.257  20.063  24.767  1.00  0.00     0.002 C 
BRANCH  21  22
ATOM     22  C   UNL A   1      35.831  21.299  25.475  1.00  0.00     0.021 C 
BRANCH  22  23
ATOM     23  C   UNL A   1      37.271  21.718  25.186  1.00  0.00     0.116 C 
BRANCH  23  24
ATOM     24  N   UNL A   1      38.296  20.719  25.415  1.00  0.00    -0.352 N 
ATOM     25  C   UNL A   1      39.453  20.854  26.160  1.00  0.00     0.251 C 
ATOM     26  H   UNL A   1      38.152  19.842  24.991  1.00  0.00     0.163 HD
ATOM     27  O   UNL A   1      40.201  19.895  26.324  1.00  0.00    -0.269 OA
BRANCH  25  28
ATOM     28  C   UNL A   1      39.826  22.185  26.698  1.00  0.00     0.039 A 
ATOM     29  C   UNL A   1      40.831  22.244  27.667  1.00  0.00     0.014 A 
ATOM     30  C   UNL A   1      39.249  23.364  26.216  1.00  0.00     0.014 A 
ATOM     31  C   UNL A   1      41.327  23.484  28.078  1.00  0.00     0.010 A 
ATOM     32  C   UNL A   1      39.776  24.605  26.599  1.00  0.00     0.010 A 
ATOM     33  C   UNL A   1      40.845  24.675  27.508  1.00  0.00    -0.014 A 
BRANCH  33  34
ATOM     34  C   UNL A   1      41.539  25.964  27.786  1.00  0.00     0.031 A 
ATOM     35  C   UNL A   1      42.949  26.217  27.335  1.00  0.00     0.074 A 
ATOM     36  C   UNL A   1      40.888  26.917  28.484  1.00  0.00     0.049 A 
ATOM     37  N   UNL A   1      43.669  27.306  27.450  1.00  0.00    -0.248 NA
ATOM     38  C   UNL A   1      43.644  25.098  26.691  1.00  0.00     0.031 C 
ATOM     39  C   UNL A   1      39.535  26.779  29.031  1.00  0.00     0.029 A 
ATOM     40  N   UNL A   1      41.266  28.184  28.853  1.00  0.00    -0.354 N 
ATOM     41  C   UNL A   1      44.902  27.011  26.878  1.00  0.00     0.074 A 
ATOM     42  C   UNL A   1      44.846  25.617  26.481  1.00  0.00     0.031 C 
ATOM     43  C   UNL A   1      39.190  27.922  29.644  1.00  0.00     0.029 A 
ATOM     44  C   UNL A   1      40.303  28.864  29.564  1.00  0.00     0.049 A 
ATOM     45  H   UNL A   1      42.143  28.571  28.630  1.00  0.00     0.167 HD
ATOM     46  C   UNL A   1      45.968  27.830  26.683  1.00  0.00     0.034 A 
ATOM     47  C   UNL A   1      40.309  30.101  30.099  1.00  0.00     0.034 A 
ATOM     48  C   UNL A   1      46.018  29.213  27.103  1.00  0.00     0.049 A 
ATOM     49  C   UNL A   1      41.517  30.980  29.911  1.00  0.00     0.074 A 
ATOM     50  C   UNL A   1      47.018  30.147  26.884  1.00  0.00     0.029 A 
ATOM     51  N   UNL A   1      45.041  29.856  27.854  1.00  0.00    -0.354 N 
ATOM     52  N   UNL A   1      42.640  30.716  29.284  1.00  0.00    -0.248 NA
ATOM     53  C   UNL A   1      41.453  32.327  30.493  1.00  0.00     0.031 C 
ATOM     54  C   UNL A   1      46.684  31.321  27.568  1.00  0.00     0.029 A 
ATOM     55  C   UNL A   1      45.439  31.154  28.152  1.00  0.00     0.049 A 
ATOM     56  H   UNL A   1      44.189  29.451  28.135  1.00  0.00     0.167 HD
ATOM     57  C   UNL A   1      43.413  31.868  29.390  1.00  0.00     0.074 A 
ATOM     58  C   UNL A   1      42.618  32.836  30.119  1.00  0.00     0.031 C 
ATOM     59  C   UNL A   1      44.666  32.104  28.921  1.00  0.00     0.034 A 
BRANCH  46  60
ATOM     60  C   UNL A   1      47.181  27.231  26.007  1.00  0.00     0.023 A 
ATOM     61  C   UNL A   1      48.129  26.481  26.726  1.00  0.00     0.031 A 
ATOM     62  C   UNL A   1      47.419  27.446  24.637  1.00  0.00     0.131 A 
ATOM     63  C   UNL A   1      49.310  26.055  26.099  1.00  0.00     0.055 A 
ATOM     64  C   UNL A   1      48.554  26.943  23.998  1.00  0.00     0.041 A 
ATOM     65  F   UNL A   1      46.560  28.166  23.899  1.00  0.00    -0.206 F 
ATOM     66  C   UNL A   1      49.519  26.260  24.734  1.00  0.00     0.022 A 
BRANCH  63  67
ATOM     67  S   UNL A   1      50.642  25.386  27.133  1.00  0.00     0.124 S 
ATOM     68  O   UNL A   1      51.569  24.873  26.128  1.00  0.00    -0.237 OA
ATOM     69  O   UNL A   1      51.086  26.561  27.874  1.00  0.00    -0.237 OA
ATOM     70  O   UNL A   1      49.973  24.360  27.931  1.00  0.00    -0.744 OA
ENDBRANCH  63  67
ENDBRANCH  46  60
BRANCH  47  71
ATOM     71  C   UNL A   1      39.136  30.572  30.887  1.00  0.00     0.023 A 
ATOM     72  C   UNL A   1      38.105  31.314  30.291  1.00  0.00     0.031 A 
ATOM     73  C   UNL A   1      39.038  30.284  32.261  1.00  0.00     0.131 A 
ATOM     74  C   UNL A   1      37.030  31.766  31.074  1.00  0.00     0.055 A 
ATOM     75  C   UNL A   1      37.947  30.700  33.025  1.00  0.00     0.041 A 
ATOM     76  F   UNL A   1      39.996  29.571  32.875  1.00  0.00    -0.206 F 
ATOM     77  C   UNL A   1      36.938  31.452  32.433  1.00  0.00     0.022 A 
BRANCH  74  78
ATOM     78  S   UNL A   1      35.766  32.812  30.299  1.00  0.00     0.124 S 
ATOM     79  O   UNL A   1      35.022  31.841  29.505  1.00  0.00    -0.237 OA
ATOM     80  O   UNL A   1      35.073  33.360  31.460  1.00  0.00    -0.237 OA
ATOM     81  O   UNL A   1      36.550  33.779  29.533  1.00  0.00    -0.744 OA
ENDBRANCH  74  78
ENDBRANCH  47  71
BRANCH  59  82
ATOM     82  C   UNL A   1      45.251  33.470  29.189  1.00  0.00     0.023 A 
ATOM     83  C   UNL A   1      44.960  34.571  28.363  1.00  0.00     0.031 A 
ATOM     84  C   UNL A   1      46.124  33.672  30.274  1.00  0.00     0.131 A 
ATOM     85  C   UNL A   1      45.577  35.809  28.601  1.00  0.00     0.055 A 
ATOM     86  C   UNL A   1      46.690  34.921  30.540  1.00  0.00     0.041 A 
ATOM     87  F   UNL A   1      46.443  32.658  31.092  1.00  0.00    -0.206 F 
ATOM     88  C   UNL A   1      46.426  35.995  29.694  1.00  0.00     0.022 A 
BRANCH  85  89
ATOM     89  S   UNL A   1      45.322  37.155  27.412  1.00  0.00     0.124 S 
ATOM     90  O   UNL A   1      43.999  36.843  26.879  1.00  0.00    -0.237 OA
ATOM     91  O   UNL A   1      45.405  38.341  28.259  1.00  0.00    -0.237 OA
ATOM     92  O   UNL A   1      46.425  36.993  26.467  1.00  0.00    -0.744 OA
ENDBRANCH  85  89
ENDBRANCH  59  82
ENDBRANCH  33  34
ENDBRANCH  25  28
ENDBRANCH  23  24
ENDBRANCH  22  23
ENDBRANCH  21  22
ENDBRANCH   1  21
TORSDOF 21
ENDMDL
MODEL 2
REMARK VINA RESULT:     -10.5      1.768      7.723
REMARK SMILES CCN(CCC(=O)NCCCCCCNC(=O)c1ccc(-c2c3nc(c(-c4cc(S(=O)(=O)[O-])ccc4F)c4ccc([nH]4)c(-c4cc(S(=O)(=O)[O-])ccc4F)c4nc(c(-c5cc(S(=O)(=O)[O-])ccc5F)c5ccc2[nH]5)C=C4)C=C3)cc1)C(=O)C1(C)CCCC1
REMARK SMILES IDX 11 1 10 2 9 3 8 4 6 5 7 6 5 8 4 9 3 10 2 11 1 12 81 13 82 14
REMARK SMILES IDX 83 15 84 16 85 17 88 18 86 19 87 20 12 21 13 22 14 23 15 24
REMARK SMILES IDX 16 25 17 27 18 28 19 29 80 30 20 31 79 32 21 33 22 34 23 35
REMARK SMILES IDX 73 36 24 37 78 38 72 39 74 40 25 41 77 42 71 43 70 44 26 46
REMARK SMILES IDX 58 47 38 48 57 49 39 50 42 51 56 52 75 53 40 54 41 55 55 57
REMARK SMILES IDX 76 58 43 59 27 60 28 61 36 62 29 63 35 64 37 65 34 66 30 67
REMARK SMILES IDX 31 68 32 69 33 70 59 71 60 72 68 73 61 74 67 75 69 76 66 77
REMARK SMILES IDX 62 78 63 79 64 80 65 81 44 82 45 83 53 84 46 85 52 86 54 87
REMARK SMILES IDX 51 88 47 89 48 90 49 91 50 92
REMARK H PARENT 8 7 15 26 74 45 42 56
REMARK Flexibility Score: inf
ROOT
ATOM      1  C   UNL A   1      34.806  21.648  25.167  1.00  0.00     0.002 C 
ENDROOT
BRANCH   1   2
ATOM      2  C   UNL A   1      33.527  21.072  25.798  1.00  0.00     0.021 C 
BRANCH   2   3
ATOM      3  C   UNL A   1      32.204  21.656  25.279  1.00  0.00     0.116 C 
BRANCH   3   4
ATOM      4  N   UNL A   1      31.283  22.111  26.306  1.00  0.00    -0.356 N 
ATOM      5  C   UNL A   1      30.842  23.360  26.624  1.00  0.00     0.221 C 
ATOM      6  O   UNL A   1      29.841  23.467  27.339  1.00  0.00    -0.275 OA
ATOM      7  H   UNL A   1      30.915  21.393  26.869  1.00  0.00     0.163 HD
BRANCH   5   8
ATOM      8  C   UNL A   1      31.538  24.592  26.092  1.00  0.00     0.121 C 
BRANCH   8   9
ATOM      9  C   UNL A   1      30.789  25.203  24.905  1.00  0.00     0.129 C 
BRANCH   9  10
ATOM     10  N   UNL A   1      31.597  26.125  24.084  1.00  0.00    -0.342 N 
BRANCH  10  11
ATOM     11  C   UNL A   1      32.642  25.496  23.278  1.00  0.00     0.116 C 
ATOM     12  C   UNL A   1      32.523  25.752  21.786  1.00  0.00     0.027 C 
ENDBRANCH  10  11
BRANCH  10  13
ATOM     13  C   UNL A   1      31.404  27.485  24.303  1.00  0.00     0.228 C 
ATOM     14  O   UNL A   1      30.418  28.024  23.778  1.00  0.00    -0.274 OA
BRANCH  13  15
ATOM     15  C   UNL A   1      32.468  28.424  24.951  1.00  0.00     0.047 C 
ATOM     16  C   UNL A   1      33.257  29.014  23.768  1.00  0.00     0.022 C 
ATOM     17  C   UNL A   1      31.723  29.588  25.693  1.00  0.00     0.016 C 
ATOM     18  C   UNL A   1      33.450  27.917  26.012  1.00  0.00     0.016 C 
ATOM     19  C   UNL A   1      32.130  29.537  27.161  1.00  0.00     0.001 C 
ATOM     20  C   UNL A   1      32.789  28.190  27.338  1.00  0.00     0.001 C 
ENDBRANCH  13  15
ENDBRANCH  10  13
ENDBRANCH   9  10
ENDBRANCH   8   9
ENDBRANCH   5   8
ENDBRANCH   3   4
ENDBRANCH   2   3
ENDBRANCH   1   2
BRANCH   1  21
ATOM     21  C   UNL A   1      36.015  20.704  24.983  1.00  0.00     0.002 C 
BRANCH  21  22
ATOM     22  C   UNL A   1      37.408  21.261  24.655  1.00  0.00     0.021 C 
BRANCH  22  23
ATOM     23  C   UNL A   1      38.506  21.184  25.714  1.00  0.00     0.116 C 
BRANCH  23  24
ATOM     24  N   UNL A   1      39.339  19.997  25.700  1.00  0.00    -0.352 N 
ATOM     25  C   UNL A   1      40.651  19.884  26.119  1.00  0.00     0.251 C 
ATOM     26  H   UNL A   1      38.921  19.176  25.351  1.00  0.00     0.163 HD
ATOM     27  O   UNL A   1      41.213  18.792  26.113  1.00  0.00    -0.269 OA
BRANCH  25  28
ATOM     28  C   UNL A   1      41.403  21.101  26.508  1.00  0.00     0.039 A 
ATOM     29  C   UNL A   1      41.966  21.879  25.493  1.00  0.00     0.014 A 
ATOM     30  C   UNL A   1      41.502  21.514  27.841  1.00  0.00     0.014 A 
ATOM     31  C   UNL A   1      42.537  23.117  25.801  1.00  0.00     0.010 A 
ATOM     32  C   UNL A   1      42.038  22.773  28.143  1.00  0.00     0.010 A 
ATOM     33  C   UNL A   1      42.529  23.602  27.121  1.00  0.00    -0.014 A 
BRANCH  33  34
ATOM     34  C   UNL A   1      42.931  25.011  27.395  1.00  0.00     0.031 A 
ATOM     35  C   UNL A   1      41.977  26.003  27.996  1.00  0.00     0.074 A 
ATOM     36  C   UNL A   1      44.178  25.407  27.069  1.00  0.00     0.049 A 
ATOM     37  N   UNL A   1      42.193  27.247  28.347  1.00  0.00    -0.248 NA
ATOM     38  C   UNL A   1      40.601  25.545  28.211  1.00  0.00     0.031 C 
ATOM     39  C   UNL A   1      45.187  24.560  26.427  1.00  0.00     0.029 A 
ATOM     40  N   UNL A   1      44.815  26.613  27.231  1.00  0.00    -0.354 N 
ATOM     41  C   UNL A   1      40.983  27.720  28.842  1.00  0.00     0.074 A 
ATOM     42  C   UNL A   1      40.025  26.644  28.678  1.00  0.00     0.031 C 
ATOM     43  C   UNL A   1      46.318  25.264  26.271  1.00  0.00     0.029 A 
ATOM     44  C   UNL A   1      46.111  26.621  26.771  1.00  0.00     0.049 A 
ATOM     45  H   UNL A   1      44.383  27.399  27.639  1.00  0.00     0.167 HD
ATOM     46  C   UNL A   1      40.704  28.927  29.398  1.00  0.00     0.034 A 
ATOM     47  C   UNL A   1      47.033  27.604  26.745  1.00  0.00     0.034 A 
ATOM     48  C   UNL A   1      41.665  30.000  29.537  1.00  0.00     0.049 A 
ATOM     49  C   UNL A   1      46.693  28.950  27.328  1.00  0.00     0.074 A 
ATOM     50  C   UNL A   1      41.504  31.229  30.156  1.00  0.00     0.029 A 
ATOM     51  N   UNL A   1      42.956  29.986  29.025  1.00  0.00    -0.354 N 
ATOM     52  N   UNL A   1      45.570  29.351  27.877  1.00  0.00    -0.248 NA
ATOM     53  C   UNL A   1      47.747  29.971  27.296  1.00  0.00     0.031 C 
ATOM     54  C   UNL A   1      42.663  31.985  29.947  1.00  0.00     0.029 A 
ATOM     55  C   UNL A   1      43.583  31.204  29.265  1.00  0.00     0.049 A 
ATOM     56  H   UNL A   1      43.369  29.225  28.558  1.00  0.00     0.167 HD
ATOM     57  C   UNL A   1      45.787  30.669  28.265  1.00  0.00     0.074 A 
ATOM     58  C   UNL A   1      47.155  30.987  27.907  1.00  0.00     0.031 C 
ATOM     59  C   UNL A   1      44.932  31.536  28.866  1.00  0.00     0.034 A 
BRANCH  46  60
ATOM     60  C   UNL A   1      39.286  29.156  29.873  1.00  0.00     0.023 A 
ATOM     61  C   UNL A   1      38.365  29.897  29.111  1.00  0.00     0.031 A 
ATOM     62  C   UNL A   1      38.858  28.664  31.120  1.00  0.00     0.131 A 
ATOM     63  C   UNL A   1      37.103  30.205  29.640  1.00  0.00     0.055 A 
ATOM     64  C   UNL A   1      37.569  28.900  31.602  1.00  0.00     0.041 A 
ATOM     65  F   UNL A   1      39.694  27.963  31.901  1.00  0.00    -0.206 F 
ATOM     66  C   UNL A   1      36.689  29.692  30.870  1.00  0.00     0.022 A 
BRANCH  63  67
ATOM     67  S   UNL A   1      36.081  31.428  28.774  1.00  0.00     0.124 S 
ATOM     68  O   UNL A   1      35.055  31.718  29.773  1.00  0.00    -0.237 OA
ATOM     69  O   UNL A   1      37.033  32.500  28.504  1.00  0.00    -0.237 OA
ATOM     70  O   UNL A   1      35.604  30.704  27.597  1.00  0.00    -0.744 OA
ENDBRANCH  63  67
ENDBRANCH  46  60
BRANCH  47  71
ATOM     71  C   UNL A   1      48.363  27.355  26.122  1.00  0.00     0.023 A 
ATOM     72  C   UNL A   1      48.572  27.544  24.746  1.00  0.00     0.031 A 
ATOM     73  C   UNL A   1      49.447  26.916  26.904  1.00  0.00     0.131 A 
ATOM     74  C   UNL A   1      49.832  27.270  24.190  1.00  0.00     0.055 A 
ATOM     75  C   UNL A   1      50.708  26.685  26.353  1.00  0.00     0.041 A 
ATOM     76  F   UNL A   1      49.298  26.729  28.225  1.00  0.00    -0.206 F 
ATOM     77  C   UNL A   1      50.904  26.855  24.987  1.00  0.00     0.022 A 
BRANCH  74  78
ATOM     78  S   UNL A   1      50.044  27.421  22.395  1.00  0.00     0.124 S 
ATOM     79  O   UNL A   1      51.321  26.747  22.188  1.00  0.00    -0.237 OA
ATOM     80  O   UNL A   1      48.863  26.729  21.891  1.00  0.00    -0.237 OA
ATOM     81  O   UNL A   1      50.056  28.866  22.175  1.00  0.00    -0.744 OA
ENDBRANCH  74  78
ENDBRANCH  47  71
BRANCH  59  82
ATOM     82  C   UNL A   1      45.461  32.918  29.171  1.00  0.00     0.023 A 
ATOM     83  C   UNL A   1      45.386  33.960  28.229  1.00  0.00     0.031 A 
ATOM     84  C   UNL A   1      46.063  33.194  30.412  1.00  0.00     0.131 A 
ATOM     85  C   UNL A   1      45.950  35.212  28.520  1.00  0.00     0.055 A 
ATOM     86  C   UNL A   1      46.572  34.458  30.718  1.00  0.00     0.041 A 
ATOM     87  F   UNL A   1      46.169  32.238  31.348  1.00  0.00    -0.206 F 
ATOM     88  C   UNL A   1      46.527  35.472  29.765  1.00  0.00     0.022 A 
BRANCH  85  89
ATOM     89  S   UNL A   1      45.999  36.474  27.218  1.00  0.00     0.124 S 
ATOM     90  O   UNL A   1      44.915  36.043  26.339  1.00  0.00    -0.237 OA
ATOM     91  O   UNL A   1      45.762  37.704  27.965  1.00  0.00    -0.237 OA
ATOM     92  O   UNL A   1      47.342  36.339  26.657  1.00  0.00    -0.744 OA
ENDBRANCH  85  89
ENDBRANCH  59  82
ENDBRANCH  33  34
ENDBRANCH  25  28
ENDBRANCH  23  24
ENDBRANCH  22  23
ENDBRANCH  21  22
ENDBRANCH   1  21
TORSDOF 21
ENDMDL
MODEL 3
REMARK VINA RESULT:     -10.5      2.116      2.876
REMARK SMILES CCN(CCC(=O)NCCCCCCNC(=O)c1ccc(-c2c3nc(c(-c4cc(S(=O)(=O)[O-])ccc4F)c4ccc([nH]4)c(-c4cc(S(=O)(=O)[O-])ccc4F)c4nc(c(-c5cc(S(=O)(=O)[O-])ccc5F)c5ccc2[nH]5)C=C4)C=C3)cc1)C(=O)C1(C)CCCC1
REMARK SMILES IDX 11 1 10 2 9 3 8 4 6 5 7 6 5 8 4 9 3 10 2 11 1 12 81 13 82 14
REMARK SMILES IDX 83 15 84 16 85 17 88 18 86 19 87 20 12 21 13 22 14 23 15 24
REMARK SMILES IDX 16 25 17 27 18 28 19 29 80 30 20 31 79 32 21 33 22 34 23 35
REMARK SMILES IDX 73 36 24 37 78 38 72 39 74 40 25 41 77 42 71 43 70 44 26 46
REMARK SMILES IDX 58 47 38 48 57 49 39 50 42 51 56 52 75 53 40 54 41 55 55 57
REMARK SMILES IDX 76 58 43 59 27 60 28 61 36 62 29 63 35 64 37 65 34 66 30 67
REMARK SMILES IDX 31 68 32 69 33 70 59 71 60 72 68 73 61 74 67 75 69 76 66 77
REMARK SMILES IDX 62 78 63 79 64 80 65 81 44 82 45 83 53 84 46 85 52 86 54 87
REMARK SMILES IDX 51 88 47 89 48 90 49 91 50 92
REMARK H PARENT 8 7 15 26 74 45 42 56
REMARK Flexibility Score: inf
ROOT
ATOM      1  C   UNL A   1      34.571  21.066  25.648  1.00  0.00     0.002 C 
ENDROOT
BRANCH   1   2
ATOM      2  C   UNL A   1      33.289  20.293  25.291  1.00  0.00     0.021 C 
BRANCH   2   3
ATOM      3  C   UNL A   1      32.041  21.151  25.035  1.00  0.00     0.116 C 
BRANCH   3   4
ATOM      4  N   UNL A   1      31.444  21.743  26.218  1.00  0.00    -0.356 N 
ATOM      5  C   UNL A   1      30.901  22.976  26.427  1.00  0.00     0.221 C 
ATOM      6  O   UNL A   1      30.194  23.146  27.425  1.00  0.00    -0.275 OA
ATOM      7  H   UNL A   1      31.429  21.153  27.006  1.00  0.00     0.163 HD
BRANCH   5   8
ATOM      8  C   UNL A   1      31.131  24.104  25.449  1.00  0.00     0.121 C 
BRANCH   8   9
ATOM      9  C   UNL A   1      32.314  24.983  25.858  1.00  0.00     0.129 C 
BRANCH   9  10
ATOM     10  N   UNL A   1      33.182  25.399  24.740  1.00  0.00    -0.342 N 
BRANCH  10  11
ATOM     11  C   UNL A   1      34.004  24.339  24.157  1.00  0.00     0.116 C 
ATOM     12  C   UNL A   1      33.464  23.769  22.858  1.00  0.00     0.027 C 
ENDBRANCH  10  11
BRANCH  10  13
ATOM     13  C   UNL A   1      33.261  26.764  24.487  1.00  0.00     0.228 C 
ATOM     14  O   UNL A   1      33.739  27.492  25.370  1.00  0.00    -0.274 OA
BRANCH  13  15
ATOM     15  C   UNL A   1      32.568  27.469  23.281  1.00  0.00     0.047 C 
ATOM     16  C   UNL A   1      33.596  27.413  22.136  1.00  0.00     0.022 C 
ATOM     17  C   UNL A   1      31.306  26.633  22.869  1.00  0.00     0.016 C 
ATOM     18  C   UNL A   1      32.011  28.893  23.391  1.00  0.00     0.016 C 
ATOM     19  C   UNL A   1      30.088  27.541  22.992  1.00  0.00     0.001 C 
ATOM     20  C   UNL A   1      30.566  28.733  23.787  1.00  0.00     0.001 C 
ENDBRANCH  13  15
ENDBRANCH  10  13
ENDBRANCH   9  10
ENDBRANCH   8   9
ENDBRANCH   5   8
ENDBRANCH   3   4
ENDBRANCH   2   3
ENDBRANCH   1   2
BRANCH   1  21
ATOM     21  C   UNL A   1      35.858  20.745  24.857  1.00  0.00     0.002 C 
BRANCH  21  22
ATOM     22  C   UNL A   1      36.836  21.859  24.458  1.00  0.00     0.021 C 
BRANCH  22  23
ATOM     23  C   UNL A   1      37.779  22.432  25.515  1.00  0.00     0.116 C 
BRANCH  23  24
ATOM     24  N   UNL A   1      39.055  21.762  25.678  1.00  0.00    -0.352 N 
ATOM     25  C   UNL A   1      40.189  22.249  26.301  1.00  0.00     0.251 C 
ATOM     26  H   UNL A   1      39.121  20.854  25.301  1.00  0.00     0.163 HD
ATOM     27  O   UNL A   1      41.182  21.538  26.425  1.00  0.00    -0.269 OA
BRANCH  25  28
ATOM     28  C   UNL A   1      40.226  23.661  26.753  1.00  0.00     0.039 A 
ATOM     29  C   UNL A   1      40.328  23.909  28.124  1.00  0.00     0.014 A 
ATOM     30  C   UNL A   1      40.229  24.726  25.847  1.00  0.00     0.014 A 
ATOM     31  C   UNL A   1      40.535  25.215  28.579  1.00  0.00     0.010 A 
ATOM     32  C   UNL A   1      40.476  26.028  26.302  1.00  0.00     0.010 A 
ATOM     33  C   UNL A   1      40.667  26.279  27.671  1.00  0.00    -0.014 A 
BRANCH  33  34
ATOM     34  C   UNL A   1      41.112  27.616  28.156  1.00  0.00     0.031 A 
ATOM     35  C   UNL A   1      42.563  28.001  28.195  1.00  0.00     0.074 A 
ATOM     36  C   UNL A   1      40.185  28.492  28.595  1.00  0.00     0.049 A 
ATOM     37  N   UNL A   1      43.105  29.145  28.536  1.00  0.00    -0.248 NA
ATOM     38  C   UNL A   1      43.529  26.962  27.823  1.00  0.00     0.031 C 
ATOM     39  C   UNL A   1      38.746  28.224  28.665  1.00  0.00     0.029 A 
ATOM     40  N   UNL A   1      40.305  29.778  29.062  1.00  0.00    -0.354 N 
ATOM     41  C   UNL A   1      44.478  28.971  28.405  1.00  0.00     0.074 A 
ATOM     42  C   UNL A   1      44.681  27.588  28.019  1.00  0.00     0.031 C 
ATOM     43  C   UNL A   1      38.117  29.318  29.123  1.00  0.00     0.029 A 
ATOM     44  C   UNL A   1      39.106  30.354  29.411  1.00  0.00     0.049 A 
ATOM     45  H   UNL A   1      41.169  30.244  29.139  1.00  0.00     0.167 HD
ATOM     46  C   UNL A   1      45.471  29.883  28.569  1.00  0.00     0.034 A 
ATOM     47  C   UNL A   1      38.824  31.574  29.911  1.00  0.00     0.034 A 
ATOM     48  C   UNL A   1      45.256  31.255  28.974  1.00  0.00     0.049 A 
ATOM     49  C   UNL A   1      39.943  32.558  30.128  1.00  0.00     0.074 A 
ATOM     50  C   UNL A   1      46.185  32.276  29.093  1.00  0.00     0.029 A 
ATOM     51  N   UNL A   1      44.034  31.792  29.357  1.00  0.00    -0.354 N 
ATOM     52  N   UNL A   1      41.228  32.407  29.909  1.00  0.00    -0.248 NA
ATOM     53  C   UNL A   1      39.570  33.879  30.648  1.00  0.00     0.031 C 
ATOM     54  C   UNL A   1      45.541  33.401  29.622  1.00  0.00     0.029 A 
ATOM     55  C   UNL A   1      44.193  33.112  29.763  1.00  0.00     0.049 A 
ATOM     56  H   UNL A   1      43.176  31.309  29.343  1.00  0.00     0.167 HD
ATOM     57  C   UNL A   1      41.817  33.618  30.257  1.00  0.00     0.074 A 
ATOM     58  C   UNL A   1      40.743  34.496  30.678  1.00  0.00     0.031 C 
ATOM     59  C   UNL A   1      43.128  33.973  30.228  1.00  0.00     0.034 A 
BRANCH  46  60
ATOM     60  C   UNL A   1      46.888  29.409  28.335  1.00  0.00     0.023 A 
ATOM     61  C   UNL A   1      47.346  29.066  27.049  1.00  0.00     0.031 A 
ATOM     62  C   UNL A   1      47.782  29.256  29.410  1.00  0.00     0.131 A 
ATOM     63  C   UNL A   1      48.620  28.501  26.885  1.00  0.00     0.055 A 
ATOM     64  C   UNL A   1      49.081  28.776  29.227  1.00  0.00     0.041 A 
ATOM     65  F   UNL A   1      47.400  29.552  30.662  1.00  0.00    -0.206 F 
ATOM     66  C   UNL A   1      49.500  28.376  27.962  1.00  0.00     0.022 A 
BRANCH  63  67
ATOM     67  S   UNL A   1      49.040  27.774  25.277  1.00  0.00     0.124 S 
ATOM     68  O   UNL A   1      48.952  26.345  25.566  1.00  0.00    -0.237 OA
ATOM     69  O   UNL A   1      48.004  28.317  24.406  1.00  0.00    -0.237 OA
ATOM     70  O   UNL A   1      50.393  28.266  25.022  1.00  0.00    -0.744 OA
ENDBRANCH  63  67
ENDBRANCH  46  60
BRANCH  47  71
ATOM     71  C   UNL A   1      37.420  31.922  30.265  1.00  0.00     0.023 A 
ATOM     72  C   UNL A   1      36.522  32.408  29.301  1.00  0.00     0.031 A 
ATOM     73  C   UNL A   1      36.960  31.775  31.586  1.00  0.00     0.131 A 
ATOM     74  C   UNL A   1      35.215  32.754  29.680  1.00  0.00     0.055 A 
ATOM     75  C   UNL A   1      35.647  32.081  31.948  1.00  0.00     0.041 A 
ATOM     76  F   UNL A   1      37.779  31.307  32.542  1.00  0.00    -0.206 F 
ATOM     77  C   UNL A   1      34.768  32.580  30.993  1.00  0.00     0.022 A 
BRANCH  74  78
ATOM     78  S   UNL A   1      34.109  33.478  28.437  1.00  0.00     0.124 S 
ATOM     79  O   UNL A   1      35.044  34.234  27.612  1.00  0.00    -0.237 OA
ATOM     80  O   UNL A   1      33.525  32.290  27.823  1.00  0.00    -0.237 OA
ATOM     81  O   UNL A   1      33.185  34.283  29.232  1.00  0.00    -0.744 OA
ENDBRANCH  74  78
ENDBRANCH  47  71
BRANCH  59  82
ATOM     82  C   UNL A   1      43.467  35.377  30.667  1.00  0.00     0.023 A 
ATOM     83  C   UNL A   1      43.499  36.447  29.754  1.00  0.00     0.031 A 
ATOM     84  C   UNL A   1      43.779  35.649  32.012  1.00  0.00     0.131 A 
ATOM     85  C   UNL A   1      43.887  37.726  30.184  1.00  0.00     0.055 A 
ATOM     86  C   UNL A   1      44.108  36.935  32.445  1.00  0.00     0.041 A 
ATOM     87  F   UNL A   1      43.771  34.668  32.927  1.00  0.00    -0.206 F 
ATOM     88  C   UNL A   1      44.175  37.980  31.527  1.00  0.00     0.022 A 
BRANCH  85  89
ATOM     89  S   UNL A   1      44.095  39.038  28.949  1.00  0.00     0.124 S 
ATOM     90  O   UNL A   1      45.545  39.207  28.927  1.00  0.00    -0.237 OA
ATOM     91  O   UNL A   1      43.504  38.442  27.755  1.00  0.00    -0.237 OA
ATOM     92  O   UNL A   1      43.349  40.163  29.512  1.00  0.00    -0.744 OA
ENDBRANCH  85  89
ENDBRANCH  59  82
ENDBRANCH  33  34
ENDBRANCH  25  28
ENDBRANCH  23  24
ENDBRANCH  22  23
ENDBRANCH  21  22
ENDBRANCH   1  21
TORSDOF 21
ENDMDL
