MODEL 1
REMARK VINA RESULT:      -9.3      0.000      0.000
REMARK SMILES CC(=O)Oc1ccccc1C(=O)NCCCCCCNC(=O)c1ccc(-c2c3nc(c(-c4cc(S(=O)(=O)[O-])ccc4F)c4ccc([nH]4)c(-c4cc(S(=O)(=O)[O-])ccc4F)c4nc(c(-c5cc(S(=O)(=O)[O-])ccc5F)c5ccc2[nH]5)C=C4)C=C3)cc1
REMARK SMILES IDX 17 1 16 2 15 3 14 4 13 5 11 6 12 7 10 9 5 10 6 11 7 12 9 13
REMARK SMILES IDX 8 14 4 15 2 16 1 17 3 18 18 19 19 20 20 21 21 22 22 24 23 25
REMARK SMILES IDX 24 26 85 27 25 28 84 29 26 30 27 31 28 32 78 33 29 34 83 35
REMARK SMILES IDX 77 36 79 37 30 38 82 39 76 40 75 41 31 43 63 44 43 45 62 46
REMARK SMILES IDX 44 47 47 48 61 49 80 50 45 51 46 52 60 54 81 55 48 56 32 57
REMARK SMILES IDX 33 58 41 59 34 60 40 61 42 62 39 63 35 64 36 65 37 66 38 67
REMARK SMILES IDX 64 68 65 69 73 70 66 71 72 72 74 73 71 74 67 75 68 76 69 77
REMARK SMILES IDX 70 78 49 79 50 80 58 81 51 82 57 83 59 84 56 85 52 86 53 87
REMARK SMILES IDX 54 88 55 89
REMARK H PARENT 13 8 20 23 79 42 47 53
REMARK Flexibility Score: inf
ROOT
ATOM      1  C   UNL A   1      33.749  35.618  28.967  1.00  0.00     0.002 C 
ENDROOT
BRANCH   1   2
ATOM      2  C   UNL A   1      33.154  36.151  30.276  1.00  0.00     0.002 C 
BRANCH   2   3
ATOM      3  C   UNL A   1      34.085  36.284  31.486  1.00  0.00     0.021 C 
BRANCH   3   4
ATOM      4  C   UNL A   1      33.801  35.384  32.683  1.00  0.00     0.116 C 
BRANCH   4   5
ATOM      5  N   UNL A   1      33.843  33.967  32.423  1.00  0.00    -0.352 N 
ATOM      6  C   UNL A   1      34.854  33.170  31.936  1.00  0.00     0.255 C 
ATOM      7  O   UNL A   1      34.608  31.964  31.846  1.00  0.00    -0.269 OA
ATOM      8  H   UNL A   1      33.009  33.488  32.629  1.00  0.00     0.163 HD
BRANCH   6   9
ATOM      9  C   UNL A   1      36.176  33.663  31.433  1.00  0.00     0.082 A 
ATOM     10  C   UNL A   1      37.130  34.437  32.104  1.00  0.00     0.143 A 
ATOM     11  C   UNL A   1      38.313  34.852  31.469  1.00  0.00     0.048 A 
ATOM     12  C   UNL A   1      38.594  34.451  30.167  1.00  0.00     0.004 A 
ATOM     13  C   UNL A   1      36.500  33.248  30.122  1.00  0.00     0.018 A 
ATOM     14  C   UNL A   1      37.692  33.636  29.496  1.00  0.00     0.001 A 
BRANCH  10  15
ATOM     15  O   UNL A   1      36.976  34.929  33.403  1.00  0.00    -0.426 OA
BRANCH  15  16
ATOM     16  C   UNL A   1      37.977  34.581  34.303  1.00  0.00     0.308 C 
ATOM     17  C   UNL A   1      37.819  33.126  34.653  1.00  0.00     0.139 C 
ATOM     18  O   UNL A   1      38.843  35.316  34.750  1.00  0.00    -0.252 OA
ENDBRANCH  15  16
ENDBRANCH  10  15
ENDBRANCH   6   9
ENDBRANCH   4   5
ENDBRANCH   3   4
ENDBRANCH   2   3
ENDBRANCH   1   2
BRANCH   1  19
ATOM     19  C   UNL A   1      33.169  34.319  28.403  1.00  0.00     0.021 C 
BRANCH  19  20
ATOM     20  C   UNL A   1      34.105  33.117  28.330  1.00  0.00     0.116 C 
BRANCH  20  21
ATOM     21  N   UNL A   1      33.505  31.961  27.694  1.00  0.00    -0.352 N 
ATOM     22  C   UNL A   1      34.020  30.707  27.455  1.00  0.00     0.251 C 
ATOM     23  H   UNL A   1      32.581  32.094  27.382  1.00  0.00     0.163 HD
ATOM     24  O   UNL A   1      33.365  29.919  26.776  1.00  0.00    -0.269 OA
BRANCH  22  25
ATOM     25  C   UNL A   1      35.352  30.305  27.973  1.00  0.00     0.039 A 
ATOM     26  C   UNL A   1      35.427  29.735  29.250  1.00  0.00     0.014 A 
ATOM     27  C   UNL A   1      36.528  30.517  27.248  1.00  0.00     0.014 A 
ATOM     28  C   UNL A   1      36.662  29.328  29.767  1.00  0.00     0.010 A 
ATOM     29  C   UNL A   1      37.748  30.042  27.733  1.00  0.00     0.010 A 
ATOM     30  C   UNL A   1      37.833  29.447  29.002  1.00  0.00    -0.014 A 
BRANCH  30  31
ATOM     31  C   UNL A   1      39.147  28.971  29.521  1.00  0.00     0.031 A 
ATOM     32  C   UNL A   1      39.809  29.680  30.674  1.00  0.00     0.074 A 
ATOM     33  C   UNL A   1      39.771  27.935  28.923  1.00  0.00     0.049 A 
ATOM     34  N   UNL A   1      40.980  29.463  31.219  1.00  0.00    -0.248 NA
ATOM     35  C   UNL A   1      39.069  30.800  31.273  1.00  0.00     0.031 C 
ATOM     36  C   UNL A   1      39.251  27.185  27.776  1.00  0.00     0.029 A 
ATOM     37  N   UNL A   1      40.979  27.337  29.187  1.00  0.00    -0.354 N 
ATOM     38  C   UNL A   1      41.124  30.428  32.213  1.00  0.00     0.074 A 
ATOM     39  C   UNL A   1      39.944  31.264  32.153  1.00  0.00     0.031 C 
ATOM     40  C   UNL A   1      40.123  26.218  27.452  1.00  0.00     0.029 A 
ATOM     41  C   UNL A   1      41.286  26.303  28.331  1.00  0.00     0.049 A 
ATOM     42  H   UNL A   1      41.571  27.621  29.920  1.00  0.00     0.167 HD
ATOM     43  C   UNL A   1      42.134  30.588  33.104  1.00  0.00     0.034 A 
ATOM     44  C   UNL A   1      42.382  25.521  28.252  1.00  0.00     0.034 A 
ATOM     45  C   UNL A   1      43.295  29.732  33.166  1.00  0.00     0.049 A 
ATOM     46  C   UNL A   1      43.502  25.732  29.241  1.00  0.00     0.074 A 
ATOM     47  C   UNL A   1      44.343  29.764  34.071  1.00  0.00     0.029 A 
ATOM     48  N   UNL A   1      43.569  28.694  32.283  1.00  0.00    -0.354 N 
ATOM     49  N   UNL A   1      43.594  26.614  30.210  1.00  0.00    -0.248 NA
ATOM     50  C   UNL A   1      44.659  24.833  29.134  1.00  0.00     0.031 C 
ATOM     51  C   UNL A   1      45.283  28.801  33.692  1.00  0.00     0.029 A 
ATOM     52  C   UNL A   1      44.785  28.106  32.600  1.00  0.00     0.049 A 
ATOM     53  H   UNL A   1      42.986  28.417  31.541  1.00  0.00     0.167 HD
ATOM     54  C   UNL A   1      44.804  26.352  30.847  1.00  0.00     0.074 A 
ATOM     55  C   UNL A   1      45.397  25.221  30.163  1.00  0.00     0.031 C 
ATOM     56  C   UNL A   1      45.373  26.985  31.906  1.00  0.00     0.034 A 
BRANCH  43  57
ATOM     57  C   UNL A   1      42.041  31.751  34.065  1.00  0.00     0.023 A 
ATOM     58  C   UNL A   1      41.422  31.629  35.321  1.00  0.00     0.031 A 
ATOM     59  C   UNL A   1      42.569  33.007  33.714  1.00  0.00     0.131 A 
ATOM     60  C   UNL A   1      41.278  32.756  36.145  1.00  0.00     0.055 A 
ATOM     61  C   UNL A   1      42.497  34.104  34.574  1.00  0.00     0.041 A 
ATOM     62  F   UNL A   1      43.155  33.193  32.520  1.00  0.00    -0.206 F 
ATOM     63  C   UNL A   1      41.835  33.987  35.792  1.00  0.00     0.022 A 
BRANCH  60  64
ATOM     64  S   UNL A   1      40.227  32.624  37.617  1.00  0.00     0.124 S 
ATOM     65  O   UNL A   1      39.290  31.576  37.216  1.00  0.00    -0.237 OA
ATOM     66  O   UNL A   1      41.183  32.264  38.657  1.00  0.00    -0.237 OA
ATOM     67  O   UNL A   1      39.641  33.958  37.741  1.00  0.00    -0.744 OA
ENDBRANCH  60  64
ENDBRANCH  43  57
BRANCH  44  68
ATOM     68  C   UNL A   1      42.494  24.477  27.191  1.00  0.00     0.023 A 
ATOM     69  C   UNL A   1      41.865  23.231  27.330  1.00  0.00     0.031 A 
ATOM     70  C   UNL A   1      43.278  24.693  26.043  1.00  0.00     0.131 A 
ATOM     71  C   UNL A   1      42.071  22.229  26.368  1.00  0.00     0.055 A 
ATOM     72  C   UNL A   1      43.433  23.713  25.059  1.00  0.00     0.041 A 
ATOM     73  F   UNL A   1      43.902  25.867  25.856  1.00  0.00    -0.206 F 
ATOM     74  C   UNL A   1      42.838  22.467  25.226  1.00  0.00     0.022 A 
BRANCH  71  75
ATOM     75  S   UNL A   1      41.398  20.573  26.679  1.00  0.00     0.124 S 
ATOM     76  O   UNL A   1      39.962  20.823  26.629  1.00  0.00    -0.237 OA
ATOM     77  O   UNL A   1      41.955  19.806  25.571  1.00  0.00    -0.237 OA
ATOM     78  O   UNL A   1      41.927  20.233  27.998  1.00  0.00    -0.744 OA
ENDBRANCH  71  75
ENDBRANCH  44  68
BRANCH  56  79
ATOM     79  C   UNL A   1      46.683  26.434  32.415  1.00  0.00     0.023 A 
ATOM     80  C   UNL A   1      46.733  25.387  33.353  1.00  0.00     0.031 A 
ATOM     81  C   UNL A   1      47.899  26.973  31.961  1.00  0.00     0.131 A 
ATOM     82  C   UNL A   1      47.972  24.953  33.849  1.00  0.00     0.055 A 
ATOM     83  C   UNL A   1      49.131  26.494  32.410  1.00  0.00     0.041 A 
ATOM     84  F   UNL A   1      47.911  27.977  31.068  1.00  0.00    -0.206 F 
ATOM     85  C   UNL A   1      49.172  25.487  33.370  1.00  0.00     0.022 A 
BRANCH  82  86
ATOM     86  S   UNL A   1      47.995  23.743  35.200  1.00  0.00     0.124 S 
ATOM     87  O   UNL A   1      48.379  24.568  36.340  1.00  0.00    -0.237 OA
ATOM     88  O   UNL A   1      46.619  23.253  35.203  1.00  0.00    -0.237 OA
ATOM     89  O   UNL A   1      48.997  22.768  34.772  1.00  0.00    -0.744 OA
ENDBRANCH  82  86
ENDBRANCH  56  79
ENDBRANCH  30  31
ENDBRANCH  22  25
ENDBRANCH  20  21
ENDBRANCH  19  20
ENDBRANCH   1  19
TORSDOF 18
ENDMDL
MODEL 2
REMARK VINA RESULT:      -9.2      3.551      6.283
REMARK SMILES CC(=O)Oc1ccccc1C(=O)NCCCCCCNC(=O)c1ccc(-c2c3nc(c(-c4cc(S(=O)(=O)[O-])ccc4F)c4ccc([nH]4)c(-c4cc(S(=O)(=O)[O-])ccc4F)c4nc(c(-c5cc(S(=O)(=O)[O-])ccc5F)c5ccc2[nH]5)C=C4)C=C3)cc1
REMARK SMILES IDX 17 1 16 2 15 3 14 4 13 5 11 6 12 7 10 9 5 10 6 11 7 12 9 13
REMARK SMILES IDX 8 14 4 15 2 16 1 17 3 18 18 19 19 20 20 21 21 22 22 24 23 25
REMARK SMILES IDX 24 26 85 27 25 28 84 29 26 30 27 31 28 32 78 33 29 34 83 35
REMARK SMILES IDX 77 36 79 37 30 38 82 39 76 40 75 41 31 43 63 44 43 45 62 46
REMARK SMILES IDX 44 47 47 48 61 49 80 50 45 51 46 52 60 54 81 55 48 56 32 57
REMARK SMILES IDX 33 58 41 59 34 60 40 61 42 62 39 63 35 64 36 65 37 66 38 67
REMARK SMILES IDX 64 68 65 69 73 70 66 71 72 72 74 73 71 74 67 75 68 76 69 77
REMARK SMILES IDX 70 78 49 79 50 80 58 81 51 82 57 83 59 84 56 85 52 86 53 87
REMARK SMILES IDX 54 88 55 89
REMARK H PARENT 13 8 20 23 79 42 47 53
REMARK Flexibility Score: inf
ROOT
ATOM      1  C   UNL A   1      32.442  28.535  24.026  1.00  0.00     0.002 C 
ENDROOT
BRANCH   1   2
ATOM      2  C   UNL A   1      31.709  27.219  23.744  1.00  0.00     0.002 C 
BRANCH   2   3
ATOM      3  C   UNL A   1      30.549  26.830  24.668  1.00  0.00     0.021 C 
BRANCH   3   4
ATOM      4  C   UNL A   1      30.083  25.379  24.625  1.00  0.00     0.116 C 
BRANCH   4   5
ATOM      5  N   UNL A   1      30.281  24.624  25.838  1.00  0.00    -0.352 N 
ATOM      6  C   UNL A   1      31.402  24.004  26.340  1.00  0.00     0.255 C 
ATOM      7  O   UNL A   1      31.278  23.449  27.435  1.00  0.00    -0.269 OA
ATOM      8  H   UNL A   1      29.479  24.539  26.402  1.00  0.00     0.163 HD
BRANCH   6   9
ATOM      9  C   UNL A   1      32.712  23.879  25.626  1.00  0.00     0.082 A 
ATOM     10  C   UNL A   1      33.110  22.910  24.697  1.00  0.00     0.143 A 
ATOM     11  C   UNL A   1      34.403  22.913  24.145  1.00  0.00     0.048 A 
ATOM     12  C   UNL A   1      35.306  23.922  24.466  1.00  0.00     0.004 A 
ATOM     13  C   UNL A   1      33.640  24.906  25.912  1.00  0.00     0.018 A 
ATOM     14  C   UNL A   1      34.919  24.928  25.341  1.00  0.00     0.001 A 
BRANCH  10  15
ATOM     15  O   UNL A   1      32.321  21.829  24.296  1.00  0.00    -0.426 OA
BRANCH  15  16
ATOM     16  C   UNL A   1      32.623  20.608  24.888  1.00  0.00     0.308 C 
ATOM     17  C   UNL A   1      32.400  19.519  23.873  1.00  0.00     0.139 C 
ATOM     18  O   UNL A   1      33.002  20.426  26.034  1.00  0.00    -0.252 OA
ENDBRANCH  15  16
ENDBRANCH  10  15
ENDBRANCH   6   9
ENDBRANCH   4   5
ENDBRANCH   3   4
ENDBRANCH   2   3
ENDBRANCH   1   2
BRANCH   1  19
ATOM     19  C   UNL A   1      33.787  28.456  24.751  1.00  0.00     0.021 C 
BRANCH  19  20
ATOM     20  C   UNL A   1      33.767  28.614  26.267  1.00  0.00     0.116 C 
BRANCH  20  21
ATOM     21  N   UNL A   1      33.576  29.985  26.699  1.00  0.00    -0.352 N 
ATOM     22  C   UNL A   1      34.339  30.772  27.530  1.00  0.00     0.251 C 
ATOM     23  H   UNL A   1      32.771  30.422  26.339  1.00  0.00     0.163 HD
ATOM     24  O   UNL A   1      33.907  31.875  27.861  1.00  0.00    -0.269 OA
BRANCH  22  25
ATOM     25  C   UNL A   1      35.648  30.305  28.055  1.00  0.00     0.039 A 
ATOM     26  C   UNL A   1      35.690  29.740  29.335  1.00  0.00     0.014 A 
ATOM     27  C   UNL A   1      36.835  30.452  27.332  1.00  0.00     0.014 A 
ATOM     28  C   UNL A   1      36.900  29.274  29.860  1.00  0.00     0.010 A 
ATOM     29  C   UNL A   1      38.028  29.919  27.825  1.00  0.00     0.010 A 
ATOM     30  C   UNL A   1      38.078  29.328  29.097  1.00  0.00    -0.014 A 
BRANCH  30  31
ATOM     31  C   UNL A   1      39.364  28.789  29.623  1.00  0.00     0.031 A 
ATOM     32  C   UNL A   1      40.069  29.481  30.761  1.00  0.00     0.074 A 
ATOM     33  C   UNL A   1      39.927  27.707  29.045  1.00  0.00     0.049 A 
ATOM     34  N   UNL A   1      41.227  29.209  31.309  1.00  0.00    -0.248 NA
ATOM     35  C   UNL A   1      39.394  30.653  31.339  1.00  0.00     0.031 C 
ATOM     36  C   UNL A   1      39.363  26.966  27.915  1.00  0.00     0.029 A 
ATOM     37  N   UNL A   1      41.100  27.047  29.319  1.00  0.00    -0.354 N 
ATOM     38  C   UNL A   1      41.428  30.184  32.283  1.00  0.00     0.074 A 
ATOM     39  C   UNL A   1      40.297  31.084  32.209  1.00  0.00     0.031 C 
ATOM     40  C   UNL A   1      40.178  25.944  27.608  1.00  0.00     0.029 A 
ATOM     41  C   UNL A   1      41.346  25.981  28.483  1.00  0.00     0.049 A 
ATOM     42  H   UNL A   1      41.709  27.312  30.046  1.00  0.00     0.167 HD
ATOM     43  C   UNL A   1      42.447  30.304  33.169  1.00  0.00     0.034 A 
ATOM     44  C   UNL A   1      42.396  25.137  28.419  1.00  0.00     0.034 A 
ATOM     45  C   UNL A   1      43.558  29.385  33.246  1.00  0.00     0.049 A 
ATOM     46  C   UNL A   1      43.528  25.303  29.402  1.00  0.00     0.074 A 
ATOM     47  C   UNL A   1      44.609  29.376  34.149  1.00  0.00     0.029 A 
ATOM     48  N   UNL A   1      43.771  28.316  32.384  1.00  0.00    -0.354 N 
ATOM     49  N   UNL A   1      43.672  26.197  30.353  1.00  0.00    -0.248 NA
ATOM     50  C   UNL A   1      44.632  24.338  29.311  1.00  0.00     0.031 C 
ATOM     51  C   UNL A   1      45.492  28.353  33.788  1.00  0.00     0.029 A 
ATOM     52  C   UNL A   1      44.952  27.666  32.711  1.00  0.00     0.049 A 
ATOM     53  H   UNL A   1      43.171  28.058  31.648  1.00  0.00     0.167 HD
ATOM     54  C   UNL A   1      44.868  25.879  30.993  1.00  0.00     0.074 A 
ATOM     55  C   UNL A   1      45.394  24.704  30.331  1.00  0.00     0.031 C 
ATOM     56  C   UNL A   1      45.474  26.501  32.038  1.00  0.00     0.034 A 
BRANCH  43  57
ATOM     57  C   UNL A   1      42.423  31.489  34.107  1.00  0.00     0.023 A 
ATOM     58  C   UNL A   1      41.691  31.471  35.307  1.00  0.00     0.031 A 
ATOM     59  C   UNL A   1      43.134  32.662  33.790  1.00  0.00     0.131 A 
ATOM     60  C   UNL A   1      41.623  32.625  36.104  1.00  0.00     0.055 A 
ATOM     61  C   UNL A   1      43.131  33.777  34.629  1.00  0.00     0.041 A 
ATOM     62  F   UNL A   1      43.835  32.747  32.648  1.00  0.00    -0.206 F 
ATOM     63  C   UNL A   1      42.359  33.768  35.788  1.00  0.00     0.022 A 
BRANCH  60  64
ATOM     64  S   UNL A   1      40.445  32.656  37.482  1.00  0.00     0.124 S 
ATOM     65  O   UNL A   1      40.041  34.060  37.491  1.00  0.00    -0.237 OA
ATOM     66  O   UNL A   1      39.430  31.701  37.053  1.00  0.00    -0.237 OA
ATOM     67  O   UNL A   1      41.249  32.240  38.631  1.00  0.00    -0.744 OA
ENDBRANCH  60  64
ENDBRANCH  43  57
BRANCH  44  68
ATOM     68  C   UNL A   1      42.446  24.067  27.378  1.00  0.00     0.023 A 
ATOM     69  C   UNL A   1      41.815  22.830  27.579  1.00  0.00     0.031 A 
ATOM     70  C   UNL A   1      43.172  24.249  26.187  1.00  0.00     0.131 A 
ATOM     71  C   UNL A   1      41.964  21.805  26.631  1.00  0.00     0.055 A 
ATOM     72  C   UNL A   1      43.268  23.246  25.219  1.00  0.00     0.041 A 
ATOM     73  F   UNL A   1      43.793  25.413  25.941  1.00  0.00    -0.206 F 
ATOM     74  C   UNL A   1      42.674  22.009  25.447  1.00  0.00     0.022 A 
BRANCH  71  75
ATOM     75  S   UNL A   1      41.295  20.162  27.016  1.00  0.00     0.124 S 
ATOM     76  O   UNL A   1      40.236  20.034  26.020  1.00  0.00    -0.237 OA
ATOM     77  O   UNL A   1      42.462  19.308  26.825  1.00  0.00    -0.237 OA
ATOM     78  O   UNL A   1      40.840  20.295  28.398  1.00  0.00    -0.744 OA
ENDBRANCH  71  75
ENDBRANCH  44  68
BRANCH  56  79
ATOM     79  C   UNL A   1      46.752  25.886  32.556  1.00  0.00     0.023 A 
ATOM     80  C   UNL A   1      48.006  26.205  32.005  1.00  0.00     0.031 A 
ATOM     81  C   UNL A   1      46.711  24.959  33.613  1.00  0.00     0.131 A 
ATOM     82  C   UNL A   1      49.160  25.560  32.475  1.00  0.00     0.055 A 
ATOM     83  C   UNL A   1      47.870  24.367  34.119  1.00  0.00     0.041 A 
ATOM     84  F   UNL A   1      45.541  24.614  34.175  1.00  0.00    -0.206 F 
ATOM     85  C   UNL A   1      49.102  24.656  33.540  1.00  0.00     0.022 A 
BRANCH  82  86
ATOM     86  S   UNL A   1      50.730  25.844  31.612  1.00  0.00     0.124 S 
ATOM     87  O   UNL A   1      50.564  27.208  31.121  1.00  0.00    -0.237 OA
ATOM     88  O   UNL A   1      51.709  25.667  32.681  1.00  0.00    -0.237 OA
ATOM     89  O   UNL A   1      50.748  24.810  30.580  1.00  0.00    -0.744 OA
ENDBRANCH  82  86
ENDBRANCH  56  79
ENDBRANCH  30  31
ENDBRANCH  22  25
ENDBRANCH  20  21
ENDBRANCH  19  20
ENDBRANCH   1  19
TORSDOF 18
ENDMDL
MODEL 3
REMARK VINA RESULT:      -9.2      1.790      2.084
REMARK SMILES CC(=O)Oc1ccccc1C(=O)NCCCCCCNC(=O)c1ccc(-c2c3nc(c(-c4cc(S(=O)(=O)[O-])ccc4F)c4ccc([nH]4)c(-c4cc(S(=O)(=O)[O-])ccc4F)c4nc(c(-c5cc(S(=O)(=O)[O-])ccc5F)c5ccc2[nH]5)C=C4)C=C3)cc1
REMARK SMILES IDX 17 1 16 2 15 3 14 4 13 5 11 6 12 7 10 9 5 10 6 11 7 12 9 13
REMARK SMILES IDX 8 14 4 15 2 16 1 17 3 18 18 19 19 20 20 21 21 22 22 24 23 25
REMARK SMILES IDX 24 26 85 27 25 28 84 29 26 30 27 31 28 32 78 33 29 34 83 35
REMARK SMILES IDX 77 36 79 37 30 38 82 39 76 40 75 41 31 43 63 44 43 45 62 46
REMARK SMILES IDX 44 47 47 48 61 49 80 50 45 51 46 52 60 54 81 55 48 56 32 57
REMARK SMILES IDX 33 58 41 59 34 60 40 61 42 62 39 63 35 64 36 65 37 66 38 67
REMARK SMILES IDX 64 68 65 69 73 70 66 71 72 72 74 73 71 74 67 75 68 76 69 77
REMARK SMILES IDX 70 78 49 79 50 80 58 81 51 82 57 83 59 84 56 85 52 86 53 87
REMARK SMILES IDX 54 88 55 89
REMARK H PARENT 13 8 20 23 79 42 47 53
REMARK Flexibility Score: inf
ROOT
ATOM      1  C   UNL A   1      33.773  35.490  29.135  1.00  0.00     0.002 C 
ENDROOT
BRANCH   1   2
ATOM      2  C   UNL A   1      32.926  36.043  30.287  1.00  0.00     0.002 C 
BRANCH   2   3
ATOM      3  C   UNL A   1      33.657  36.686  31.472  1.00  0.00     0.021 C 
BRANCH   3   4
ATOM      4  C   UNL A   1      33.794  35.850  32.739  1.00  0.00     0.116 C 
BRANCH   4   5
ATOM      5  N   UNL A   1      33.715  34.422  32.556  1.00  0.00    -0.352 N 
ATOM      6  C   UNL A   1      34.692  33.494  32.275  1.00  0.00     0.255 C 
ATOM      7  O   UNL A   1      34.328  32.317  32.204  1.00  0.00    -0.269 OA
ATOM      8  H   UNL A   1      32.810  34.047  32.649  1.00  0.00     0.163 HD
BRANCH   6   9
ATOM      9  C   UNL A   1      36.123  33.813  31.968  1.00  0.00     0.082 A 
ATOM     10  C   UNL A   1      37.109  34.312  32.827  1.00  0.00     0.143 A 
ATOM     11  C   UNL A   1      38.406  34.597  32.365  1.00  0.00     0.048 A 
ATOM     12  C   UNL A   1      38.760  34.332  31.046  1.00  0.00     0.004 A 
ATOM     13  C   UNL A   1      36.519  33.528  30.641  1.00  0.00     0.018 A 
ATOM     14  C   UNL A   1      37.818  33.783  30.186  1.00  0.00     0.001 A 
BRANCH  10  15
ATOM     15  O   UNL A   1      36.894  34.644  34.167  1.00  0.00    -0.426 OA
BRANCH  15  16
ATOM     16  C   UNL A   1      37.547  33.846  35.100  1.00  0.00     0.308 C 
ATOM     17  C   UNL A   1      37.468  32.415  34.641  1.00  0.00     0.139 C 
ATOM     18  O   UNL A   1      38.094  34.221  36.125  1.00  0.00    -0.252 OA
ENDBRANCH  15  16
ENDBRANCH  10  15
ENDBRANCH   6   9
ENDBRANCH   4   5
ENDBRANCH   3   4
ENDBRANCH   2   3
ENDBRANCH   1   2
BRANCH   1  19
ATOM     19  C   UNL A   1      33.245  34.258  28.397  1.00  0.00     0.021 C 
BRANCH  19  20
ATOM     20  C   UNL A   1      34.152  33.033  28.357  1.00  0.00     0.116 C 
BRANCH  20  21
ATOM     21  N   UNL A   1      33.583  31.922  27.620  1.00  0.00    -0.352 N 
ATOM     22  C   UNL A   1      34.104  30.680  27.336  1.00  0.00     0.251 C 
ATOM     23  H   UNL A   1      32.679  32.081  27.265  1.00  0.00     0.163 HD
ATOM     24  O   UNL A   1      33.485  29.939  26.574  1.00  0.00    -0.269 OA
BRANCH  22  25
ATOM     25  C   UNL A   1      35.403  30.236  27.902  1.00  0.00     0.039 A 
ATOM     26  C   UNL A   1      35.411  29.654  29.176  1.00  0.00     0.014 A 
ATOM     27  C   UNL A   1      36.612  30.420  27.226  1.00  0.00     0.014 A 
ATOM     28  C   UNL A   1      36.612  29.209  29.738  1.00  0.00     0.010 A 
ATOM     29  C   UNL A   1      37.798  29.907  27.755  1.00  0.00     0.010 A 
ATOM     30  C   UNL A   1      37.816  29.300  29.021  1.00  0.00    -0.014 A 
BRANCH  30  31
ATOM     31  C   UNL A   1      39.094  28.784  29.587  1.00  0.00     0.031 A 
ATOM     32  C   UNL A   1      39.721  29.454  30.782  1.00  0.00     0.074 A 
ATOM     33  C   UNL A   1      39.720  27.745  28.996  1.00  0.00     0.049 A 
ATOM     34  N   UNL A   1      40.861  29.199  31.374  1.00  0.00    -0.248 NA
ATOM     35  C   UNL A   1      38.980  30.579  31.371  1.00  0.00     0.031 C 
ATOM     36  C   UNL A   1      39.235  27.030  27.813  1.00  0.00     0.029 A 
ATOM     37  N   UNL A   1      40.902  27.113  29.301  1.00  0.00    -0.354 N 
ATOM     38  C   UNL A   1      40.982  30.140  32.392  1.00  0.00     0.074 A 
ATOM     39  C   UNL A   1      39.826  31.005  32.298  1.00  0.00     0.031 C 
ATOM     40  C   UNL A   1      40.099  26.048  27.507  1.00  0.00     0.029 A 
ATOM     41  C   UNL A   1      41.223  26.089  28.438  1.00  0.00     0.049 A 
ATOM     42  H   UNL A   1      41.467  27.369  30.065  1.00  0.00     0.167 HD
ATOM     43  C   UNL A   1      41.955  30.259  33.330  1.00  0.00     0.034 A 
ATOM     44  C   UNL A   1      42.303  25.283  28.392  1.00  0.00     0.034 A 
ATOM     45  C   UNL A   1      43.092  29.375  33.425  1.00  0.00     0.049 A 
ATOM     46  C   UNL A   1      43.382  25.448  29.433  1.00  0.00     0.074 A 
ATOM     47  C   UNL A   1      44.099  29.365  34.376  1.00  0.00     0.029 A 
ATOM     48  N   UNL A   1      43.382  28.348  32.535  1.00  0.00    -0.354 N 
ATOM     49  N   UNL A   1      43.451  26.309  30.423  1.00  0.00    -0.248 NA
ATOM     50  C   UNL A   1      44.522  24.524  29.359  1.00  0.00     0.031 C 
ATOM     51  C   UNL A   1      45.033  28.387  34.019  1.00  0.00     0.029 A 
ATOM     52  C   UNL A   1      44.569  27.726  32.893  1.00  0.00     0.049 A 
ATOM     53  H   UNL A   1      42.826  28.099  31.762  1.00  0.00     0.167 HD
ATOM     54  C   UNL A   1      44.626  26.006  31.107  1.00  0.00     0.074 A 
ATOM     55  C   UNL A   1      45.223  24.875  30.427  1.00  0.00     0.031 C 
ATOM     56  C   UNL A   1      45.161  26.605  32.202  1.00  0.00     0.034 A 
BRANCH  43  57
ATOM     57  C   UNL A   1      41.847  31.405  34.310  1.00  0.00     0.023 A 
ATOM     58  C   UNL A   1      42.449  32.652  34.064  1.00  0.00     0.031 A 
ATOM     59  C   UNL A   1      41.140  31.245  35.516  1.00  0.00     0.131 A 
ATOM     60  C   UNL A   1      42.400  33.659  35.040  1.00  0.00     0.055 A 
ATOM     61  C   UNL A   1      41.023  32.280  36.446  1.00  0.00     0.041 A 
ATOM     62  F   UNL A   1      40.560  30.073  35.817  1.00  0.00    -0.206 F 
ATOM     63  C   UNL A   1      41.669  33.492  36.217  1.00  0.00     0.022 A 
BRANCH  60  64
ATOM     64  S   UNL A   1      43.425  35.137  34.811  1.00  0.00     0.124 S 
ATOM     65  O   UNL A   1      44.741  34.548  34.572  1.00  0.00    -0.237 OA
ATOM     66  O   UNL A   1      42.796  35.784  33.665  1.00  0.00    -0.237 OA
ATOM     67  O   UNL A   1      43.292  35.848  36.082  1.00  0.00    -0.744 OA
ENDBRANCH  60  64
ENDBRANCH  43  57
BRANCH  44  68
ATOM     68  C   UNL A   1      42.439  24.258  27.315  1.00  0.00     0.023 A 
ATOM     69  C   UNL A   1      41.916  22.965  27.475  1.00  0.00     0.031 A 
ATOM     70  C   UNL A   1      43.140  24.541  26.129  1.00  0.00     0.131 A 
ATOM     71  C   UNL A   1      42.147  21.989  26.493  1.00  0.00     0.055 A 
ATOM     72  C   UNL A   1      43.317  23.582  25.128  1.00  0.00     0.041 A 
ATOM     73  F   UNL A   1      43.660  25.761  25.921  1.00  0.00    -0.206 F 
ATOM     74  C   UNL A   1      42.830  22.293  25.315  1.00  0.00     0.022 A 
BRANCH  71  75
ATOM     75  S   UNL A   1      41.622  20.283  26.823  1.00  0.00     0.124 S 
ATOM     76  O   UNL A   1      40.318  20.490  27.443  1.00  0.00    -0.237 OA
ATOM     77  O   UNL A   1      41.611  19.705  25.483  1.00  0.00    -0.237 OA
ATOM     78  O   UNL A   1      42.663  19.773  27.712  1.00  0.00    -0.744 OA
ENDBRANCH  71  75
ENDBRANCH  44  68
BRANCH  56  79
ATOM     79  C   UNL A   1      46.434  26.013  32.758  1.00  0.00     0.023 A 
ATOM     80  C   UNL A   1      47.702  26.433  32.317  1.00  0.00     0.031 A 
ATOM     81  C   UNL A   1      46.375  25.006  33.737  1.00  0.00     0.131 A 
ATOM     82  C   UNL A   1      48.856  25.808  32.813  1.00  0.00     0.055 A 
ATOM     83  C   UNL A   1      47.529  24.432  34.274  1.00  0.00     0.041 A 
ATOM     84  F   UNL A   1      45.192  24.563  34.193  1.00  0.00    -0.206 F 
ATOM     85  C   UNL A   1      48.779  24.822  33.801  1.00  0.00     0.022 A 
BRANCH  82  86
ATOM     86  S   UNL A   1      50.461  26.232  32.081  1.00  0.00     0.124 S 
ATOM     87  O   UNL A   1      51.323  26.296  33.256  1.00  0.00    -0.237 OA
ATOM     88  O   UNL A   1      50.698  25.110  31.178  1.00  0.00    -0.237 OA
ATOM     89  O   UNL A   1      50.211  27.513  31.423  1.00  0.00    -0.744 OA
ENDBRANCH  82  86
ENDBRANCH  56  79
ENDBRANCH  30  31
ENDBRANCH  22  25
ENDBRANCH  20  21
ENDBRANCH  19  20
ENDBRANCH   1  19
TORSDOF 18
ENDMDL
