MODEL 1
REMARK VINA RESULT:     -11.5      0.000      0.000
REMARK SMILES O=C(NCCCCCCNC(=O)[C@H]1CCCCN1C(=O)c1nc(C2CC2)n[nH]1)c1ccc(-c2c3nc(c(-c4cc(S(=O)(=O)[O-])ccc4F)c4ccc([nH]4)c(-c4cc(S(=O)(=O)[O-])ccc4F)c4nc(c(-c5cc(S(=O)(=O)[O-])ccc5F)c5ccc2[nH]5)C=C4)C=C3)cc1
REMARK SMILES IDX 6 1 5 2 4 3 3 4 1 5 2 6 29 8 30 9 91 10 31 11 90 12 32 13
REMARK SMILES IDX 33 14 34 15 84 16 35 17 89 18 83 19 85 20 36 21 88 22 82 23
REMARK SMILES IDX 81 24 37 26 69 27 49 28 68 29 50 30 53 31 67 32 86 33 51 34
REMARK SMILES IDX 52 35 66 37 87 38 54 39 38 40 39 41 47 42 40 43 46 44 48 45
REMARK SMILES IDX 45 46 41 47 42 48 43 49 44 50 70 51 71 52 79 53 72 54 78 55
REMARK SMILES IDX 80 56 77 57 73 58 74 59 75 60 76 61 55 62 56 63 64 64 57 65
REMARK SMILES IDX 63 66 65 67 62 68 58 69 59 70 60 71 61 72 7 73 8 74 9 75
REMARK SMILES IDX 10 76 11 77 12 79 13 80 14 81 18 82 15 83 17 84 16 85 19 86
REMARK SMILES IDX 20 87 21 88 22 89 28 90 23 91 27 92 24 94 25 95 26 96
REMARK H PARENT 3 7 85 25 53 36 10 78 28 93
REMARK Flexibility Score: inf
ROOT
ATOM      1  C   UNL A   1      31.444  30.465  25.677  1.00  0.00     0.002 C 
ENDROOT
BRANCH   1   2
ATOM      2  C   UNL A   1      31.429  31.519  26.785  1.00  0.00     0.021 C 
BRANCH   2   3
ATOM      3  C   UNL A   1      32.742  32.271  26.968  1.00  0.00     0.116 C 
BRANCH   3   4
ATOM      4  N   UNL A   1      32.533  33.642  27.408  1.00  0.00    -0.352 N 
ATOM      5  O   UNL A   1      32.744  35.428  28.765  1.00  0.00    -0.269 OA
ATOM      6  C   UNL A   1      33.176  34.338  28.401  1.00  0.00     0.251 C 
ATOM      7  H   UNL A   1      31.832  34.139  26.927  1.00  0.00     0.163 HD
BRANCH   6   8
ATOM      8  C   UNL A   1      34.378  33.760  29.037  1.00  0.00     0.039 A 
ATOM      9  C   UNL A   1      35.654  34.235  28.717  1.00  0.00     0.014 A 
ATOM     10  C   UNL A   1      34.221  32.736  29.974  1.00  0.00     0.014 A 
ATOM     11  C   UNL A   1      36.779  33.611  29.246  1.00  0.00     0.010 A 
ATOM     12  C   UNL A   1      35.350  32.158  30.558  1.00  0.00     0.010 A 
ATOM     13  C   UNL A   1      36.639  32.575  30.182  1.00  0.00    -0.014 A 
BRANCH  13  14
ATOM     14  C   UNL A   1      37.837  31.953  30.798  1.00  0.00     0.031 A 
ATOM     15  C   UNL A   1      38.617  30.903  30.059  1.00  0.00     0.074 A 
ATOM     16  C   UNL A   1      38.198  32.316  32.043  1.00  0.00     0.049 A 
ATOM     17  N   UNL A   1      39.618  30.169  30.474  1.00  0.00    -0.248 NA
ATOM     18  C   UNL A   1      38.206  30.636  28.675  1.00  0.00     0.031 C 
ATOM     19  C   UNL A   1      37.523  33.332  32.852  1.00  0.00     0.029 A 
ATOM     20  N   UNL A   1      39.210  31.865  32.852  1.00  0.00    -0.354 N 
ATOM     21  C   UNL A   1      39.945  29.336  29.410  1.00  0.00     0.074 A 
ATOM     22  C   UNL A   1      39.008  29.634  28.347  1.00  0.00     0.031 C 
ATOM     23  C   UNL A   1      38.140  33.432  34.038  1.00  0.00     0.029 A 
ATOM     24  C   UNL A   1      39.206  32.438  34.102  1.00  0.00     0.049 A 
ATOM     25  H   UNL A   1      39.873  31.196  32.566  1.00  0.00     0.167 HD
ATOM     26  C   UNL A   1      40.939  28.413  29.333  1.00  0.00     0.034 A 
ATOM     27  C   UNL A   1      39.943  32.165  35.195  1.00  0.00     0.034 A 
ATOM     28  C   UNL A   1      41.850  28.126  30.416  1.00  0.00     0.049 A 
ATOM     29  C   UNL A   1      40.992  31.088  35.116  1.00  0.00     0.074 A 
ATOM     30  C   UNL A   1      42.908  27.232  30.441  1.00  0.00     0.029 A 
ATOM     31  N   UNL A   1      41.801  28.712  31.677  1.00  0.00    -0.354 N 
ATOM     32  N   UNL A   1      41.299  30.312  34.103  1.00  0.00    -0.248 NA
ATOM     33  C   UNL A   1      41.796  30.854  36.322  1.00  0.00     0.031 C 
ATOM     34  C   UNL A   1      43.444  27.221  31.734  1.00  0.00     0.029 A 
ATOM     35  C   UNL A   1      42.785  28.175  32.494  1.00  0.00     0.049 A 
ATOM     36  H   UNL A   1      41.161  29.409  31.949  1.00  0.00     0.167 HD
ATOM     37  C   UNL A   1      42.357  29.519  34.540  1.00  0.00     0.074 A 
ATOM     38  C   UNL A   1      42.631  29.911  35.907  1.00  0.00     0.031 C 
ATOM     39  C   UNL A   1      43.046  28.567  33.862  1.00  0.00     0.034 A 
BRANCH  26  40
ATOM     40  C   UNL A   1      41.041  27.613  28.053  1.00  0.00     0.023 A 
ATOM     41  C   UNL A   1      40.629  26.270  27.981  1.00  0.00     0.031 A 
ATOM     42  C   UNL A   1      41.611  28.183  26.900  1.00  0.00     0.131 A 
ATOM     43  C   UNL A   1      40.882  25.518  26.824  1.00  0.00     0.055 A 
ATOM     44  C   UNL A   1      41.772  27.457  25.718  1.00  0.00     0.041 A 
ATOM     45  F   UNL A   1      42.044  29.454  26.908  1.00  0.00    -0.206 F 
ATOM     46  C   UNL A   1      41.427  26.109  25.681  1.00  0.00     0.022 A 
BRANCH  43  47
ATOM     47  S   UNL A   1      40.663  23.718  26.899  1.00  0.00     0.124 S 
ATOM     48  O   UNL A   1      39.274  23.569  26.469  1.00  0.00    -0.237 OA
ATOM     49  O   UNL A   1      41.675  23.239  25.964  1.00  0.00    -0.237 OA
ATOM     50  O   UNL A   1      40.909  23.400  28.304  1.00  0.00    -0.744 OA
ENDBRANCH  43  47
ENDBRANCH  26  40
BRANCH  27  51
ATOM     51  C   UNL A   1      39.677  32.898  36.464  1.00  0.00     0.023 A 
ATOM     52  C   UNL A   1      38.751  32.419  37.401  1.00  0.00     0.031 A 
ATOM     53  C   UNL A   1      40.368  34.089  36.762  1.00  0.00     0.131 A 
ATOM     54  C   UNL A   1      38.523  33.139  38.584  1.00  0.00     0.055 A 
ATOM     55  C   UNL A   1      40.172  34.774  37.961  1.00  0.00     0.041 A 
ATOM     56  F   UNL A   1      41.270  34.584  35.900  1.00  0.00    -0.206 F 
ATOM     57  C   UNL A   1      39.238  34.303  38.877  1.00  0.00     0.022 A 
BRANCH  54  58
ATOM     58  S   UNL A   1      37.234  32.558  39.718  1.00  0.00     0.124 S 
ATOM     59  O   UNL A   1      37.791  31.291  40.177  1.00  0.00    -0.237 OA
ATOM     60  O   UNL A   1      37.188  33.633  40.703  1.00  0.00    -0.237 OA
ATOM     61  O   UNL A   1      36.053  32.448  38.864  1.00  0.00    -0.744 OA
ENDBRANCH  54  58
ENDBRANCH  27  51
BRANCH  39  62
ATOM     62  C   UNL A   1      44.216  27.925  34.568  1.00  0.00     0.023 A 
ATOM     63  C   UNL A   1      44.115  26.678  35.208  1.00  0.00     0.031 A 
ATOM     64  C   UNL A   1      45.464  28.575  34.578  1.00  0.00     0.131 A 
ATOM     65  C   UNL A   1      45.233  26.137  35.862  1.00  0.00     0.055 A 
ATOM     66  C   UNL A   1      46.585  28.007  35.182  1.00  0.00     0.041 A 
ATOM     67  F   UNL A   1      45.615  29.772  33.988  1.00  0.00    -0.206 F 
ATOM     68  C   UNL A   1      46.472  26.784  35.836  1.00  0.00     0.022 A 
BRANCH  65  69
ATOM     69  S   UNL A   1      45.037  24.602  36.809  1.00  0.00     0.124 S 
ATOM     70  O   UNL A   1      46.391  24.058  36.789  1.00  0.00    -0.237 OA
ATOM     71  O   UNL A   1      44.563  25.088  38.100  1.00  0.00    -0.237 OA
ATOM     72  O   UNL A   1      44.054  23.844  36.034  1.00  0.00    -0.744 OA
ENDBRANCH  65  69
ENDBRANCH  39  62
ENDBRANCH  13  14
ENDBRANCH   6   8
ENDBRANCH   3   4
ENDBRANCH   2   3
ENDBRANCH   1   2
BRANCH   1  73
ATOM     73  C   UNL A   1      32.246  29.201  25.997  1.00  0.00     0.002 C 
BRANCH  73  74
ATOM     74  C   UNL A   1      31.437  28.048  26.608  1.00  0.00     0.021 C 
BRANCH  74  75
ATOM     75  C   UNL A   1      32.273  26.849  27.048  1.00  0.00     0.116 C 
BRANCH  75  76
ATOM     76  N   UNL A   1      31.717  25.611  26.532  1.00  0.00    -0.354 N 
ATOM     77  C   UNL A   1      31.918  24.989  25.336  1.00  0.00     0.242 C 
ATOM     78  H   UNL A   1      31.095  25.150  27.140  1.00  0.00     0.163 HD
ATOM     79  O   UNL A   1      31.209  24.012  25.090  1.00  0.00    -0.273 OA
BRANCH  77  80
ATOM     80  C   UNL A   1      33.049  25.482  24.398  1.00  0.00     0.174 C 
ATOM     81  C   UNL A   1      34.428  25.023  24.902  1.00  0.00     0.035 C 
ATOM     82  N   UNL A   1      32.881  25.047  22.995  1.00  0.00    -0.324 N 
ATOM     83  C   UNL A   1      34.619  23.517  24.720  1.00  0.00     0.004 C 
ATOM     84  C   UNL A   1      33.038  23.608  22.744  1.00  0.00     0.121 C 
ATOM     85  C   UNL A   1      34.385  23.110  23.268  1.00  0.00     0.022 C 
BRANCH  82  86
ATOM     86  C   UNL A   1      32.726  26.018  22.001  1.00  0.00     0.291 C 
ATOM     87  O   UNL A   1      33.249  25.886  20.894  1.00  0.00    -0.265 OA
BRANCH  86  88
ATOM     88  C   UNL A   1      31.822  27.119  22.242  1.00  0.00     0.214 A 
ATOM     89  N   UNL A   1      30.526  27.078  22.494  1.00  0.00    -0.207 NA
ATOM     90  N   UNL A   1      32.230  28.419  22.260  1.00  0.00    -0.255 N 
ATOM     91  C   UNL A   1      30.181  28.404  22.576  1.00  0.00     0.154 A 
ATOM     92  N   UNL A   1      31.191  29.261  22.384  1.00  0.00    -0.158 NA
ATOM     93  H   UNL A   1      33.170  28.705  22.190  1.00  0.00     0.192 HD
BRANCH  91  94
ATOM     94  C   UNL A   1      28.769  28.893  22.846  1.00  0.00     0.060 C 
ATOM     95  C   UNL A   1      28.554  30.327  23.285  1.00  0.00     0.012 C 
ATOM     96  C   UNL A   1      28.161  29.913  21.907  1.00  0.00     0.012 C 
ENDBRANCH  91  94
ENDBRANCH  86  88
ENDBRANCH  82  86
ENDBRANCH  77  80
ENDBRANCH  75  76
ENDBRANCH  74  75
ENDBRANCH  73  74
ENDBRANCH   1  73
TORSDOF 19
ENDMDL
MODEL 2
REMARK VINA RESULT:     -11.4      1.780      2.227
REMARK SMILES O=C(NCCCCCCNC(=O)[C@H]1CCCCN1C(=O)c1nc(C2CC2)n[nH]1)c1ccc(-c2c3nc(c(-c4cc(S(=O)(=O)[O-])ccc4F)c4ccc([nH]4)c(-c4cc(S(=O)(=O)[O-])ccc4F)c4nc(c(-c5cc(S(=O)(=O)[O-])ccc5F)c5ccc2[nH]5)C=C4)C=C3)cc1
REMARK SMILES IDX 6 1 5 2 4 3 3 4 1 5 2 6 29 8 30 9 91 10 31 11 90 12 32 13
REMARK SMILES IDX 33 14 34 15 84 16 35 17 89 18 83 19 85 20 36 21 88 22 82 23
REMARK SMILES IDX 81 24 37 26 69 27 49 28 68 29 50 30 53 31 67 32 86 33 51 34
REMARK SMILES IDX 52 35 66 37 87 38 54 39 38 40 39 41 47 42 40 43 46 44 48 45
REMARK SMILES IDX 45 46 41 47 42 48 43 49 44 50 70 51 71 52 79 53 72 54 78 55
REMARK SMILES IDX 80 56 77 57 73 58 74 59 75 60 76 61 55 62 56 63 64 64 57 65
REMARK SMILES IDX 63 66 65 67 62 68 58 69 59 70 60 71 61 72 7 73 8 74 9 75
REMARK SMILES IDX 10 76 11 77 12 79 13 80 14 81 18 82 15 83 17 84 16 85 19 86
REMARK SMILES IDX 20 87 21 88 22 89 28 90 23 91 27 92 24 94 25 95 26 96
REMARK H PARENT 3 7 85 25 53 36 10 78 28 93
REMARK Flexibility Score: inf
ROOT
ATOM      1  C   UNL A   1      31.449  30.045  25.956  1.00  0.00     0.002 C 
ENDROOT
BRANCH   1   2
ATOM      2  C   UNL A   1      31.394  31.557  26.178  1.00  0.00     0.021 C 
BRANCH   2   3
ATOM      3  C   UNL A   1      32.611  32.144  26.883  1.00  0.00     0.116 C 
BRANCH   3   4
ATOM      4  N   UNL A   1      32.399  33.525  27.287  1.00  0.00    -0.352 N 
ATOM      5  O   UNL A   1      32.608  35.347  28.596  1.00  0.00    -0.269 OA
ATOM      6  C   UNL A   1      33.042  34.249  28.260  1.00  0.00     0.251 C 
ATOM      7  H   UNL A   1      31.696  34.008  26.795  1.00  0.00     0.163 HD
BRANCH   6   8
ATOM      8  C   UNL A   1      34.248  33.692  28.908  1.00  0.00     0.039 A 
ATOM      9  C   UNL A   1      35.519  34.185  28.597  1.00  0.00     0.014 A 
ATOM     10  C   UNL A   1      34.099  32.668  29.847  1.00  0.00     0.014 A 
ATOM     11  C   UNL A   1      36.649  33.580  29.137  1.00  0.00     0.010 A 
ATOM     12  C   UNL A   1      35.231  32.110  30.442  1.00  0.00     0.010 A 
ATOM     13  C   UNL A   1      36.517  32.545  30.075  1.00  0.00    -0.014 A 
BRANCH  13  14
ATOM     14  C   UNL A   1      37.719  31.943  30.703  1.00  0.00     0.031 A 
ATOM     15  C   UNL A   1      38.516  30.895  29.979  1.00  0.00     0.074 A 
ATOM     16  C   UNL A   1      38.070  32.323  31.946  1.00  0.00     0.049 A 
ATOM     17  N   UNL A   1      39.523  30.177  30.406  1.00  0.00    -0.248 NA
ATOM     18  C   UNL A   1      38.114  30.609  28.595  1.00  0.00     0.031 C 
ATOM     19  C   UNL A   1      37.379  33.339  32.741  1.00  0.00     0.029 A 
ATOM     20  N   UNL A   1      39.083  31.892  32.765  1.00  0.00    -0.354 N 
ATOM     21  C   UNL A   1      39.865  29.337  29.352  1.00  0.00     0.074 A 
ATOM     22  C   UNL A   1      38.929  29.614  28.281  1.00  0.00     0.031 C 
ATOM     23  C   UNL A   1      37.989  33.458  33.929  1.00  0.00     0.029 A 
ATOM     24  C   UNL A   1      39.067  32.477  34.008  1.00  0.00     0.049 A 
ATOM     25  H   UNL A   1      39.756  31.228  32.488  1.00  0.00     0.167 HD
ATOM     26  C   UNL A   1      40.869  28.425  29.288  1.00  0.00     0.034 A 
ATOM     27  C   UNL A   1      39.802  32.224  35.108  1.00  0.00     0.034 A 
ATOM     28  C   UNL A   1      41.779  28.160  30.379  1.00  0.00     0.049 A 
ATOM     29  C   UNL A   1      40.863  31.159  35.045  1.00  0.00     0.074 A 
ATOM     30  C   UNL A   1      42.847  27.279  30.418  1.00  0.00     0.029 A 
ATOM     31  N   UNL A   1      41.717  28.758  31.633  1.00  0.00    -0.354 N 
ATOM     32  N   UNL A   1      41.184  30.376  34.041  1.00  0.00    -0.248 NA
ATOM     33  C   UNL A   1      41.663  30.946  36.257  1.00  0.00     0.031 C 
ATOM     34  C   UNL A   1      43.377  27.287  31.713  1.00  0.00     0.029 A 
ATOM     35  C   UNL A   1      42.703  28.241  32.461  1.00  0.00     0.049 A 
ATOM     36  H   UNL A   1      41.067  29.450  31.896  1.00  0.00     0.167 HD
ATOM     37  C   UNL A   1      42.249  29.600  34.491  1.00  0.00     0.074 A 
ATOM     38  C   UNL A   1      42.511  30.009  35.855  1.00  0.00     0.031 C 
ATOM     39  C   UNL A   1      42.952  28.649  33.825  1.00  0.00     0.034 A 
BRANCH  26  40
ATOM     40  C   UNL A   1      40.987  27.614  28.017  1.00  0.00     0.023 A 
ATOM     41  C   UNL A   1      40.479  26.306  27.921  1.00  0.00     0.031 A 
ATOM     42  C   UNL A   1      41.667  28.134  26.901  1.00  0.00     0.131 A 
ATOM     43  C   UNL A   1      40.743  25.532  26.781  1.00  0.00     0.055 A 
ATOM     44  C   UNL A   1      41.843  27.391  25.730  1.00  0.00     0.041 A 
ATOM     45  F   UNL A   1      42.195  29.368  26.934  1.00  0.00    -0.206 F 
ATOM     46  C   UNL A   1      41.400  26.074  25.673  1.00  0.00     0.022 A 
BRANCH  43  47
ATOM     47  S   UNL A   1      40.384  23.753  26.842  1.00  0.00     0.124 S 
ATOM     48  O   UNL A   1      39.006  23.712  26.358  1.00  0.00    -0.237 OA
ATOM     49  O   UNL A   1      41.392  23.197  25.947  1.00  0.00    -0.237 OA
ATOM     50  O   UNL A   1      40.548  23.418  28.256  1.00  0.00    -0.744 OA
ENDBRANCH  43  47
ENDBRANCH  26  40
BRANCH  27  51
ATOM     51  C   UNL A   1      39.521  32.967  36.368  1.00  0.00     0.023 A 
ATOM     52  C   UNL A   1      40.101  34.217  36.620  1.00  0.00     0.031 A 
ATOM     53  C   UNL A   1      38.645  32.435  37.333  1.00  0.00     0.131 A 
ATOM     54  C   UNL A   1      39.817  34.887  37.820  1.00  0.00     0.055 A 
ATOM     55  C   UNL A   1      38.327  33.127  38.502  1.00  0.00     0.041 A 
ATOM     56  F   UNL A   1      38.057  31.244  37.134  1.00  0.00    -0.206 F 
ATOM     57  C   UNL A   1      38.922  34.358  38.754  1.00  0.00     0.022 A 
BRANCH  54  58
ATOM     58  S   UNL A   1      40.677  36.444  38.170  1.00  0.00     0.124 S 
ATOM     59  O   UNL A   1      41.355  36.700  36.904  1.00  0.00    -0.237 OA
ATOM     60  O   UNL A   1      39.569  37.337  38.496  1.00  0.00    -0.237 OA
ATOM     61  O   UNL A   1      41.552  36.107  39.291  1.00  0.00    -0.744 OA
ENDBRANCH  54  58
ENDBRANCH  27  51
BRANCH  39  62
ATOM     62  C   UNL A   1      44.127  28.029  34.544  1.00  0.00     0.023 A 
ATOM     63  C   UNL A   1      44.025  26.808  35.234  1.00  0.00     0.031 A 
ATOM     64  C   UNL A   1      45.378  28.671  34.515  1.00  0.00     0.131 A 
ATOM     65  C   UNL A   1      45.147  26.286  35.896  1.00  0.00     0.055 A 
ATOM     66  C   UNL A   1      46.503  28.119  35.128  1.00  0.00     0.041 A 
ATOM     67  F   UNL A   1      45.530  29.842  33.875  1.00  0.00    -0.206 F 
ATOM     68  C   UNL A   1      46.390  26.924  35.831  1.00  0.00     0.022 A 
BRANCH  65  69
ATOM     69  S   UNL A   1      44.953  24.791  36.905  1.00  0.00     0.124 S 
ATOM     70  O   UNL A   1      44.534  25.345  38.189  1.00  0.00    -0.237 OA
ATOM     71  O   UNL A   1      43.937  24.046  36.170  1.00  0.00    -0.237 OA
ATOM     72  O   UNL A   1      46.287  24.194  36.894  1.00  0.00    -0.744 OA
ENDBRANCH  65  69
ENDBRANCH  39  62
ENDBRANCH  13  14
ENDBRANCH   6   8
ENDBRANCH   3   4
ENDBRANCH   2   3
ENDBRANCH   1   2
BRANCH   1  73
ATOM     73  C   UNL A   1      31.935  29.232  27.159  1.00  0.00     0.002 C 
BRANCH  73  74
ATOM     74  C   UNL A   1      32.497  27.843  26.828  1.00  0.00     0.021 C 
BRANCH  74  75
ATOM     75  C   UNL A   1      31.568  26.966  25.991  1.00  0.00     0.116 C 
BRANCH  75  76
ATOM     76  N   UNL A   1      31.155  25.790  26.735  1.00  0.00    -0.354 N 
ATOM     77  C   UNL A   1      31.505  24.483  26.576  1.00  0.00     0.242 C 
ATOM     78  H   UNL A   1      30.522  25.964  27.468  1.00  0.00     0.163 HD
ATOM     79  O   UNL A   1      30.896  23.656  27.258  1.00  0.00    -0.273 OA
BRANCH  77  80
ATOM     80  C   UNL A   1      32.670  24.112  25.623  1.00  0.00     0.174 C 
ATOM     81  C   UNL A   1      33.979  23.903  26.402  1.00  0.00     0.035 C 
ATOM     82  N   UNL A   1      32.401  22.911  24.805  1.00  0.00    -0.324 N 
ATOM     83  C   UNL A   1      33.941  22.618  27.229  1.00  0.00     0.004 C 
ATOM     84  C   UNL A   1      32.338  21.637  25.533  1.00  0.00     0.121 C 
ATOM     85  C   UNL A   1      33.610  21.415  26.350  1.00  0.00     0.022 C 
BRANCH  82  86
ATOM     86  C   UNL A   1      32.364  23.037  23.412  1.00  0.00     0.291 C 
ATOM     87  O   UNL A   1      32.110  22.072  22.691  1.00  0.00    -0.265 OA
BRANCH  86  88
ATOM     88  C   UNL A   1      32.487  24.354  22.832  1.00  0.00     0.214 A 
ATOM     89  N   UNL A   1      33.357  25.304  23.126  1.00  0.00    -0.207 NA
ATOM     90  N   UNL A   1      31.679  24.797  21.828  1.00  0.00    -0.255 N 
ATOM     91  C   UNL A   1      32.971  26.342  22.315  1.00  0.00     0.154 A 
ATOM     92  N   UNL A   1      31.910  26.088  21.541  1.00  0.00    -0.158 NA
ATOM     93  H   UNL A   1      31.008  24.239  21.371  1.00  0.00     0.192 HD
BRANCH  91  94
ATOM     94  C   UNL A   1      33.666  27.693  22.287  1.00  0.00     0.060 C 
ATOM     95  C   UNL A   1      32.945  28.906  22.836  1.00  0.00     0.012 C 
ATOM     96  C   UNL A   1      34.085  28.322  23.599  1.00  0.00     0.012 C 
ENDBRANCH  91  94
ENDBRANCH  86  88
ENDBRANCH  82  86
ENDBRANCH  77  80
ENDBRANCH  75  76
ENDBRANCH  74  75
ENDBRANCH  73  74
ENDBRANCH   1  73
TORSDOF 19
ENDMDL
MODEL 3
REMARK VINA RESULT:     -11.4      1.702      2.342
REMARK SMILES O=C(NCCCCCCNC(=O)[C@H]1CCCCN1C(=O)c1nc(C2CC2)n[nH]1)c1ccc(-c2c3nc(c(-c4cc(S(=O)(=O)[O-])ccc4F)c4ccc([nH]4)c(-c4cc(S(=O)(=O)[O-])ccc4F)c4nc(c(-c5cc(S(=O)(=O)[O-])ccc5F)c5ccc2[nH]5)C=C4)C=C3)cc1
REMARK SMILES IDX 6 1 5 2 4 3 3 4 1 5 2 6 29 8 30 9 91 10 31 11 90 12 32 13
REMARK SMILES IDX 33 14 34 15 84 16 35 17 89 18 83 19 85 20 36 21 88 22 82 23
REMARK SMILES IDX 81 24 37 26 69 27 49 28 68 29 50 30 53 31 67 32 86 33 51 34
REMARK SMILES IDX 52 35 66 37 87 38 54 39 38 40 39 41 47 42 40 43 46 44 48 45
REMARK SMILES IDX 45 46 41 47 42 48 43 49 44 50 70 51 71 52 79 53 72 54 78 55
REMARK SMILES IDX 80 56 77 57 73 58 74 59 75 60 76 61 55 62 56 63 64 64 57 65
REMARK SMILES IDX 63 66 65 67 62 68 58 69 59 70 60 71 61 72 7 73 8 74 9 75
REMARK SMILES IDX 10 76 11 77 12 79 13 80 14 81 18 82 15 83 17 84 16 85 19 86
REMARK SMILES IDX 20 87 21 88 22 89 28 90 23 91 27 92 24 94 25 95 26 96
REMARK H PARENT 3 7 85 25 53 36 10 78 28 93
REMARK Flexibility Score: inf
ROOT
ATOM      1  C   UNL A   1      31.547  30.740  25.798  1.00  0.00     0.002 C 
ENDROOT
BRANCH   1   2
ATOM      2  C   UNL A   1      31.374  31.960  26.705  1.00  0.00     0.021 C 
BRANCH   2   3
ATOM      3  C   UNL A   1      32.676  32.572  27.207  1.00  0.00     0.116 C 
BRANCH   3   4
ATOM      4  N   UNL A   1      32.509  33.956  27.621  1.00  0.00    -0.352 N 
ATOM      5  O   UNL A   1      32.762  35.756  28.953  1.00  0.00    -0.269 OA
ATOM      6  C   UNL A   1      33.161  34.646  28.612  1.00  0.00     0.251 C 
ATOM      7  H   UNL A   1      31.832  34.469  27.122  1.00  0.00     0.163 HD
BRANCH   6   8
ATOM      8  C   UNL A   1      34.334  34.038  29.275  1.00  0.00     0.039 A 
ATOM      9  C   UNL A   1      34.169  33.103  30.302  1.00  0.00     0.014 A 
ATOM     10  C   UNL A   1      35.614  34.404  28.853  1.00  0.00     0.014 A 
ATOM     11  C   UNL A   1      35.280  32.620  30.985  1.00  0.00     0.010 A 
ATOM     12  C   UNL A   1      36.731  33.863  29.493  1.00  0.00     0.010 A 
ATOM     13  C   UNL A   1      36.573  32.985  30.579  1.00  0.00    -0.014 A 
BRANCH  13  14
ATOM     14  C   UNL A   1      37.762  32.419  31.263  1.00  0.00     0.031 A 
ATOM     15  C   UNL A   1      38.514  31.266  30.660  1.00  0.00     0.074 A 
ATOM     16  C   UNL A   1      38.141  32.929  32.450  1.00  0.00     0.049 A 
ATOM     17  N   UNL A   1      39.502  30.568  31.161  1.00  0.00    -0.248 NA
ATOM     18  C   UNL A   1      38.087  30.834  29.323  1.00  0.00     0.031 C 
ATOM     19  C   UNL A   1      37.495  34.055  33.126  1.00  0.00     0.029 A 
ATOM     20  N   UNL A   1      39.149  32.562  33.305  1.00  0.00    -0.354 N 
ATOM     21  C   UNL A   1      39.802  29.599  30.209  1.00  0.00     0.074 A 
ATOM     22  C   UNL A   1      38.864  29.781  29.121  1.00  0.00     0.031 C 
ATOM     23  C   UNL A   1      38.123  34.290  34.286  1.00  0.00     0.029 A 
ATOM     24  C   UNL A   1      39.168  33.288  34.472  1.00  0.00     0.049 A 
ATOM     25  H   UNL A   1      39.795  31.847  33.103  1.00  0.00     0.167 HD
ATOM     26  C   UNL A   1      40.775  28.651  30.245  1.00  0.00     0.034 A 
ATOM     27  C   UNL A   1      39.907  33.140  35.587  1.00  0.00     0.034 A 
ATOM     28  C   UNL A   1      41.688  28.484  31.352  1.00  0.00     0.049 A 
ATOM     29  C   UNL A   1      40.931  32.039  35.641  1.00  0.00     0.074 A 
ATOM     30  C   UNL A   1      42.726  27.577  31.486  1.00  0.00     0.029 A 
ATOM     31  N   UNL A   1      41.662  29.227  32.528  1.00  0.00    -0.354 N 
ATOM     32  N   UNL A   1      41.213  31.134  34.733  1.00  0.00    -0.248 NA
ATOM     33  C   UNL A   1      41.739  31.942  36.863  1.00  0.00     0.031 C 
ATOM     34  C   UNL A   1      43.272  27.718  32.766  1.00  0.00     0.029 A 
ATOM     35  C   UNL A   1      42.640  28.776  33.402  1.00  0.00     0.049 A 
ATOM     36  H   UNL A   1      41.039  29.967  32.713  1.00  0.00     0.167 HD
ATOM     37  C   UNL A   1      42.257  30.379  35.262  1.00  0.00     0.074 A 
ATOM     38  C   UNL A   1      42.550  30.935  36.567  1.00  0.00     0.031 C 
ATOM     39  C   UNL A   1      42.920  29.332  34.708  1.00  0.00     0.034 A 
BRANCH  26  40
ATOM     40  C   UNL A   1      40.850  27.693  29.078  1.00  0.00     0.023 A 
ATOM     41  C   UNL A   1      41.804  27.841  28.056  1.00  0.00     0.031 A 
ATOM     42  C   UNL A   1      39.917  26.647  28.953  1.00  0.00     0.131 A 
ATOM     43  C   UNL A   1      41.744  27.027  26.914  1.00  0.00     0.055 A 
ATOM     44  C   UNL A   1      39.923  25.778  27.860  1.00  0.00     0.041 A 
ATOM     45  F   UNL A   1      38.967  26.463  29.883  1.00  0.00    -0.206 F 
ATOM     46  C   UNL A   1      40.826  25.979  26.820  1.00  0.00     0.022 A 
BRANCH  43  47
ATOM     47  S   UNL A   1      42.756  27.479  25.476  1.00  0.00     0.124 S 
ATOM     48  O   UNL A   1      42.757  26.234  24.711  1.00  0.00    -0.237 OA
ATOM     49  O   UNL A   1      42.001  28.584  24.896  1.00  0.00    -0.237 OA
ATOM     50  O   UNL A   1      44.045  27.841  26.063  1.00  0.00    -0.744 OA
ENDBRANCH  43  47
ENDBRANCH  26  40
BRANCH  27  51
ATOM     51  C   UNL A   1      39.667  34.035  36.753  1.00  0.00     0.023 A 
ATOM     52  C   UNL A   1      39.063  33.557  37.925  1.00  0.00     0.031 A 
ATOM     53  C   UNL A   1      40.059  35.386  36.713  1.00  0.00     0.131 A 
ATOM     54  C   UNL A   1      38.849  34.430  39.003  1.00  0.00     0.055 A 
ATOM     55  C   UNL A   1      39.888  36.237  37.805  1.00  0.00     0.041 A 
ATOM     56  F   UNL A   1      40.648  35.889  35.616  1.00  0.00    -0.206 F 
ATOM     57  C   UNL A   1      39.271  35.761  38.957  1.00  0.00     0.022 A 
BRANCH  54  58
ATOM     58  S   UNL A   1      37.959  33.812  40.456  1.00  0.00     0.124 S 
ATOM     59  O   UNL A   1      37.509  35.052  41.079  1.00  0.00    -0.237 OA
ATOM     60  O   UNL A   1      36.920  32.986  39.848  1.00  0.00    -0.237 OA
ATOM     61  O   UNL A   1      38.983  33.077  41.196  1.00  0.00    -0.744 OA
ENDBRANCH  54  58
ENDBRANCH  27  51
BRANCH  39  62
ATOM     62  C   UNL A   1      44.081  28.760  35.485  1.00  0.00     0.023 A 
ATOM     63  C   UNL A   1      43.920  27.723  36.420  1.00  0.00     0.031 A 
ATOM     64  C   UNL A   1      45.379  29.255  35.262  1.00  0.00     0.131 A 
ATOM     65  C   UNL A   1      45.035  27.239  37.123  1.00  0.00     0.055 A 
ATOM     66  C   UNL A   1      46.490  28.733  35.923  1.00  0.00     0.041 A 
ATOM     67  F   UNL A   1      45.589  30.250  34.384  1.00  0.00    -0.206 F 
ATOM     68  C   UNL A   1      46.321  27.725  36.866  1.00  0.00     0.022 A 
BRANCH  65  69
ATOM     69  S   UNL A   1      44.779  26.010  38.432  1.00  0.00     0.124 S 
ATOM     70  O   UNL A   1      43.934  25.026  37.763  1.00  0.00    -0.237 OA
ATOM     71  O   UNL A   1      46.141  25.583  38.732  1.00  0.00    -0.237 OA
ATOM     72  O   UNL A   1      44.121  26.771  39.494  1.00  0.00    -0.744 OA
ENDBRANCH  65  69
ENDBRANCH  39  62
ENDBRANCH  13  14
ENDBRANCH   6   8
ENDBRANCH   3   4
ENDBRANCH   2   3
ENDBRANCH   1   2
BRANCH   1  73
ATOM     73  C   UNL A   1      31.849  29.429  26.528  1.00  0.00     0.002 C 
BRANCH  73  74
ATOM     74  C   UNL A   1      33.009  28.608  25.948  1.00  0.00     0.021 C 
BRANCH  74  75
ATOM     75  C   UNL A   1      33.180  27.224  26.571  1.00  0.00     0.116 C 
BRANCH  75  76
ATOM     76  N   UNL A   1      34.040  26.389  25.752  1.00  0.00    -0.354 N 
ATOM     77  C   UNL A   1      33.737  25.595  24.686  1.00  0.00     0.242 C 
ATOM     78  H   UNL A   1      34.991  26.397  26.006  1.00  0.00     0.163 HD
ATOM     79  O   UNL A   1      34.639  24.875  24.253  1.00  0.00    -0.273 OA
BRANCH  77  80
ATOM     80  C   UNL A   1      32.331  25.684  24.041  1.00  0.00     0.174 C 
ATOM     81  C   UNL A   1      32.361  25.213  22.577  1.00  0.00     0.035 C 
ATOM     82  N   UNL A   1      31.298  24.918  24.771  1.00  0.00    -0.324 N 
ATOM     83  C   UNL A   1      32.563  23.701  22.478  1.00  0.00     0.004 C 
ATOM     84  C   UNL A   1      31.433  23.456  24.732  1.00  0.00     0.121 C 
ATOM     85  C   UNL A   1      31.505  22.957  23.288  1.00  0.00     0.022 C 
BRANCH  82  86
ATOM     86  C   UNL A   1      30.211  25.605  25.320  1.00  0.00     0.291 C 
ATOM     87  O   UNL A   1      29.973  25.561  26.527  1.00  0.00    -0.265 OA
BRANCH  86  88
ATOM     88  C   UNL A   1      29.448  26.489  24.470  1.00  0.00     0.214 A 
ATOM     89  N   UNL A   1      29.836  27.612  23.892  1.00  0.00    -0.207 NA
ATOM     90  N   UNL A   1      28.154  26.243  24.120  1.00  0.00    -0.255 N 
ATOM     91  C   UNL A   1      28.697  28.051  23.264  1.00  0.00     0.154 A 
ATOM     92  N   UNL A   1      27.627  27.264  23.425  1.00  0.00    -0.158 NA
ATOM     93  H   UNL A   1      27.666  25.419  24.350  1.00  0.00     0.192 HD
BRANCH  91  94
ATOM     94  C   UNL A   1      28.621  29.334  22.455  1.00  0.00     0.060 C 
ATOM     95  C   UNL A   1      29.101  30.629  23.076  1.00  0.00     0.012 C 
ATOM     96  C   UNL A   1      29.911  29.985  22.002  1.00  0.00     0.012 C 
ENDBRANCH  91  94
ENDBRANCH  86  88
ENDBRANCH  82  86
ENDBRANCH  77  80
ENDBRANCH  75  76
ENDBRANCH  74  75
ENDBRANCH  73  74
ENDBRANCH   1  73
TORSDOF 19
ENDMDL
