MODEL 1
REMARK VINA RESULT:     -10.8      0.000      0.000
REMARK SMILES Cc1ccc(C(=O)N[C@@H](CC(=O)NCCCCCCNC(=O)c2ccc(-c3c4nc(c(-c5cc(S(=O)(=O)[O-])ccc5F)c5ccc([nH]5)c(-c5cc(S(=O)(=O)[O-])ccc5F)c5nc(c(-c6cc(S(=O)(=O)[O-])ccc6F)c6ccc3[nH]6)C=C5)C=C4)cc2)c2cccs2)o1
REMARK SMILES IDX 16 1 15 2 14 3 13 4 11 5 12 6 10 8 9 9 8 10 6 11 7 12 5 14
REMARK SMILES IDX 1 15 2 16 3 17 91 18 4 19 86 20 87 21 90 22 88 23 89 24
REMARK SMILES IDX 17 25 18 26 19 27 20 28 21 29 22 31 23 32 24 33 85 34 25 35
REMARK SMILES IDX 84 36 26 37 27 38 28 39 78 40 29 41 83 42 77 43 79 44 30 45
REMARK SMILES IDX 82 46 76 47 75 48 31 50 63 51 43 52 62 53 44 54 47 55 61 56
REMARK SMILES IDX 80 57 45 58 46 59 60 61 81 62 48 63 32 64 33 65 41 66 34 67
REMARK SMILES IDX 40 68 42 69 39 70 35 71 36 72 37 73 38 74 64 75 65 76 73 77
REMARK SMILES IDX 66 78 72 79 74 80 71 81 67 82 68 83 69 84 70 85 49 86 50 87
REMARK SMILES IDX 58 88 51 89 57 90 59 91 56 92 52 93 53 94 54 95 55 96
REMARK H PARENT 13 7 8 13 20 30 79 49 47 60
REMARK Flexibility Score: inf
ROOT
ATOM      1  C   UNL A   1      34.127  23.095  24.009  1.00  0.00     0.002 C 
ENDROOT
BRANCH   1   2
ATOM      2  C   UNL A   1      33.057  22.073  24.403  1.00  0.00     0.021 C 
BRANCH   2   3
ATOM      3  C   UNL A   1      32.994  21.781  25.902  1.00  0.00     0.116 C 
BRANCH   3   4
ATOM      4  N   UNL A   1      31.713  22.194  26.444  1.00  0.00    -0.356 N 
ATOM      5  C   UNL A   1      31.259  23.434  26.767  1.00  0.00     0.222 C 
ATOM      6  O   UNL A   1      30.139  23.533  27.271  1.00  0.00    -0.275 OA
ATOM      7  H   UNL A   1      31.073  21.463  26.601  1.00  0.00     0.163 HD
BRANCH   5   8
ATOM      8  C   UNL A   1      32.077  24.668  26.452  1.00  0.00     0.130 C 
BRANCH   8   9
ATOM      9  C   UNL A   1      31.387  26.029  26.588  1.00  0.00     0.132 C 
BRANCH   9  10
ATOM     10  N   UNL A   1      30.294  26.221  25.656  1.00  0.00    -0.341 N 
ATOM     11  C   UNL A   1      30.197  26.493  24.319  1.00  0.00     0.287 C 
ATOM     12  O   UNL A   1      29.068  26.845  23.961  1.00  0.00    -0.266 OA
ATOM     13  H   UNL A   1      29.413  26.136  26.087  1.00  0.00     0.164 HD
BRANCH  11  14
ATOM     14  C   UNL A   1      31.303  26.345  23.392  1.00  0.00     0.191 A 
ATOM     15  C   UNL A   1      34.020  28.279  22.060  1.00  0.00     0.087 C 
ATOM     16  C   UNL A   1      33.069  27.187  22.340  1.00  0.00     0.101 A 
ATOM     17  C   UNL A   1      32.858  25.944  21.797  1.00  0.00     0.046 A 
ATOM     18  O   UNL A   1      32.156  27.423  23.317  1.00  0.00    -0.456 OA
ATOM     19  C   UNL A   1      31.724  25.408  22.463  1.00  0.00     0.056 A 
ENDBRANCH  11  14
ENDBRANCH   9  10
BRANCH   9  20
ATOM     20  C   UNL A   1      32.298  27.232  26.518  1.00  0.00     0.027 A 
ATOM     21  C   UNL A   1      33.666  27.238  26.308  1.00  0.00     0.017 A 
ATOM     22  S   UNL A   1      31.716  28.832  26.773  1.00  0.00    -0.147 S 
ATOM     23  C   UNL A   1      34.231  28.541  26.404  1.00  0.00     0.012 A 
ATOM     24  C   UNL A   1      33.280  29.500  26.665  1.00  0.00     0.065 A 
ENDBRANCH   9  20
ENDBRANCH   8   9
ENDBRANCH   5   8
ENDBRANCH   3   4
ENDBRANCH   2   3
ENDBRANCH   1   2
BRANCH   1  25
ATOM     25  C   UNL A   1      35.496  22.491  23.689  1.00  0.00     0.002 C 
BRANCH  25  26
ATOM     26  C   UNL A   1      36.689  23.276  24.241  1.00  0.00     0.021 C 
BRANCH  26  27
ATOM     27  C   UNL A   1      36.884  23.153  25.750  1.00  0.00     0.116 C 
BRANCH  27  28
ATOM     28  N   UNL A   1      37.983  22.258  26.076  1.00  0.00    -0.352 N 
ATOM     29  C   UNL A   1      39.261  22.566  26.466  1.00  0.00     0.251 C 
ATOM     30  H   UNL A   1      37.781  21.297  26.005  1.00  0.00     0.163 HD
ATOM     31  O   UNL A   1      40.132  21.698  26.447  1.00  0.00    -0.269 OA
BRANCH  29  32
ATOM     32  C   UNL A   1      39.583  23.943  26.893  1.00  0.00     0.039 A 
ATOM     33  C   UNL A   1      39.415  24.296  28.233  1.00  0.00     0.014 A 
ATOM     34  C   UNL A   1      40.045  24.885  25.968  1.00  0.00     0.014 A 
ATOM     35  C   UNL A   1      39.762  25.581  28.656  1.00  0.00     0.010 A 
ATOM     36  C   UNL A   1      40.460  26.139  26.405  1.00  0.00     0.010 A 
ATOM     37  C   UNL A   1      40.317  26.503  27.753  1.00  0.00    -0.014 A 
BRANCH  37  38
ATOM     38  C   UNL A   1      40.745  27.854  28.200  1.00  0.00     0.031 A 
ATOM     39  C   UNL A   1      42.205  28.219  28.202  1.00  0.00     0.074 A 
ATOM     40  C   UNL A   1      39.825  28.731  28.648  1.00  0.00     0.049 A 
ATOM     41  N   UNL A   1      42.783  29.316  28.619  1.00  0.00    -0.248 NA
ATOM     42  C   UNL A   1      43.140  27.204  27.695  1.00  0.00     0.031 C 
ATOM     43  C   UNL A   1      38.384  28.476  28.724  1.00  0.00     0.029 A 
ATOM     44  N   UNL A   1      39.959  30.009  29.131  1.00  0.00    -0.354 N 
ATOM     45  C   UNL A   1      44.147  29.122  28.428  1.00  0.00     0.074 A 
ATOM     46  C   UNL A   1      44.312  27.777  27.921  1.00  0.00     0.031 C 
ATOM     47  C   UNL A   1      37.768  29.570  29.203  1.00  0.00     0.029 A 
ATOM     48  C   UNL A   1      38.770  30.584  29.516  1.00  0.00     0.049 A 
ATOM     49  H   UNL A   1      40.827  30.471  29.197  1.00  0.00     0.167 HD
ATOM     50  C   UNL A   1      45.165  29.995  28.634  1.00  0.00     0.034 A 
ATOM     51  C   UNL A   1      38.517  31.786  30.074  1.00  0.00     0.034 A 
ATOM     52  C   UNL A   1      44.982  31.335  29.138  1.00  0.00     0.049 A 
ATOM     53  C   UNL A   1      39.670  32.723  30.331  1.00  0.00     0.074 A 
ATOM     54  C   UNL A   1      45.936  32.315  29.348  1.00  0.00     0.029 A 
ATOM     55  N   UNL A   1      43.762  31.881  29.521  1.00  0.00    -0.354 N 
ATOM     56  N   UNL A   1      40.952  32.541  30.101  1.00  0.00    -0.248 NA
ATOM     57  C   UNL A   1      39.344  34.033  30.909  1.00  0.00     0.031 C 
ATOM     58  C   UNL A   1      45.307  33.424  29.923  1.00  0.00     0.029 A 
ATOM     59  C   UNL A   1      43.947  33.172  29.994  1.00  0.00     0.049 A 
ATOM     60  H   UNL A   1      42.895  31.420  29.465  1.00  0.00     0.167 HD
ATOM     61  C   UNL A   1      41.577  33.727  30.477  1.00  0.00     0.074 A 
ATOM     62  C   UNL A   1      40.531  34.621  30.929  1.00  0.00     0.031 C 
ATOM     63  C   UNL A   1      42.894  34.051  30.448  1.00  0.00     0.034 A 
BRANCH  50  64
ATOM     64  C   UNL A   1      46.566  29.517  28.334  1.00  0.00     0.023 A 
ATOM     65  C   UNL A   1      47.380  28.949  29.330  1.00  0.00     0.031 A 
ATOM     66  C   UNL A   1      47.101  29.638  27.040  1.00  0.00     0.131 A 
ATOM     67  C   UNL A   1      48.704  28.589  29.034  1.00  0.00     0.055 A 
ATOM     68  C   UNL A   1      48.392  29.202  26.731  1.00  0.00     0.041 A 
ATOM     69  F   UNL A   1      46.380  30.192  26.051  1.00  0.00    -0.206 F 
ATOM     70  C   UNL A   1      49.207  28.686  27.735  1.00  0.00     0.022 A 
BRANCH  67  71
ATOM     71  S   UNL A   1      49.800  28.118  30.400  1.00  0.00     0.124 S 
ATOM     72  O   UNL A   1      50.463  26.936  29.851  1.00  0.00    -0.237 OA
ATOM     73  O   UNL A   1      50.635  29.303  30.559  1.00  0.00    -0.237 OA
ATOM     74  O   UNL A   1      48.879  27.850  31.502  1.00  0.00    -0.744 OA
ENDBRANCH  67  71
ENDBRANCH  50  64
BRANCH  51  75
ATOM     75  C   UNL A   1      37.124  32.171  30.449  1.00  0.00     0.023 A 
ATOM     76  C   UNL A   1      36.253  32.747  29.512  1.00  0.00     0.031 A 
ATOM     77  C   UNL A   1      36.663  32.020  31.770  1.00  0.00     0.131 A 
ATOM     78  C   UNL A   1      34.990  33.206  29.919  1.00  0.00     0.055 A 
ATOM     79  C   UNL A   1      35.383  32.419  32.156  1.00  0.00     0.041 A 
ATOM     80  F   UNL A   1      37.453  31.473  32.708  1.00  0.00    -0.206 F 
ATOM     81  C   UNL A   1      34.543  33.032  31.231  1.00  0.00     0.022 A 
BRANCH  78  82
ATOM     82  S   UNL A   1      33.980  34.135  28.732  1.00  0.00     0.124 S 
ATOM     83  O   UNL A   1      34.907  35.176  28.305  1.00  0.00    -0.237 OA
ATOM     84  O   UNL A   1      33.661  33.112  27.742  1.00  0.00    -0.237 OA
ATOM     85  O   UNL A   1      32.850  34.596  29.536  1.00  0.00    -0.744 OA
ENDBRANCH  78  82
ENDBRANCH  51  75
BRANCH  63  86
ATOM     86  C   UNL A   1      43.268  35.452  30.873  1.00  0.00     0.023 A 
ATOM     87  C   UNL A   1      43.392  36.501  29.947  1.00  0.00     0.031 A 
ATOM     88  C   UNL A   1      43.516  35.734  32.229  1.00  0.00     0.131 A 
ATOM     89  C   UNL A   1      43.809  37.768  30.378  1.00  0.00     0.055 A 
ATOM     90  C   UNL A   1      43.865  37.014  32.662  1.00  0.00     0.041 A 
ATOM     91  F   UNL A   1      43.417  34.770  33.158  1.00  0.00    -0.206 F 
ATOM     92  C   UNL A   1      44.028  38.037  31.733  1.00  0.00     0.022 A 
BRANCH  89  93
ATOM     93  S   UNL A   1      44.160  39.041  29.135  1.00  0.00     0.124 S 
ATOM     94  O   UNL A   1      44.604  40.160  29.961  1.00  0.00    -0.237 OA
ATOM     95  O   UNL A   1      45.189  38.405  28.318  1.00  0.00    -0.237 OA
ATOM     96  O   UNL A   1      42.874  39.235  28.469  1.00  0.00    -0.744 OA
ENDBRANCH  89  93
ENDBRANCH  63  86
ENDBRANCH  37  38
ENDBRANCH  29  32
ENDBRANCH  27  28
ENDBRANCH  26  27
ENDBRANCH  25  26
ENDBRANCH   1  25
TORSDOF 20
ENDMDL
MODEL 2
REMARK VINA RESULT:     -10.7      2.779      3.394
REMARK SMILES Cc1ccc(C(=O)N[C@@H](CC(=O)NCCCCCCNC(=O)c2ccc(-c3c4nc(c(-c5cc(S(=O)(=O)[O-])ccc5F)c5ccc([nH]5)c(-c5cc(S(=O)(=O)[O-])ccc5F)c5nc(c(-c6cc(S(=O)(=O)[O-])ccc6F)c6ccc3[nH]6)C=C5)C=C4)cc2)c2cccs2)o1
REMARK SMILES IDX 16 1 15 2 14 3 13 4 11 5 12 6 10 8 9 9 8 10 6 11 7 12 5 14
REMARK SMILES IDX 1 15 2 16 3 17 91 18 4 19 86 20 87 21 90 22 88 23 89 24
REMARK SMILES IDX 17 25 18 26 19 27 20 28 21 29 22 31 23 32 24 33 85 34 25 35
REMARK SMILES IDX 84 36 26 37 27 38 28 39 78 40 29 41 83 42 77 43 79 44 30 45
REMARK SMILES IDX 82 46 76 47 75 48 31 50 63 51 43 52 62 53 44 54 47 55 61 56
REMARK SMILES IDX 80 57 45 58 46 59 60 61 81 62 48 63 32 64 33 65 41 66 34 67
REMARK SMILES IDX 40 68 42 69 39 70 35 71 36 72 37 73 38 74 64 75 65 76 73 77
REMARK SMILES IDX 66 78 72 79 74 80 71 81 67 82 68 83 69 84 70 85 49 86 50 87
REMARK SMILES IDX 58 88 51 89 57 90 59 91 56 92 52 93 53 94 54 95 55 96
REMARK H PARENT 13 7 8 13 20 30 79 49 47 60
REMARK Flexibility Score: inf
ROOT
ATOM      1  C   UNL A   1      34.218  22.257  24.903  1.00  0.00     0.002 C 
ENDROOT
BRANCH   1   2
ATOM      2  C   UNL A   1      34.360  23.107  26.168  1.00  0.00     0.021 C 
BRANCH   2   3
ATOM      3  C   UNL A   1      33.213  24.093  26.390  1.00  0.00     0.116 C 
BRANCH   3   4
ATOM      4  N   UNL A   1      32.236  23.980  25.325  1.00  0.00    -0.356 N 
ATOM      5  C   UNL A   1      31.135  24.734  25.064  1.00  0.00     0.222 C 
ATOM      6  O   UNL A   1      30.414  24.408  24.118  1.00  0.00    -0.275 OA
ATOM      7  H   UNL A   1      32.395  23.244  24.691  1.00  0.00     0.163 HD
BRANCH   5   8
ATOM      8  C   UNL A   1      30.839  25.982  25.867  1.00  0.00     0.130 C 
BRANCH   8   9
ATOM      9  C   UNL A   1      31.095  27.335  25.195  1.00  0.00     0.132 C 
BRANCH   9  10
ATOM     10  N   UNL A   1      31.312  27.240  23.765  1.00  0.00    -0.341 N 
ATOM     11  C   UNL A   1      30.597  27.584  22.651  1.00  0.00     0.287 C 
ATOM     12  O   UNL A   1      31.028  27.085  21.607  1.00  0.00    -0.266 OA
ATOM     13  H   UNL A   1      32.180  26.831  23.543  1.00  0.00     0.164 HD
BRANCH  11  14
ATOM     14  C   UNL A   1      29.458  28.482  22.680  1.00  0.00     0.191 A 
ATOM     15  C   UNL A   1      28.692  31.933  22.042  1.00  0.00     0.087 C 
ATOM     16  C   UNL A   1      28.586  30.507  22.406  1.00  0.00     0.101 A 
ATOM     17  C   UNL A   1      27.589  29.732  22.945  1.00  0.00     0.046 A 
ATOM     18  O   UNL A   1      29.702  29.757  22.219  1.00  0.00    -0.456 OA
ATOM     19  C   UNL A   1      28.149  28.440  23.129  1.00  0.00     0.056 A 
ENDBRANCH  11  14
ENDBRANCH   9  10
BRANCH   9  20
ATOM     20  C   UNL A   1      32.205  28.163  25.798  1.00  0.00     0.027 A 
ATOM     21  C   UNL A   1      33.533  27.803  25.950  1.00  0.00     0.017 A 
ATOM     22  S   UNL A   1      31.918  29.722  26.469  1.00  0.00    -0.147 S 
ATOM     23  C   UNL A   1      34.291  28.782  26.654  1.00  0.00     0.012 A 
ATOM     24  C   UNL A   1      33.530  29.872  27.004  1.00  0.00     0.065 A 
ENDBRANCH   9  20
ENDBRANCH   8   9
ENDBRANCH   5   8
ENDBRANCH   3   4
ENDBRANCH   2   3
ENDBRANCH   1   2
BRANCH   1  25
ATOM     25  C   UNL A   1      35.544  21.836  24.266  1.00  0.00     0.002 C 
BRANCH  25  26
ATOM     26  C   UNL A   1      36.449  20.992  25.167  1.00  0.00     0.021 C 
BRANCH  26  27
ATOM     27  C   UNL A   1      37.935  21.329  25.066  1.00  0.00     0.116 C 
BRANCH  27  28
ATOM     28  N   UNL A   1      38.749  20.378  25.806  1.00  0.00    -0.352 N 
ATOM     29  C   UNL A   1      39.896  20.599  26.526  1.00  0.00     0.251 C 
ATOM     30  H   UNL A   1      38.434  19.445  25.788  1.00  0.00     0.163 HD
ATOM     31  O   UNL A   1      40.596  19.648  26.868  1.00  0.00    -0.269 OA
BRANCH  29  32
ATOM     32  C   UNL A   1      40.287  21.981  26.871  1.00  0.00     0.039 A 
ATOM     33  C   UNL A   1      41.256  22.187  27.854  1.00  0.00     0.014 A 
ATOM     34  C   UNL A   1      39.692  23.071  26.227  1.00  0.00     0.014 A 
ATOM     35  C   UNL A   1      41.668  23.488  28.154  1.00  0.00     0.010 A 
ATOM     36  C   UNL A   1      40.157  24.359  26.473  1.00  0.00     0.010 A 
ATOM     37  C   UNL A   1      41.145  24.582  27.444  1.00  0.00    -0.014 A 
BRANCH  37  38
ATOM     38  C   UNL A   1      41.615  25.967  27.712  1.00  0.00     0.031 A 
ATOM     39  C   UNL A   1      42.979  26.401  27.248  1.00  0.00     0.074 A 
ATOM     40  C   UNL A   1      40.835  26.813  28.412  1.00  0.00     0.049 A 
ATOM     41  N   UNL A   1      43.596  27.538  27.443  1.00  0.00    -0.248 NA
ATOM     42  C   UNL A   1      43.764  25.416  26.488  1.00  0.00     0.031 C 
ATOM     43  C   UNL A   1      39.507  26.492  28.943  1.00  0.00     0.029 A 
ATOM     44  N   UNL A   1      41.042  28.111  28.807  1.00  0.00    -0.354 N 
ATOM     45  C   UNL A   1      44.841  27.404  26.835  1.00  0.00     0.074 A 
ATOM     46  C   UNL A   1      44.913  26.052  26.324  1.00  0.00     0.031 C 
ATOM     47  C   UNL A   1      39.013  27.570  29.574  1.00  0.00     0.029 A 
ATOM     48  C   UNL A   1      40.004  28.641  29.538  1.00  0.00     0.049 A 
ATOM     49  H   UNL A   1      41.859  28.615  28.589  1.00  0.00     0.167 HD
ATOM     50  C   UNL A   1      45.821  28.331  26.695  1.00  0.00     0.034 A 
ATOM     51  C   UNL A   1      39.872  29.846  30.128  1.00  0.00     0.034 A 
ATOM     52  C   UNL A   1      45.730  29.676  27.210  1.00  0.00     0.049 A 
ATOM     53  C   UNL A   1      40.993  30.846  29.993  1.00  0.00     0.074 A 
ATOM     54  C   UNL A   1      46.646  30.707  27.092  1.00  0.00     0.029 A 
ATOM     55  N   UNL A   1      44.665  30.176  27.949  1.00  0.00    -0.354 N 
ATOM     56  N   UNL A   1      42.146  30.718  29.374  1.00  0.00    -0.248 NA
ATOM     57  C   UNL A   1      40.792  32.157  30.623  1.00  0.00     0.031 C 
ATOM     58  C   UNL A   1      46.169  31.803  27.818  1.00  0.00     0.029 A 
ATOM     59  C   UNL A   1      44.916  31.488  28.318  1.00  0.00     0.049 A 
ATOM     60  H   UNL A   1      43.851  29.672  28.176  1.00  0.00     0.167 HD
ATOM     61  C   UNL A   1      42.789  31.945  29.514  1.00  0.00     0.074 A 
ATOM     62  C   UNL A   1      41.890  32.802  30.259  1.00  0.00     0.031 C 
ATOM     63  C   UNL A   1      44.011  32.331  29.067  1.00  0.00     0.034 A 
BRANCH  50  64
ATOM     64  C   UNL A   1      47.081  27.910  25.977  1.00  0.00     0.023 A 
ATOM     65  C   UNL A   1      47.247  28.116  24.595  1.00  0.00     0.031 A 
ATOM     66  C   UNL A   1      48.128  27.285  26.677  1.00  0.00     0.131 A 
ATOM     67  C   UNL A   1      48.397  27.640  23.948  1.00  0.00     0.055 A 
ATOM     68  C   UNL A   1      49.306  26.887  26.042  1.00  0.00     0.041 A 
ATOM     69  F   UNL A   1      48.020  27.041  27.993  1.00  0.00    -0.206 F 
ATOM     70  C   UNL A   1      49.440  27.051  24.665  1.00  0.00     0.022 A 
BRANCH  67  71
ATOM     71  S   UNL A   1      48.451  27.680  22.135  1.00  0.00     0.124 S 
ATOM     72  O   UNL A   1      48.692  26.274  21.816  1.00  0.00    -0.237 OA
ATOM     73  O   UNL A   1      47.131  28.197  21.791  1.00  0.00    -0.237 OA
ATOM     74  O   UNL A   1      49.568  28.577  21.846  1.00  0.00    -0.744 OA
ENDBRANCH  67  71
ENDBRANCH  50  64
BRANCH  51  75
ATOM     75  C   UNL A   1      38.648  30.176  30.917  1.00  0.00     0.023 A 
ATOM     76  C   UNL A   1      37.629  30.974  30.375  1.00  0.00     0.031 A 
ATOM     77  C   UNL A   1      38.507  29.744  32.249  1.00  0.00     0.131 A 
ATOM     78  C   UNL A   1      36.544  31.366  31.177  1.00  0.00     0.055 A 
ATOM     79  C   UNL A   1      37.395  30.082  33.021  1.00  0.00     0.041 A 
ATOM     80  F   UNL A   1      39.451  28.976  32.818  1.00  0.00    -0.206 F 
ATOM     81  C   UNL A   1      36.412  30.912  32.491  1.00  0.00     0.022 A 
BRANCH  78  82
ATOM     82  S   UNL A   1      35.360  32.568  30.509  1.00  0.00     0.124 S 
ATOM     83  O   UNL A   1      34.795  31.832  29.384  1.00  0.00    -0.237 OA
ATOM     84  O   UNL A   1      34.473  32.782  31.647  1.00  0.00    -0.237 OA
ATOM     85  O   UNL A   1      36.200  33.709  30.152  1.00  0.00    -0.744 OA
ENDBRANCH  78  82
ENDBRANCH  51  75
BRANCH  63  86
ATOM     86  C   UNL A   1      44.421  33.761  29.329  1.00  0.00     0.023 A 
ATOM     87  C   UNL A   1      44.111  34.799  28.434  1.00  0.00     0.031 A 
ATOM     88  C   UNL A   1      45.144  34.085  30.492  1.00  0.00     0.131 A 
ATOM     89  C   UNL A   1      44.572  36.099  28.685  1.00  0.00     0.055 A 
ATOM     90  C   UNL A   1      45.542  35.392  30.770  1.00  0.00     0.041 A 
ATOM     91  F   UNL A   1      45.471  33.133  31.381  1.00  0.00    -0.206 F 
ATOM     92  C   UNL A   1      45.269  36.407  29.857  1.00  0.00     0.022 A 
BRANCH  89  93
ATOM     93  S   UNL A   1      44.336  37.369  27.412  1.00  0.00     0.124 S 
ATOM     94  O   UNL A   1      43.255  36.801  26.612  1.00  0.00    -0.237 OA
ATOM     95  O   UNL A   1      43.991  38.546  28.204  1.00  0.00    -0.237 OA
ATOM     96  O   UNL A   1      45.634  37.432  26.744  1.00  0.00    -0.744 OA
ENDBRANCH  89  93
ENDBRANCH  63  86
ENDBRANCH  37  38
ENDBRANCH  29  32
ENDBRANCH  27  28
ENDBRANCH  26  27
ENDBRANCH  25  26
ENDBRANCH   1  25
TORSDOF 20
ENDMDL
MODEL 3
REMARK VINA RESULT:     -10.6      3.037      4.281
REMARK SMILES Cc1ccc(C(=O)N[C@@H](CC(=O)NCCCCCCNC(=O)c2ccc(-c3c4nc(c(-c5cc(S(=O)(=O)[O-])ccc5F)c5ccc([nH]5)c(-c5cc(S(=O)(=O)[O-])ccc5F)c5nc(c(-c6cc(S(=O)(=O)[O-])ccc6F)c6ccc3[nH]6)C=C5)C=C4)cc2)c2cccs2)o1
REMARK SMILES IDX 16 1 15 2 14 3 13 4 11 5 12 6 10 8 9 9 8 10 6 11 7 12 5 14
REMARK SMILES IDX 1 15 2 16 3 17 91 18 4 19 86 20 87 21 90 22 88 23 89 24
REMARK SMILES IDX 17 25 18 26 19 27 20 28 21 29 22 31 23 32 24 33 85 34 25 35
REMARK SMILES IDX 84 36 26 37 27 38 28 39 78 40 29 41 83 42 77 43 79 44 30 45
REMARK SMILES IDX 82 46 76 47 75 48 31 50 63 51 43 52 62 53 44 54 47 55 61 56
REMARK SMILES IDX 80 57 45 58 46 59 60 61 81 62 48 63 32 64 33 65 41 66 34 67
REMARK SMILES IDX 40 68 42 69 39 70 35 71 36 72 37 73 38 74 64 75 65 76 73 77
REMARK SMILES IDX 66 78 72 79 74 80 71 81 67 82 68 83 69 84 70 85 49 86 50 87
REMARK SMILES IDX 58 88 51 89 57 90 59 91 56 92 52 93 53 94 54 95 55 96
REMARK H PARENT 13 7 8 13 20 30 79 49 47 60
REMARK Flexibility Score: inf
ROOT
ATOM      1  C   UNL A   1      36.112  21.073  24.634  1.00  0.00     0.002 C 
ENDROOT
BRANCH   1   2
ATOM      2  C   UNL A   1      36.952  22.328  24.386  1.00  0.00     0.021 C 
BRANCH   2   3
ATOM      3  C   UNL A   1      36.873  23.365  25.507  1.00  0.00     0.116 C 
BRANCH   3   4
ATOM      4  N   UNL A   1      35.935  22.937  26.526  1.00  0.00    -0.356 N 
ATOM      5  C   UNL A   1      34.649  23.318  26.746  1.00  0.00     0.222 C 
ATOM      6  O   UNL A   1      34.059  22.850  27.722  1.00  0.00    -0.275 OA
ATOM      7  H   UNL A   1      36.283  22.266  27.156  1.00  0.00     0.163 HD
BRANCH   5   8
ATOM      8  C   UNL A   1      33.934  24.237  25.778  1.00  0.00     0.130 C 
BRANCH   8   9
ATOM      9  C   UNL A   1      32.668  24.942  26.276  1.00  0.00     0.132 C 
BRANCH   9  10
ATOM     10  N   UNL A   1      31.638  24.031  26.733  1.00  0.00    -0.341 N 
ATOM     11  C   UNL A   1      30.990  22.952  26.196  1.00  0.00     0.287 C 
ATOM     12  O   UNL A   1      29.980  22.614  26.821  1.00  0.00    -0.266 OA
ATOM     13  H   UNL A   1      31.331  24.237  27.645  1.00  0.00     0.164 HD
BRANCH  11  14
ATOM     14  C   UNL A   1      31.462  22.240  25.024  1.00  0.00     0.191 A 
ATOM     15  C   UNL A   1      32.887  19.058  24.157  1.00  0.00     0.087 C 
ATOM     16  C   UNL A   1      32.354  20.432  24.089  1.00  0.00     0.101 A 
ATOM     17  C   UNL A   1      32.286  21.380  23.098  1.00  0.00     0.046 A 
ATOM     18  O   UNL A   1      31.837  20.932  25.240  1.00  0.00    -0.456 OA
ATOM     19  C   UNL A   1      31.724  22.539  23.698  1.00  0.00     0.056 A 
ENDBRANCH  11  14
ENDBRANCH   9  10
BRANCH   9  20
ATOM     20  C   UNL A   1      32.047  25.926  25.311  1.00  0.00     0.027 A 
ATOM     21  C   UNL A   1      30.853  26.609  25.463  1.00  0.00     0.017 A 
ATOM     22  S   UNL A   1      32.763  26.283  23.787  1.00  0.00    -0.147 S 
ATOM     23  C   UNL A   1      30.512  27.380  24.314  1.00  0.00     0.012 A 
ATOM     24  C   UNL A   1      31.462  27.282  23.325  1.00  0.00     0.065 A 
ENDBRANCH   9  20
ENDBRANCH   8   9
ENDBRANCH   5   8
ENDBRANCH   3   4
ENDBRANCH   2   3
ENDBRANCH   1   2
BRANCH   1  25
ATOM     25  C   UNL A   1      36.922  19.823  24.982  1.00  0.00     0.002 C 
BRANCH  25  26
ATOM     26  C   UNL A   1      38.434  19.962  24.788  1.00  0.00     0.021 C 
BRANCH  26  27
ATOM     27  C   UNL A   1      39.229  20.092  26.084  1.00  0.00     0.116 C 
BRANCH  27  28
ATOM     28  N   UNL A   1      40.390  19.216  26.088  1.00  0.00    -0.352 N 
ATOM     29  C   UNL A   1      41.721  19.546  26.097  1.00  0.00     0.251 C 
ATOM     30  H   UNL A   1      40.193  18.251  26.082  1.00  0.00     0.163 HD
ATOM     31  O   UNL A   1      42.565  18.691  25.835  1.00  0.00    -0.269 OA
BRANCH  29  32
ATOM     32  C   UNL A   1      42.129  20.932  26.407  1.00  0.00     0.039 A 
ATOM     33  C   UNL A   1      42.288  21.843  25.362  1.00  0.00     0.014 A 
ATOM     34  C   UNL A   1      42.359  21.326  27.729  1.00  0.00     0.014 A 
ATOM     35  C   UNL A   1      42.625  23.168  25.649  1.00  0.00     0.010 A 
ATOM     36  C   UNL A   1      42.621  22.662  28.017  1.00  0.00     0.010 A 
ATOM     37  C   UNL A   1      42.764  23.596  26.980  1.00  0.00    -0.014 A 
BRANCH  37  38
ATOM     38  C   UNL A   1      43.067  25.015  27.303  1.00  0.00     0.031 A 
ATOM     39  C   UNL A   1      44.447  25.563  27.061  1.00  0.00     0.074 A 
ATOM     40  C   UNL A   1      42.115  25.792  27.857  1.00  0.00     0.049 A 
ATOM     41  N   UNL A   1      44.927  26.749  27.339  1.00  0.00    -0.248 NA
ATOM     42  C   UNL A   1      45.424  24.649  26.451  1.00  0.00     0.031 C 
ATOM     43  C   UNL A   1      40.750  25.359  28.169  1.00  0.00     0.029 A 
ATOM     44  N   UNL A   1      42.146  27.102  28.264  1.00  0.00    -0.354 N 
ATOM     45  C   UNL A   1      46.261  26.720  26.943  1.00  0.00     0.074 A 
ATOM     46  C   UNL A   1      46.527  25.380  26.467  1.00  0.00     0.031 C 
ATOM     47  C   UNL A   1      40.071  26.390  28.698  1.00  0.00     0.029 A 
ATOM     48  C   UNL A   1      40.962  27.541  28.810  1.00  0.00     0.049 A 
ATOM     49  H   UNL A   1      42.943  27.674  28.175  1.00  0.00     0.167 HD
ATOM     50  C   UNL A   1      47.170  27.727  26.952  1.00  0.00     0.034 A 
ATOM     51  C   UNL A   1      40.636  28.731  29.355  1.00  0.00     0.034 A 
ATOM     52  C   UNL A   1      46.885  29.059  27.428  1.00  0.00     0.049 A 
ATOM     53  C   UNL A   1      41.676  29.822  29.391  1.00  0.00     0.074 A 
ATOM     54  C   UNL A   1      47.718  30.164  27.447  1.00  0.00     0.029 A 
ATOM     55  N   UNL A   1      45.675  29.466  27.978  1.00  0.00    -0.354 N 
ATOM     56  N   UNL A   1      42.921  29.793  28.969  1.00  0.00    -0.248 NA
ATOM     57  C   UNL A   1      41.267  31.110  29.964  1.00  0.00     0.031 C 
ATOM     58  C   UNL A   1      47.039  31.215  28.072  1.00  0.00     0.029 A 
ATOM     59  C   UNL A   1      45.752  30.795  28.366  1.00  0.00     0.049 A 
ATOM     60  H   UNL A   1      44.880  28.895  28.077  1.00  0.00     0.167 HD
ATOM     61  C   UNL A   1      43.429  31.069  29.196  1.00  0.00     0.074 A 
ATOM     62  C   UNL A   1      42.352  31.846  29.774  1.00  0.00     0.031 C 
ATOM     63  C   UNL A   1      44.671  31.557  28.948  1.00  0.00     0.034 A 
BRANCH  50  64
ATOM     64  C   UNL A   1      48.561  27.415  26.453  1.00  0.00     0.023 A 
ATOM     65  C   UNL A   1      48.949  27.692  25.130  1.00  0.00     0.031 A 
ATOM     66  C   UNL A   1      49.510  26.823  27.305  1.00  0.00     0.131 A 
ATOM     67  C   UNL A   1      50.224  27.315  24.679  1.00  0.00     0.055 A 
ATOM     68  C   UNL A   1      50.804  26.525  26.873  1.00  0.00     0.041 A 
ATOM     69  F   UNL A   1      49.192  26.514  28.572  1.00  0.00    -0.206 F 
ATOM     70  C   UNL A   1      51.163  26.758  25.548  1.00  0.00     0.022 A 
BRANCH  67  71
ATOM     71  S   UNL A   1      50.588  27.439  22.906  1.00  0.00     0.124 S 
ATOM     72  O   UNL A   1      50.610  28.888  22.711  1.00  0.00    -0.237 OA
ATOM     73  O   UNL A   1      51.873  26.760  22.799  1.00  0.00    -0.237 OA
ATOM     74  O   UNL A   1      49.462  26.751  22.276  1.00  0.00    -0.744 OA
ENDBRANCH  67  71
ENDBRANCH  50  64
BRANCH  51  75
ATOM     75  C   UNL A   1      39.277  28.955  29.931  1.00  0.00     0.023 A 
ATOM     76  C   UNL A   1      38.300  29.676  29.226  1.00  0.00     0.031 A 
ATOM     77  C   UNL A   1      38.954  28.501  31.223  1.00  0.00     0.131 A 
ATOM     78  C   UNL A   1      37.071  29.972  29.837  1.00  0.00     0.055 A 
ATOM     79  C   UNL A   1      37.708  28.743  31.801  1.00  0.00     0.041 A 
ATOM     80  F   UNL A   1      39.850  27.805  31.942  1.00  0.00    -0.206 F 
ATOM     81  C   UNL A   1      36.762  29.497  31.114  1.00  0.00     0.022 A 
BRANCH  78  82
ATOM     82  S   UNL A   1      35.920  31.083  28.980  1.00  0.00     0.124 S 
ATOM     83  O   UNL A   1      36.836  32.017  28.335  1.00  0.00    -0.237 OA
ATOM     84  O   UNL A   1      35.215  30.162  28.095  1.00  0.00    -0.237 OA
ATOM     85  O   UNL A   1      35.117  31.642  30.065  1.00  0.00    -0.744 OA
ENDBRANCH  78  82
ENDBRANCH  51  75
BRANCH  63  86
ATOM     86  C   UNL A   1      44.911  33.016  29.255  1.00  0.00     0.023 A 
ATOM     87  C   UNL A   1      44.488  34.038  28.387  1.00  0.00     0.031 A 
ATOM     88  C   UNL A   1      45.587  33.387  30.433  1.00  0.00     0.131 A 
ATOM     89  C   UNL A   1      44.795  35.375  28.680  1.00  0.00     0.055 A 
ATOM     90  C   UNL A   1      45.830  34.723  30.752  1.00  0.00     0.041 A 
ATOM     91  F   UNL A   1      46.017  32.453  31.296  1.00  0.00    -0.206 F 
ATOM     92  C   UNL A   1      45.446  35.725  29.867  1.00  0.00     0.022 A 
BRANCH  89  93
ATOM     93  S   UNL A   1      44.420  36.646  27.443  1.00  0.00     0.124 S 
ATOM     94  O   UNL A   1      43.530  35.932  26.533  1.00  0.00    -0.237 OA
ATOM     95  O   UNL A   1      43.801  37.694  28.249  1.00  0.00    -0.237 OA
ATOM     96  O   UNL A   1      45.730  36.985  26.890  1.00  0.00    -0.744 OA
ENDBRANCH  89  93
ENDBRANCH  63  86
ENDBRANCH  37  38
ENDBRANCH  29  32
ENDBRANCH  27  28
ENDBRANCH  26  27
ENDBRANCH  25  26
ENDBRANCH   1  25
TORSDOF 20
ENDMDL
