MODEL 1
REMARK VINA RESULT:     -11.4      0.000      0.000
REMARK SMILES Cc1cscc1C(=O)N1CC[C@H](C(=O)NCCCCCCNC(=O)c2ccc(-c3c4nc(c(-c5cc(S(=O)(=O)[O-])ccc5F)c5ccc([nH]5)c(-c5cc(S(=O)(=O)[O-])ccc5F)c5nc(c(-c6cc(S(=O)(=O)[O-])ccc6F)c6ccc3[nH]6)C=C5)C=C4)cc2)[C@H]1C
REMARK SMILES IDX 19 1 18 2 17 3 16 4 15 5 13 6 14 7 12 9 9 10 10 11 88 12
REMARK SMILES IDX 11 13 89 14 7 15 8 16 6 17 1 18 2 19 3 20 4 21 5 22 20 23
REMARK SMILES IDX 21 24 22 25 23 26 24 28 25 29 26 30 87 31 27 32 86 33 28 34
REMARK SMILES IDX 29 35 30 36 80 37 31 38 85 39 79 40 81 41 32 42 84 43 78 44
REMARK SMILES IDX 77 45 33 47 65 48 45 49 64 50 46 51 49 52 63 53 82 54 47 55
REMARK SMILES IDX 48 56 62 58 83 59 50 60 34 61 35 62 43 63 36 64 42 65 44 66
REMARK SMILES IDX 41 67 37 68 38 69 39 70 40 71 66 72 67 73 75 74 68 75 74 76
REMARK SMILES IDX 76 77 73 78 69 79 70 80 71 81 72 82 51 83 52 84 60 85 53 86
REMARK SMILES IDX 59 87 61 88 58 89 54 90 55 91 56 92 57 93
REMARK H PARENT 15 8 22 27 81 46 49 57
REMARK Flexibility Score: inf
ROOT
ATOM      1  C   UNL A   1      31.615  30.542  26.144  1.00  0.00     0.002 C 
ENDROOT
BRANCH   1   2
ATOM      2  C   UNL A   1      32.371  29.635  27.118  1.00  0.00     0.002 C 
BRANCH   2   3
ATOM      3  C   UNL A   1      31.543  28.495  27.719  1.00  0.00     0.021 C 
BRANCH   3   4
ATOM      4  C   UNL A   1      31.505  27.229  26.872  1.00  0.00     0.116 C 
BRANCH   4   5
ATOM      5  N   UNL A   1      32.834  26.829  26.449  1.00  0.00    -0.356 N 
ATOM      6  C   UNL A   1      33.250  26.376  25.233  1.00  0.00     0.225 C 
ATOM      7  O   UNL A   1      34.418  26.012  25.119  1.00  0.00    -0.275 OA
ATOM      8  H   UNL A   1      33.534  26.892  27.138  1.00  0.00     0.163 HD
BRANCH   6   9
ATOM      9  C   UNL A   1      32.234  26.308  24.105  1.00  0.00     0.102 C 
ATOM     10  N   UNL A   1      32.724  24.811  22.288  1.00  0.00    -0.335 N 
ATOM     11  C   UNL A   1      33.470  26.037  22.094  1.00  0.00     0.121 C 
ATOM     12  C   UNL A   1      32.027  24.866  23.587  1.00  0.00     0.094 C 
ATOM     13  C   UNL A   1      32.690  27.076  22.860  1.00  0.00     0.037 C 
ATOM     14  C   UNL A   1      30.530  24.576  23.484  1.00  0.00     0.032 C 
BRANCH  10  15
ATOM     15  C   UNL A   1      33.404  23.648  21.939  1.00  0.00     0.255 C 
ATOM     16  O   UNL A   1      33.419  23.234  20.780  1.00  0.00    -0.269 OA
BRANCH  15  17
ATOM     17  C   UNL A   1      34.054  22.903  23.025  1.00  0.00     0.053 A 
ATOM     18  C   UNL A   1      32.260  21.095  23.709  1.00  0.00     0.046 C 
ATOM     19  C   UNL A   1      33.571  21.799  23.838  1.00  0.00    -0.028 A 
ATOM     20  C   UNL A   1      34.525  21.409  24.763  1.00  0.00     0.069 A 
ATOM     21  S   UNL A   1      35.994  22.253  24.617  1.00  0.00    -0.151 S 
ATOM     22  C   UNL A   1      35.378  23.183  23.332  1.00  0.00     0.079 A 
ENDBRANCH  15  17
ENDBRANCH  10  15
ENDBRANCH   6   9
ENDBRANCH   4   5
ENDBRANCH   3   4
ENDBRANCH   2   3
ENDBRANCH   1   2
BRANCH   1  23
ATOM     23  C   UNL A   1      31.444  31.991  26.607  1.00  0.00     0.021 C 
BRANCH  23  24
ATOM     24  C   UNL A   1      32.656  32.576  27.322  1.00  0.00     0.116 C 
BRANCH  24  25
ATOM     25  N   UNL A   1      32.504  33.997  27.580  1.00  0.00    -0.352 N 
ATOM     26  C   UNL A   1      33.137  34.781  28.511  1.00  0.00     0.251 C 
ATOM     27  H   UNL A   1      31.856  34.463  27.005  1.00  0.00     0.163 HD
ATOM     28  O   UNL A   1      32.738  35.920  28.721  1.00  0.00    -0.269 OA
BRANCH  26  29
ATOM     29  C   UNL A   1      34.282  34.234  29.275  1.00  0.00     0.039 A 
ATOM     30  C   UNL A   1      34.026  33.401  30.365  1.00  0.00     0.014 A 
ATOM     31  C   UNL A   1      35.598  34.543  28.919  1.00  0.00     0.014 A 
ATOM     32  C   UNL A   1      35.092  32.833  31.066  1.00  0.00     0.010 A 
ATOM     33  C   UNL A   1      36.658  33.915  29.571  1.00  0.00     0.010 A 
ATOM     34  C   UNL A   1      36.417  33.058  30.656  1.00  0.00    -0.014 A 
BRANCH  34  35
ATOM     35  C   UNL A   1      37.558  32.410  31.357  1.00  0.00     0.031 A 
ATOM     36  C   UNL A   1      38.302  31.278  30.699  1.00  0.00     0.074 A 
ATOM     37  C   UNL A   1      37.889  32.808  32.602  1.00  0.00     0.049 A 
ATOM     38  N   UNL A   1      39.281  30.549  31.170  1.00  0.00    -0.248 NA
ATOM     39  C   UNL A   1      37.873  30.898  29.343  1.00  0.00     0.031 C 
ATOM     40  C   UNL A   1      37.214  33.868  33.357  1.00  0.00     0.029 A 
ATOM     41  N   UNL A   1      38.867  32.369  33.458  1.00  0.00    -0.354 N 
ATOM     42  C   UNL A   1      39.572  29.616  30.181  1.00  0.00     0.074 A 
ATOM     43  C   UNL A   1      38.633  29.840  29.103  1.00  0.00     0.031 C 
ATOM     44  C   UNL A   1      37.812  34.009  34.550  1.00  0.00     0.029 A 
ATOM     45  C   UNL A   1      38.877  33.019  34.672  1.00  0.00     0.049 A 
ATOM     46  H   UNL A   1      39.502  31.654  33.226  1.00  0.00     0.167 HD
ATOM     47  C   UNL A   1      40.546  28.673  30.166  1.00  0.00     0.034 A 
ATOM     48  C   UNL A   1      39.644  32.828  35.765  1.00  0.00     0.034 A 
ATOM     49  C   UNL A   1      41.490  28.481  31.239  1.00  0.00     0.049 A 
ATOM     50  C   UNL A   1      40.713  31.763  35.724  1.00  0.00     0.074 A 
ATOM     51  C   UNL A   1      42.559  27.602  31.294  1.00  0.00     0.029 A 
ATOM     52  N   UNL A   1      41.476  29.164  32.448  1.00  0.00    -0.354 N 
ATOM     53  N   UNL A   1      41.017  30.934  34.750  1.00  0.00    -0.248 NA
ATOM     54  C   UNL A   1      41.553  31.617  36.920  1.00  0.00     0.031 C 
ATOM     55  C   UNL A   1      43.139  27.697  32.563  1.00  0.00     0.029 A 
ATOM     56  C   UNL A   1      42.493  28.699  33.268  1.00  0.00     0.049 A 
ATOM     57  H   UNL A   1      40.838  29.874  32.688  1.00  0.00     0.167 HD
ATOM     58  C   UNL A   1      42.108  30.197  35.207  1.00  0.00     0.074 A 
ATOM     59  C   UNL A   1      42.418  30.693  36.531  1.00  0.00     0.031 C 
ATOM     60  C   UNL A   1      42.792  29.202  34.587  1.00  0.00     0.034 A 
BRANCH  47  61
ATOM     61  C   UNL A   1      40.627  27.758  28.969  1.00  0.00     0.023 A 
ATOM     62  C   UNL A   1      41.567  27.952  27.943  1.00  0.00     0.031 A 
ATOM     63  C   UNL A   1      39.760  26.655  28.865  1.00  0.00     0.131 A 
ATOM     64  C   UNL A   1      41.586  27.089  26.836  1.00  0.00     0.055 A 
ATOM     65  C   UNL A   1      39.834  25.756  27.800  1.00  0.00     0.041 A 
ATOM     66  F   UNL A   1      38.824  26.431  29.803  1.00  0.00    -0.206 F 
ATOM     67  C   UNL A   1      40.744  25.976  26.772  1.00  0.00     0.022 A 
BRANCH  64  68
ATOM     68  S   UNL A   1      42.649  27.504  25.427  1.00  0.00     0.124 S 
ATOM     69  O   UNL A   1      42.597  26.270  24.646  1.00  0.00    -0.237 OA
ATOM     70  O   UNL A   1      41.970  28.656  24.848  1.00  0.00    -0.237 OA
ATOM     71  O   UNL A   1      43.943  27.786  26.046  1.00  0.00    -0.744 OA
ENDBRANCH  64  68
ENDBRANCH  47  61
BRANCH  48  72
ATOM     72  C   UNL A   1      39.424  33.633  37.004  1.00  0.00     0.023 A 
ATOM     73  C   UNL A   1      40.184  34.784  37.267  1.00  0.00     0.031 A 
ATOM     74  C   UNL A   1      38.504  33.217  37.983  1.00  0.00     0.131 A 
ATOM     75  C   UNL A   1      40.064  35.435  38.507  1.00  0.00     0.055 A 
ATOM     76  C   UNL A   1      38.338  33.910  39.184  1.00  0.00     0.041 A 
ATOM     77  F   UNL A   1      37.748  32.125  37.786  1.00  0.00    -0.206 F 
ATOM     78  C   UNL A   1      39.135  35.015  39.460  1.00  0.00     0.022 A 
BRANCH  75  79
ATOM     79  S   UNL A   1      41.238  36.760  38.906  1.00  0.00     0.124 S 
ATOM     80  O   UNL A   1      40.342  37.837  39.308  1.00  0.00    -0.237 OA
ATOM     81  O   UNL A   1      42.030  36.152  39.969  1.00  0.00    -0.237 OA
ATOM     82  O   UNL A   1      41.947  36.975  37.646  1.00  0.00    -0.744 OA
ENDBRANCH  75  79
ENDBRANCH  48  72
BRANCH  60  83
ATOM     83  C   UNL A   1      43.983  28.626  35.318  1.00  0.00     0.023 A 
ATOM     84  C   UNL A   1      43.859  27.545  36.208  1.00  0.00     0.031 A 
ATOM     85  C   UNL A   1      45.261  29.181  35.127  1.00  0.00     0.131 A 
ATOM     86  C   UNL A   1      44.979  27.096  36.921  1.00  0.00     0.055 A 
ATOM     87  C   UNL A   1      46.385  28.683  35.786  1.00  0.00     0.041 A 
ATOM     88  F   UNL A   1      45.440  30.218  34.292  1.00  0.00    -0.206 F 
ATOM     89  C   UNL A   1      46.246  27.645  36.702  1.00  0.00     0.022 A 
BRANCH  86  90
ATOM     90  S   UNL A   1      44.742  25.855  38.223  1.00  0.00     0.124 S 
ATOM     91  O   UNL A   1      46.095  25.342  38.402  1.00  0.00    -0.237 OA
ATOM     92  O   UNL A   1      44.212  26.654  39.323  1.00  0.00    -0.237 OA
ATOM     93  O   UNL A   1      43.795  24.913  37.630  1.00  0.00    -0.744 OA
ENDBRANCH  86  90
ENDBRANCH  60  83
ENDBRANCH  34  35
ENDBRANCH  26  29
ENDBRANCH  24  25
ENDBRANCH  23  24
ENDBRANCH   1  23
TORSDOF 18
ENDMDL
MODEL 2
REMARK VINA RESULT:     -11.1      1.684      2.234
REMARK SMILES Cc1cscc1C(=O)N1CC[C@H](C(=O)NCCCCCCNC(=O)c2ccc(-c3c4nc(c(-c5cc(S(=O)(=O)[O-])ccc5F)c5ccc([nH]5)c(-c5cc(S(=O)(=O)[O-])ccc5F)c5nc(c(-c6cc(S(=O)(=O)[O-])ccc6F)c6ccc3[nH]6)C=C5)C=C4)cc2)[C@H]1C
REMARK SMILES IDX 19 1 18 2 17 3 16 4 15 5 13 6 14 7 12 9 9 10 10 11 88 12
REMARK SMILES IDX 11 13 89 14 7 15 8 16 6 17 1 18 2 19 3 20 4 21 5 22 20 23
REMARK SMILES IDX 21 24 22 25 23 26 24 28 25 29 26 30 87 31 27 32 86 33 28 34
REMARK SMILES IDX 29 35 30 36 80 37 31 38 85 39 79 40 81 41 32 42 84 43 78 44
REMARK SMILES IDX 77 45 33 47 65 48 45 49 64 50 46 51 49 52 63 53 82 54 47 55
REMARK SMILES IDX 48 56 62 58 83 59 50 60 34 61 35 62 43 63 36 64 42 65 44 66
REMARK SMILES IDX 41 67 37 68 38 69 39 70 40 71 66 72 67 73 75 74 68 75 74 76
REMARK SMILES IDX 76 77 73 78 69 79 70 80 71 81 72 82 51 83 52 84 60 85 53 86
REMARK SMILES IDX 59 87 61 88 58 89 54 90 55 91 56 92 57 93
REMARK H PARENT 15 8 22 27 81 46 49 57
REMARK Flexibility Score: inf
ROOT
ATOM      1  C   UNL A   1      31.525  30.576  26.362  1.00  0.00     0.002 C 
ENDROOT
BRANCH   1   2
ATOM      2  C   UNL A   1      32.615  29.850  27.155  1.00  0.00     0.002 C 
BRANCH   2   3
ATOM      3  C   UNL A   1      33.517  28.931  26.326  1.00  0.00     0.021 C 
BRANCH   3   4
ATOM      4  C   UNL A   1      33.255  28.977  24.826  1.00  0.00     0.116 C 
BRANCH   4   5
ATOM      5  N   UNL A   1      33.848  27.842  24.144  1.00  0.00    -0.356 N 
ATOM      6  C   UNL A   1      33.297  26.633  23.844  1.00  0.00     0.225 C 
ATOM      7  O   UNL A   1      34.015  25.780  23.330  1.00  0.00    -0.275 OA
ATOM      8  H   UNL A   1      34.782  27.963  23.857  1.00  0.00     0.163 HD
BRANCH   6   9
ATOM      9  C   UNL A   1      31.839  26.399  24.205  1.00  0.00     0.102 C 
ATOM     10  N   UNL A   1      31.341  24.436  25.503  1.00  0.00    -0.335 N 
ATOM     11  C   UNL A   1      31.485  24.052  24.114  1.00  0.00     0.121 C 
ATOM     12  C   UNL A   1      31.669  25.868  25.647  1.00  0.00     0.094 C 
ATOM     13  C   UNL A   1      31.189  25.314  23.342  1.00  0.00     0.037 C 
ATOM     14  C   UNL A   1      30.580  26.671  26.358  1.00  0.00     0.032 C 
BRANCH  10  15
ATOM     15  C   UNL A   1      31.863  23.531  26.421  1.00  0.00     0.255 C 
ATOM     16  O   UNL A   1      31.336  23.350  27.518  1.00  0.00    -0.269 OA
BRANCH  15  17
ATOM     17  C   UNL A   1      33.105  22.842  26.047  1.00  0.00     0.053 A 
ATOM     18  C   UNL A   1      32.272  20.594  24.950  1.00  0.00     0.046 C 
ATOM     19  C   UNL A   1      33.320  21.545  25.427  1.00  0.00    -0.028 A 
ATOM     20  C   UNL A   1      34.671  21.289  25.266  1.00  0.00     0.069 A 
ATOM     21  S   UNL A   1      35.667  22.584  25.742  1.00  0.00    -0.151 S 
ATOM     22  C   UNL A   1      34.314  23.506  26.204  1.00  0.00     0.079 A 
ENDBRANCH  15  17
ENDBRANCH  10  15
ENDBRANCH   6   9
ENDBRANCH   4   5
ENDBRANCH   3   4
ENDBRANCH   2   3
ENDBRANCH   1   2
BRANCH   1  23
ATOM     23  C   UNL A   1      31.488  32.094  26.551  1.00  0.00     0.021 C 
BRANCH  23  24
ATOM     24  C   UNL A   1      32.801  32.708  27.024  1.00  0.00     0.116 C 
BRANCH  24  25
ATOM     25  N   UNL A   1      32.608  34.018  27.619  1.00  0.00    -0.352 N 
ATOM     26  C   UNL A   1      33.218  34.569  28.718  1.00  0.00     0.251 C 
ATOM     27  H   UNL A   1      31.945  34.592  27.171  1.00  0.00     0.163 HD
ATOM     28  O   UNL A   1      32.786  35.610  29.197  1.00  0.00    -0.269 OA
BRANCH  26  29
ATOM     29  C   UNL A   1      34.378  33.884  29.333  1.00  0.00     0.039 A 
ATOM     30  C   UNL A   1      35.662  34.360  29.061  1.00  0.00     0.014 A 
ATOM     31  C   UNL A   1      34.201  32.778  30.170  1.00  0.00     0.014 A 
ATOM     32  C   UNL A   1      36.765  33.760  29.671  1.00  0.00     0.010 A 
ATOM     33  C   UNL A   1      35.295  32.232  30.838  1.00  0.00     0.010 A 
ATOM     34  C   UNL A   1      36.590  32.712  30.591  1.00  0.00    -0.014 A 
BRANCH  34  35
ATOM     35  C   UNL A   1      37.753  32.107  31.294  1.00  0.00     0.031 A 
ATOM     36  C   UNL A   1      38.536  30.999  30.640  1.00  0.00     0.074 A 
ATOM     37  C   UNL A   1      38.070  32.520  32.538  1.00  0.00     0.049 A 
ATOM     38  N   UNL A   1      39.539  30.306  31.113  1.00  0.00    -0.248 NA
ATOM     39  C   UNL A   1      38.119  30.599  29.286  1.00  0.00     0.031 C 
ATOM     40  C   UNL A   1      37.359  33.559  33.289  1.00  0.00     0.029 A 
ATOM     41  N   UNL A   1      39.063  32.118  33.395  1.00  0.00    -0.354 N 
ATOM     42  C   UNL A   1      39.862  29.380  30.127  1.00  0.00     0.074 A 
ATOM     43  C   UNL A   1      38.915  29.567  29.049  1.00  0.00     0.031 C 
ATOM     44  C   UNL A   1      37.953  33.725  34.482  1.00  0.00     0.029 A 
ATOM     45  C   UNL A   1      39.051  32.772  34.606  1.00  0.00     0.049 A 
ATOM     46  H   UNL A   1      39.723  31.425  33.165  1.00  0.00     0.167 HD
ATOM     47  C   UNL A   1      40.868  28.471  30.115  1.00  0.00     0.034 A 
ATOM     48  C   UNL A   1      39.825  32.612  35.700  1.00  0.00     0.034 A 
ATOM     49  C   UNL A   1      41.819  28.315  31.188  1.00  0.00     0.049 A 
ATOM     50  C   UNL A   1      40.930  31.584  35.662  1.00  0.00     0.074 A 
ATOM     51  C   UNL A   1      42.918  27.475  31.246  1.00  0.00     0.029 A 
ATOM     52  N   UNL A   1      41.782  29.002  32.395  1.00  0.00    -0.354 N 
ATOM     53  N   UNL A   1      41.262  30.763  34.691  1.00  0.00    -0.248 NA
ATOM     54  C   UNL A   1      41.774  31.471  36.858  1.00  0.00     0.031 C 
ATOM     55  C   UNL A   1      43.494  27.593  32.514  1.00  0.00     0.029 A 
ATOM     56  C   UNL A   1      42.814  28.575  33.216  1.00  0.00     0.049 A 
ATOM     57  H   UNL A   1      41.119  29.690  32.632  1.00  0.00     0.167 HD
ATOM     58  C   UNL A   1      42.378  30.066  35.150  1.00  0.00     0.074 A 
ATOM     59  C   UNL A   1      42.671  30.576  36.472  1.00  0.00     0.031 C 
ATOM     60  C   UNL A   1      43.096  29.093  34.534  1.00  0.00     0.034 A 
BRANCH  47  61
ATOM     61  C   UNL A   1      40.980  27.555  28.921  1.00  0.00     0.023 A 
ATOM     62  C   UNL A   1      41.978  27.720  27.945  1.00  0.00     0.031 A 
ATOM     63  C   UNL A   1      40.084  26.481  28.769  1.00  0.00     0.131 A 
ATOM     64  C   UNL A   1      42.025  26.857  26.839  1.00  0.00     0.055 A 
ATOM     65  C   UNL A   1      40.183  25.581  27.707  1.00  0.00     0.041 A 
ATOM     66  F   UNL A   1      39.094  26.288  29.658  1.00  0.00    -0.206 F 
ATOM     67  C   UNL A   1      41.152  25.773  26.728  1.00  0.00     0.022 A 
BRANCH  64  68
ATOM     68  S   UNL A   1      43.172  27.238  25.487  1.00  0.00     0.124 S 
ATOM     69  O   UNL A   1      44.263  27.894  26.203  1.00  0.00    -0.237 OA
ATOM     70  O   UNL A   1      43.468  25.918  24.942  1.00  0.00    -0.237 OA
ATOM     71  O   UNL A   1      42.394  28.115  24.614  1.00  0.00    -0.744 OA
ENDBRANCH  64  68
ENDBRANCH  47  61
BRANCH  48  72
ATOM     72  C   UNL A   1      39.578  33.413  36.936  1.00  0.00     0.023 A 
ATOM     73  C   UNL A   1      38.949  32.848  38.056  1.00  0.00     0.031 A 
ATOM     74  C   UNL A   1      39.896  34.784  36.985  1.00  0.00     0.131 A 
ATOM     75  C   UNL A   1      38.591  33.660  39.145  1.00  0.00     0.055 A 
ATOM     76  C   UNL A   1      39.602  35.571  38.100  1.00  0.00     0.041 A 
ATOM     77  F   UNL A   1      40.499  35.379  35.944  1.00  0.00    -0.206 F 
ATOM     78  C   UNL A   1      38.928  35.015  39.181  1.00  0.00     0.022 A 
BRANCH  75  79
ATOM     79  S   UNL A   1      37.560  32.947  40.457  1.00  0.00     0.124 S 
ATOM     80  O   UNL A   1      38.161  31.629  40.620  1.00  0.00    -0.237 OA
ATOM     81  O   UNL A   1      37.769  33.889  41.551  1.00  0.00    -0.237 OA
ATOM     82  O   UNL A   1      36.219  32.955  39.874  1.00  0.00    -0.744 OA
ENDBRANCH  75  79
ENDBRANCH  48  72
BRANCH  60  83
ATOM     83  C   UNL A   1      44.306  28.561  35.265  1.00  0.00     0.023 A 
ATOM     84  C   UNL A   1      44.210  27.520  36.205  1.00  0.00     0.031 A 
ATOM     85  C   UNL A   1      45.575  29.118  35.025  1.00  0.00     0.131 A 
ATOM     86  C   UNL A   1      45.348  27.114  36.916  1.00  0.00     0.055 A 
ATOM     87  C   UNL A   1      46.717  28.660  35.683  1.00  0.00     0.041 A 
ATOM     88  F   UNL A   1      45.728  30.117  34.140  1.00  0.00    -0.206 F 
ATOM     89  C   UNL A   1      46.605  27.663  36.647  1.00  0.00     0.022 A 
BRANCH  86  90
ATOM     90  S   UNL A   1      45.148  25.931  38.277  1.00  0.00     0.124 S 
ATOM     91  O   UNL A   1      44.398  24.857  37.636  1.00  0.00    -0.237 OA
ATOM     92  O   UNL A   1      46.531  25.621  38.627  1.00  0.00    -0.237 OA
ATOM     93  O   UNL A   1      44.409  26.689  39.285  1.00  0.00    -0.744 OA
ENDBRANCH  86  90
ENDBRANCH  60  83
ENDBRANCH  34  35
ENDBRANCH  26  29
ENDBRANCH  24  25
ENDBRANCH  23  24
ENDBRANCH   1  23
TORSDOF 18
ENDMDL
MODEL 3
REMARK VINA RESULT:     -11.1      6.266     11.338
REMARK SMILES Cc1cscc1C(=O)N1CC[C@H](C(=O)NCCCCCCNC(=O)c2ccc(-c3c4nc(c(-c5cc(S(=O)(=O)[O-])ccc5F)c5ccc([nH]5)c(-c5cc(S(=O)(=O)[O-])ccc5F)c5nc(c(-c6cc(S(=O)(=O)[O-])ccc6F)c6ccc3[nH]6)C=C5)C=C4)cc2)[C@H]1C
REMARK SMILES IDX 19 1 18 2 17 3 16 4 15 5 13 6 14 7 12 9 9 10 10 11 88 12
REMARK SMILES IDX 11 13 89 14 7 15 8 16 6 17 1 18 2 19 3 20 4 21 5 22 20 23
REMARK SMILES IDX 21 24 22 25 23 26 24 28 25 29 26 30 87 31 27 32 86 33 28 34
REMARK SMILES IDX 29 35 30 36 80 37 31 38 85 39 79 40 81 41 32 42 84 43 78 44
REMARK SMILES IDX 77 45 33 47 65 48 45 49 64 50 46 51 49 52 63 53 82 54 47 55
REMARK SMILES IDX 48 56 62 58 83 59 50 60 34 61 35 62 43 63 36 64 42 65 44 66
REMARK SMILES IDX 41 67 37 68 38 69 39 70 40 71 66 72 67 73 75 74 68 75 74 76
REMARK SMILES IDX 76 77 73 78 69 79 70 80 71 81 72 82 51 83 52 84 60 85 53 86
REMARK SMILES IDX 59 87 61 88 58 89 54 90 55 91 56 92 57 93
REMARK H PARENT 15 8 22 27 81 46 49 57
REMARK Flexibility Score: inf
ROOT
ATOM      1  C   UNL A   1      37.143  21.276  24.358  1.00  0.00     0.002 C 
ENDROOT
BRANCH   1   2
ATOM      2  C   UNL A   1      36.340  22.121  25.349  1.00  0.00     0.002 C 
BRANCH   2   3
ATOM      3  C   UNL A   1      35.175  21.394  26.028  1.00  0.00     0.021 C 
BRANCH   3   4
ATOM      4  C   UNL A   1      34.223  20.695  25.066  1.00  0.00     0.116 C 
BRANCH   4   5
ATOM      5  N   UNL A   1      32.840  20.850  25.475  1.00  0.00    -0.356 N 
ATOM      6  C   UNL A   1      31.986  21.888  25.253  1.00  0.00     0.225 C 
ATOM      7  O   UNL A   1      30.872  21.843  25.767  1.00  0.00    -0.275 OA
ATOM      8  H   UNL A   1      32.465  20.097  25.988  1.00  0.00     0.163 HD
BRANCH   6   9
ATOM      9  C   UNL A   1      32.480  23.057  24.417  1.00  0.00     0.102 C 
ATOM     10  N   UNL A   1      31.473  25.200  24.841  1.00  0.00    -0.335 N 
ATOM     11  C   UNL A   1      30.590  24.431  23.988  1.00  0.00     0.121 C 
ATOM     12  C   UNL A   1      32.614  24.355  25.246  1.00  0.00     0.094 C 
ATOM     13  C   UNL A   1      31.498  23.438  23.305  1.00  0.00     0.037 C 
ATOM     14  C   UNL A   1      33.972  24.998  24.965  1.00  0.00     0.032 C 
BRANCH  10  15
ATOM     15  C   UNL A   1      30.833  25.972  25.805  1.00  0.00     0.255 C 
ATOM     16  O   UNL A   1      29.950  25.505  26.523  1.00  0.00    -0.269 OA
BRANCH  15  17
ATOM     17  C   UNL A   1      31.217  27.387  25.889  1.00  0.00     0.053 A 
ATOM     18  C   UNL A   1      30.459  28.383  23.567  1.00  0.00     0.046 C 
ATOM     19  C   UNL A   1      31.092  28.462  24.918  1.00  0.00    -0.028 A 
ATOM     20  C   UNL A   1      31.601  29.648  25.421  1.00  0.00     0.069 A 
ATOM     21  S   UNL A   1      32.126  29.528  27.035  1.00  0.00    -0.151 S 
ATOM     22  C   UNL A   1      31.713  27.879  27.088  1.00  0.00     0.079 A 
ENDBRANCH  15  17
ENDBRANCH  10  15
ENDBRANCH   6   9
ENDBRANCH   4   5
ENDBRANCH   3   4
ENDBRANCH   2   3
ENDBRANCH   1   2
BRANCH   1  23
ATOM     23  C   UNL A   1      37.884  20.086  24.971  1.00  0.00     0.021 C 
BRANCH  23  24
ATOM     24  C   UNL A   1      38.971  20.461  25.971  1.00  0.00     0.116 C 
BRANCH  24  25
ATOM     25  N   UNL A   1      40.024  19.462  26.032  1.00  0.00    -0.352 N 
ATOM     26  C   UNL A   1      41.380  19.639  26.154  1.00  0.00     0.251 C 
ATOM     27  H   UNL A   1      39.722  18.527  25.979  1.00  0.00     0.163 HD
ATOM     28  O   UNL A   1      42.134  18.688  25.987  1.00  0.00    -0.269 OA
BRANCH  26  29
ATOM     29  C   UNL A   1      41.919  20.983  26.460  1.00  0.00     0.039 A 
ATOM     30  C   UNL A   1      42.157  21.868  25.408  1.00  0.00     0.014 A 
ATOM     31  C   UNL A   1      42.192  21.367  27.777  1.00  0.00     0.014 A 
ATOM     32  C   UNL A   1      42.618  23.158  25.679  1.00  0.00     0.010 A 
ATOM     33  C   UNL A   1      42.577  22.677  28.051  1.00  0.00     0.010 A 
ATOM     34  C   UNL A   1      42.800  23.586  27.006  1.00  0.00    -0.014 A 
BRANCH  34  35
ATOM     35  C   UNL A   1      43.231  24.976  27.310  1.00  0.00     0.031 A 
ATOM     36  C   UNL A   1      42.269  25.939  27.956  1.00  0.00     0.074 A 
ATOM     37  C   UNL A   1      44.468  25.383  26.961  1.00  0.00     0.049 A 
ATOM     38  N   UNL A   1      42.437  27.204  28.244  1.00  0.00    -0.248 NA
ATOM     39  C   UNL A   1      40.935  25.420  28.296  1.00  0.00     0.031 C 
ATOM     40  C   UNL A   1      45.474  24.551  26.294  1.00  0.00     0.029 A 
ATOM     41  N   UNL A   1      45.093  26.596  27.108  1.00  0.00    -0.354 N 
ATOM     42  C   UNL A   1      41.229  27.636  28.783  1.00  0.00     0.074 A 
ATOM     43  C   UNL A   1      40.322  26.509  28.735  1.00  0.00     0.031 C 
ATOM     44  C   UNL A   1      46.592  25.271  26.112  1.00  0.00     0.029 A 
ATOM     45  C   UNL A   1      46.371  26.629  26.596  1.00  0.00     0.049 A 
ATOM     46  H   UNL A   1      44.666  27.372  27.538  1.00  0.00     0.167 HD
ATOM     47  C   UNL A   1      40.914  28.853  29.288  1.00  0.00     0.034 A 
ATOM     48  C   UNL A   1      47.258  27.642  26.512  1.00  0.00     0.034 A 
ATOM     49  C   UNL A   1      41.839  29.958  29.352  1.00  0.00     0.049 A 
ATOM     50  C   UNL A   1      46.875  28.990  27.073  1.00  0.00     0.074 A 
ATOM     51  C   UNL A   1      41.643  31.210  29.909  1.00  0.00     0.029 A 
ATOM     52  N   UNL A   1      43.128  29.952  28.834  1.00  0.00    -0.354 N 
ATOM     53  N   UNL A   1      45.749  29.360  27.641  1.00  0.00    -0.248 NA
ATOM     54  C   UNL A   1      47.885  30.053  26.998  1.00  0.00     0.031 C 
ATOM     55  C   UNL A   1      42.779  31.985  29.656  1.00  0.00     0.029 A 
ATOM     56  C   UNL A   1      43.722  31.189  29.025  1.00  0.00     0.049 A 
ATOM     57  H   UNL A   1      43.556  29.181  28.396  1.00  0.00     0.167 HD
ATOM     58  C   UNL A   1      45.934  30.686  28.023  1.00  0.00     0.074 A 
ATOM     59  C   UNL A   1      47.283  31.044  27.639  1.00  0.00     0.031 C 
ATOM     60  C   UNL A   1      45.069  31.533  28.636  1.00  0.00     0.034 A 
BRANCH  47  61
ATOM     61  C   UNL A   1      39.506  29.069  29.788  1.00  0.00     0.023 A 
ATOM     62  C   UNL A   1      38.549  29.777  29.041  1.00  0.00     0.031 A 
ATOM     63  C   UNL A   1      39.109  28.537  31.029  1.00  0.00     0.131 A 
ATOM     64  C   UNL A   1      37.260  29.974  29.561  1.00  0.00     0.055 A 
ATOM     65  C   UNL A   1      37.805  28.671  31.506  1.00  0.00     0.041 A 
ATOM     66  F   UNL A   1      39.987  27.872  31.798  1.00  0.00    -0.206 F 
ATOM     67  C   UNL A   1      36.874  29.402  30.776  1.00  0.00     0.022 A 
BRANCH  64  68
ATOM     68  S   UNL A   1      36.128  31.084  28.681  1.00  0.00     0.124 S 
ATOM     69  O   UNL A   1      37.040  32.127  28.216  1.00  0.00    -0.237 OA
ATOM     70  O   UNL A   1      35.572  30.216  27.651  1.00  0.00    -0.237 OA
ATOM     71  O   UNL A   1      35.188  31.506  29.718  1.00  0.00    -0.744 OA
ENDBRANCH  64  68
ENDBRANCH  47  61
BRANCH  48  72
ATOM     72  C   UNL A   1      48.583  27.445  25.851  1.00  0.00     0.023 A 
ATOM     73  C   UNL A   1      48.740  27.626  24.468  1.00  0.00     0.031 A 
ATOM     74  C   UNL A   1      49.697  26.993  26.584  1.00  0.00     0.131 A 
ATOM     75  C   UNL A   1      49.955  27.288  23.850  1.00  0.00     0.055 A 
ATOM     76  C   UNL A   1      50.924  26.726  25.974  1.00  0.00     0.041 A 
ATOM     77  F   UNL A   1      49.607  26.803  27.910  1.00  0.00    -0.206 F 
ATOM     78  C   UNL A   1      51.053  26.854  24.596  1.00  0.00     0.022 A 
BRANCH  75  79
ATOM     79  S   UNL A   1      50.036  27.296  22.037  1.00  0.00     0.124 S 
ATOM     80  O   UNL A   1      49.861  28.712  21.740  1.00  0.00    -0.237 OA
ATOM     81  O   UNL A   1      51.366  26.748  21.792  1.00  0.00    -0.237 OA
ATOM     82  O   UNL A   1      48.924  26.432  21.645  1.00  0.00    -0.744 OA
ENDBRANCH  75  79
ENDBRANCH  48  72
BRANCH  60  83
ATOM     83  C   UNL A   1      45.582  32.912  28.983  1.00  0.00     0.023 A 
ATOM     84  C   UNL A   1      45.469  33.993  28.092  1.00  0.00     0.031 A 
ATOM     85  C   UNL A   1      46.207  33.140  30.222  1.00  0.00     0.131 A 
ATOM     86  C   UNL A   1      46.029  35.235  28.426  1.00  0.00     0.055 A 
ATOM     87  C   UNL A   1      46.698  34.395  30.579  1.00  0.00     0.041 A 
ATOM     88  F   UNL A   1      46.347  32.143  31.112  1.00  0.00    -0.206 F 
ATOM     89  C   UNL A   1      46.626  35.448  29.672  1.00  0.00     0.022 A 
BRANCH  86  90
ATOM     90  S   UNL A   1      46.065  36.541  27.167  1.00  0.00     0.124 S 
ATOM     91  O   UNL A   1      46.413  35.792  25.965  1.00  0.00    -0.237 OA
ATOM     92  O   UNL A   1      44.704  37.063  27.222  1.00  0.00    -0.237 OA
ATOM     93  O   UNL A   1      47.099  37.454  27.651  1.00  0.00    -0.744 OA
ENDBRANCH  86  90
ENDBRANCH  60  83
ENDBRANCH  34  35
ENDBRANCH  26  29
ENDBRANCH  24  25
ENDBRANCH  23  24
ENDBRANCH   1  23
TORSDOF 18
ENDMDL
