MODEL 1
REMARK VINA RESULT:     -12.5      0.000      0.000
REMARK SMILES Cc1cc(C(=O)N[C@H]2C=C[C@H](C(=O)NCCCCCCNC(=O)c3ccc(-c4c5nc(c(-c6cc(S(=O)(=O)[O-])ccc6F)c6ccc([nH]6)c(-c6cc(S(=O)(=O)[O-])ccc6F)c6nc(c(-c7cc(S(=O)(=O)[O-])ccc7F)c7ccc4[nH]7)C=C6)C=C5)cc3)C2)ccc1F
REMARK SMILES IDX 18 1 17 2 16 3 15 4 14 5 12 6 13 7 11 9 8 10 9 11 87 12
REMARK SMILES IDX 10 13 7 14 5 15 6 16 4 18 1 19 2 20 3 21 90 22 89 23 91 24
REMARK SMILES IDX 88 25 19 26 20 27 21 28 22 29 23 31 24 32 25 33 86 34 26 35
REMARK SMILES IDX 85 36 27 37 28 38 29 39 79 40 30 41 84 42 78 43 80 44 31 45
REMARK SMILES IDX 83 46 77 47 76 48 32 50 64 51 44 52 63 53 45 54 48 55 62 56
REMARK SMILES IDX 81 57 46 58 47 59 61 61 82 62 49 63 33 64 34 65 42 66 35 67
REMARK SMILES IDX 41 68 43 69 40 70 36 71 37 72 38 73 39 74 65 75 66 76 74 77
REMARK SMILES IDX 67 78 73 79 75 80 72 81 68 82 69 83 70 84 71 85 50 86 51 87
REMARK SMILES IDX 59 88 52 89 58 90 60 91 57 92 53 93 54 94 55 95 56 96
REMARK H PARENT 14 8 7 17 21 30 80 49 48 60
REMARK Flexibility Score: inf
ROOT
ATOM      1  C   UNL A   1      33.591  34.667  28.351  1.00  0.00     0.002 C 
ENDROOT
BRANCH   1   2
ATOM      2  C   UNL A   1      35.026  34.224  28.007  1.00  0.00     0.002 C 
BRANCH   2   3
ATOM      3  C   UNL A   1      35.393  32.746  28.196  1.00  0.00     0.021 C 
BRANCH   3   4
ATOM      4  C   UNL A   1      34.258  31.749  28.038  1.00  0.00     0.116 C 
BRANCH   4   5
ATOM      5  N   UNL A   1      34.665  30.632  27.233  1.00  0.00    -0.356 N 
ATOM      6  C   UNL A   1      33.939  29.632  26.698  1.00  0.00     0.227 C 
ATOM      7  O   UNL A   1      34.589  28.724  26.168  1.00  0.00    -0.274 OA
ATOM      8  H   UNL A   1      35.631  30.591  27.042  1.00  0.00     0.163 HD
BRANCH   6   9
ATOM      9  C   UNL A   1      32.396  29.583  26.762  1.00  0.00     0.103 C 
ATOM     10  C   UNL A   1      31.955  27.245  26.461  1.00  0.00     0.106 C 
ATOM     11  C   UNL A   1      31.281  28.012  25.377  1.00  0.00    -0.006 C 
ATOM     12  C   UNL A   1      32.040  28.313  27.552  1.00  0.00     0.047 C 
ATOM     13  C   UNL A   1      31.572  29.314  25.521  1.00  0.00    -0.016 C 
BRANCH  10  14
ATOM     14  N   UNL A   1      31.239  26.071  26.861  1.00  0.00    -0.346 N 
ATOM     15  C   UNL A   1      31.513  24.752  26.568  1.00  0.00     0.251 C 
ATOM     16  O   UNL A   1      30.836  23.882  27.116  1.00  0.00    -0.269 OA
ATOM     17  H   UNL A   1      30.444  26.226  27.421  1.00  0.00     0.164 HD
BRANCH  15  18
ATOM     18  C   UNL A   1      32.645  24.332  25.676  1.00  0.00     0.040 A 
ATOM     19  C   UNL A   1      36.437  23.942  25.635  1.00  0.00     0.047 C 
ATOM     20  C   UNL A   1      35.008  23.935  25.179  1.00  0.00    -0.015 A 
ATOM     21  C   UNL A   1      34.003  24.502  25.977  1.00  0.00     0.020 A 
ATOM     22  C   UNL A   1      34.645  23.334  23.979  1.00  0.00     0.126 A 
ATOM     23  C   UNL A   1      33.309  23.251  23.598  1.00  0.00     0.040 A 
ATOM     24  F   UNL A   1      35.587  22.830  23.170  1.00  0.00    -0.207 F 
ATOM     25  C   UNL A   1      32.312  23.726  24.455  1.00  0.00     0.017 A 
ENDBRANCH  15  18
ENDBRANCH  10  14
ENDBRANCH   6   9
ENDBRANCH   4   5
ENDBRANCH   3   4
ENDBRANCH   2   3
ENDBRANCH   1   2
BRANCH   1  26
ATOM     26  C   UNL A   1      33.425  35.819  29.334  1.00  0.00     0.021 C 
BRANCH  26  27
ATOM     27  C   UNL A   1      33.200  35.337  30.736  1.00  0.00     0.116 C 
BRANCH  27  28
ATOM     28  N   UNL A   1      33.953  36.070  31.710  1.00  0.00    -0.352 N 
ATOM     29  C   UNL A   1      34.668  35.471  32.716  1.00  0.00     0.251 C 
ATOM     30  H   UNL A   1      33.958  37.052  31.654  1.00  0.00     0.163 HD
ATOM     31  O   UNL A   1      34.583  35.943  33.856  1.00  0.00    -0.269 OA
BRANCH  29  32
ATOM     32  C   UNL A   1      35.565  34.333  32.381  1.00  0.00     0.039 A 
ATOM     33  C   UNL A   1      35.556  33.208  33.213  1.00  0.00     0.014 A 
ATOM     34  C   UNL A   1      36.535  34.429  31.381  1.00  0.00     0.014 A 
ATOM     35  C   UNL A   1      36.626  32.321  33.174  1.00  0.00     0.010 A 
ATOM     36  C   UNL A   1      37.535  33.523  31.278  1.00  0.00     0.010 A 
ATOM     37  C   UNL A   1      37.642  32.557  32.256  1.00  0.00    -0.014 A 
BRANCH  37  38
ATOM     38  C   UNL A   1      38.869  31.818  32.121  1.00  0.00     0.031 A 
ATOM     39  C   UNL A   1      38.768  30.554  31.406  1.00  0.00     0.074 A 
ATOM     40  C   UNL A   1      40.011  32.476  32.428  1.00  0.00     0.049 A 
ATOM     41  N   UNL A   1      39.439  29.503  31.692  1.00  0.00    -0.248 NA
ATOM     42  C   UNL A   1      37.801  30.367  30.322  1.00  0.00     0.031 C 
ATOM     43  C   UNL A   1      41.381  32.164  32.073  1.00  0.00     0.029 A 
ATOM     44  N   UNL A   1      40.134  33.607  33.246  1.00  0.00    -0.354 N 
ATOM     45  C   UNL A   1      39.303  28.682  30.595  1.00  0.00     0.074 A 
ATOM     46  C   UNL A   1      38.116  29.137  29.910  1.00  0.00     0.031 C 
ATOM     47  C   UNL A   1      42.202  32.848  32.895  1.00  0.00     0.029 A 
ATOM     48  C   UNL A   1      41.372  33.514  33.892  1.00  0.00     0.049 A 
ATOM     49  H   UNL A   1      39.475  34.331  33.348  1.00  0.00     0.167 HD
ATOM     50  C   UNL A   1      40.371  27.927  30.213  1.00  0.00     0.034 A 
ATOM     51  C   UNL A   1      41.456  33.352  35.250  1.00  0.00     0.034 A 
ATOM     52  C   UNL A   1      41.514  28.198  31.106  1.00  0.00     0.049 A 
ATOM     53  C   UNL A   1      41.920  31.946  35.590  1.00  0.00     0.074 A 
ATOM     54  C   UNL A   1      42.627  29.012  30.960  1.00  0.00     0.029 A 
ATOM     55  N   UNL A   1      41.398  27.963  32.478  1.00  0.00    -0.354 N 
ATOM     56  N   UNL A   1      42.005  30.979  34.718  1.00  0.00    -0.248 NA
ATOM     57  C   UNL A   1      42.303  31.518  36.929  1.00  0.00     0.031 C 
ATOM     58  C   UNL A   1      43.133  29.320  32.254  1.00  0.00     0.029 A 
ATOM     59  C   UNL A   1      42.341  28.689  33.199  1.00  0.00     0.049 A 
ATOM     60  H   UNL A   1      40.733  27.361  32.884  1.00  0.00     0.167 HD
ATOM     61  C   UNL A   1      42.358  29.813  35.338  1.00  0.00     0.074 A 
ATOM     62  C   UNL A   1      42.598  30.224  36.712  1.00  0.00     0.031 C 
ATOM     63  C   UNL A   1      42.389  28.617  34.668  1.00  0.00     0.034 A 
BRANCH  50  64
ATOM     64  C   UNL A   1      40.467  27.278  28.840  1.00  0.00     0.023 A 
ATOM     65  C   UNL A   1      41.364  27.694  27.825  1.00  0.00     0.031 A 
ATOM     66  C   UNL A   1      39.657  26.176  28.502  1.00  0.00     0.131 A 
ATOM     67  C   UNL A   1      41.503  26.982  26.615  1.00  0.00     0.055 A 
ATOM     68  C   UNL A   1      39.755  25.502  27.276  1.00  0.00     0.041 A 
ATOM     69  F   UNL A   1      38.746  25.684  29.353  1.00  0.00    -0.206 F 
ATOM     70  C   UNL A   1      40.694  25.889  26.333  1.00  0.00     0.022 A 
BRANCH  67  71
ATOM     71  S   UNL A   1      42.795  27.410  25.407  1.00  0.00     0.124 S 
ATOM     72  O   UNL A   1      42.974  26.155  24.679  1.00  0.00    -0.237 OA
ATOM     73  O   UNL A   1      42.168  28.486  24.647  1.00  0.00    -0.237 OA
ATOM     74  O   UNL A   1      43.932  27.802  26.236  1.00  0.00    -0.744 OA
ENDBRANCH  67  71
ENDBRANCH  50  64
BRANCH  51  75
ATOM     75  C   UNL A   1      40.389  34.103  35.986  1.00  0.00     0.023 A 
ATOM     76  C   UNL A   1      40.714  35.225  36.760  1.00  0.00     0.031 A 
ATOM     77  C   UNL A   1      39.220  33.378  36.320  1.00  0.00     0.131 A 
ATOM     78  C   UNL A   1      40.012  35.452  37.955  1.00  0.00     0.055 A 
ATOM     79  C   UNL A   1      38.566  33.574  37.535  1.00  0.00     0.041 A 
ATOM     80  F   UNL A   1      38.818  32.352  35.550  1.00  0.00    -0.206 F 
ATOM     81  C   UNL A   1      39.003  34.581  38.388  1.00  0.00     0.022 A 
BRANCH  78  82
ATOM     82  S   UNL A   1      40.526  36.809  39.045  1.00  0.00     0.124 S 
ATOM     83  O   UNL A   1      41.694  37.318  38.335  1.00  0.00    -0.237 OA
ATOM     84  O   UNL A   1      39.362  37.688  39.033  1.00  0.00    -0.237 OA
ATOM     85  O   UNL A   1      40.786  36.132  40.307  1.00  0.00    -0.744 OA
ENDBRANCH  78  82
ENDBRANCH  51  75
BRANCH  63  86
ATOM     86  C   UNL A   1      42.552  27.251  35.306  1.00  0.00     0.023 A 
ATOM     87  C   UNL A   1      43.458  26.339  34.709  1.00  0.00     0.031 A 
ATOM     88  C   UNL A   1      41.803  26.742  36.380  1.00  0.00     0.131 A 
ATOM     89  C   UNL A   1      43.580  25.020  35.154  1.00  0.00     0.055 A 
ATOM     90  C   UNL A   1      42.014  25.459  36.902  1.00  0.00     0.041 A 
ATOM     91  F   UNL A   1      40.791  27.421  36.932  1.00  0.00    -0.206 F 
ATOM     92  C   UNL A   1      42.896  24.587  36.281  1.00  0.00     0.022 A 
BRANCH  89  93
ATOM     93  S   UNL A   1      44.505  23.802  34.181  1.00  0.00     0.124 S 
ATOM     94  O   UNL A   1      45.863  23.991  34.682  1.00  0.00    -0.237 OA
ATOM     95  O   UNL A   1      43.862  22.549  34.572  1.00  0.00    -0.237 OA
ATOM     96  O   UNL A   1      44.275  24.210  32.801  1.00  0.00    -0.744 OA
ENDBRANCH  89  93
ENDBRANCH  63  86
ENDBRANCH  37  38
ENDBRANCH  29  32
ENDBRANCH  27  28
ENDBRANCH  26  27
ENDBRANCH   1  26
TORSDOF 18
ENDMDL
MODEL 2
REMARK VINA RESULT:     -12.0      4.618     10.045
REMARK SMILES Cc1cc(C(=O)N[C@H]2C=C[C@H](C(=O)NCCCCCCNC(=O)c3ccc(-c4c5nc(c(-c6cc(S(=O)(=O)[O-])ccc6F)c6ccc([nH]6)c(-c6cc(S(=O)(=O)[O-])ccc6F)c6nc(c(-c7cc(S(=O)(=O)[O-])ccc7F)c7ccc4[nH]7)C=C6)C=C5)cc3)C2)ccc1F
REMARK SMILES IDX 18 1 17 2 16 3 15 4 14 5 12 6 13 7 11 9 8 10 9 11 87 12
REMARK SMILES IDX 10 13 7 14 5 15 6 16 4 18 1 19 2 20 3 21 90 22 89 23 91 24
REMARK SMILES IDX 88 25 19 26 20 27 21 28 22 29 23 31 24 32 25 33 86 34 26 35
REMARK SMILES IDX 85 36 27 37 28 38 29 39 79 40 30 41 84 42 78 43 80 44 31 45
REMARK SMILES IDX 83 46 77 47 76 48 32 50 64 51 44 52 63 53 45 54 48 55 62 56
REMARK SMILES IDX 81 57 46 58 47 59 61 61 82 62 49 63 33 64 34 65 42 66 35 67
REMARK SMILES IDX 41 68 43 69 40 70 36 71 37 72 38 73 39 74 65 75 66 76 74 77
REMARK SMILES IDX 67 78 73 79 75 80 72 81 68 82 69 83 70 84 71 85 50 86 51 87
REMARK SMILES IDX 59 88 52 89 58 90 60 91 57 92 53 93 54 94 55 95 56 96
REMARK H PARENT 14 8 7 17 21 30 80 49 48 60
REMARK Flexibility Score: inf
ROOT
ATOM      1  C   UNL A   1      36.169  20.905  25.312  1.00  0.00     0.002 C 
ENDROOT
BRANCH   1   2
ATOM      2  C   UNL A   1      34.767  21.364  25.753  1.00  0.00     0.002 C 
BRANCH   2   3
ATOM      3  C   UNL A   1      34.512  21.581  27.250  1.00  0.00     0.021 C 
BRANCH   3   4
ATOM      4  C   UNL A   1      33.453  22.609  27.607  1.00  0.00     0.116 C 
BRANCH   4   5
ATOM      5  N   UNL A   1      32.196  22.284  26.992  1.00  0.00    -0.356 N 
ATOM      6  C   UNL A   1      31.381  23.034  26.225  1.00  0.00     0.227 C 
ATOM      7  O   UNL A   1      30.286  22.527  25.955  1.00  0.00    -0.274 OA
ATOM      8  H   UNL A   1      31.880  21.366  27.157  1.00  0.00     0.163 HD
BRANCH   6   9
ATOM      9  C   UNL A   1      31.753  24.451  25.734  1.00  0.00     0.103 C 
ATOM     10  C   UNL A   1      32.877  23.988  23.667  1.00  0.00     0.106 C 
ATOM     11  C   UNL A   1      33.805  24.717  24.575  1.00  0.00    -0.006 C 
ATOM     12  C   UNL A   1      31.526  24.451  24.213  1.00  0.00     0.047 C 
ATOM     13  C   UNL A   1      33.189  24.929  25.747  1.00  0.00    -0.016 C 
BRANCH  10  14
ATOM     14  N   UNL A   1      33.072  24.295  22.282  1.00  0.00    -0.346 N 
ATOM     15  C   UNL A   1      32.848  25.484  21.622  1.00  0.00     0.251 C 
ATOM     16  O   UNL A   1      33.198  25.571  20.445  1.00  0.00    -0.269 OA
ATOM     17  H   UNL A   1      33.414  23.557  21.726  1.00  0.00     0.164 HD
BRANCH  15  18
ATOM     18  C   UNL A   1      32.270  26.694  22.295  1.00  0.00     0.040 A 
ATOM     19  C   UNL A   1      28.940  28.300  23.224  1.00  0.00     0.047 C 
ATOM     20  C   UNL A   1      30.418  28.088  23.078  1.00  0.00    -0.015 A 
ATOM     21  C   UNL A   1      30.912  27.039  22.289  1.00  0.00     0.020 A 
ATOM     22  C   UNL A   1      31.325  28.901  23.750  1.00  0.00     0.126 A 
ATOM     23  C   UNL A   1      32.692  28.650  23.684  1.00  0.00     0.040 A 
ATOM     24  F   UNL A   1      30.887  29.943  24.470  1.00  0.00    -0.207 F 
ATOM     25  C   UNL A   1      33.160  27.536  22.979  1.00  0.00     0.017 A 
ENDBRANCH  15  18
ENDBRANCH  10  14
ENDBRANCH   6   9
ENDBRANCH   4   5
ENDBRANCH   3   4
ENDBRANCH   2   3
ENDBRANCH   1   2
BRANCH   1  26
ATOM     26  C   UNL A   1      37.020  21.894  24.525  1.00  0.00     0.021 C 
BRANCH  26  27
ATOM     27  C   UNL A   1      37.652  22.926  25.412  1.00  0.00     0.116 C 
BRANCH  27  28
ATOM     28  N   UNL A   1      38.683  22.391  26.250  1.00  0.00    -0.352 N 
ATOM     29  C   UNL A   1      39.821  23.083  26.580  1.00  0.00     0.251 C 
ATOM     30  H   UNL A   1      38.570  21.481  26.607  1.00  0.00     0.163 HD
ATOM     31  O   UNL A   1      40.904  22.489  26.529  1.00  0.00    -0.269 OA
BRANCH  29  32
ATOM     32  C   UNL A   1      39.695  24.488  27.052  1.00  0.00     0.039 A 
ATOM     33  C   UNL A   1      40.365  25.493  26.346  1.00  0.00     0.014 A 
ATOM     34  C   UNL A   1      39.089  24.804  28.271  1.00  0.00     0.014 A 
ATOM     35  C   UNL A   1      40.599  26.720  26.958  1.00  0.00     0.010 A 
ATOM     36  C   UNL A   1      39.238  26.025  28.837  1.00  0.00     0.010 A 
ATOM     37  C   UNL A   1      40.098  26.920  28.238  1.00  0.00    -0.014 A 
BRANCH  37  38
ATOM     38  C   UNL A   1      40.308  28.072  29.073  1.00  0.00     0.031 A 
ATOM     39  C   UNL A   1      39.355  29.158  28.901  1.00  0.00     0.074 A 
ATOM     40  C   UNL A   1      41.185  27.930  30.095  1.00  0.00     0.049 A 
ATOM     41  N   UNL A   1      39.648  30.402  28.982  1.00  0.00    -0.248 NA
ATOM     42  C   UNL A   1      37.962  28.898  28.533  1.00  0.00     0.031 C 
ATOM     43  C   UNL A   1      41.351  28.735  31.288  1.00  0.00     0.029 A 
ATOM     44  N   UNL A   1      42.210  26.980  30.195  1.00  0.00    -0.354 N 
ATOM     45  C   UNL A   1      38.438  31.047  29.100  1.00  0.00     0.074 A 
ATOM     46  C   UNL A   1      37.452  30.130  28.578  1.00  0.00     0.031 C 
ATOM     47  C   UNL A   1      42.563  28.469  31.818  1.00  0.00     0.029 A 
ATOM     48  C   UNL A   1      43.262  27.583  30.895  1.00  0.00     0.049 A 
ATOM     49  H   UNL A   1      42.195  26.062  29.840  1.00  0.00     0.167 HD
ATOM     50  C   UNL A   1      38.361  32.140  29.911  1.00  0.00     0.034 A 
ATOM     51  C   UNL A   1      44.467  27.833  30.294  1.00  0.00     0.034 A 
ATOM     52  C   UNL A   1      39.674  32.383  30.539  1.00  0.00     0.049 A 
ATOM     53  C   UNL A   1      44.646  29.323  30.063  1.00  0.00     0.074 A 
ATOM     54  C   UNL A   1      40.170  32.063  31.794  1.00  0.00     0.029 A 
ATOM     55  N   UNL A   1      40.796  32.622  29.742  1.00  0.00    -0.354 N 
ATOM     56  N   UNL A   1      43.693  30.201  30.213  1.00  0.00    -0.248 NA
ATOM     57  C   UNL A   1      45.897  29.934  29.630  1.00  0.00     0.031 C 
ATOM     58  C   UNL A   1      41.591  32.043  31.725  1.00  0.00     0.029 A 
ATOM     59  C   UNL A   1      41.975  32.360  30.433  1.00  0.00     0.049 A 
ATOM     60  H   UNL A   1      40.757  32.936  28.809  1.00  0.00     0.167 HD
ATOM     61  C   UNL A   1      44.130  31.442  29.841  1.00  0.00     0.074 A 
ATOM     62  C   UNL A   1      45.538  31.227  29.549  1.00  0.00     0.031 C 
ATOM     63  C   UNL A   1      43.284  32.519  29.779  1.00  0.00     0.034 A 
BRANCH  50  64
ATOM     64  C   UNL A   1      37.037  32.704  30.402  1.00  0.00     0.023 A 
ATOM     65  C   UNL A   1      36.153  33.470  29.603  1.00  0.00     0.031 A 
ATOM     66  C   UNL A   1      36.593  32.468  31.719  1.00  0.00     0.131 A 
ATOM     67  C   UNL A   1      34.880  33.866  30.065  1.00  0.00     0.055 A 
ATOM     68  C   UNL A   1      35.351  32.909  32.197  1.00  0.00     0.041 A 
ATOM     69  F   UNL A   1      37.331  31.777  32.598  1.00  0.00    -0.206 F 
ATOM     70  C   UNL A   1      34.478  33.593  31.366  1.00  0.00     0.022 A 
BRANCH  67  71
ATOM     71  S   UNL A   1      33.680  34.675  28.963  1.00  0.00     0.124 S 
ATOM     72  O   UNL A   1      33.319  33.597  28.044  1.00  0.00    -0.237 OA
ATOM     73  O   UNL A   1      32.629  35.081  29.889  1.00  0.00    -0.237 OA
ATOM     74  O   UNL A   1      34.442  35.764  28.356  1.00  0.00    -0.744 OA
ENDBRANCH  67  71
ENDBRANCH  50  64
BRANCH  51  75
ATOM     75  C   UNL A   1      44.858  26.762  29.321  1.00  0.00     0.023 A 
ATOM     76  C   UNL A   1      44.813  27.005  27.941  1.00  0.00     0.031 A 
ATOM     77  C   UNL A   1      44.736  25.425  29.767  1.00  0.00     0.131 A 
ATOM     78  C   UNL A   1      44.426  25.964  27.081  1.00  0.00     0.055 A 
ATOM     79  C   UNL A   1      44.297  24.412  28.916  1.00  0.00     0.041 A 
ATOM     80  F   UNL A   1      44.867  25.134  31.073  1.00  0.00    -0.206 F 
ATOM     81  C   UNL A   1      44.082  24.698  27.573  1.00  0.00     0.022 A 
BRANCH  78  82
ATOM     82  S   UNL A   1      44.211  26.306  25.312  1.00  0.00     0.124 S 
ATOM     83  O   UNL A   1      45.586  26.210  24.834  1.00  0.00    -0.237 OA
ATOM     84  O   UNL A   1      43.329  25.227  24.883  1.00  0.00    -0.237 OA
ATOM     85  O   UNL A   1      43.620  27.637  25.307  1.00  0.00    -0.744 OA
ENDBRANCH  78  82
ENDBRANCH  51  75
BRANCH  63  86
ATOM     86  C   UNL A   1      43.617  33.871  29.177  1.00  0.00     0.023 A 
ATOM     87  C   UNL A   1      44.394  33.900  27.992  1.00  0.00     0.031 A 
ATOM     88  C   UNL A   1      43.326  35.124  29.740  1.00  0.00     0.131 A 
ATOM     89  C   UNL A   1      44.851  35.099  27.438  1.00  0.00     0.055 A 
ATOM     90  C   UNL A   1      43.680  36.328  29.117  1.00  0.00     0.041 A 
ATOM     91  F   UNL A   1      42.753  35.253  30.942  1.00  0.00    -0.206 F 
ATOM     92  C   UNL A   1      44.458  36.319  27.968  1.00  0.00     0.022 A 
BRANCH  89  93
ATOM     93  S   UNL A   1      46.093  35.088  26.117  1.00  0.00     0.124 S 
ATOM     94  O   UNL A   1      47.180  34.338  26.738  1.00  0.00    -0.237 OA
ATOM     95  O   UNL A   1      45.387  34.395  25.041  1.00  0.00    -0.237 OA
ATOM     96  O   UNL A   1      46.355  36.501  25.873  1.00  0.00    -0.744 OA
ENDBRANCH  89  93
ENDBRANCH  63  86
ENDBRANCH  37  38
ENDBRANCH  29  32
ENDBRANCH  27  28
ENDBRANCH  26  27
ENDBRANCH   1  26
TORSDOF 18
ENDMDL
MODEL 3
REMARK VINA RESULT:     -12.0      4.030      5.515
REMARK SMILES Cc1cc(C(=O)N[C@H]2C=C[C@H](C(=O)NCCCCCCNC(=O)c3ccc(-c4c5nc(c(-c6cc(S(=O)(=O)[O-])ccc6F)c6ccc([nH]6)c(-c6cc(S(=O)(=O)[O-])ccc6F)c6nc(c(-c7cc(S(=O)(=O)[O-])ccc7F)c7ccc4[nH]7)C=C6)C=C5)cc3)C2)ccc1F
REMARK SMILES IDX 18 1 17 2 16 3 15 4 14 5 12 6 13 7 11 9 8 10 9 11 87 12
REMARK SMILES IDX 10 13 7 14 5 15 6 16 4 18 1 19 2 20 3 21 90 22 89 23 91 24
REMARK SMILES IDX 88 25 19 26 20 27 21 28 22 29 23 31 24 32 25 33 86 34 26 35
REMARK SMILES IDX 85 36 27 37 28 38 29 39 79 40 30 41 84 42 78 43 80 44 31 45
REMARK SMILES IDX 83 46 77 47 76 48 32 50 64 51 44 52 63 53 45 54 48 55 62 56
REMARK SMILES IDX 81 57 46 58 47 59 61 61 82 62 49 63 33 64 34 65 42 66 35 67
REMARK SMILES IDX 41 68 43 69 40 70 36 71 37 72 38 73 39 74 65 75 66 76 74 77
REMARK SMILES IDX 67 78 73 79 75 80 72 81 68 82 69 83 70 84 71 85 50 86 51 87
REMARK SMILES IDX 59 88 52 89 58 90 60 91 57 92 53 93 54 94 55 95 56 96
REMARK H PARENT 14 8 7 17 21 30 80 49 48 60
REMARK Flexibility Score: inf
ROOT
ATOM      1  C   UNL A   1      31.703  30.113  25.760  1.00  0.00     0.002 C 
ENDROOT
BRANCH   1   2
ATOM      2  C   UNL A   1      31.112  28.999  24.877  1.00  0.00     0.002 C 
BRANCH   2   3
ATOM      3  C   UNL A   1      31.452  29.001  23.381  1.00  0.00     0.021 C 
BRANCH   3   4
ATOM      4  C   UNL A   1      32.908  28.755  23.026  1.00  0.00     0.116 C 
BRANCH   4   5
ATOM      5  N   UNL A   1      33.018  27.852  21.914  1.00  0.00    -0.356 N 
ATOM      6  C   UNL A   1      33.200  26.518  21.890  1.00  0.00     0.227 C 
ATOM      7  O   UNL A   1      33.403  26.027  20.774  1.00  0.00    -0.274 OA
ATOM      8  H   UNL A   1      32.950  28.277  21.028  1.00  0.00     0.163 HD
BRANCH   6   9
ATOM      9  C   UNL A   1      33.194  25.642  23.164  1.00  0.00     0.103 C 
ATOM     10  C   UNL A   1      32.085  23.657  22.404  1.00  0.00     0.106 C 
ATOM     11  C   UNL A   1      31.316  24.243  23.536  1.00  0.00    -0.006 C 
ATOM     12  C   UNL A   1      33.482  24.206  22.698  1.00  0.00     0.047 C 
ATOM     13  C   UNL A   1      31.913  25.380  23.924  1.00  0.00    -0.016 C 
BRANCH  10  14
ATOM     14  N   UNL A   1      32.029  22.226  22.354  1.00  0.00    -0.346 N 
ATOM     15  C   UNL A   1      32.451  21.313  23.296  1.00  0.00     0.251 C 
ATOM     16  O   UNL A   1      32.198  20.124  23.106  1.00  0.00    -0.269 OA
ATOM     17  H   UNL A   1      31.635  21.844  21.536  1.00  0.00     0.164 HD
BRANCH  15  18
ATOM     18  C   UNL A   1      33.131  21.713  24.573  1.00  0.00     0.040 A 
ATOM     19  C   UNL A   1      36.467  22.973  25.920  1.00  0.00     0.047 C 
ATOM     20  C   UNL A   1      35.044  22.502  25.879  1.00  0.00    -0.015 A 
ATOM     21  C   UNL A   1      34.502  21.970  24.699  1.00  0.00     0.020 A 
ATOM     22  C   UNL A   1      34.221  22.619  26.995  1.00  0.00     0.126 A 
ATOM     23  C   UNL A   1      32.878  22.264  26.931  1.00  0.00     0.040 A 
ATOM     24  F   UNL A   1      34.721  23.075  28.152  1.00  0.00    -0.207 F 
ATOM     25  C   UNL A   1      32.329  21.835  25.718  1.00  0.00     0.017 A 
ENDBRANCH  15  18
ENDBRANCH  10  14
ENDBRANCH   6   9
ENDBRANCH   4   5
ENDBRANCH   3   4
ENDBRANCH   2   3
ENDBRANCH   1   2
BRANCH   1  26
ATOM     26  C   UNL A   1      32.491  29.692  26.994  1.00  0.00     0.021 C 
BRANCH  26  27
ATOM     27  C   UNL A   1      33.972  29.820  26.790  1.00  0.00     0.116 C 
BRANCH  27  28
ATOM     28  N   UNL A   1      34.520  31.006  27.375  1.00  0.00    -0.352 N 
ATOM     29  C   UNL A   1      35.351  30.992  28.467  1.00  0.00     0.251 C 
ATOM     30  H   UNL A   1      34.288  31.875  26.975  1.00  0.00     0.163 HD
ATOM     31  O   UNL A   1      35.149  31.814  29.369  1.00  0.00    -0.269 OA
BRANCH  29  32
ATOM     32  C   UNL A   1      36.498  30.045  28.484  1.00  0.00     0.039 A 
ATOM     33  C   UNL A   1      36.759  29.335  29.661  1.00  0.00     0.014 A 
ATOM     34  C   UNL A   1      37.419  29.983  27.436  1.00  0.00     0.014 A 
ATOM     35  C   UNL A   1      38.013  28.761  29.850  1.00  0.00     0.010 A 
ATOM     36  C   UNL A   1      38.608  29.353  27.578  1.00  0.00     0.010 A 
ATOM     37  C   UNL A   1      38.943  28.867  28.823  1.00  0.00    -0.014 A 
BRANCH  37  38
ATOM     38  C   UNL A   1      40.313  28.427  28.855  1.00  0.00     0.031 A 
ATOM     39  C   UNL A   1      40.528  27.014  28.585  1.00  0.00     0.074 A 
ATOM     40  C   UNL A   1      41.260  29.393  28.869  1.00  0.00     0.049 A 
ATOM     41  N   UNL A   1      41.424  26.294  29.148  1.00  0.00    -0.248 NA
ATOM     42  C   UNL A   1      39.653  26.270  27.676  1.00  0.00     0.031 C 
ATOM     43  C   UNL A   1      42.671  29.309  28.550  1.00  0.00     0.029 A 
ATOM     44  N   UNL A   1      41.096  30.724  29.278  1.00  0.00    -0.354 N 
ATOM     45  C   UNL A   1      41.507  25.157  28.378  1.00  0.00     0.074 A 
ATOM     46  C   UNL A   1      40.258  25.080  27.657  1.00  0.00     0.031 C 
ATOM     47  C   UNL A   1      43.291  30.391  29.062  1.00  0.00     0.029 A 
ATOM     48  C   UNL A   1      42.309  31.132  29.845  1.00  0.00     0.049 A 
ATOM     49  H   UNL A   1      40.282  31.269  29.186  1.00  0.00     0.167 HD
ATOM     50  C   UNL A   1      42.731  24.586  28.191  1.00  0.00     0.034 A 
ATOM     51  C   UNL A   1      42.405  31.439  31.176  1.00  0.00     0.034 A 
ATOM     52  C   UNL A   1      43.760  25.387  28.882  1.00  0.00     0.049 A 
ATOM     53  C   UNL A   1      43.184  30.365  31.915  1.00  0.00     0.074 A 
ATOM     54  C   UNL A   1      44.650  26.343  28.419  1.00  0.00     0.029 A 
ATOM     55  N   UNL A   1      43.679  25.585  30.262  1.00  0.00    -0.354 N 
ATOM     56  N   UNL A   1      43.512  29.215  31.392  1.00  0.00    -0.248 NA
ATOM     57  C   UNL A   1      43.633  30.490  33.296  1.00  0.00     0.031 C 
ATOM     58  C   UNL A   1      45.045  27.160  29.516  1.00  0.00     0.029 A 
ATOM     59  C   UNL A   1      44.409  26.702  30.658  1.00  0.00     0.049 A 
ATOM     60  H   UNL A   1      43.169  25.010  30.877  1.00  0.00     0.167 HD
ATOM     61  C   UNL A   1      44.120  28.425  32.327  1.00  0.00     0.074 A 
ATOM     62  C   UNL A   1      44.231  29.300  33.482  1.00  0.00     0.031 C 
ATOM     63  C   UNL A   1      44.446  27.119  32.069  1.00  0.00     0.034 A 
BRANCH  50  64
ATOM     64  C   UNL A   1      43.002  23.571  27.091  1.00  0.00     0.023 A 
ATOM     65  C   UNL A   1      42.797  22.176  27.228  1.00  0.00     0.031 A 
ATOM     66  C   UNL A   1      43.467  23.982  25.826  1.00  0.00     0.131 A 
ATOM     67  C   UNL A   1      42.945  21.290  26.141  1.00  0.00     0.055 A 
ATOM     68  C   UNL A   1      43.668  23.093  24.760  1.00  0.00     0.041 A 
ATOM     69  F   UNL A   1      43.727  25.268  25.553  1.00  0.00    -0.206 F 
ATOM     70  C   UNL A   1      43.388  21.743  24.906  1.00  0.00     0.022 A 
BRANCH  67  71
ATOM     71  S   UNL A   1      42.487  19.534  26.281  1.00  0.00     0.124 S 
ATOM     72  O   UNL A   1      42.228  19.389  27.712  1.00  0.00    -0.237 OA
ATOM     73  O   UNL A   1      41.309  19.448  25.424  1.00  0.00    -0.237 OA
ATOM     74  O   UNL A   1      43.671  18.825  25.800  1.00  0.00    -0.744 OA
ENDBRANCH  67  71
ENDBRANCH  50  64
BRANCH  51  75
ATOM     75  C   UNL A   1      41.177  32.119  31.700  1.00  0.00     0.023 A 
ATOM     76  C   UNL A   1      40.289  31.434  32.541  1.00  0.00     0.031 A 
ATOM     77  C   UNL A   1      40.673  33.197  30.934  1.00  0.00     0.131 A 
ATOM     78  C   UNL A   1      38.912  31.685  32.422  1.00  0.00     0.055 A 
ATOM     79  C   UNL A   1      39.303  33.400  30.779  1.00  0.00     0.041 A 
ATOM     80  F   UNL A   1      41.506  33.941  30.185  1.00  0.00    -0.206 F 
ATOM     81  C   UNL A   1      38.412  32.598  31.483  1.00  0.00     0.022 A 
BRANCH  78  82
ATOM     82  S   UNL A   1      37.741  30.694  33.391  1.00  0.00     0.124 S 
ATOM     83  O   UNL A   1      37.685  31.452  34.636  1.00  0.00    -0.237 OA
ATOM     84  O   UNL A   1      36.530  30.746  32.579  1.00  0.00    -0.237 OA
ATOM     85  O   UNL A   1      38.393  29.394  33.459  1.00  0.00    -0.744 OA
ENDBRANCH  78  82
ENDBRANCH  51  75
BRANCH  63  86
ATOM     86  C   UNL A   1      44.918  26.107  33.096  1.00  0.00     0.023 A 
ATOM     87  C   UNL A   1      44.179  25.982  34.298  1.00  0.00     0.031 A 
ATOM     88  C   UNL A   1      46.097  25.346  33.030  1.00  0.00     0.131 A 
ATOM     89  C   UNL A   1      44.609  25.167  35.349  1.00  0.00     0.055 A 
ATOM     90  C   UNL A   1      46.462  24.438  34.032  1.00  0.00     0.041 A 
ATOM     91  F   UNL A   1      46.985  25.487  32.039  1.00  0.00    -0.206 F 
ATOM     92  C   UNL A   1      45.725  24.355  35.204  1.00  0.00     0.022 A 
BRANCH  89  93
ATOM     93  S   UNL A   1      43.819  25.270  36.978  1.00  0.00     0.124 S 
ATOM     94  O   UNL A   1      43.918  26.697  37.265  1.00  0.00    -0.237 OA
ATOM     95  O   UNL A   1      42.472  24.779  36.694  1.00  0.00    -0.237 OA
ATOM     96  O   UNL A   1      44.631  24.396  37.815  1.00  0.00    -0.744 OA
ENDBRANCH  89  93
ENDBRANCH  63  86
ENDBRANCH  37  38
ENDBRANCH  29  32
ENDBRANCH  27  28
ENDBRANCH  26  27
ENDBRANCH   1  26
TORSDOF 18
ENDMDL
