MODEL 1
REMARK VINA RESULT:     -12.4      0.000      0.000
REMARK SMILES C/C(=N\NC(N)=O)c1nnn(-c2ccc(C(=O)NCCCCCCNC(=O)c3ccc(-c4c5nc(c(-c6cc(S(=O)(=O)[O-])ccc6F)c6ccc([nH]6)c(-c6cc(S(=O)(=O)[O-])ccc6F)c6nc(c(-c7cc(S(=O)(=O)[O-])ccc7F)c7ccc4[nH]7)C=C6)C=C5)cc3)cc2)c1C
REMARK SMILES IDX 21 1 20 2 19 3 18 4 16 5 17 6 15 8 12 9 13 10 92 11 14 12
REMARK SMILES IDX 91 13 11 14 8 15 9 16 93 17 10 18 94 19 2 20 1 21 3 22 4 23
REMARK SMILES IDX 5 24 6 26 7 27 22 30 23 31 24 32 25 33 26 34 27 36 28 37
REMARK SMILES IDX 29 38 90 39 30 40 89 41 31 42 32 43 33 44 83 45 34 46 88 47
REMARK SMILES IDX 82 48 84 49 35 50 87 51 81 52 80 53 36 55 68 56 48 57 67 58
REMARK SMILES IDX 49 59 52 60 66 61 85 62 50 63 51 64 65 66 86 67 53 68 37 69
REMARK SMILES IDX 38 70 46 71 39 72 45 73 47 74 44 75 40 76 41 77 42 78 43 79
REMARK SMILES IDX 69 80 70 81 78 82 71 83 77 84 79 85 76 86 72 87 73 88 74 89
REMARK SMILES IDX 75 90 54 91 55 92 63 93 56 94 62 95 64 96 61 97 57 98 58 99
REMARK SMILES IDX 59 100 60 101
REMARK H PARENT 18 7 4 25 6 28 6 29 25 35 84 54 52 65
REMARK Flexibility Score: inf
ROOT
ATOM      1  C   UNL A   1      37.189  22.054  24.418  1.00  0.00     0.002 C 
ENDROOT
BRANCH   1   2
ATOM      2  C   UNL A   1      35.707  21.663  24.498  1.00  0.00     0.021 C 
BRANCH   2   3
ATOM      3  C   UNL A   1      35.147  21.695  25.921  1.00  0.00     0.116 C 
BRANCH   3   4
ATOM      4  N   UNL A   1      33.750  21.295  25.929  1.00  0.00    -0.352 N 
ATOM      5  C   UNL A   1      32.579  21.975  25.705  1.00  0.00     0.251 C 
ATOM      6  O   UNL A   1      31.530  21.331  25.738  1.00  0.00    -0.269 OA
ATOM      7  H   UNL A   1      33.617  20.341  26.136  1.00  0.00     0.163 HD
BRANCH   5   8
ATOM      8  C   UNL A   1      32.535  23.416  25.324  1.00  0.00     0.039 A 
ATOM      9  C   UNL A   1      32.003  26.050  24.586  1.00  0.00     0.067 A 
ATOM     10  C   UNL A   1      31.696  25.641  25.883  1.00  0.00     0.029 A 
ATOM     11  C   UNL A   1      32.696  25.211  23.712  1.00  0.00     0.029 A 
ATOM     12  C   UNL A   1      31.936  24.308  26.234  1.00  0.00     0.016 A 
ATOM     13  C   UNL A   1      33.016  23.916  24.113  1.00  0.00     0.016 A 
BRANCH   9  14
ATOM     14  N   UNL A   1      31.510  27.270  24.097  1.00  0.00    -0.217 N 
ATOM     15  C   UNL A   1      30.310  28.820  23.159  1.00  0.00     0.132 A 
ATOM     16  N   UNL A   1      31.468  29.382  23.638  1.00  0.00    -0.128 NA
ATOM     17  C   UNL A   1      30.282  27.480  23.494  1.00  0.00     0.071 A 
ATOM     18  N   UNL A   1      32.139  28.445  24.298  1.00  0.00    -0.061 NA
ATOM     19  C   UNL A   1      29.213  26.457  23.402  1.00  0.00     0.069 C 
BRANCH  15  20
ATOM     20  C   UNL A   1      29.238  29.608  22.574  1.00  0.00     0.087 C 
ATOM     21  C   UNL A   1      27.857  29.348  23.113  1.00  0.00     0.071 C 
ATOM     22  N   UNL A   1      29.604  30.475  21.676  1.00  0.00    -0.174 NA
BRANCH  22  23
ATOM     23  N   UNL A   1      28.725  31.272  20.997  1.00  0.00    -0.229 N 
ATOM     24  C   UNL A   1      28.288  32.530  21.342  1.00  0.00     0.332 C 
ATOM     25  H   UNL A   1      28.361  30.900  20.161  1.00  0.00     0.195 HD
ATOM     26  N   UNL A   1      27.411  33.045  20.435  1.00  0.00    -0.350 N 
ATOM     27  O   UNL A   1      28.609  33.197  22.320  1.00  0.00    -0.247 OA
ATOM     28  H   UNL A   1      27.149  32.515  19.648  1.00  0.00     0.161 HD
ATOM     29  H   UNL A   1      27.040  33.948  20.566  1.00  0.00     0.161 HD
ENDBRANCH  22  23
ENDBRANCH  15  20
ENDBRANCH   9  14
ENDBRANCH   5   8
ENDBRANCH   3   4
ENDBRANCH   2   3
ENDBRANCH   1   2
BRANCH   1  30
ATOM     30  C   UNL A   1      37.872  22.358  25.765  1.00  0.00     0.002 C 
BRANCH  30  31
ATOM     31  C   UNL A   1      38.900  21.327  26.260  1.00  0.00     0.021 C 
BRANCH  31  32
ATOM     32  C   UNL A   1      39.122  20.185  25.284  1.00  0.00     0.116 C 
BRANCH  32  33
ATOM     33  N   UNL A   1      40.102  19.201  25.772  1.00  0.00    -0.352 N 
ATOM     34  C   UNL A   1      41.429  19.401  26.147  1.00  0.00     0.251 C 
ATOM     35  H   UNL A   1      39.775  18.275  25.845  1.00  0.00     0.163 HD
ATOM     36  O   UNL A   1      42.225  18.479  26.154  1.00  0.00    -0.269 OA
BRANCH  34  37
ATOM     37  C   UNL A   1      41.829  20.764  26.548  1.00  0.00     0.039 A 
ATOM     38  C   UNL A   1      42.153  21.794  25.662  1.00  0.00     0.014 A 
ATOM     39  C   UNL A   1      41.796  21.001  27.909  1.00  0.00     0.014 A 
ATOM     40  C   UNL A   1      42.416  23.058  26.198  1.00  0.00     0.010 A 
ATOM     41  C   UNL A   1      41.625  22.273  28.340  1.00  0.00     0.010 A 
ATOM     42  C   UNL A   1      42.160  23.272  27.558  1.00  0.00    -0.014 A 
BRANCH  42  43
ATOM     43  C   UNL A   1      42.362  24.524  28.266  1.00  0.00     0.031 A 
ATOM     44  C   UNL A   1      41.269  25.496  28.063  1.00  0.00     0.074 A 
ATOM     45  C   UNL A   1      43.283  24.648  29.254  1.00  0.00     0.049 A 
ATOM     46  N   UNL A   1      41.303  26.564  27.343  1.00  0.00    -0.248 NA
ATOM     47  C   UNL A   1      39.923  25.146  28.545  1.00  0.00     0.031 C 
ATOM     48  C   UNL A   1      44.216  23.643  29.791  1.00  0.00     0.029 A 
ATOM     49  N   UNL A   1      43.502  25.700  30.081  1.00  0.00    -0.354 N 
ATOM     50  C   UNL A   1      40.066  27.167  27.518  1.00  0.00     0.074 A 
ATOM     51  C   UNL A   1      39.199  26.139  28.028  1.00  0.00     0.031 C 
ATOM     52  C   UNL A   1      44.716  24.062  30.977  1.00  0.00     0.029 A 
ATOM     53  C   UNL A   1      44.279  25.427  31.207  1.00  0.00     0.049 A 
ATOM     54  H   UNL A   1      43.137  26.596  29.900  1.00  0.00     0.167 HD
ATOM     55  C   UNL A   1      39.945  28.522  27.504  1.00  0.00     0.034 A 
ATOM     56  C   UNL A   1      44.531  26.266  32.252  1.00  0.00     0.034 A 
ATOM     57  C   UNL A   1      41.151  29.142  26.992  1.00  0.00     0.049 A 
ATOM     58  C   UNL A   1      44.289  27.641  31.736  1.00  0.00     0.074 A 
ATOM     59  C   UNL A   1      41.865  29.034  25.813  1.00  0.00     0.029 A 
ATOM     60  N   UNL A   1      42.039  29.672  27.906  1.00  0.00    -0.354 N 
ATOM     61  N   UNL A   1      45.005  28.171  30.778  1.00  0.00    -0.248 NA
ATOM     62  C   UNL A   1      42.948  28.192  31.876  1.00  0.00     0.031 C 
ATOM     63  C   UNL A   1      43.233  28.986  26.220  1.00  0.00     0.029 A 
ATOM     64  C   UNL A   1      43.287  29.175  27.604  1.00  0.00     0.049 A 
ATOM     65  H   UNL A   1      41.821  30.293  28.638  1.00  0.00     0.167 HD
ATOM     66  C   UNL A   1      44.088  28.781  29.932  1.00  0.00     0.074 A 
ATOM     67  C   UNL A   1      42.845  28.834  30.706  1.00  0.00     0.031 C 
ATOM     68  C   UNL A   1      44.321  28.904  28.590  1.00  0.00     0.034 A 
BRANCH  55  69
ATOM     69  C   UNL A   1      38.919  29.306  28.288  1.00  0.00     0.023 A 
ATOM     70  C   UNL A   1      39.067  29.332  29.687  1.00  0.00     0.031 A 
ATOM     71  C   UNL A   1      37.685  29.783  27.791  1.00  0.00     0.131 A 
ATOM     72  C   UNL A   1      38.001  29.714  30.518  1.00  0.00     0.055 A 
ATOM     73  C   UNL A   1      36.652  30.230  28.619  1.00  0.00     0.041 A 
ATOM     74  F   UNL A   1      37.362  29.755  26.493  1.00  0.00    -0.206 F 
ATOM     75  C   UNL A   1      36.794  30.166  29.993  1.00  0.00     0.022 A 
BRANCH  72  76
ATOM     76  S   UNL A   1      38.160  29.433  32.299  1.00  0.00     0.124 S 
ATOM     77  O   UNL A   1      37.493  30.610  32.844  1.00  0.00    -0.237 OA
ATOM     78  O   UNL A   1      37.462  28.163  32.465  1.00  0.00    -0.237 OA
ATOM     79  O   UNL A   1      39.605  29.383  32.505  1.00  0.00    -0.744 OA
ENDBRANCH  72  76
ENDBRANCH  55  69
BRANCH  56  80
ATOM     80  C   UNL A   1      44.546  25.905  33.705  1.00  0.00     0.023 A 
ATOM     81  C   UNL A   1      43.478  26.166  34.595  1.00  0.00     0.031 A 
ATOM     82  C   UNL A   1      45.569  25.055  34.191  1.00  0.00     0.131 A 
ATOM     83  C   UNL A   1      43.469  25.593  35.897  1.00  0.00     0.055 A 
ATOM     84  C   UNL A   1      45.552  24.492  35.470  1.00  0.00     0.041 A 
ATOM     85  F   UNL A   1      46.585  24.675  33.401  1.00  0.00    -0.206 F 
ATOM     86  C   UNL A   1      44.497  24.752  36.326  1.00  0.00     0.022 A 
BRANCH  83  87
ATOM     87  S   UNL A   1      42.073  25.878  37.043  1.00  0.00     0.124 S 
ATOM     88  O   UNL A   1      41.325  24.632  36.936  1.00  0.00    -0.237 OA
ATOM     89  O   UNL A   1      42.753  26.121  38.310  1.00  0.00    -0.237 OA
ATOM     90  O   UNL A   1      41.399  27.047  36.478  1.00  0.00    -0.744 OA
ENDBRANCH  83  87
ENDBRANCH  56  80
BRANCH  68  91
ATOM     91  C   UNL A   1      45.702  28.548  28.058  1.00  0.00     0.023 A 
ATOM     92  C   UNL A   1      46.090  27.271  27.581  1.00  0.00     0.031 A 
ATOM     93  C   UNL A   1      46.623  29.598  27.906  1.00  0.00     0.131 A 
ATOM     94  C   UNL A   1      47.360  27.087  26.993  1.00  0.00     0.055 A 
ATOM     95  C   UNL A   1      47.869  29.417  27.306  1.00  0.00     0.041 A 
ATOM     96  F   UNL A   1      46.309  30.840  28.310  1.00  0.00    -0.206 F 
ATOM     97  C   UNL A   1      48.245  28.159  26.850  1.00  0.00     0.022 A 
BRANCH  94  98
ATOM     98  S   UNL A   1      47.897  25.441  26.413  1.00  0.00     0.124 S 
ATOM     99  O   UNL A   1      47.697  24.588  27.578  1.00  0.00    -0.237 OA
ATOM    100  O   UNL A   1      47.009  25.195  25.281  1.00  0.00    -0.237 OA
ATOM    101  O   UNL A   1      49.300  25.650  26.047  1.00  0.00    -0.744 OA
ENDBRANCH  94  98
ENDBRANCH  68  91
ENDBRANCH  42  43
ENDBRANCH  34  37
ENDBRANCH  32  33
ENDBRANCH  31  32
ENDBRANCH  30  31
ENDBRANCH   1  30
TORSDOF 19
ENDMDL
MODEL 2
REMARK VINA RESULT:     -12.2      2.055      2.470
REMARK SMILES C/C(=N\NC(N)=O)c1nnn(-c2ccc(C(=O)NCCCCCCNC(=O)c3ccc(-c4c5nc(c(-c6cc(S(=O)(=O)[O-])ccc6F)c6ccc([nH]6)c(-c6cc(S(=O)(=O)[O-])ccc6F)c6nc(c(-c7cc(S(=O)(=O)[O-])ccc7F)c7ccc4[nH]7)C=C6)C=C5)cc3)cc2)c1C
REMARK SMILES IDX 21 1 20 2 19 3 18 4 16 5 17 6 15 8 12 9 13 10 92 11 14 12
REMARK SMILES IDX 91 13 11 14 8 15 9 16 93 17 10 18 94 19 2 20 1 21 3 22 4 23
REMARK SMILES IDX 5 24 6 26 7 27 22 30 23 31 24 32 25 33 26 34 27 36 28 37
REMARK SMILES IDX 29 38 90 39 30 40 89 41 31 42 32 43 33 44 83 45 34 46 88 47
REMARK SMILES IDX 82 48 84 49 35 50 87 51 81 52 80 53 36 55 68 56 48 57 67 58
REMARK SMILES IDX 49 59 52 60 66 61 85 62 50 63 51 64 65 66 86 67 53 68 37 69
REMARK SMILES IDX 38 70 46 71 39 72 45 73 47 74 44 75 40 76 41 77 42 78 43 79
REMARK SMILES IDX 69 80 70 81 78 82 71 83 77 84 79 85 76 86 72 87 73 88 74 89
REMARK SMILES IDX 75 90 54 91 55 92 63 93 56 94 62 95 64 96 61 97 57 98 58 99
REMARK SMILES IDX 59 100 60 101
REMARK H PARENT 18 7 4 25 6 28 6 29 25 35 84 54 52 65
REMARK Flexibility Score: inf
ROOT
ATOM      1  C   UNL A   1      37.401  22.060  24.809  1.00  0.00     0.002 C 
ENDROOT
BRANCH   1   2
ATOM      2  C   UNL A   1      36.290  21.025  24.585  1.00  0.00     0.021 C 
BRANCH   2   3
ATOM      3  C   UNL A   1      35.428  20.781  25.825  1.00  0.00     0.116 C 
BRANCH   3   4
ATOM      4  N   UNL A   1      34.237  20.025  25.479  1.00  0.00    -0.352 N 
ATOM      5  C   UNL A   1      32.958  20.392  25.144  1.00  0.00     0.251 C 
ATOM      6  O   UNL A   1      32.165  19.497  24.850  1.00  0.00    -0.269 OA
ATOM      7  H   UNL A   1      34.377  19.050  25.484  1.00  0.00     0.163 HD
BRANCH   5   8
ATOM      8  C   UNL A   1      32.526  21.814  25.021  1.00  0.00     0.039 A 
ATOM      9  C   UNL A   1      32.163  24.569  24.800  1.00  0.00     0.067 A 
ATOM     10  C   UNL A   1      32.634  23.863  23.694  1.00  0.00     0.029 A 
ATOM     11  C   UNL A   1      31.740  23.902  25.952  1.00  0.00     0.029 A 
ATOM     12  C   UNL A   1      32.845  22.486  23.824  1.00  0.00     0.016 A 
ATOM     13  C   UNL A   1      31.865  22.517  26.028  1.00  0.00     0.016 A 
BRANCH   9  14
ATOM     14  N   UNL A   1      32.222  25.971  24.818  1.00  0.00    -0.217 N 
ATOM     15  C   UNL A   1      31.757  28.090  24.685  1.00  0.00     0.132 A 
ATOM     16  N   UNL A   1      33.083  27.944  25.012  1.00  0.00    -0.128 NA
ATOM     17  C   UNL A   1      31.166  26.843  24.616  1.00  0.00     0.071 A 
ATOM     18  N   UNL A   1      33.324  26.650  25.192  1.00  0.00    -0.061 NA
ATOM     19  C   UNL A   1      29.750  26.422  24.493  1.00  0.00     0.069 C 
BRANCH  15  20
ATOM     20  C   UNL A   1      31.099  29.384  24.629  1.00  0.00     0.087 C 
ATOM     21  C   UNL A   1      31.604  30.424  25.594  1.00  0.00     0.071 C 
ATOM     22  N   UNL A   1      30.175  29.505  23.723  1.00  0.00    -0.174 NA
BRANCH  22  23
ATOM     23  N   UNL A   1      29.429  30.639  23.555  1.00  0.00    -0.229 N 
ATOM     24  C   UNL A   1      28.090  30.731  23.252  1.00  0.00     0.332 C 
ATOM     25  H   UNL A   1      29.909  31.492  23.664  1.00  0.00     0.195 HD
ATOM     26  N   UNL A   1      27.664  32.022  23.160  1.00  0.00    -0.350 N 
ATOM     27  O   UNL A   1      27.291  29.816  23.085  1.00  0.00    -0.247 OA
ATOM     28  H   UNL A   1      28.299  32.762  23.293  1.00  0.00     0.161 HD
ATOM     29  H   UNL A   1      26.719  32.216  22.962  1.00  0.00     0.161 HD
ENDBRANCH  22  23
ENDBRANCH  15  20
ENDBRANCH   9  14
ENDBRANCH   5   8
ENDBRANCH   3   4
ENDBRANCH   2   3
ENDBRANCH   1   2
BRANCH   1  30
ATOM     30  C   UNL A   1      38.621  21.565  25.610  1.00  0.00     0.002 C 
BRANCH  30  31
ATOM     31  C   UNL A   1      39.104  20.137  25.310  1.00  0.00     0.021 C 
BRANCH  31  32
ATOM     32  C   UNL A   1      39.942  19.540  26.427  1.00  0.00     0.116 C 
BRANCH  32  33
ATOM     33  N   UNL A   1      41.218  18.985  25.948  1.00  0.00    -0.352 N 
ATOM     34  C   UNL A   1      42.376  19.661  25.568  1.00  0.00     0.251 C 
ATOM     35  H   UNL A   1      41.261  18.004  25.891  1.00  0.00     0.163 HD
ATOM     36  O   UNL A   1      43.199  19.134  24.840  1.00  0.00    -0.269 OA
BRANCH  34  37
ATOM     37  C   UNL A   1      42.575  21.027  26.089  1.00  0.00     0.039 A 
ATOM     38  C   UNL A   1      42.756  22.164  25.298  1.00  0.00     0.014 A 
ATOM     39  C   UNL A   1      42.499  21.140  27.464  1.00  0.00     0.014 A 
ATOM     40  C   UNL A   1      42.832  23.402  25.942  1.00  0.00     0.010 A 
ATOM     41  C   UNL A   1      42.145  22.333  27.996  1.00  0.00     0.010 A 
ATOM     42  C   UNL A   1      42.538  23.461  27.311  1.00  0.00    -0.014 A 
BRANCH  42  43
ATOM     43  C   UNL A   1      42.554  24.664  28.125  1.00  0.00     0.031 A 
ATOM     44  C   UNL A   1      41.263  25.380  28.140  1.00  0.00     0.074 A 
ATOM     45  C   UNL A   1      43.543  24.910  29.020  1.00  0.00     0.049 A 
ATOM     46  N   UNL A   1      40.979  26.484  27.539  1.00  0.00    -0.248 NA
ATOM     47  C   UNL A   1      40.093  24.698  28.718  1.00  0.00     0.031 C 
ATOM     48  C   UNL A   1      44.729  24.099  29.347  1.00  0.00     0.029 A 
ATOM     49  N   UNL A   1      43.633  25.913  29.929  1.00  0.00    -0.354 N 
ATOM     50  C   UNL A   1      39.673  26.777  27.904  1.00  0.00     0.074 A 
ATOM     51  C   UNL A   1      39.115  25.543  28.387  1.00  0.00     0.031 C 
ATOM     52  C   UNL A   1      45.271  24.521  30.514  1.00  0.00     0.029 A 
ATOM     53  C   UNL A   1      44.585  25.730  30.932  1.00  0.00     0.049 A 
ATOM     54  H   UNL A   1      43.066  26.716  29.883  1.00  0.00     0.167 HD
ATOM     55  C   UNL A   1      39.265  28.067  28.049  1.00  0.00     0.034 A 
ATOM     56  C   UNL A   1      44.779  26.514  32.030  1.00  0.00     0.034 A 
ATOM     57  C   UNL A   1      40.239  28.981  27.485  1.00  0.00     0.049 A 
ATOM     58  C   UNL A   1      44.188  27.838  31.692  1.00  0.00     0.074 A 
ATOM     59  C   UNL A   1      40.807  29.134  26.234  1.00  0.00     0.029 A 
ATOM     60  N   UNL A   1      41.099  29.620  28.354  1.00  0.00    -0.354 N 
ATOM     61  N   UNL A   1      44.649  28.592  30.728  1.00  0.00    -0.248 NA
ATOM     62  C   UNL A   1      42.787  28.061  32.028  1.00  0.00     0.031 C 
ATOM     63  C   UNL A   1      42.194  29.360  26.490  1.00  0.00     0.029 A 
ATOM     64  C   UNL A   1      42.377  29.442  27.873  1.00  0.00     0.049 A 
ATOM     65  H   UNL A   1      40.846  30.114  29.167  1.00  0.00     0.167 HD
ATOM     66  C   UNL A   1      43.526  29.048  30.052  1.00  0.00     0.074 A 
ATOM     67  C   UNL A   1      42.406  28.757  30.950  1.00  0.00     0.031 C 
ATOM     68  C   UNL A   1      43.559  29.330  28.714  1.00  0.00     0.034 A 
BRANCH  55  69
ATOM     69  C   UNL A   1      38.201  28.534  29.013  1.00  0.00     0.023 A 
ATOM     70  C   UNL A   1      37.213  29.399  28.506  1.00  0.00     0.031 A 
ATOM     71  C   UNL A   1      38.251  28.416  30.422  1.00  0.00     0.131 A 
ATOM     72  C   UNL A   1      36.411  30.162  29.370  1.00  0.00     0.055 A 
ATOM     73  C   UNL A   1      37.402  29.124  31.275  1.00  0.00     0.041 A 
ATOM     74  F   UNL A   1      39.179  27.694  31.060  1.00  0.00    -0.206 F 
ATOM     75  C   UNL A   1      36.496  30.028  30.753  1.00  0.00     0.022 A 
BRANCH  72  76
ATOM     76  S   UNL A   1      35.381  31.466  28.653  1.00  0.00     0.124 S 
ATOM     77  O   UNL A   1      36.361  32.232  27.891  1.00  0.00    -0.237 OA
ATOM     78  O   UNL A   1      34.420  30.694  27.874  1.00  0.00    -0.237 OA
ATOM     79  O   UNL A   1      34.833  32.145  29.824  1.00  0.00    -0.744 OA
ENDBRANCH  72  76
ENDBRANCH  55  69
BRANCH  56  80
ATOM     80  C   UNL A   1      45.051  26.048  33.427  1.00  0.00     0.023 A 
ATOM     81  C   UNL A   1      45.051  24.689  33.820  1.00  0.00     0.031 A 
ATOM     82  C   UNL A   1      45.562  26.971  34.371  1.00  0.00     0.131 A 
ATOM     83  C   UNL A   1      45.540  24.311  35.101  1.00  0.00     0.055 A 
ATOM     84  C   UNL A   1      46.046  26.591  35.626  1.00  0.00     0.041 A 
ATOM     85  F   UNL A   1      45.686  28.273  34.069  1.00  0.00    -0.206 F 
ATOM     86  C   UNL A   1      46.044  25.258  35.994  1.00  0.00     0.022 A 
BRANCH  83  87
ATOM     87  S   UNL A   1      45.595  22.555  35.608  1.00  0.00     0.124 S 
ATOM     88  O   UNL A   1      46.946  22.164  35.228  1.00  0.00    -0.237 OA
ATOM     89  O   UNL A   1      45.319  22.633  37.038  1.00  0.00    -0.237 OA
ATOM     90  O   UNL A   1      44.532  21.936  34.815  1.00  0.00    -0.744 OA
ENDBRANCH  83  87
ENDBRANCH  56  80
BRANCH  68  91
ATOM     91  C   UNL A   1      44.908  29.337  28.007  1.00  0.00     0.023 A 
ATOM     92  C   UNL A   1      45.408  28.293  27.191  1.00  0.00     0.031 A 
ATOM     93  C   UNL A   1      45.656  30.525  28.062  1.00  0.00     0.131 A 
ATOM     94  C   UNL A   1      46.618  28.461  26.483  1.00  0.00     0.055 A 
ATOM     95  C   UNL A   1      46.840  30.696  27.345  1.00  0.00     0.041 A 
ATOM     96  F   UNL A   1      45.224  31.566  28.794  1.00  0.00    -0.206 F 
ATOM     97  C   UNL A   1      47.328  29.663  26.555  1.00  0.00     0.022 A 
BRANCH  94  98
ATOM     98  S   UNL A   1      47.305  27.112  25.461  1.00  0.00     0.124 S 
ATOM     99  O   UNL A   1      48.388  27.756  24.730  1.00  0.00    -0.237 OA
ATOM    100  O   UNL A   1      47.706  26.127  26.461  1.00  0.00    -0.237 OA
ATOM    101  O   UNL A   1      46.170  26.704  24.630  1.00  0.00    -0.744 OA
ENDBRANCH  94  98
ENDBRANCH  68  91
ENDBRANCH  42  43
ENDBRANCH  34  37
ENDBRANCH  32  33
ENDBRANCH  31  32
ENDBRANCH  30  31
ENDBRANCH   1  30
TORSDOF 19
ENDMDL
MODEL 3
REMARK VINA RESULT:     -12.1      2.160      2.735
REMARK SMILES C/C(=N\NC(N)=O)c1nnn(-c2ccc(C(=O)NCCCCCCNC(=O)c3ccc(-c4c5nc(c(-c6cc(S(=O)(=O)[O-])ccc6F)c6ccc([nH]6)c(-c6cc(S(=O)(=O)[O-])ccc6F)c6nc(c(-c7cc(S(=O)(=O)[O-])ccc7F)c7ccc4[nH]7)C=C6)C=C5)cc3)cc2)c1C
REMARK SMILES IDX 21 1 20 2 19 3 18 4 16 5 17 6 15 8 12 9 13 10 92 11 14 12
REMARK SMILES IDX 91 13 11 14 8 15 9 16 93 17 10 18 94 19 2 20 1 21 3 22 4 23
REMARK SMILES IDX 5 24 6 26 7 27 22 30 23 31 24 32 25 33 26 34 27 36 28 37
REMARK SMILES IDX 29 38 90 39 30 40 89 41 31 42 32 43 33 44 83 45 34 46 88 47
REMARK SMILES IDX 82 48 84 49 35 50 87 51 81 52 80 53 36 55 68 56 48 57 67 58
REMARK SMILES IDX 49 59 52 60 66 61 85 62 50 63 51 64 65 66 86 67 53 68 37 69
REMARK SMILES IDX 38 70 46 71 39 72 45 73 47 74 44 75 40 76 41 77 42 78 43 79
REMARK SMILES IDX 69 80 70 81 78 82 71 83 77 84 79 85 76 86 72 87 73 88 74 89
REMARK SMILES IDX 75 90 54 91 55 92 63 93 56 94 62 95 64 96 61 97 57 98 58 99
REMARK SMILES IDX 59 100 60 101
REMARK H PARENT 18 7 4 25 6 28 6 29 25 35 84 54 52 65
REMARK Flexibility Score: inf
ROOT
ATOM      1  C   UNL A   1      37.237  22.787  25.242  1.00  0.00     0.002 C 
ENDROOT
BRANCH   1   2
ATOM      2  C   UNL A   1      36.332  21.730  24.594  1.00  0.00     0.021 C 
BRANCH   2   3
ATOM      3  C   UNL A   1      35.609  20.845  25.611  1.00  0.00     0.116 C 
BRANCH   3   4
ATOM      4  N   UNL A   1      34.797  19.848  24.934  1.00  0.00    -0.352 N 
ATOM      5  C   UNL A   1      33.532  19.873  24.403  1.00  0.00     0.251 C 
ATOM      6  O   UNL A   1      33.130  18.856  23.838  1.00  0.00    -0.269 OA
ATOM      7  H   UNL A   1      35.247  18.978  24.836  1.00  0.00     0.163 HD
BRANCH   5   8
ATOM      8  C   UNL A   1      32.680  21.096  24.389  1.00  0.00     0.039 A 
ATOM      9  C   UNL A   1      31.478  23.612  24.391  1.00  0.00     0.067 A 
ATOM     10  C   UNL A   1      32.139  23.184  23.239  1.00  0.00     0.029 A 
ATOM     11  C   UNL A   1      31.290  22.751  25.474  1.00  0.00     0.029 A 
ATOM     12  C   UNL A   1      32.767  21.934  23.260  1.00  0.00     0.016 A 
ATOM     13  C   UNL A   1      31.839  21.472  25.438  1.00  0.00     0.016 A 
BRANCH   9  14
ATOM     14  N   UNL A   1      31.100  24.957  24.526  1.00  0.00    -0.217 N 
ATOM     15  C   UNL A   1      31.031  27.076  25.002  1.00  0.00     0.132 A 
ATOM     16  N   UNL A   1      29.854  26.717  24.392  1.00  0.00    -0.128 NA
ATOM     17  C   UNL A   1      31.873  25.981  25.045  1.00  0.00     0.071 A 
ATOM     18  N   UNL A   1      29.954  25.448  24.015  1.00  0.00    -0.061 NA
ATOM     19  C   UNL A   1      33.304  25.844  25.408  1.00  0.00     0.069 C 
BRANCH  15  20
ATOM     20  C   UNL A   1      31.351  28.452  25.345  1.00  0.00     0.087 C 
ATOM     21  C   UNL A   1      31.187  29.463  24.243  1.00  0.00     0.071 C 
ATOM     22  N   UNL A   1      31.706  28.653  26.580  1.00  0.00    -0.174 NA
BRANCH  22  23
ATOM     23  N   UNL A   1      32.077  29.877  27.066  1.00  0.00    -0.229 N 
ATOM     24  C   UNL A   1      33.345  30.404  27.145  1.00  0.00     0.332 C 
ATOM     25  H   UNL A   1      31.348  30.449  27.399  1.00  0.00     0.195 HD
ATOM     26  N   UNL A   1      33.358  31.656  27.681  1.00  0.00    -0.350 N 
ATOM     27  O   UNL A   1      34.398  29.890  26.783  1.00  0.00    -0.247 OA
ATOM     28  H   UNL A   1      32.516  32.075  27.974  1.00  0.00     0.161 HD
ATOM     29  H   UNL A   1      34.208  32.143  27.775  1.00  0.00     0.161 HD
ENDBRANCH  22  23
ENDBRANCH  15  20
ENDBRANCH   9  14
ENDBRANCH   5   8
ENDBRANCH   3   4
ENDBRANCH   2   3
ENDBRANCH   1   2
BRANCH   1  30
ATOM     30  C   UNL A   1      38.455  22.242  26.011  1.00  0.00     0.002 C 
BRANCH  30  31
ATOM     31  C   UNL A   1      39.190  21.050  25.376  1.00  0.00     0.021 C 
BRANCH  31  32
ATOM     32  C   UNL A   1      39.563  19.973  26.378  1.00  0.00     0.116 C 
BRANCH  32  33
ATOM     33  N   UNL A   1      40.790  19.249  26.005  1.00  0.00    -0.352 N 
ATOM     34  C   UNL A   1      42.061  19.758  25.748  1.00  0.00     0.251 C 
ATOM     35  H   UNL A   1      40.701  18.271  25.930  1.00  0.00     0.163 HD
ATOM     36  O   UNL A   1      42.867  19.129  25.087  1.00  0.00    -0.269 OA
BRANCH  34  37
ATOM     37  C   UNL A   1      42.398  21.078  26.317  1.00  0.00     0.039 A 
ATOM     38  C   UNL A   1      42.712  22.214  25.565  1.00  0.00     0.014 A 
ATOM     39  C   UNL A   1      42.314  21.155  27.694  1.00  0.00     0.014 A 
ATOM     40  C   UNL A   1      42.911  23.415  26.251  1.00  0.00     0.010 A 
ATOM     41  C   UNL A   1      42.083  22.362  28.261  1.00  0.00     0.010 A 
ATOM     42  C   UNL A   1      42.606  23.462  27.618  1.00  0.00    -0.014 A 
BRANCH  42  43
ATOM     43  C   UNL A   1      42.739  24.629  28.471  1.00  0.00     0.031 A 
ATOM     44  C   UNL A   1      41.638  25.601  28.314  1.00  0.00     0.074 A 
ATOM     45  C   UNL A   1      43.600  24.656  29.518  1.00  0.00     0.049 A 
ATOM     46  N   UNL A   1      41.689  26.743  27.720  1.00  0.00    -0.248 NA
ATOM     47  C   UNL A   1      40.276  25.177  28.675  1.00  0.00     0.031 C 
ATOM     48  C   UNL A   1      44.524  23.612  29.994  1.00  0.00     0.029 A 
ATOM     49  N   UNL A   1      43.749  25.612  30.469  1.00  0.00    -0.354 N 
ATOM     50  C   UNL A   1      40.430  27.302  27.889  1.00  0.00     0.074 A 
ATOM     51  C   UNL A   1      39.559  26.211  28.229  1.00  0.00     0.031 C 
ATOM     52  C   UNL A   1      44.947  23.903  31.247  1.00  0.00     0.029 A 
ATOM     53  C   UNL A   1      44.468  25.227  31.601  1.00  0.00     0.049 A 
ATOM     54  H   UNL A   1      43.375  26.517  30.367  1.00  0.00     0.167 HD
ATOM     55  C   UNL A   1      40.280  28.649  28.018  1.00  0.00     0.034 A 
ATOM     56  C   UNL A   1      44.642  25.947  32.746  1.00  0.00     0.034 A 
ATOM     57  C   UNL A   1      41.500  29.341  27.650  1.00  0.00     0.049 A 
ATOM     58  C   UNL A   1      44.399  27.367  32.372  1.00  0.00     0.074 A 
ATOM     59  C   UNL A   1      42.280  29.378  26.509  1.00  0.00     0.029 A 
ATOM     60  N   UNL A   1      42.322  29.780  28.667  1.00  0.00    -0.354 N 
ATOM     61  N   UNL A   1      45.155  28.013  31.523  1.00  0.00    -0.248 NA
ATOM     62  C   UNL A   1      43.039  27.878  32.495  1.00  0.00     0.031 C 
ATOM     63  C   UNL A   1      43.624  29.306  26.988  1.00  0.00     0.029 A 
ATOM     64  C   UNL A   1      43.596  29.339  28.385  1.00  0.00     0.049 A 
ATOM     65  H   UNL A   1      42.050  30.310  29.450  1.00  0.00     0.167 HD
ATOM     66  C   UNL A   1      44.274  28.699  30.698  1.00  0.00     0.074 A 
ATOM     67  C   UNL A   1      42.988  28.645  31.399  1.00  0.00     0.031 C 
ATOM     68  C   UNL A   1      44.579  28.976  29.394  1.00  0.00     0.034 A 
BRANCH  55  69
ATOM     69  C   UNL A   1      39.195  29.324  28.824  1.00  0.00     0.023 A 
ATOM     70  C   UNL A   1      39.321  29.285  30.224  1.00  0.00     0.031 A 
ATOM     71  C   UNL A   1      37.939  29.746  28.330  1.00  0.00     0.131 A 
ATOM     72  C   UNL A   1      38.221  29.554  31.055  1.00  0.00     0.055 A 
ATOM     73  C   UNL A   1      36.869  30.081  29.162  1.00  0.00     0.041 A 
ATOM     74  F   UNL A   1      37.637  29.765  27.027  1.00  0.00    -0.206 F 
ATOM     75  C   UNL A   1      36.994  29.955  30.533  1.00  0.00     0.022 A 
BRANCH  72  76
ATOM     76  S   UNL A   1      38.373  29.192  32.822  1.00  0.00     0.124 S 
ATOM     77  O   UNL A   1      38.668  30.511  33.370  1.00  0.00    -0.237 OA
ATOM     78  O   UNL A   1      37.055  28.646  33.129  1.00  0.00    -0.237 OA
ATOM     79  O   UNL A   1      39.473  28.234  32.876  1.00  0.00    -0.744 OA
ENDBRANCH  72  76
ENDBRANCH  55  69
BRANCH  56  80
ATOM     80  C   UNL A   1      44.583  25.426  34.148  1.00  0.00     0.023 A 
ATOM     81  C   UNL A   1      45.713  25.291  34.989  1.00  0.00     0.031 A 
ATOM     82  C   UNL A   1      43.321  25.268  34.769  1.00  0.00     0.131 A 
ATOM     83  C   UNL A   1      45.551  25.010  36.373  1.00  0.00     0.055 A 
ATOM     84  C   UNL A   1      43.168  24.996  36.132  1.00  0.00     0.041 A 
ATOM     85  F   UNL A   1      42.183  25.458  34.083  1.00  0.00    -0.206 F 
ATOM     86  C   UNL A   1      44.283  24.873  36.942  1.00  0.00     0.022 A 
BRANCH  83  87
ATOM     87  S   UNL A   1      46.996  24.883  37.486  1.00  0.00     0.124 S 
ATOM     88  O   UNL A   1      47.273  26.279  37.796  1.00  0.00    -0.237 OA
ATOM     89  O   UNL A   1      46.479  24.065  38.578  1.00  0.00    -0.237 OA
ATOM     90  O   UNL A   1      48.009  24.226  36.659  1.00  0.00    -0.744 OA
ENDBRANCH  83  87
ENDBRANCH  56  80
BRANCH  68  91
ATOM     91  C   UNL A   1      45.996  28.704  28.907  1.00  0.00     0.023 A 
ATOM     92  C   UNL A   1      46.483  27.445  28.476  1.00  0.00     0.031 A 
ATOM     93  C   UNL A   1      46.845  29.811  28.749  1.00  0.00     0.131 A 
ATOM     94  C   UNL A   1      47.779  27.335  27.925  1.00  0.00     0.055 A 
ATOM     95  C   UNL A   1      48.116  29.703  28.185  1.00  0.00     0.041 A 
ATOM     96  F   UNL A   1      46.434  31.039  29.109  1.00  0.00    -0.206 F 
ATOM     97  C   UNL A   1      48.590  28.463  27.774  1.00  0.00     0.022 A 
BRANCH  94  98
ATOM     98  S   UNL A   1      48.445  25.716  27.405  1.00  0.00     0.124 S 
ATOM     99  O   UNL A   1      47.251  24.950  27.067  1.00  0.00    -0.237 OA
ATOM    100  O   UNL A   1      49.314  26.072  26.288  1.00  0.00    -0.237 OA
ATOM    101  O   UNL A   1      49.154  25.241  28.596  1.00  0.00    -0.744 OA
ENDBRANCH  94  98
ENDBRANCH  68  91
ENDBRANCH  42  43
ENDBRANCH  34  37
ENDBRANCH  32  33
ENDBRANCH  31  32
ENDBRANCH  30  31
ENDBRANCH   1  30
TORSDOF 19
ENDMDL
