MODEL 1
REMARK VINA RESULT:     -11.7      0.000      0.000
REMARK SMILES O=CN1CCN(S(=O)(=O)c2ccc(C(=O)NCCCCCCNC(=O)c3ccc(-c4c5nc(c(-c6cc(S(=O)(=O)[O-])ccc6F)c6ccc([nH]6)c(-c6cc(S(=O)(=O)[O-])ccc6F)c6nc(c(-c7cc(S(=O)(=O)[O-])ccc7F)c7ccc4[nH]7)C=C6)C=C5)cc3)cc2)CC1
REMARK SMILES IDX 20 1 19 2 18 3 17 4 16 5 14 6 15 7 13 9 10 10 11 11 90 12
REMARK SMILES IDX 12 13 89 14 7 15 8 16 9 17 6 18 1 19 2 20 3 21 4 22 92 23
REMARK SMILES IDX 5 24 91 25 21 26 22 27 23 28 24 29 25 31 26 32 27 33 88 34
REMARK SMILES IDX 28 35 87 36 29 37 30 38 31 39 81 40 32 41 86 42 80 43 82 44
REMARK SMILES IDX 33 45 85 46 79 47 78 48 34 50 66 51 46 52 65 53 47 54 50 55
REMARK SMILES IDX 64 56 83 57 48 58 49 59 63 61 84 62 51 63 35 64 36 65 44 66
REMARK SMILES IDX 37 67 43 68 45 69 42 70 38 71 39 72 40 73 41 74 67 75 68 76
REMARK SMILES IDX 76 77 69 78 75 79 77 80 74 81 70 82 71 83 72 84 73 85 52 86
REMARK SMILES IDX 53 87 61 88 54 89 60 90 62 91 59 92 55 93 56 94 57 95 58 96
REMARK H PARENT 16 8 23 30 82 49 50 60
REMARK Flexibility Score: inf
ROOT
ATOM      1  C   UNL A   1      34.873  22.519  24.155  1.00  0.00     0.002 C 
ENDROOT
BRANCH   1   2
ATOM      2  C   UNL A   1      34.781  21.066  24.635  1.00  0.00     0.002 C 
BRANCH   2   3
ATOM      3  C   UNL A   1      33.714  20.801  25.706  1.00  0.00     0.021 C 
BRANCH   3   4
ATOM      4  C   UNL A   1      33.811  21.729  26.917  1.00  0.00     0.116 C 
BRANCH   4   5
ATOM      5  N   UNL A   1      32.490  22.024  27.444  1.00  0.00    -0.352 N 
ATOM      6  C   UNL A   1      31.550  22.950  27.073  1.00  0.00     0.251 C 
ATOM      7  O   UNL A   1      30.453  22.939  27.631  1.00  0.00    -0.269 OA
ATOM      8  H   UNL A   1      32.221  21.457  28.204  1.00  0.00     0.163 HD
BRANCH   6   9
ATOM      9  C   UNL A   1      31.794  23.930  25.985  1.00  0.00     0.039 A 
ATOM     10  C   UNL A   1      32.138  25.722  23.866  1.00  0.00     0.082 A 
ATOM     11  C   UNL A   1      31.148  24.742  23.783  1.00  0.00     0.022 A 
ATOM     12  C   UNL A   1      32.913  25.852  25.024  1.00  0.00     0.022 A 
ATOM     13  C   UNL A   1      30.979  23.848  24.845  1.00  0.00     0.015 A 
ATOM     14  C   UNL A   1      32.736  24.960  26.084  1.00  0.00     0.015 A 
BRANCH  10  15
ATOM     15  S   UNL A   1      32.313  26.915  22.560  1.00  0.00     0.243 S 
ATOM     16  O   UNL A   1      31.329  26.596  21.544  1.00  0.00    -0.207 OA
ATOM     17  O   UNL A   1      33.714  26.994  22.215  1.00  0.00    -0.207 OA
BRANCH  15  18
ATOM     18  N   UNL A   1      31.883  28.403  23.277  1.00  0.00    -0.194 NA
ATOM     19  O   UNL A   1      26.956  29.590  23.180  1.00  0.00    -0.279 OA
ATOM     20  C   UNL A   1      27.917  29.753  22.441  1.00  0.00     0.340 C 
ATOM     21  N   UNL A   1      29.170  29.213  22.630  1.00  0.00    -0.343 N 
ATOM     22  C   UNL A   1      30.227  29.357  21.631  1.00  0.00     0.136 C 
ATOM     23  C   UNL A   1      29.401  28.267  23.719  1.00  0.00     0.136 C 
ATOM     24  C   UNL A   1      31.617  29.494  22.274  1.00  0.00     0.124 C 
ATOM     25  C   UNL A   1      30.804  28.408  24.319  1.00  0.00     0.124 C 
ENDBRANCH  15  18
ENDBRANCH  10  15
ENDBRANCH   6   9
ENDBRANCH   4   5
ENDBRANCH   3   4
ENDBRANCH   2   3
ENDBRANCH   1   2
BRANCH   1  26
ATOM     26  C   UNL A   1      36.272  23.140  24.214  1.00  0.00     0.021 C 
BRANCH  26  27
ATOM     27  C   UNL A   1      36.779  23.441  25.621  1.00  0.00     0.116 C 
BRANCH  27  28
ATOM     28  N   UNL A   1      37.803  22.499  26.037  1.00  0.00    -0.352 N 
ATOM     29  C   UNL A   1      39.053  22.739  26.550  1.00  0.00     0.251 C 
ATOM     30  H   UNL A   1      37.565  21.548  25.936  1.00  0.00     0.163 HD
ATOM     31  O   UNL A   1      39.858  21.815  26.626  1.00  0.00    -0.269 OA
BRANCH  29  32
ATOM     32  C   UNL A   1      39.435  24.098  26.996  1.00  0.00     0.039 A 
ATOM     33  C   UNL A   1      39.996  24.978  26.066  1.00  0.00     0.014 A 
ATOM     34  C   UNL A   1      39.296  24.491  28.332  1.00  0.00     0.014 A 
ATOM     35  C   UNL A   1      40.398  26.254  26.468  1.00  0.00     0.010 A 
ATOM     36  C   UNL A   1      39.636  25.786  28.717  1.00  0.00     0.010 A 
ATOM     37  C   UNL A   1      40.213  26.672  27.795  1.00  0.00    -0.014 A 
BRANCH  37  38
ATOM     38  C   UNL A   1      40.672  28.013  28.243  1.00  0.00     0.031 A 
ATOM     39  C   UNL A   1      42.141  28.347  28.227  1.00  0.00     0.074 A 
ATOM     40  C   UNL A   1      39.779  28.907  28.706  1.00  0.00     0.049 A 
ATOM     41  N   UNL A   1      42.748  29.442  28.609  1.00  0.00    -0.248 NA
ATOM     42  C   UNL A   1      43.047  27.290  27.757  1.00  0.00     0.031 C 
ATOM     43  C   UNL A   1      38.339  28.676  28.827  1.00  0.00     0.029 A 
ATOM     44  N   UNL A   1      39.952  30.186  29.172  1.00  0.00    -0.354 N 
ATOM     45  C   UNL A   1      44.108  29.198  28.444  1.00  0.00     0.074 A 
ATOM     46  C   UNL A   1      44.233  27.828  27.993  1.00  0.00     0.031 C 
ATOM     47  C   UNL A   1      37.758  29.782  29.322  1.00  0.00     0.029 A 
ATOM     48  C   UNL A   1      38.785  30.788  29.575  1.00  0.00     0.049 A 
ATOM     49  H   UNL A   1      40.830  30.629  29.213  1.00  0.00     0.167 HD
ATOM     50  C   UNL A   1      45.154  30.044  28.630  1.00  0.00     0.034 A 
ATOM     51  C   UNL A   1      38.566  32.013  30.092  1.00  0.00     0.034 A 
ATOM     52  C   UNL A   1      45.004  31.414  29.061  1.00  0.00     0.049 A 
ATOM     53  C   UNL A   1      39.730  32.954  30.251  1.00  0.00     0.074 A 
ATOM     54  C   UNL A   1      45.979  32.385  29.214  1.00  0.00     0.029 A 
ATOM     55  N   UNL A   1      43.797  32.008  29.417  1.00  0.00    -0.354 N 
ATOM     56  N   UNL A   1      41.006  32.737  30.023  1.00  0.00    -0.248 NA
ATOM     57  C   UNL A   1      39.423  34.312  30.713  1.00  0.00     0.031 C 
ATOM     58  C   UNL A   1      45.373  33.542  29.717  1.00  0.00     0.029 A 
ATOM     59  C   UNL A   1      44.008  33.321  29.812  1.00  0.00     0.049 A 
ATOM     60  H   UNL A   1      42.922  31.560  29.393  1.00  0.00     0.167 HD
ATOM     61  C   UNL A   1      41.650  33.941  30.292  1.00  0.00     0.074 A 
ATOM     62  C   UNL A   1      40.618  34.883  30.681  1.00  0.00     0.031 C 
ATOM     63  C   UNL A   1      42.971  34.244  30.215  1.00  0.00     0.034 A 
BRANCH  50  64
ATOM     64  C   UNL A   1      46.541  29.489  28.395  1.00  0.00     0.023 A 
ATOM     65  C   UNL A   1      46.999  29.165  27.104  1.00  0.00     0.031 A 
ATOM     66  C   UNL A   1      47.395  29.220  29.478  1.00  0.00     0.131 A 
ATOM     67  C   UNL A   1      48.223  28.498  26.940  1.00  0.00     0.055 A 
ATOM     68  C   UNL A   1      48.654  28.640  29.300  1.00  0.00     0.041 A 
ATOM     69  F   UNL A   1      47.011  29.490  30.736  1.00  0.00    -0.206 F 
ATOM     70  C   UNL A   1      49.065  28.254  28.027  1.00  0.00     0.022 A 
BRANCH  67  71
ATOM     71  S   UNL A   1      48.607  27.788  25.316  1.00  0.00     0.124 S 
ATOM     72  O   UNL A   1      49.910  28.387  25.033  1.00  0.00    -0.237 OA
ATOM     73  O   UNL A   1      48.606  26.356  25.588  1.00  0.00    -0.237 OA
ATOM     74  O   UNL A   1      47.517  28.264  24.467  1.00  0.00    -0.744 OA
ENDBRANCH  67  71
ENDBRANCH  50  64
BRANCH  51  75
ATOM     75  C   UNL A   1      37.190  32.420  30.484  1.00  0.00     0.023 A 
ATOM     76  C   UNL A   1      36.301  32.977  29.552  1.00  0.00     0.031 A 
ATOM     77  C   UNL A   1      36.744  32.255  31.809  1.00  0.00     0.131 A 
ATOM     78  C   UNL A   1      35.022  33.383  29.963  1.00  0.00     0.055 A 
ATOM     79  C   UNL A   1      35.457  32.623  32.203  1.00  0.00     0.041 A 
ATOM     80  F   UNL A   1      37.551  31.712  32.733  1.00  0.00    -0.206 F 
ATOM     81  C   UNL A   1      34.591  33.199  31.280  1.00  0.00     0.022 A 
BRANCH  78  82
ATOM     82  S   UNL A   1      33.937  34.195  28.758  1.00  0.00     0.124 S 
ATOM     83  O   UNL A   1      34.773  35.300  28.302  1.00  0.00    -0.237 OA
ATOM     84  O   UNL A   1      33.703  33.126  27.792  1.00  0.00    -0.237 OA
ATOM     85  O   UNL A   1      32.772  34.578  29.552  1.00  0.00    -0.744 OA
ENDBRANCH  78  82
ENDBRANCH  51  75
BRANCH  63  86
ATOM     86  C   UNL A   1      43.364  35.668  30.527  1.00  0.00     0.023 A 
ATOM     87  C   UNL A   1      43.402  36.660  29.532  1.00  0.00     0.031 A 
ATOM     88  C   UNL A   1      43.729  36.028  31.835  1.00  0.00     0.131 A 
ATOM     89  C   UNL A   1      43.854  37.951  29.850  1.00  0.00     0.055 A 
ATOM     90  C   UNL A   1      44.121  37.327  32.158  1.00  0.00     0.041 A 
ATOM     91  F   UNL A   1      43.714  35.119  32.824  1.00  0.00    -0.206 F 
ATOM     92  C   UNL A   1      44.200  38.294  31.160  1.00  0.00     0.022 A 
BRANCH  89  93
ATOM     93  S   UNL A   1      44.084  39.148  28.507  1.00  0.00     0.124 S 
ATOM     94  O   UNL A   1      42.911  40.003  28.657  1.00  0.00    -0.237 OA
ATOM     95  O   UNL A   1      45.365  39.758  28.850  1.00  0.00    -0.237 OA
ATOM     96  O   UNL A   1      44.095  38.318  27.305  1.00  0.00    -0.744 OA
ENDBRANCH  89  93
ENDBRANCH  63  86
ENDBRANCH  37  38
ENDBRANCH  29  32
ENDBRANCH  27  28
ENDBRANCH  26  27
ENDBRANCH   1  26
TORSDOF 18
ENDMDL
MODEL 2
REMARK VINA RESULT:     -11.5      3.112      4.488
REMARK SMILES O=CN1CCN(S(=O)(=O)c2ccc(C(=O)NCCCCCCNC(=O)c3ccc(-c4c5nc(c(-c6cc(S(=O)(=O)[O-])ccc6F)c6ccc([nH]6)c(-c6cc(S(=O)(=O)[O-])ccc6F)c6nc(c(-c7cc(S(=O)(=O)[O-])ccc7F)c7ccc4[nH]7)C=C6)C=C5)cc3)cc2)CC1
REMARK SMILES IDX 20 1 19 2 18 3 17 4 16 5 14 6 15 7 13 9 10 10 11 11 90 12
REMARK SMILES IDX 12 13 89 14 7 15 8 16 9 17 6 18 1 19 2 20 3 21 4 22 92 23
REMARK SMILES IDX 5 24 91 25 21 26 22 27 23 28 24 29 25 31 26 32 27 33 88 34
REMARK SMILES IDX 28 35 87 36 29 37 30 38 31 39 81 40 32 41 86 42 80 43 82 44
REMARK SMILES IDX 33 45 85 46 79 47 78 48 34 50 66 51 46 52 65 53 47 54 50 55
REMARK SMILES IDX 64 56 83 57 48 58 49 59 63 61 84 62 51 63 35 64 36 65 44 66
REMARK SMILES IDX 37 67 43 68 45 69 42 70 38 71 39 72 40 73 41 74 67 75 68 76
REMARK SMILES IDX 76 77 69 78 75 79 77 80 74 81 70 82 71 83 72 84 73 85 52 86
REMARK SMILES IDX 53 87 61 88 54 89 60 90 62 91 59 92 55 93 56 94 57 95 58 96
REMARK H PARENT 16 8 23 30 82 49 50 60
REMARK Flexibility Score: inf
ROOT
ATOM      1  C   UNL A   1      40.843  21.855  27.771  1.00  0.00     0.002 C 
ENDROOT
BRANCH   1   2
ATOM      2  C   UNL A   1      40.318  22.664  26.579  1.00  0.00     0.002 C 
BRANCH   2   3
ATOM      3  C   UNL A   1      39.089  23.534  26.873  1.00  0.00     0.021 C 
BRANCH   3   4
ATOM      4  C   UNL A   1      37.987  23.422  25.819  1.00  0.00     0.116 C 
BRANCH   4   5
ATOM      5  N   UNL A   1      37.032  22.390  26.183  1.00  0.00    -0.352 N 
ATOM      6  C   UNL A   1      35.712  22.218  25.855  1.00  0.00     0.251 C 
ATOM      7  O   UNL A   1      35.137  21.195  26.224  1.00  0.00    -0.269 OA
ATOM      8  H   UNL A   1      37.398  21.688  26.769  1.00  0.00     0.163 HD
BRANCH   6   9
ATOM      9  C   UNL A   1      34.970  23.201  25.026  1.00  0.00     0.039 A 
ATOM     10  C   UNL A   1      33.593  25.152  23.570  1.00  0.00     0.082 A 
ATOM     11  C   UNL A   1      34.034  25.442  24.862  1.00  0.00     0.022 A 
ATOM     12  C   UNL A   1      33.891  23.918  22.980  1.00  0.00     0.022 A 
ATOM     13  C   UNL A   1      34.722  24.464  25.587  1.00  0.00     0.015 A 
ATOM     14  C   UNL A   1      34.584  22.947  23.706  1.00  0.00     0.015 A 
BRANCH  10  15
ATOM     15  S   UNL A   1      32.788  26.410  22.607  1.00  0.00     0.243 S 
ATOM     16  O   UNL A   1      31.717  25.771  21.866  1.00  0.00    -0.207 OA
ATOM     17  O   UNL A   1      33.808  27.157  21.909  1.00  0.00    -0.207 OA
BRANCH  15  18
ATOM     18  N   UNL A   1      32.093  27.456  23.762  1.00  0.00    -0.194 NA
ATOM     19  O   UNL A   1      27.258  28.760  22.976  1.00  0.00    -0.279 OA
ATOM     20  C   UNL A   1      28.352  29.189  22.639  1.00  0.00     0.340 C 
ATOM     21  N   UNL A   1      29.560  28.572  22.880  1.00  0.00    -0.343 N 
ATOM     22  C   UNL A   1      30.811  29.092  22.332  1.00  0.00     0.136 C 
ATOM     23  C   UNL A   1      29.593  27.240  23.479  1.00  0.00     0.136 C 
ATOM     24  C   UNL A   1      31.995  28.883  23.291  1.00  0.00     0.124 C 
ATOM     25  C   UNL A   1      30.800  27.053  24.405  1.00  0.00     0.124 C 
ENDBRANCH  15  18
ENDBRANCH  10  15
ENDBRANCH   6   9
ENDBRANCH   4   5
ENDBRANCH   3   4
ENDBRANCH   2   3
ENDBRANCH   1   2
BRANCH   1  26
ATOM     26  C   UNL A   1      41.365  20.456  27.434  1.00  0.00     0.021 C 
BRANCH  26  27
ATOM     27  C   UNL A   1      41.199  20.046  25.973  1.00  0.00     0.116 C 
BRANCH  27  28
ATOM     28  N   UNL A   1      42.425  19.489  25.428  1.00  0.00    -0.352 N 
ATOM     29  C   UNL A   1      43.596  20.122  25.092  1.00  0.00     0.251 C 
ATOM     30  H   UNL A   1      42.414  18.516  25.277  1.00  0.00     0.163 HD
ATOM     31  O   UNL A   1      44.436  19.516  24.433  1.00  0.00    -0.269 OA
BRANCH  29  32
ATOM     32  C   UNL A   1      43.841  21.521  25.507  1.00  0.00     0.039 A 
ATOM     33  C   UNL A   1      44.411  21.760  26.761  1.00  0.00     0.014 A 
ATOM     34  C   UNL A   1      43.464  22.597  24.697  1.00  0.00     0.014 A 
ATOM     35  C   UNL A   1      44.621  23.072  27.193  1.00  0.00     0.010 A 
ATOM     36  C   UNL A   1      43.735  23.903  25.100  1.00  0.00     0.010 A 
ATOM     37  C   UNL A   1      44.293  24.155  26.363  1.00  0.00    -0.014 A 
BRANCH  37  38
ATOM     38  C   UNL A   1      44.476  25.554  26.827  1.00  0.00     0.031 A 
ATOM     39  C   UNL A   1      45.841  26.189  26.777  1.00  0.00     0.074 A 
ATOM     40  C   UNL A   1      43.432  26.233  27.337  1.00  0.00     0.049 A 
ATOM     41  N   UNL A   1      46.217  27.381  27.165  1.00  0.00    -0.248 NA
ATOM     42  C   UNL A   1      46.932  25.354  26.256  1.00  0.00     0.031 C 
ATOM     43  C   UNL A   1      42.077  25.703  27.495  1.00  0.00     0.029 A 
ATOM     44  N   UNL A   1      43.349  27.512  27.827  1.00  0.00    -0.354 N 
ATOM     45  C   UNL A   1      47.592  27.431  26.956  1.00  0.00     0.074 A 
ATOM     46  C   UNL A   1      47.986  26.125  26.470  1.00  0.00     0.031 C 
ATOM     47  C   UNL A   1      41.294  26.654  28.032  1.00  0.00     0.029 A 
ATOM     48  C   UNL A   1      42.095  27.849  28.279  1.00  0.00     0.049 A 
ATOM     49  H   UNL A   1      44.115  28.129  27.853  1.00  0.00     0.167 HD
ATOM     50  C   UNL A   1      48.443  28.474  27.130  1.00  0.00     0.034 A 
ATOM     51  C   UNL A   1      41.642  28.991  28.830  1.00  0.00     0.034 A 
ATOM     52  C   UNL A   1      48.024  29.775  27.597  1.00  0.00     0.049 A 
ATOM     53  C   UNL A   1      42.588  30.154  28.977  1.00  0.00     0.074 A 
ATOM     54  C   UNL A   1      48.779  30.926  27.744  1.00  0.00     0.029 A 
ATOM     55  N   UNL A   1      46.733  30.096  28.002  1.00  0.00    -0.354 N 
ATOM     56  N   UNL A   1      43.873  30.213  28.706  1.00  0.00    -0.248 NA
ATOM     57  C   UNL A   1      42.019  31.409  29.478  1.00  0.00     0.031 C 
ATOM     58  C   UNL A   1      47.961  31.922  28.291  1.00  0.00     0.029 A 
ATOM     59  C   UNL A   1      46.677  31.418  28.420  1.00  0.00     0.049 A 
ATOM     60  H   UNL A   1      45.970  29.475  27.993  1.00  0.00     0.167 HD
ATOM     61  C   UNL A   1      44.259  31.521  28.983  1.00  0.00     0.074 A 
ATOM     62  C   UNL A   1      43.066  32.219  29.425  1.00  0.00     0.031 C 
ATOM     63  C   UNL A   1      45.484  32.096  28.875  1.00  0.00     0.034 A 
BRANCH  50  64
ATOM     64  C   UNL A   1      49.907  28.228  26.842  1.00  0.00     0.023 A 
ATOM     65  C   UNL A   1      50.445  28.391  25.552  1.00  0.00     0.031 A 
ATOM     66  C   UNL A   1      50.765  27.761  27.853  1.00  0.00     0.131 A 
ATOM     67  C   UNL A   1      51.764  27.992  25.284  1.00  0.00     0.055 A 
ATOM     68  C   UNL A   1      52.105  27.454  27.601  1.00  0.00     0.041 A 
ATOM     69  F   UNL A   1      50.310  27.567  29.101  1.00  0.00    -0.206 F 
ATOM     70  C   UNL A   1      52.605  27.547  26.305  1.00  0.00     0.022 A 
BRANCH  67  71
ATOM     71  S   UNL A   1      52.299  27.887  23.554  1.00  0.00     0.124 S 
ATOM     72  O   UNL A   1      51.139  27.261  22.924  1.00  0.00    -0.237 OA
ATOM     73  O   UNL A   1      52.537  29.284  23.212  1.00  0.00    -0.237 OA
ATOM     74  O   UNL A   1      53.493  27.046  23.615  1.00  0.00    -0.744 OA
ENDBRANCH  67  71
ENDBRANCH  50  64
BRANCH  51  75
ATOM     75  C   UNL A   1      40.225  29.094  29.272  1.00  0.00     0.023 A 
ATOM     76  C   UNL A   1      39.871  28.959  30.623  1.00  0.00     0.031 A 
ATOM     77  C   UNL A   1      39.199  29.329  28.338  1.00  0.00     0.131 A 
ATOM     78  C   UNL A   1      38.521  29.025  31.001  1.00  0.00     0.055 A 
ATOM     79  C   UNL A   1      37.862  29.434  28.725  1.00  0.00     0.041 A 
ATOM     80  F   UNL A   1      39.488  29.481  27.036  1.00  0.00    -0.206 F 
ATOM     81  C   UNL A   1      37.516  29.273  30.062  1.00  0.00     0.022 A 
BRANCH  78  82
ATOM     82  S   UNL A   1      38.090  28.743  32.740  1.00  0.00     0.124 S 
ATOM     83  O   UNL A   1      39.183  29.416  33.431  1.00  0.00    -0.237 OA
ATOM     84  O   UNL A   1      36.780  29.381  32.835  1.00  0.00    -0.237 OA
ATOM     85  O   UNL A   1      38.079  27.286  32.856  1.00  0.00    -0.744 OA
ENDBRANCH  78  82
ENDBRANCH  51  75
BRANCH  63  86
ATOM     86  C   UNL A   1      45.580  33.565  29.209  1.00  0.00     0.023 A 
ATOM     87  C   UNL A   1      45.131  34.557  28.319  1.00  0.00     0.031 A 
ATOM     88  C   UNL A   1      46.153  33.976  30.424  1.00  0.00     0.131 A 
ATOM     89  C   UNL A   1      45.317  35.912  28.633  1.00  0.00     0.055 A 
ATOM     90  C   UNL A   1      46.282  35.325  30.757  1.00  0.00     0.041 A 
ATOM     91  F   UNL A   1      46.602  33.072  31.309  1.00  0.00    -0.206 F 
ATOM     92  C   UNL A   1      45.876  36.302  29.853  1.00  0.00     0.022 A 
BRANCH  89  93
ATOM     93  S   UNL A   1      44.913  37.160  27.380  1.00  0.00     0.124 S 
ATOM     94  O   UNL A   1      43.765  36.558  26.710  1.00  0.00    -0.237 OA
ATOM     95  O   UNL A   1      44.632  38.338  28.193  1.00  0.00    -0.237 OA
ATOM     96  O   UNL A   1      46.128  37.240  26.572  1.00  0.00    -0.744 OA
ENDBRANCH  89  93
ENDBRANCH  63  86
ENDBRANCH  37  38
ENDBRANCH  29  32
ENDBRANCH  27  28
ENDBRANCH  26  27
ENDBRANCH   1  26
TORSDOF 18
ENDMDL
MODEL 3
REMARK VINA RESULT:     -11.2      2.069      2.703
REMARK SMILES O=CN1CCN(S(=O)(=O)c2ccc(C(=O)NCCCCCCNC(=O)c3ccc(-c4c5nc(c(-c6cc(S(=O)(=O)[O-])ccc6F)c6ccc([nH]6)c(-c6cc(S(=O)(=O)[O-])ccc6F)c6nc(c(-c7cc(S(=O)(=O)[O-])ccc7F)c7ccc4[nH]7)C=C6)C=C5)cc3)cc2)CC1
REMARK SMILES IDX 20 1 19 2 18 3 17 4 16 5 14 6 15 7 13 9 10 10 11 11 90 12
REMARK SMILES IDX 12 13 89 14 7 15 8 16 9 17 6 18 1 19 2 20 3 21 4 22 92 23
REMARK SMILES IDX 5 24 91 25 21 26 22 27 23 28 24 29 25 31 26 32 27 33 88 34
REMARK SMILES IDX 28 35 87 36 29 37 30 38 31 39 81 40 32 41 86 42 80 43 82 44
REMARK SMILES IDX 33 45 85 46 79 47 78 48 34 50 66 51 46 52 65 53 47 54 50 55
REMARK SMILES IDX 64 56 83 57 48 58 49 59 63 61 84 62 51 63 35 64 36 65 44 66
REMARK SMILES IDX 37 67 43 68 45 69 42 70 38 71 39 72 40 73 41 74 67 75 68 76
REMARK SMILES IDX 76 77 69 78 75 79 77 80 74 81 70 82 71 83 72 84 73 85 52 86
REMARK SMILES IDX 53 87 61 88 54 89 60 90 62 91 59 92 55 93 56 94 57 95 58 96
REMARK H PARENT 16 8 23 30 82 49 50 60
REMARK Flexibility Score: inf
ROOT
ATOM      1  C   UNL A   1      34.659  22.574  26.067  1.00  0.00     0.002 C 
ENDROOT
BRANCH   1   2
ATOM      2  C   UNL A   1      34.991  21.325  25.242  1.00  0.00     0.002 C 
BRANCH   2   3
ATOM      3  C   UNL A   1      33.979  20.178  25.361  1.00  0.00     0.021 C 
BRANCH   3   4
ATOM      4  C   UNL A   1      32.540  20.590  25.053  1.00  0.00     0.116 C 
BRANCH   4   5
ATOM      5  N   UNL A   1      32.213  20.316  23.665  1.00  0.00    -0.352 N 
ATOM      6  C   UNL A   1      32.051  21.149  22.589  1.00  0.00     0.251 C 
ATOM      7  O   UNL A   1      31.861  20.655  21.478  1.00  0.00    -0.269 OA
ATOM      8  H   UNL A   1      32.085  19.361  23.460  1.00  0.00     0.163 HD
BRANCH   6   9
ATOM      9  C   UNL A   1      32.149  22.626  22.712  1.00  0.00     0.039 A 
ATOM     10  C   UNL A   1      32.194  25.408  22.990  1.00  0.00     0.082 A 
ATOM     11  C   UNL A   1      31.003  24.715  23.209  1.00  0.00     0.022 A 
ATOM     12  C   UNL A   1      33.374  24.716  22.695  1.00  0.00     0.022 A 
ATOM     13  C   UNL A   1      30.985  23.324  23.070  1.00  0.00     0.015 A 
ATOM     14  C   UNL A   1      33.351  23.325  22.563  1.00  0.00     0.015 A 
BRANCH  10  15
ATOM     15  S   UNL A   1      32.254  27.167  23.241  1.00  0.00     0.243 S 
ATOM     16  O   UNL A   1      31.262  27.765  22.369  1.00  0.00    -0.207 OA
ATOM     17  O   UNL A   1      33.636  27.581  23.160  1.00  0.00    -0.207 OA
BRANCH  15  18
ATOM     18  N   UNL A   1      31.753  27.387  24.858  1.00  0.00    -0.194 NA
ATOM     19  O   UNL A   1      34.537  30.575  27.647  1.00  0.00    -0.279 OA
ATOM     20  C   UNL A   1      34.563  29.381  27.384  1.00  0.00     0.340 C 
ATOM     21  N   UNL A   1      33.749  28.746  26.472  1.00  0.00    -0.343 N 
ATOM     22  C   UNL A   1      33.932  27.338  26.128  1.00  0.00     0.136 C 
ATOM     23  C   UNL A   1      32.842  29.529  25.635  1.00  0.00     0.136 C 
ATOM     24  C   UNL A   1      32.595  26.631  25.851  1.00  0.00     0.124 C 
ATOM     25  C   UNL A   1      31.532  28.785  25.352  1.00  0.00     0.124 C 
ENDBRANCH  15  18
ENDBRANCH  10  15
ENDBRANCH   6   9
ENDBRANCH   4   5
ENDBRANCH   3   4
ENDBRANCH   2   3
ENDBRANCH   1   2
BRANCH   1  26
ATOM     26  C   UNL A   1      35.856  23.458  26.428  1.00  0.00     0.021 C 
BRANCH  26  27
ATOM     27  C   UNL A   1      37.022  23.388  25.445  1.00  0.00     0.116 C 
BRANCH  27  28
ATOM     28  N   UNL A   1      38.037  22.446  25.883  1.00  0.00    -0.352 N 
ATOM     29  C   UNL A   1      39.264  22.686  26.448  1.00  0.00     0.251 C 
ATOM     30  H   UNL A   1      37.812  21.496  25.755  1.00  0.00     0.163 HD
ATOM     31  O   UNL A   1      40.074  21.768  26.538  1.00  0.00    -0.269 OA
BRANCH  29  32
ATOM     32  C   UNL A   1      39.617  24.040  26.934  1.00  0.00     0.039 A 
ATOM     33  C   UNL A   1      40.066  24.989  26.011  1.00  0.00     0.014 A 
ATOM     34  C   UNL A   1      39.562  24.362  28.294  1.00  0.00     0.014 A 
ATOM     35  C   UNL A   1      40.439  26.263  26.447  1.00  0.00     0.010 A 
ATOM     36  C   UNL A   1      39.870  25.652  28.718  1.00  0.00     0.010 A 
ATOM     37  C   UNL A   1      40.336  26.608  27.804  1.00  0.00    -0.014 A 
BRANCH  37  38
ATOM     38  C   UNL A   1      40.766  27.947  28.284  1.00  0.00     0.031 A 
ATOM     39  C   UNL A   1      42.233  28.274  28.380  1.00  0.00     0.074 A 
ATOM     40  C   UNL A   1      39.845  28.846  28.678  1.00  0.00     0.049 A 
ATOM     41  N   UNL A   1      42.815  29.366  28.806  1.00  0.00    -0.248 NA
ATOM     42  C   UNL A   1      43.168  27.212  27.980  1.00  0.00     0.031 C 
ATOM     43  C   UNL A   1      38.399  28.622  28.689  1.00  0.00     0.029 A 
ATOM     44  N   UNL A   1      39.988  30.124  29.155  1.00  0.00    -0.354 N 
ATOM     45  C   UNL A   1      44.182  29.116  28.745  1.00  0.00     0.074 A 
ATOM     46  C   UNL A   1      44.335  27.745  28.306  1.00  0.00     0.031 C 
ATOM     47  C   UNL A   1      37.787  29.731  29.138  1.00  0.00     0.029 A 
ATOM     48  C   UNL A   1      38.796  30.733  29.469  1.00  0.00     0.049 A 
ATOM     49  H   UNL A   1      40.862  30.563  29.263  1.00  0.00     0.167 HD
ATOM     50  C   UNL A   1      45.215  29.957  29.009  1.00  0.00     0.034 A 
ATOM     51  C   UNL A   1      38.545  31.958  29.967  1.00  0.00     0.034 A 
ATOM     52  C   UNL A   1      45.040  31.328  29.427  1.00  0.00     0.049 A 
ATOM     53  C   UNL A   1      39.698  32.895  30.214  1.00  0.00     0.074 A 
ATOM     54  C   UNL A   1      46.005  32.294  29.653  1.00  0.00     0.029 A 
ATOM     55  N   UNL A   1      43.812  31.928  29.690  1.00  0.00    -0.354 N 
ATOM     56  N   UNL A   1      40.987  32.671  30.082  1.00  0.00    -0.248 NA
ATOM     57  C   UNL A   1      39.364  34.254  30.650  1.00  0.00     0.031 C 
ATOM     58  C   UNL A   1      45.368  33.455  30.108  1.00  0.00     0.029 A 
ATOM     59  C   UNL A   1      43.999  33.240  30.099  1.00  0.00     0.049 A 
ATOM     60  H   UNL A   1      42.939  31.484  29.600  1.00  0.00     0.167 HD
ATOM     61  C   UNL A   1      41.614  33.872  30.399  1.00  0.00     0.074 A 
ATOM     62  C   UNL A   1      40.560  34.819  30.709  1.00  0.00     0.031 C 
ATOM     63  C   UNL A   1      42.939  34.168  30.422  1.00  0.00     0.034 A 
BRANCH  50  64
ATOM     64  C   UNL A   1      46.613  29.396  28.880  1.00  0.00     0.023 A 
ATOM     65  C   UNL A   1      47.289  28.833  29.979  1.00  0.00     0.031 A 
ATOM     66  C   UNL A   1      47.307  29.481  27.660  1.00  0.00     0.131 A 
ATOM     67  C   UNL A   1      48.642  28.478  29.865  1.00  0.00     0.055 A 
ATOM     68  C   UNL A   1      48.625  29.037  27.528  1.00  0.00     0.041 A 
ATOM     69  F   UNL A   1      46.724  30.022  26.579  1.00  0.00    -0.206 F 
ATOM     70  C   UNL A   1      49.308  28.553  28.640  1.00  0.00     0.022 A 
BRANCH  67  71
ATOM     71  S   UNL A   1      49.564  28.095  31.379  1.00  0.00     0.124 S 
ATOM     72  O   UNL A   1      50.844  27.641  30.839  1.00  0.00    -0.237 OA
ATOM     73  O   UNL A   1      49.580  29.377  32.072  1.00  0.00    -0.237 OA
ATOM     74  O   UNL A   1      48.762  27.051  32.014  1.00  0.00    -0.744 OA
ENDBRANCH  67  71
ENDBRANCH  50  64
BRANCH  51  75
ATOM     75  C   UNL A   1      37.145  32.372  30.254  1.00  0.00     0.023 A 
ATOM     76  C   UNL A   1      36.373  33.046  29.294  1.00  0.00     0.031 A 
ATOM     77  C   UNL A   1      36.558  32.098  31.502  1.00  0.00     0.131 A 
ATOM     78  C   UNL A   1      35.068  33.453  29.609  1.00  0.00     0.055 A 
ATOM     79  C   UNL A   1      35.245  32.470  31.797  1.00  0.00     0.041 A 
ATOM     80  F   UNL A   1      37.250  31.442  32.447  1.00  0.00    -0.206 F 
ATOM     81  C   UNL A   1      34.496  33.160  30.850  1.00  0.00     0.022 A 
BRANCH  78  82
ATOM     82  S   UNL A   1      34.136  34.412  28.384  1.00  0.00     0.124 S 
ATOM     83  O   UNL A   1      35.120  34.572  27.320  1.00  0.00    -0.237 OA
ATOM     84  O   UNL A   1      33.014  33.524  28.093  1.00  0.00    -0.237 OA
ATOM     85  O   UNL A   1      33.787  35.636  29.103  1.00  0.00    -0.744 OA
ENDBRANCH  78  82
ENDBRANCH  51  75
BRANCH  63  86
ATOM     86  C   UNL A   1      43.314  35.591  30.763  1.00  0.00     0.023 A 
ATOM     87  C   UNL A   1      43.458  36.576  29.770  1.00  0.00     0.031 A 
ATOM     88  C   UNL A   1      43.554  35.956  32.098  1.00  0.00     0.131 A 
ATOM     89  C   UNL A   1      43.889  37.865  30.123  1.00  0.00     0.055 A 
ATOM     90  C   UNL A   1      43.926  37.254  32.450  1.00  0.00     0.041 A 
ATOM     91  F   UNL A   1      43.434  35.055  33.086  1.00  0.00    -0.206 F 
ATOM     92  C   UNL A   1      44.111  38.213  31.458  1.00  0.00     0.022 A 
BRANCH  89  93
ATOM     93  S   UNL A   1      44.260  39.051  28.802  1.00  0.00     0.124 S 
ATOM     94  O   UNL A   1      45.501  38.516  28.252  1.00  0.00    -0.237 OA
ATOM     95  O   UNL A   1      43.084  38.941  27.946  1.00  0.00    -0.237 OA
ATOM     96  O   UNL A   1      44.395  40.322  29.510  1.00  0.00    -0.744 OA
ENDBRANCH  89  93
ENDBRANCH  63  86
ENDBRANCH  37  38
ENDBRANCH  29  32
ENDBRANCH  27  28
ENDBRANCH  26  27
ENDBRANCH   1  26
TORSDOF 18
ENDMDL
