MODEL 1
REMARK VINA RESULT:     -11.6      0.000      0.000
REMARK SMILES CCCc1nn2c(=O)cc(CSc3ccccc3C(=O)NCCCCCCNC(=O)c3ccc(-c4c5nc(c(-c6cc(S(=O)(=O)[O-])ccc6F)c6ccc([nH]6)c(-c6cc(S(=O)(=O)[O-])ccc6F)c6nc(c(-c7cc(S(=O)(=O)[O-])ccc7F)c7ccc4[nH]7)C=C6)C=C5)cc3)nc2s1
REMARK SMILES IDX 23 1 22 2 21 3 19 4 20 5 18 7 13 8 14 9 15 10 17 11 16 12
REMARK SMILES IDX 12 13 11 14 10 15 4 16 5 17 96 18 6 19 95 20 7 21 94 22 8 23
REMARK SMILES IDX 9 24 3 25 2 26 1 27 24 28 25 29 26 30 27 31 28 32 29 33
REMARK SMILES IDX 30 35 31 36 32 37 93 38 33 39 92 40 34 41 35 42 36 43 86 44
REMARK SMILES IDX 37 45 91 46 85 47 87 48 38 49 90 50 84 51 83 52 39 54 71 55
REMARK SMILES IDX 51 56 70 57 52 58 55 59 69 60 88 61 53 62 54 63 68 65 89 66
REMARK SMILES IDX 56 67 40 68 41 69 49 70 42 71 48 72 50 73 47 74 43 75 44 76
REMARK SMILES IDX 45 77 46 78 72 79 73 80 81 81 74 82 80 83 82 84 79 85 75 86
REMARK SMILES IDX 76 87 77 88 78 89 57 90 58 91 66 92 59 93 65 94 67 95 64 96
REMARK SMILES IDX 60 97 61 98 62 99 63 100
REMARK H PARENT 21 6 28 34 87 53 55 64
REMARK Flexibility Score: inf
ROOT
ATOM      1  C   UNL A   1      35.556  22.296  23.876  1.00  0.00     0.021 C 
ENDROOT
BRANCH   1   2
ATOM      2  C   UNL A   1      35.067  23.688  24.302  1.00  0.00     0.116 C 
BRANCH   2   3
ATOM      3  N   UNL A   1      34.602  24.431  23.150  1.00  0.00    -0.352 N 
ATOM      4  C   UNL A   1      33.724  25.434  22.869  1.00  0.00     0.252 C 
ATOM      5  O   UNL A   1      33.644  25.655  21.650  1.00  0.00    -0.269 OA
ATOM      6  H   UNL A   1      35.050  24.122  22.331  1.00  0.00     0.163 HD
BRANCH   4   7
ATOM      7  C   UNL A   1      32.891  26.303  23.779  1.00  0.00     0.053 A 
ATOM      8  C   UNL A   1      31.577  26.176  24.270  1.00  0.00     0.020 A 
ATOM      9  C   UNL A   1      31.053  27.192  25.113  1.00  0.00     0.016 A 
ATOM     10  C   UNL A   1      31.761  28.347  25.428  1.00  0.00     0.001 A 
ATOM     11  C   UNL A   1      33.592  27.489  24.149  1.00  0.00     0.015 A 
ATOM     12  C   UNL A   1      33.042  28.497  24.943  1.00  0.00     0.001 A 
BRANCH   8  13
ATOM     13  S   UNL A   1      30.458  24.812  24.050  1.00  0.00    -0.119 SA
BRANCH  13  14
ATOM     14  C   UNL A   1      31.064  23.570  25.266  1.00  0.00     0.131 C 
BRANCH  14  15
ATOM     15  C   UNL A   1      31.727  22.444  24.510  1.00  0.00     0.060 A 
ATOM     16  C   UNL A   1      32.898  18.093  23.911  1.00  0.00     0.117 A 
ATOM     17  N   UNL A   1      32.529  18.827  22.906  1.00  0.00    -0.156 NA
ATOM     18  S   UNL A   1      33.008  18.874  25.468  1.00  0.00    -0.079 S 
ATOM     19  N   UNL A   1      32.338  20.109  23.342  1.00  0.00    -0.167 N 
ATOM     20  C   UNL A   1      32.493  20.326  24.683  1.00  0.00     0.215 A 
ATOM     21  C   UNL A   1      32.000  21.130  22.479  1.00  0.00     0.275 A 
ATOM     22  N   UNL A   1      32.256  21.436  25.293  1.00  0.00    -0.223 NA
ATOM     23  O   UNL A   1      31.894  21.065  21.262  1.00  0.00    -0.267 OA
ATOM     24  C   UNL A   1      31.665  22.397  23.170  1.00  0.00     0.098 A 
BRANCH  16  25
ATOM     25  C   UNL A   1      33.188  16.626  23.820  1.00  0.00     0.069 C 
BRANCH  25  26
ATOM     26  C   UNL A   1      33.601  16.023  25.161  1.00  0.00     0.004 C 
ATOM     27  C   UNL A   1      35.108  15.849  25.293  1.00  0.00     0.004 C 
ENDBRANCH  25  26
ENDBRANCH  16  25
ENDBRANCH  14  15
ENDBRANCH  13  14
ENDBRANCH   8  13
ENDBRANCH   4   7
ENDBRANCH   2   3
ENDBRANCH   1   2
BRANCH   1  28
ATOM     28  C   UNL A   1      36.565  21.683  24.846  1.00  0.00     0.002 C 
BRANCH  28  29
ATOM     29  C   UNL A   1      36.453  20.160  24.966  1.00  0.00     0.002 C 
BRANCH  29  30
ATOM     30  C   UNL A   1      37.787  19.404  24.989  1.00  0.00     0.021 C 
BRANCH  30  31
ATOM     31  C   UNL A   1      38.904  20.098  25.767  1.00  0.00     0.116 C 
BRANCH  31  32
ATOM     32  N   UNL A   1      40.032  19.207  25.985  1.00  0.00    -0.352 N 
ATOM     33  C   UNL A   1      41.363  19.506  26.138  1.00  0.00     0.251 C 
ATOM     34  H   UNL A   1      39.810  18.249  26.029  1.00  0.00     0.163 HD
ATOM     35  O   UNL A   1      42.202  18.619  26.013  1.00  0.00    -0.269 OA
BRANCH  33  36
ATOM     36  C   UNL A   1      41.780  20.889  26.452  1.00  0.00     0.039 A 
ATOM     37  C   UNL A   1      42.097  21.223  27.771  1.00  0.00     0.014 A 
ATOM     38  C   UNL A   1      41.815  21.867  25.453  1.00  0.00     0.014 A 
ATOM     39  C   UNL A   1      42.498  22.526  28.079  1.00  0.00     0.010 A 
ATOM     40  C   UNL A   1      42.278  23.145  25.749  1.00  0.00     0.010 A 
ATOM     41  C   UNL A   1      42.615  23.491  27.065  1.00  0.00    -0.014 A 
BRANCH  41  42
ATOM     42  C   UNL A   1      43.067  24.874  27.364  1.00  0.00     0.031 A 
ATOM     43  C   UNL A   1      42.129  25.846  28.028  1.00  0.00     0.074 A 
ATOM     44  C   UNL A   1      44.296  25.272  26.980  1.00  0.00     0.049 A 
ATOM     45  N   UNL A   1      42.302  27.115  28.297  1.00  0.00    -0.248 NA
ATOM     46  C   UNL A   1      40.807  25.325  28.408  1.00  0.00     0.031 C 
ATOM     47  C   UNL A   1      45.279  24.429  26.295  1.00  0.00     0.029 A 
ATOM     48  N   UNL A   1      44.925  26.484  27.100  1.00  0.00    -0.354 N 
ATOM     49  C   UNL A   1      41.107  27.548  28.862  1.00  0.00     0.074 A 
ATOM     50  C   UNL A   1      40.200  26.421  28.837  1.00  0.00     0.031 C 
ATOM     51  C   UNL A   1      46.394  25.144  26.076  1.00  0.00     0.029 A 
ATOM     52  C   UNL A   1      46.192  26.506  26.562  1.00  0.00     0.049 A 
ATOM     53  H   UNL A   1      44.510  27.267  27.530  1.00  0.00     0.167 HD
ATOM     54  C   UNL A   1      40.804  28.768  29.374  1.00  0.00     0.034 A 
ATOM     55  C   UNL A   1      47.083  27.511  26.462  1.00  0.00     0.034 A 
ATOM     56  C   UNL A   1      41.728  29.876  29.401  1.00  0.00     0.049 A 
ATOM     57  C   UNL A   1      46.718  28.864  27.018  1.00  0.00     0.074 A 
ATOM     58  C   UNL A   1      41.553  31.135  29.947  1.00  0.00     0.029 A 
ATOM     59  N   UNL A   1      43.004  29.861  28.848  1.00  0.00    -0.354 N 
ATOM     60  N   UNL A   1      45.602  29.247  27.596  1.00  0.00    -0.248 NA
ATOM     61  C   UNL A   1      47.736  29.916  26.918  1.00  0.00     0.031 C 
ATOM     62  C   UNL A   1      42.690  31.901  29.665  1.00  0.00     0.029 A 
ATOM     63  C   UNL A   1      43.610  31.097  29.011  1.00  0.00     0.049 A 
ATOM     64  H   UNL A   1      43.417  29.084  28.406  1.00  0.00     0.167 HD
ATOM     65  C   UNL A   1      45.798  30.576  27.955  1.00  0.00     0.074 A 
ATOM     66  C   UNL A   1      47.142  30.924  27.539  1.00  0.00     0.031 C 
ATOM     67  C   UNL A   1      44.947  31.433  28.577  1.00  0.00     0.034 A 
BRANCH  54  68
ATOM     68  C   UNL A   1      39.406  28.966  29.915  1.00  0.00     0.023 A 
ATOM     69  C   UNL A   1      38.407  29.611  29.165  1.00  0.00     0.031 A 
ATOM     70  C   UNL A   1      39.076  28.539  31.213  1.00  0.00     0.131 A 
ATOM     71  C   UNL A   1      37.161  29.891  29.747  1.00  0.00     0.055 A 
ATOM     72  C   UNL A   1      37.804  28.740  31.756  1.00  0.00     0.041 A 
ATOM     73  F   UNL A   1      39.991  27.934  31.988  1.00  0.00    -0.206 F 
ATOM     74  C   UNL A   1      36.843  29.436  31.029  1.00  0.00     0.022 A 
BRANCH  71  75
ATOM     75  S   UNL A   1      36.023  30.995  28.866  1.00  0.00     0.124 S 
ATOM     76  O   UNL A   1      36.952  31.875  28.162  1.00  0.00    -0.237 OA
ATOM     77  O   UNL A   1      35.264  30.068  28.036  1.00  0.00    -0.237 OA
ATOM     78  O   UNL A   1      35.265  31.634  29.941  1.00  0.00    -0.744 OA
ENDBRANCH  71  75
ENDBRANCH  54  68
BRANCH  55  79
ATOM     79  C   UNL A   1      48.403  27.285  25.809  1.00  0.00     0.023 A 
ATOM     80  C   UNL A   1      48.588  27.555  24.444  1.00  0.00     0.031 A 
ATOM     81  C   UNL A   1      49.492  26.767  26.533  1.00  0.00     0.131 A 
ATOM     82  C   UNL A   1      49.820  27.267  23.835  1.00  0.00     0.055 A 
ATOM     83  C   UNL A   1      50.731  26.532  25.934  1.00  0.00     0.041 A 
ATOM     84  F   UNL A   1      49.370  26.497  27.843  1.00  0.00    -0.206 F 
ATOM     85  C   UNL A   1      50.896  26.770  24.574  1.00  0.00     0.022 A 
BRANCH  82  86
ATOM     86  S   UNL A   1      49.972  27.483  22.041  1.00  0.00     0.124 S 
ATOM     87  O   UNL A   1      49.357  26.257  21.541  1.00  0.00    -0.237 OA
ATOM     88  O   UNL A   1      49.222  28.714  21.819  1.00  0.00    -0.237 OA
ATOM     89  O   UNL A   1      51.415  27.588  21.832  1.00  0.00    -0.744 OA
ENDBRANCH  82  86
ENDBRANCH  55  79
BRANCH  67  90
ATOM     90  C   UNL A   1      45.470  32.816  28.881  1.00  0.00     0.023 A 
ATOM     91  C   UNL A   1      45.208  33.909  28.037  1.00  0.00     0.031 A 
ATOM     92  C   UNL A   1      46.255  33.038  30.027  1.00  0.00     0.131 A 
ATOM     93  C   UNL A   1      45.771  35.162  28.321  1.00  0.00     0.055 A 
ATOM     94  C   UNL A   1      46.761  34.300  30.337  1.00  0.00     0.041 A 
ATOM     95  F   UNL A   1      46.538  32.029  30.866  1.00  0.00    -0.206 F 
ATOM     96  C   UNL A   1      46.532  35.368  29.475  1.00  0.00     0.022 A 
BRANCH  93  97
ATOM     97  S   UNL A   1      45.575  36.500  27.112  1.00  0.00     0.124 S 
ATOM     98  O   UNL A   1      46.121  37.644  27.834  1.00  0.00    -0.237 OA
ATOM     99  O   UNL A   1      46.366  36.020  25.983  1.00  0.00    -0.237 OA
ATOM    100  O   UNL A   1      44.132  36.544  26.882  1.00  0.00    -0.744 OA
ENDBRANCH  93  97
ENDBRANCH  67  90
ENDBRANCH  41  42
ENDBRANCH  33  36
ENDBRANCH  31  32
ENDBRANCH  30  31
ENDBRANCH  29  30
ENDBRANCH  28  29
ENDBRANCH   1  28
TORSDOF 21
ENDMDL
MODEL 2
REMARK VINA RESULT:     -11.4      1.718      2.235
REMARK SMILES CCCc1nn2c(=O)cc(CSc3ccccc3C(=O)NCCCCCCNC(=O)c3ccc(-c4c5nc(c(-c6cc(S(=O)(=O)[O-])ccc6F)c6ccc([nH]6)c(-c6cc(S(=O)(=O)[O-])ccc6F)c6nc(c(-c7cc(S(=O)(=O)[O-])ccc7F)c7ccc4[nH]7)C=C6)C=C5)cc3)nc2s1
REMARK SMILES IDX 23 1 22 2 21 3 19 4 20 5 18 7 13 8 14 9 15 10 17 11 16 12
REMARK SMILES IDX 12 13 11 14 10 15 4 16 5 17 96 18 6 19 95 20 7 21 94 22 8 23
REMARK SMILES IDX 9 24 3 25 2 26 1 27 24 28 25 29 26 30 27 31 28 32 29 33
REMARK SMILES IDX 30 35 31 36 32 37 93 38 33 39 92 40 34 41 35 42 36 43 86 44
REMARK SMILES IDX 37 45 91 46 85 47 87 48 38 49 90 50 84 51 83 52 39 54 71 55
REMARK SMILES IDX 51 56 70 57 52 58 55 59 69 60 88 61 53 62 54 63 68 65 89 66
REMARK SMILES IDX 56 67 40 68 41 69 49 70 42 71 48 72 50 73 47 74 43 75 44 76
REMARK SMILES IDX 45 77 46 78 72 79 73 80 81 81 74 82 80 83 82 84 79 85 75 86
REMARK SMILES IDX 76 87 77 88 78 89 57 90 58 91 66 92 59 93 65 94 67 95 64 96
REMARK SMILES IDX 60 97 61 98 62 99 63 100
REMARK H PARENT 21 6 28 34 87 53 55 64
REMARK Flexibility Score: inf
ROOT
ATOM      1  C   UNL A   1      35.888  23.225  25.820  1.00  0.00     0.021 C 
ENDROOT
BRANCH   1   2
ATOM      2  C   UNL A   1      35.180  24.454  25.228  1.00  0.00     0.116 C 
BRANCH   2   3
ATOM      3  N   UNL A   1      34.670  24.152  23.907  1.00  0.00    -0.352 N 
ATOM      4  C   UNL A   1      33.837  24.707  22.984  1.00  0.00     0.252 C 
ATOM      5  O   UNL A   1      33.672  23.966  22.001  1.00  0.00    -0.269 OA
ATOM      6  H   UNL A   1      35.029  23.295  23.582  1.00  0.00     0.163 HD
BRANCH   4   7
ATOM      7  C   UNL A   1      33.138  26.043  22.958  1.00  0.00     0.053 A 
ATOM      8  C   UNL A   1      31.789  26.411  23.122  1.00  0.00     0.020 A 
ATOM      9  C   UNL A   1      31.429  27.782  23.024  1.00  0.00     0.016 A 
ATOM     10  C   UNL A   1      32.346  28.780  22.709  1.00  0.00     0.001 A 
ATOM     11  C   UNL A   1      34.050  27.101  22.665  1.00  0.00     0.015 A 
ATOM     12  C   UNL A   1      33.668  28.437  22.529  1.00  0.00     0.001 A 
BRANCH   8  13
ATOM     13  S   UNL A   1      30.417  25.363  23.548  1.00  0.00    -0.119 SA
BRANCH  13  14
ATOM     14  C   UNL A   1      30.507  25.276  25.384  1.00  0.00     0.131 C 
BRANCH  14  15
ATOM     15  C   UNL A   1      31.076  23.933  25.772  1.00  0.00     0.060 A 
ATOM     16  C   UNL A   1      33.449  20.142  24.964  1.00  0.00     0.117 A 
ATOM     17  N   UNL A   1      33.516  20.735  26.116  1.00  0.00    -0.156 NA
ATOM     18  S   UNL A   1      32.347  20.811  23.787  1.00  0.00    -0.079 S 
ATOM     19  N   UNL A   1      32.631  21.779  26.128  1.00  0.00    -0.167 N 
ATOM     20  C   UNL A   1      31.953  22.015  24.965  1.00  0.00     0.215 A 
ATOM     21  C   UNL A   1      32.436  22.557  27.249  1.00  0.00     0.275 A 
ATOM     22  N   UNL A   1      31.160  23.008  24.750  1.00  0.00    -0.223 NA
ATOM     23  O   UNL A   1      32.940  22.402  28.353  1.00  0.00    -0.267 OA
ATOM     24  C   UNL A   1      31.577  23.738  27.003  1.00  0.00     0.098 A 
BRANCH  16  25
ATOM     25  C   UNL A   1      34.283  18.958  24.577  1.00  0.00     0.069 C 
BRANCH  25  26
ATOM     26  C   UNL A   1      33.440  17.753  24.165  1.00  0.00     0.004 C 
ATOM     27  C   UNL A   1      34.108  16.905  23.090  1.00  0.00     0.004 C 
ENDBRANCH  25  26
ENDBRANCH  16  25
ENDBRANCH  14  15
ENDBRANCH  13  14
ENDBRANCH   8  13
ENDBRANCH   4   7
ENDBRANCH   2   3
ENDBRANCH   1   2
BRANCH   1  28
ATOM     28  C   UNL A   1      37.124  22.799  25.029  1.00  0.00     0.002 C 
BRANCH  28  29
ATOM     29  C   UNL A   1      36.931  21.496  24.246  1.00  0.00     0.002 C 
BRANCH  29  30
ATOM     30  C   UNL A   1      37.811  20.324  24.696  1.00  0.00     0.021 C 
BRANCH  30  31
ATOM     31  C   UNL A   1      38.619  20.579  25.967  1.00  0.00     0.116 C 
BRANCH  31  32
ATOM     32  N   UNL A   1      39.713  19.631  26.100  1.00  0.00    -0.352 N 
ATOM     33  C   UNL A   1      41.063  19.864  26.189  1.00  0.00     0.251 C 
ATOM     34  H   UNL A   1      39.448  18.683  26.132  1.00  0.00     0.163 HD
ATOM     35  O   UNL A   1      41.851  18.942  25.995  1.00  0.00    -0.269 OA
BRANCH  33  36
ATOM     36  C   UNL A   1      41.561  21.216  26.515  1.00  0.00     0.039 A 
ATOM     37  C   UNL A   1      41.880  22.095  25.477  1.00  0.00     0.014 A 
ATOM     38  C   UNL A   1      41.753  21.602  27.845  1.00  0.00     0.014 A 
ATOM     39  C   UNL A   1      42.347  23.378  25.774  1.00  0.00     0.010 A 
ATOM     40  C   UNL A   1      42.153  22.903  28.140  1.00  0.00     0.010 A 
ATOM     41  C   UNL A   1      42.463  23.800  27.108  1.00  0.00    -0.014 A 
BRANCH  41  42
ATOM     42  C   UNL A   1      42.928  25.170  27.447  1.00  0.00     0.031 A 
ATOM     43  C   UNL A   1      41.988  26.141  28.111  1.00  0.00     0.074 A 
ATOM     44  C   UNL A   1      44.170  25.559  27.098  1.00  0.00     0.049 A 
ATOM     45  N   UNL A   1      42.171  27.401  28.411  1.00  0.00    -0.248 NA
ATOM     46  C   UNL A   1      40.651  25.630  28.451  1.00  0.00     0.031 C 
ATOM     47  C   UNL A   1      45.156  24.718  26.416  1.00  0.00     0.029 A 
ATOM     48  N   UNL A   1      44.811  26.760  27.258  1.00  0.00    -0.354 N 
ATOM     49  C   UNL A   1      40.970  27.838  28.960  1.00  0.00     0.074 A 
ATOM     50  C   UNL A   1      40.049  26.724  28.891  1.00  0.00     0.031 C 
ATOM     51  C   UNL A   1      46.285  25.422  26.237  1.00  0.00     0.029 A 
ATOM     52  C   UNL A   1      46.090  26.776  26.748  1.00  0.00     0.049 A 
ATOM     53  H   UNL A   1      44.397  27.539  27.695  1.00  0.00     0.167 HD
ATOM     54  C   UNL A   1      40.672  29.051  29.491  1.00  0.00     0.034 A 
ATOM     55  C   UNL A   1      46.996  27.772  26.689  1.00  0.00     0.034 A 
ATOM     56  C   UNL A   1      41.610  30.145  29.562  1.00  0.00     0.049 A 
ATOM     57  C   UNL A   1      46.637  29.116  27.266  1.00  0.00     0.074 A 
ATOM     58  C   UNL A   1      41.439  31.394  30.131  1.00  0.00     0.029 A 
ATOM     59  N   UNL A   1      42.897  30.124  29.036  1.00  0.00    -0.354 N 
ATOM     60  N   UNL A   1      45.513  29.502  27.828  1.00  0.00    -0.248 NA
ATOM     61  C   UNL A   1      47.670  30.157  27.210  1.00  0.00     0.031 C 
ATOM     62  C   UNL A   1      42.592  32.150  29.890  1.00  0.00     0.029 A 
ATOM     63  C   UNL A   1      43.516  31.349  29.239  1.00  0.00     0.049 A 
ATOM     64  H   UNL A   1      43.309  29.352  28.586  1.00  0.00     0.167 HD
ATOM     65  C   UNL A   1      45.719  30.821  28.220  1.00  0.00     0.074 A 
ATOM     66  C   UNL A   1      47.076  31.159  27.841  1.00  0.00     0.031 C 
ATOM     67  C   UNL A   1      44.866  31.675  28.842  1.00  0.00     0.034 A 
BRANCH  54  68
ATOM     68  C   UNL A   1      39.265  29.256  30.006  1.00  0.00     0.023 A 
ATOM     69  C   UNL A   1      38.292  29.934  29.250  1.00  0.00     0.031 A 
ATOM     70  C   UNL A   1      38.901  28.802  31.286  1.00  0.00     0.131 A 
ATOM     71  C   UNL A   1      37.038  30.217  29.812  1.00  0.00     0.055 A 
ATOM     72  C   UNL A   1      37.620  29.008  31.805  1.00  0.00     0.041 A 
ATOM     73  F   UNL A   1      39.789  28.165  32.065  1.00  0.00    -0.206 F 
ATOM     74  C   UNL A   1      36.685  29.737  31.074  1.00  0.00     0.022 A 
BRANCH  71  75
ATOM     75  S   UNL A   1      35.935  31.360  28.934  1.00  0.00     0.124 S 
ATOM     76  O   UNL A   1      35.123  31.885  30.029  1.00  0.00    -0.237 OA
ATOM     77  O   UNL A   1      36.872  32.296  28.324  1.00  0.00    -0.237 OA
ATOM     78  O   UNL A   1      35.219  30.494  27.998  1.00  0.00    -0.744 OA
ENDBRANCH  71  75
ENDBRANCH  54  68
BRANCH  55  79
ATOM     79  C   UNL A   1      48.327  27.541  26.059  1.00  0.00     0.023 A 
ATOM     80  C   UNL A   1      48.494  27.635  24.669  1.00  0.00     0.031 A 
ATOM     81  C   UNL A   1      49.447  27.195  26.836  1.00  0.00     0.131 A 
ATOM     82  C   UNL A   1      49.740  27.345  24.093  1.00  0.00     0.055 A 
ATOM     83  C   UNL A   1      50.697  26.958  26.263  1.00  0.00     0.041 A 
ATOM     84  F   UNL A   1      49.343  27.097  28.172  1.00  0.00    -0.206 F 
ATOM     85  C   UNL A   1      50.846  27.020  24.881  1.00  0.00     0.022 A 
BRANCH  82  86
ATOM     86  S   UNL A   1      49.876  27.325  22.285  1.00  0.00     0.124 S 
ATOM     87  O   UNL A   1      51.264  26.918  22.095  1.00  0.00    -0.237 OA
ATOM     88  O   UNL A   1      48.863  26.343  21.915  1.00  0.00    -0.237 OA
ATOM     89  O   UNL A   1      49.572  28.704  21.906  1.00  0.00    -0.744 OA
ENDBRANCH  82  86
ENDBRANCH  55  79
BRANCH  67  90
ATOM     90  C   UNL A   1      45.400  33.045  29.187  1.00  0.00     0.023 A 
ATOM     91  C   UNL A   1      46.077  33.293  30.394  1.00  0.00     0.031 A 
ATOM     92  C   UNL A   1      45.214  34.119  28.299  1.00  0.00     0.131 A 
ATOM     93  C   UNL A   1      46.495  34.596  30.705  1.00  0.00     0.055 A 
ATOM     94  C   UNL A   1      45.686  35.400  28.587  1.00  0.00     0.041 A 
ATOM     95  F   UNL A   1      44.572  33.938  27.134  1.00  0.00    -0.206 F 
ATOM     96  C   UNL A   1      46.318  35.647  29.802  1.00  0.00     0.022 A 
BRANCH  93  97
ATOM     97  S   UNL A   1      47.189  34.918  32.349  1.00  0.00     0.124 S 
ATOM     98  O   UNL A   1      46.164  35.764  32.951  1.00  0.00    -0.237 OA
ATOM     99  O   UNL A   1      47.314  33.574  32.905  1.00  0.00    -0.237 OA
ATOM    100  O   UNL A   1      48.455  35.589  32.061  1.00  0.00    -0.744 OA
ENDBRANCH  93  97
ENDBRANCH  67  90
ENDBRANCH  41  42
ENDBRANCH  33  36
ENDBRANCH  31  32
ENDBRANCH  30  31
ENDBRANCH  29  30
ENDBRANCH  28  29
ENDBRANCH   1  28
TORSDOF 21
ENDMDL
MODEL 3
REMARK VINA RESULT:     -11.2      5.889      9.398
REMARK SMILES CCCc1nn2c(=O)cc(CSc3ccccc3C(=O)NCCCCCCNC(=O)c3ccc(-c4c5nc(c(-c6cc(S(=O)(=O)[O-])ccc6F)c6ccc([nH]6)c(-c6cc(S(=O)(=O)[O-])ccc6F)c6nc(c(-c7cc(S(=O)(=O)[O-])ccc7F)c7ccc4[nH]7)C=C6)C=C5)cc3)nc2s1
REMARK SMILES IDX 23 1 22 2 21 3 19 4 20 5 18 7 13 8 14 9 15 10 17 11 16 12
REMARK SMILES IDX 12 13 11 14 10 15 4 16 5 17 96 18 6 19 95 20 7 21 94 22 8 23
REMARK SMILES IDX 9 24 3 25 2 26 1 27 24 28 25 29 26 30 27 31 28 32 29 33
REMARK SMILES IDX 30 35 31 36 32 37 93 38 33 39 92 40 34 41 35 42 36 43 86 44
REMARK SMILES IDX 37 45 91 46 85 47 87 48 38 49 90 50 84 51 83 52 39 54 71 55
REMARK SMILES IDX 51 56 70 57 52 58 55 59 69 60 88 61 53 62 54 63 68 65 89 66
REMARK SMILES IDX 56 67 40 68 41 69 49 70 42 71 48 72 50 73 47 74 43 75 44 76
REMARK SMILES IDX 45 77 46 78 72 79 73 80 81 81 74 82 80 83 82 84 79 85 75 86
REMARK SMILES IDX 76 87 77 88 78 89 57 90 58 91 66 92 59 93 65 94 67 95 64 96
REMARK SMILES IDX 60 97 61 98 62 99 63 100
REMARK H PARENT 21 6 28 34 87 53 55 64
REMARK Flexibility Score: inf
ROOT
ATOM      1  C   UNL A   1      34.761  29.406  27.593  1.00  0.00     0.021 C 
ENDROOT
BRANCH   1   2
ATOM      2  C   UNL A   1      34.257  28.580  26.400  1.00  0.00     0.116 C 
BRANCH   2   3
ATOM      3  N   UNL A   1      33.131  27.760  26.797  1.00  0.00    -0.352 N 
ATOM      4  C   UNL A   1      31.897  27.425  26.327  1.00  0.00     0.252 C 
ATOM      5  O   UNL A   1      31.271  26.713  27.130  1.00  0.00    -0.269 OA
ATOM      6  H   UNL A   1      33.309  27.316  27.656  1.00  0.00     0.163 HD
BRANCH   4   7
ATOM      7  C   UNL A   1      31.213  27.749  25.022  1.00  0.00     0.053 A 
ATOM      8  C   UNL A   1      30.787  26.942  23.949  1.00  0.00     0.020 A 
ATOM      9  C   UNL A   1      30.178  27.555  22.823  1.00  0.00     0.016 A 
ATOM     10  C   UNL A   1      30.036  28.934  22.701  1.00  0.00     0.001 A 
ATOM     11  C   UNL A   1      31.025  29.154  24.869  1.00  0.00     0.015 A 
ATOM     12  C   UNL A   1      30.462  29.741  23.734  1.00  0.00     0.001 A 
BRANCH   8  13
ATOM     13  S   UNL A   1      30.821  25.168  23.839  1.00  0.00    -0.119 SA
BRANCH  13  14
ATOM     14  C   UNL A   1      32.011  24.852  22.471  1.00  0.00     0.131 C 
BRANCH  14  15
ATOM     15  C   UNL A   1      32.845  23.646  22.830  1.00  0.00     0.060 A 
ATOM     16  C   UNL A   1      36.536  21.630  24.551  1.00  0.00     0.117 A 
ATOM     17  N   UNL A   1      35.355  21.128  24.742  1.00  0.00    -0.156 NA
ATOM     18  S   UNL A   1      36.645  23.048  23.539  1.00  0.00    -0.079 S 
ATOM     19  N   UNL A   1      34.443  21.863  24.035  1.00  0.00    -0.167 N 
ATOM     20  C   UNL A   1      34.926  22.956  23.371  1.00  0.00     0.215 A 
ATOM     21  C   UNL A   1      33.107  21.525  23.995  1.00  0.00     0.275 A 
ATOM     22  N   UNL A   1      34.212  23.823  22.740  1.00  0.00    -0.223 NA
ATOM     23  O   UNL A   1      32.578  20.544  24.497  1.00  0.00    -0.267 OA
ATOM     24  C   UNL A   1      32.264  22.543  23.327  1.00  0.00     0.098 A 
BRANCH  16  25
ATOM     25  C   UNL A   1      37.789  21.096  25.177  1.00  0.00     0.069 C 
BRANCH  25  26
ATOM     26  C   UNL A   1      38.537  22.150  25.991  1.00  0.00     0.004 C 
ATOM     27  C   UNL A   1      40.001  21.795  26.216  1.00  0.00     0.004 C 
ENDBRANCH  25  26
ENDBRANCH  16  25
ENDBRANCH  14  15
ENDBRANCH  13  14
ENDBRANCH   8  13
ENDBRANCH   4   7
ENDBRANCH   2   3
ENDBRANCH   1   2
BRANCH   1  28
ATOM     28  C   UNL A   1      34.230  30.838  27.607  1.00  0.00     0.002 C 
BRANCH  28  29
ATOM     29  C   UNL A   1      32.713  30.932  27.412  1.00  0.00     0.002 C 
BRANCH  29  30
ATOM     30  C   UNL A   1      32.164  32.351  27.221  1.00  0.00     0.021 C 
BRANCH  30  31
ATOM     31  C   UNL A   1      33.225  33.448  27.162  1.00  0.00     0.116 C 
BRANCH  31  32
ATOM     32  N   UNL A   1      32.900  34.549  28.054  1.00  0.00    -0.352 N 
ATOM     33  C   UNL A   1      33.295  34.767  29.350  1.00  0.00     0.251 C 
ATOM     34  H   UNL A   1      32.311  35.240  27.673  1.00  0.00     0.163 HD
ATOM     35  O   UNL A   1      32.689  35.583  30.039  1.00  0.00    -0.269 OA
BRANCH  33  36
ATOM     36  C   UNL A   1      34.442  34.022  29.910  1.00  0.00     0.039 A 
ATOM     37  C   UNL A   1      35.734  34.342  29.487  1.00  0.00     0.014 A 
ATOM     38  C   UNL A   1      34.239  32.979  30.819  1.00  0.00     0.014 A 
ATOM     39  C   UNL A   1      36.828  33.648  30.014  1.00  0.00     0.010 A 
ATOM     40  C   UNL A   1      35.332  32.336  31.392  1.00  0.00     0.010 A 
ATOM     41  C   UNL A   1      36.636  32.656  30.989  1.00  0.00    -0.014 A 
BRANCH  41  42
ATOM     42  C   UNL A   1      37.785  31.927  31.585  1.00  0.00     0.031 A 
ATOM     43  C   UNL A   1      38.311  32.328  32.936  1.00  0.00     0.074 A 
ATOM     44  C   UNL A   1      38.393  30.951  30.882  1.00  0.00     0.049 A 
ATOM     45  N   UNL A   1      39.350  31.876  33.590  1.00  0.00    -0.248 NA
ATOM     46  C   UNL A   1      37.587  33.405  33.628  1.00  0.00     0.031 C 
ATOM     47  C   UNL A   1      37.996  30.502  29.546  1.00  0.00     0.029 A 
ATOM     48  N   UNL A   1      39.477  30.169  31.186  1.00  0.00    -0.354 N 
ATOM     49  C   UNL A   1      39.416  32.624  34.761  1.00  0.00     0.074 A 
ATOM     50  C   UNL A   1      38.348  33.599  34.695  1.00  0.00     0.031 C 
ATOM     51  C   UNL A   1      38.810  29.509  29.156  1.00  0.00     0.029 A 
ATOM     52  C   UNL A   1      39.815  29.281  30.190  1.00  0.00     0.049 A 
ATOM     53  H   UNL A   1      39.969  30.237  32.036  1.00  0.00     0.167 HD
ATOM     54  C   UNL A   1      40.274  32.494  35.804  1.00  0.00     0.034 A 
ATOM     55  C   UNL A   1      40.826  28.393  30.115  1.00  0.00     0.034 A 
ATOM     56  C   UNL A   1      41.325  31.506  35.856  1.00  0.00     0.049 A 
ATOM     57  C   UNL A   1      41.780  28.279  31.276  1.00  0.00     0.074 A 
ATOM     58  C   UNL A   1      42.213  31.242  36.884  1.00  0.00     0.029 A 
ATOM     59  N   UNL A   1      41.636  30.622  34.830  1.00  0.00    -0.354 N 
ATOM     60  N   UNL A   1      41.800  28.959  32.400  1.00  0.00    -0.248 NA
ATOM     61  C   UNL A   1      42.842  27.272  31.162  1.00  0.00     0.031 C 
ATOM     62  C   UNL A   1      43.102  30.251  36.455  1.00  0.00     0.029 A 
ATOM     63  C   UNL A   1      42.723  29.837  35.188  1.00  0.00     0.049 A 
ATOM     64  H   UNL A   1      41.155  30.561  33.973  1.00  0.00     0.167 HD
ATOM     65  C   UNL A   1      42.858  28.438  33.139  1.00  0.00     0.074 A 
ATOM     66  C   UNL A   1      43.442  27.381  32.338  1.00  0.00     0.031 C 
ATOM     67  C   UNL A   1      43.304  28.796  34.371  1.00  0.00     0.034 A 
BRANCH  54  68
ATOM     68  C   UNL A   1      40.124  33.466  36.952  1.00  0.00     0.023 A 
ATOM     69  C   UNL A   1      40.946  34.600  37.074  1.00  0.00     0.031 A 
ATOM     70  C   UNL A   1      39.172  33.236  37.961  1.00  0.00     0.131 A 
ATOM     71  C   UNL A   1      40.863  35.408  38.218  1.00  0.00     0.055 A 
ATOM     72  C   UNL A   1      39.033  34.096  39.054  1.00  0.00     0.041 A 
ATOM     73  F   UNL A   1      38.370  32.161  37.914  1.00  0.00    -0.206 F 
ATOM     74  C   UNL A   1      39.895  35.180  39.198  1.00  0.00     0.022 A 
BRANCH  71  75
ATOM     75  S   UNL A   1      42.146  36.664  38.485  1.00  0.00     0.124 S 
ATOM     76  O   UNL A   1      43.151  35.906  39.225  1.00  0.00    -0.237 OA
ATOM     77  O   UNL A   1      42.503  37.043  37.123  1.00  0.00    -0.237 OA
ATOM     78  O   UNL A   1      41.459  37.696  39.260  1.00  0.00    -0.744 OA
ENDBRANCH  71  75
ENDBRANCH  54  68
BRANCH  55  79
ATOM     79  C   UNL A   1      40.993  27.543  28.903  1.00  0.00     0.023 A 
ATOM     80  C   UNL A   1      41.992  27.824  27.957  1.00  0.00     0.031 A 
ATOM     81  C   UNL A   1      40.138  26.454  28.655  1.00  0.00     0.131 A 
ATOM     82  C   UNL A   1      42.085  27.053  26.788  1.00  0.00     0.055 A 
ATOM     83  C   UNL A   1      40.268  25.658  27.516  1.00  0.00     0.041 A 
ATOM     84  F   UNL A   1      39.169  26.139  29.531  1.00  0.00    -0.206 F 
ATOM     85  C   UNL A   1      41.239  25.964  26.568  1.00  0.00     0.022 A 
BRANCH  82  86
ATOM     86  S   UNL A   1      43.285  27.543  25.520  1.00  0.00     0.124 S 
ATOM     87  O   UNL A   1      44.102  26.339  25.404  1.00  0.00    -0.237 OA
ATOM     88  O   UNL A   1      42.421  27.844  24.385  1.00  0.00    -0.237 OA
ATOM     89  O   UNL A   1      43.956  28.698  26.114  1.00  0.00    -0.744 OA
ENDBRANCH  82  86
ENDBRANCH  55  79
BRANCH  67  90
ATOM     90  C   UNL A   1      44.455  28.003  34.939  1.00  0.00     0.023 A 
ATOM     91  C   UNL A   1      44.273  26.722  35.488  1.00  0.00     0.031 A 
ATOM     92  C   UNL A   1      45.753  28.546  34.943  1.00  0.00     0.131 A 
ATOM     93  C   UNL A   1      45.359  26.049  36.069  1.00  0.00     0.055 A 
ATOM     94  C   UNL A   1      46.840  27.846  35.465  1.00  0.00     0.041 A 
ATOM     95  F   UNL A   1      45.983  29.767  34.433  1.00  0.00    -0.206 F 
ATOM     96  C   UNL A   1      46.645  26.597  36.045  1.00  0.00     0.022 A 
BRANCH  93  97
ATOM     97  S   UNL A   1      45.052  24.488  36.939  1.00  0.00     0.124 S 
ATOM     98  O   UNL A   1      46.291  23.756  36.694  1.00  0.00    -0.237 OA
ATOM     99  O   UNL A   1      44.835  24.933  38.312  1.00  0.00    -0.237 OA
ATOM    100  O   UNL A   1      43.871  23.949  36.269  1.00  0.00    -0.744 OA
ENDBRANCH  93  97
ENDBRANCH  67  90
ENDBRANCH  41  42
ENDBRANCH  33  36
ENDBRANCH  31  32
ENDBRANCH  30  31
ENDBRANCH  29  30
ENDBRANCH  28  29
ENDBRANCH   1  28
TORSDOF 21
ENDMDL
