MODEL 1
REMARK VINA RESULT:     -12.1      0.000      0.000
REMARK SMILES CCn1c(N2CCC(C(=O)NCCCCCCNC(=O)c3ccc(-c4c5nc(c(-c6cc(S(=O)(=O)[O-])ccc6F)c6ccc([nH]6)c(-c6cc(S(=O)(=O)[O-])ccc6F)c6nc(c(-c7cc(S(=O)(=O)[O-])ccc7F)c7ccc4[nH]7)C=C6)C=C5)cc3)CC2)nc2cc(C)ccc21
REMARK SMILES IDX 15 1 14 2 13 3 12 4 11 5 9 6 10 7 8 9 5 10 6 11 85 12 7 13
REMARK SMILES IDX 84 14 4 15 3 16 93 17 86 18 87 19 92 20 88 21 91 22 89 23
REMARK SMILES IDX 90 24 2 25 1 26 16 27 17 28 18 29 19 30 20 32 21 33 22 34
REMARK SMILES IDX 83 35 23 36 82 37 24 38 25 39 26 40 76 41 27 42 81 43 75 44
REMARK SMILES IDX 77 45 28 46 80 47 74 48 73 49 29 51 61 52 41 53 60 54 42 55
REMARK SMILES IDX 45 56 59 57 78 58 43 59 44 60 58 62 79 63 46 64 30 65 31 66
REMARK SMILES IDX 39 67 32 68 38 69 40 70 37 71 33 72 34 73 35 74 36 75 62 76
REMARK SMILES IDX 63 77 71 78 64 79 70 80 72 81 69 82 65 83 66 84 67 85 68 86
REMARK SMILES IDX 47 87 48 88 56 89 49 90 55 91 57 92 54 93 50 94 51 95 52 96
REMARK SMILES IDX 53 97
REMARK H PARENT 11 8 18 31 77 50 45 61
REMARK Flexibility Score: inf
ROOT
ATOM      1  C   UNL A   1      38.145  22.724  25.799  1.00  0.00     0.002 C 
ENDROOT
BRANCH   1   2
ATOM      2  C   UNL A   1      36.805  22.646  25.058  1.00  0.00     0.002 C 
BRANCH   2   3
ATOM      3  C   UNL A   1      36.445  21.251  24.543  1.00  0.00     0.021 C 
BRANCH   3   4
ATOM      4  C   UNL A   1      35.122  20.735  25.090  1.00  0.00     0.116 C 
BRANCH   4   5
ATOM      5  N   UNL A   1      34.898  21.228  26.440  1.00  0.00    -0.356 N 
ATOM      6  C   UNL A   1      33.919  22.034  26.929  1.00  0.00     0.223 C 
ATOM      7  O   UNL A   1      33.986  22.393  28.107  1.00  0.00    -0.275 OA
ATOM      8  H   UNL A   1      35.560  20.929  27.105  1.00  0.00     0.163 HD
BRANCH   6   9
ATOM      9  C   UNL A   1      32.755  22.467  26.057  1.00  0.00     0.082 C 
ATOM     10  N   UNL A   1      31.163  24.479  24.796  1.00  0.00    -0.342 N 
ATOM     11  C   UNL A   1      30.607  23.853  25.987  1.00  0.00     0.120 C 
ATOM     12  C   UNL A   1      32.116  23.744  23.983  1.00  0.00     0.120 C 
ATOM     13  C   UNL A   1      31.671  23.198  26.857  1.00  0.00     0.035 C 
ATOM     14  C   UNL A   1      33.262  23.215  24.820  1.00  0.00     0.035 C 
BRANCH  10  15
ATOM     15  C   UNL A   1      30.723  25.708  24.428  1.00  0.00     0.206 A 
ATOM     16  N   UNL A   1      31.436  26.871  24.632  1.00  0.00    -0.310 N 
ATOM     17  C   UNL A   1      30.668  27.923  24.152  1.00  0.00     0.070 A 
ATOM     18  N   UNL A   1      29.600  25.957  23.785  1.00  0.00    -0.213 NA
ATOM     19  C   UNL A   1      29.525  27.323  23.648  1.00  0.00     0.091 A 
ATOM     20  C   UNL A   1      30.877  29.308  24.120  1.00  0.00     0.029 A 
ATOM     21  C   UNL A   1      28.514  28.138  23.101  1.00  0.00     0.034 A 
ATOM     22  C   UNL A   1      29.868  30.102  23.569  1.00  0.00     0.006 A 
ATOM     23  C   UNL A   1      28.690  29.537  23.068  1.00  0.00    -0.049 A 
ATOM     24  C   UNL A   1      27.608  30.426  22.523  1.00  0.00     0.044 C 
BRANCH  16  25
ATOM     25  C   UNL A   1      32.747  27.125  25.196  1.00  0.00     0.122 C 
ATOM     26  C   UNL A   1      32.931  27.498  26.654  1.00  0.00     0.028 C 
ENDBRANCH  16  25
ENDBRANCH  10  15
ENDBRANCH   6   9
ENDBRANCH   4   5
ENDBRANCH   3   4
ENDBRANCH   2   3
ENDBRANCH   1   2
BRANCH   1  27
ATOM     27  C   UNL A   1      38.940  21.412  25.843  1.00  0.00     0.021 C 
BRANCH  27  28
ATOM     28  C   UNL A   1      40.204  21.479  26.702  1.00  0.00     0.116 C 
BRANCH  28  29
ATOM     29  N   UNL A   1      41.370  21.916  25.964  1.00  0.00    -0.352 N 
ATOM     30  C   UNL A   1      42.105  23.064  25.918  1.00  0.00     0.251 C 
ATOM     31  H   UNL A   1      41.710  21.224  25.352  1.00  0.00     0.163 HD
ATOM     32  O   UNL A   1      43.087  23.038  25.171  1.00  0.00    -0.269 OA
BRANCH  30  33
ATOM     33  C   UNL A   1      41.772  24.323  26.635  1.00  0.00     0.039 A 
ATOM     34  C   UNL A   1      40.815  25.259  26.244  1.00  0.00     0.014 A 
ATOM     35  C   UNL A   1      42.547  24.592  27.781  1.00  0.00     0.014 A 
ATOM     36  C   UNL A   1      40.713  26.477  26.904  1.00  0.00     0.010 A 
ATOM     37  C   UNL A   1      42.429  25.795  28.461  1.00  0.00     0.010 A 
ATOM     38  C   UNL A   1      41.552  26.761  27.982  1.00  0.00    -0.014 A 
BRANCH  38  39
ATOM     39  C   UNL A   1      41.399  28.053  28.641  1.00  0.00     0.031 A 
ATOM     40  C   UNL A   1      42.350  29.092  28.162  1.00  0.00     0.074 A 
ATOM     41  C   UNL A   1      40.417  28.316  29.527  1.00  0.00     0.049 A 
ATOM     42  N   UNL A   1      43.316  29.657  28.811  1.00  0.00    -0.248 NA
ATOM     43  C   UNL A   1      42.324  29.419  26.728  1.00  0.00     0.031 C 
ATOM     44  C   UNL A   1      39.254  27.476  29.836  1.00  0.00     0.029 A 
ATOM     45  N   UNL A   1      40.185  29.441  30.264  1.00  0.00    -0.354 N 
ATOM     46  C   UNL A   1      43.870  30.584  27.927  1.00  0.00     0.074 A 
ATOM     47  C   UNL A   1      43.360  30.251  26.624  1.00  0.00     0.031 C 
ATOM     48  C   UNL A   1      38.329  28.214  30.488  1.00  0.00     0.029 A 
ATOM     49  C   UNL A   1      38.904  29.514  30.792  1.00  0.00     0.049 A 
ATOM     50  H   UNL A   1      40.865  30.137  30.407  1.00  0.00     0.167 HD
ATOM     51  C   UNL A   1      44.475  31.720  28.380  1.00  0.00     0.034 A 
ATOM     52  C   UNL A   1      38.329  30.584  31.389  1.00  0.00     0.034 A 
ATOM     53  C   UNL A   1      44.753  31.627  29.786  1.00  0.00     0.049 A 
ATOM     54  C   UNL A   1      39.399  31.494  31.846  1.00  0.00     0.074 A 
ATOM     55  C   UNL A   1      45.691  31.015  30.585  1.00  0.00     0.029 A 
ATOM     56  N   UNL A   1      43.699  31.989  30.582  1.00  0.00    -0.354 N 
ATOM     57  N   UNL A   1      40.237  31.204  32.800  1.00  0.00    -0.248 NA
ATOM     58  C   UNL A   1      39.768  32.632  31.011  1.00  0.00     0.031 C 
ATOM     59  C   UNL A   1      45.072  30.851  31.858  1.00  0.00     0.029 A 
ATOM     60  C   UNL A   1      43.790  31.398  31.812  1.00  0.00     0.049 A 
ATOM     61  H   UNL A   1      42.973  32.594  30.306  1.00  0.00     0.167 HD
ATOM     62  C   UNL A   1      41.414  31.809  32.406  1.00  0.00     0.074 A 
ATOM     63  C   UNL A   1      41.022  32.818  31.430  1.00  0.00     0.031 C 
ATOM     64  C   UNL A   1      42.621  31.225  32.654  1.00  0.00     0.034 A 
BRANCH  51  65
ATOM     65  C   UNL A   1      44.365  33.072  27.695  1.00  0.00     0.023 A 
ATOM     66  C   UNL A   1      43.466  34.071  28.109  1.00  0.00     0.031 A 
ATOM     67  C   UNL A   1      45.355  33.490  26.778  1.00  0.00     0.131 A 
ATOM     68  C   UNL A   1      43.558  35.391  27.647  1.00  0.00     0.055 A 
ATOM     69  C   UNL A   1      45.487  34.823  26.362  1.00  0.00     0.041 A 
ATOM     70  F   UNL A   1      46.269  32.627  26.304  1.00  0.00    -0.206 F 
ATOM     71  C   UNL A   1      44.587  35.785  26.802  1.00  0.00     0.022 A 
BRANCH  68  72
ATOM     72  S   UNL A   1      42.333  36.621  28.177  1.00  0.00     0.124 S 
ATOM     73  O   UNL A   1      42.032  37.303  26.917  1.00  0.00    -0.237 OA
ATOM     74  O   UNL A   1      41.267  35.766  28.700  1.00  0.00    -0.237 OA
ATOM     75  O   UNL A   1      43.042  37.405  29.173  1.00  0.00    -0.744 OA
ENDBRANCH  68  72
ENDBRANCH  51  65
BRANCH  52  76
ATOM     76  C   UNL A   1      36.936  31.056  31.212  1.00  0.00     0.023 A 
ATOM     77  C   UNL A   1      36.449  31.281  29.912  1.00  0.00     0.031 A 
ATOM     78  C   UNL A   1      36.211  31.604  32.284  1.00  0.00     0.131 A 
ATOM     79  C   UNL A   1      35.321  32.087  29.709  1.00  0.00     0.055 A 
ATOM     80  C   UNL A   1      35.071  32.390  32.080  1.00  0.00     0.041 A 
ATOM     81  F   UNL A   1      36.640  31.449  33.546  1.00  0.00    -0.206 F 
ATOM     82  C   UNL A   1      34.632  32.651  30.784  1.00  0.00     0.022 A 
BRANCH  79  83
ATOM     83  S   UNL A   1      34.786  32.508  28.028  1.00  0.00     0.124 S 
ATOM     84  O   UNL A   1      34.596  31.190  27.427  1.00  0.00    -0.237 OA
ATOM     85  O   UNL A   1      33.563  33.261  28.289  1.00  0.00    -0.237 OA
ATOM     86  O   UNL A   1      35.906  33.275  27.495  1.00  0.00    -0.744 OA
ENDBRANCH  79  83
ENDBRANCH  52  76
BRANCH  64  87
ATOM     87  C   UNL A   1      42.712  30.193  33.743  1.00  0.00     0.023 A 
ATOM     88  C   UNL A   1      43.079  30.656  35.016  1.00  0.00     0.031 A 
ATOM     89  C   UNL A   1      42.642  28.803  33.545  1.00  0.00     0.131 A 
ATOM     90  C   UNL A   1      43.425  29.753  36.022  1.00  0.00     0.055 A 
ATOM     91  C   UNL A   1      42.913  27.901  34.578  1.00  0.00     0.041 A 
ATOM     92  F   UNL A   1      42.384  28.279  32.340  1.00  0.00    -0.206 F 
ATOM     93  C   UNL A   1      43.328  28.374  35.820  1.00  0.00     0.022 A 
BRANCH  90  94
ATOM     94  S   UNL A   1      44.166  30.352  37.562  1.00  0.00     0.124 S 
ATOM     95  O   UNL A   1      45.282  31.159  37.076  1.00  0.00    -0.237 OA
ATOM     96  O   UNL A   1      43.065  31.102  38.162  1.00  0.00    -0.237 OA
ATOM     97  O   UNL A   1      44.540  29.133  38.272  1.00  0.00    -0.744 OA
ENDBRANCH  90  94
ENDBRANCH  64  87
ENDBRANCH  38  39
ENDBRANCH  30  33
ENDBRANCH  28  29
ENDBRANCH  27  28
ENDBRANCH   1  27
TORSDOF 18
ENDMDL
MODEL 2
REMARK VINA RESULT:     -11.8      3.664      9.313
REMARK SMILES CCn1c(N2CCC(C(=O)NCCCCCCNC(=O)c3ccc(-c4c5nc(c(-c6cc(S(=O)(=O)[O-])ccc6F)c6ccc([nH]6)c(-c6cc(S(=O)(=O)[O-])ccc6F)c6nc(c(-c7cc(S(=O)(=O)[O-])ccc7F)c7ccc4[nH]7)C=C6)C=C5)cc3)CC2)nc2cc(C)ccc21
REMARK SMILES IDX 15 1 14 2 13 3 12 4 11 5 9 6 10 7 8 9 5 10 6 11 85 12 7 13
REMARK SMILES IDX 84 14 4 15 3 16 93 17 86 18 87 19 92 20 88 21 91 22 89 23
REMARK SMILES IDX 90 24 2 25 1 26 16 27 17 28 18 29 19 30 20 32 21 33 22 34
REMARK SMILES IDX 83 35 23 36 82 37 24 38 25 39 26 40 76 41 27 42 81 43 75 44
REMARK SMILES IDX 77 45 28 46 80 47 74 48 73 49 29 51 61 52 41 53 60 54 42 55
REMARK SMILES IDX 45 56 59 57 78 58 43 59 44 60 58 62 79 63 46 64 30 65 31 66
REMARK SMILES IDX 39 67 32 68 38 69 40 70 37 71 33 72 34 73 35 74 36 75 62 76
REMARK SMILES IDX 63 77 71 78 64 79 70 80 72 81 69 82 65 83 66 84 67 85 68 86
REMARK SMILES IDX 47 87 48 88 56 89 49 90 55 91 57 92 54 93 50 94 51 95 52 96
REMARK SMILES IDX 53 97
REMARK H PARENT 11 8 18 31 77 50 45 61
REMARK Flexibility Score: inf
ROOT
ATOM      1  C   UNL A   1      31.705  30.529  25.956  1.00  0.00     0.002 C 
ENDROOT
BRANCH   1   2
ATOM      2  C   UNL A   1      31.124  29.995  24.642  1.00  0.00     0.002 C 
BRANCH   2   3
ATOM      3  C   UNL A   1      31.807  28.734  24.111  1.00  0.00     0.021 C 
BRANCH   3   4
ATOM      4  C   UNL A   1      30.823  27.668  23.652  1.00  0.00     0.116 C 
BRANCH   4   5
ATOM      5  N   UNL A   1      30.136  27.080  24.791  1.00  0.00    -0.356 N 
ATOM      6  C   UNL A   1      30.409  25.948  25.493  1.00  0.00     0.223 C 
ATOM      7  O   UNL A   1      29.624  25.600  26.377  1.00  0.00    -0.275 OA
ATOM      8  H   UNL A   1      29.349  27.582  25.105  1.00  0.00     0.163 HD
BRANCH   6   9
ATOM      9  C   UNL A   1      31.662  25.139  25.214  1.00  0.00     0.082 C 
ATOM     10  N   UNL A   1      33.053  22.655  24.954  1.00  0.00    -0.342 N 
ATOM     11  C   UNL A   1      33.284  23.412  26.176  1.00  0.00     0.120 C 
ATOM     12  C   UNL A   1      32.663  23.357  23.744  1.00  0.00     0.120 C 
ATOM     13  C   UNL A   1      32.176  24.416  26.464  1.00  0.00     0.035 C 
ATOM     14  C   UNL A   1      31.461  24.247  23.985  1.00  0.00     0.035 C 
BRANCH  10  15
ATOM     15  C   UNL A   1      33.279  21.318  24.952  1.00  0.00     0.206 A 
ATOM     16  N   UNL A   1      34.527  20.751  24.797  1.00  0.00    -0.310 N 
ATOM     17  C   UNL A   1      34.368  19.372  24.823  1.00  0.00     0.070 A 
ATOM     18  N   UNL A   1      32.367  20.388  25.151  1.00  0.00    -0.213 NA
ATOM     19  C   UNL A   1      33.010  19.179  25.027  1.00  0.00     0.091 A 
ATOM     20  C   UNL A   1      35.275  18.313  24.690  1.00  0.00     0.029 A 
ATOM     21  C   UNL A   1      32.511  17.863  25.078  1.00  0.00     0.034 A 
ATOM     22  C   UNL A   1      34.765  17.014  24.749  1.00  0.00     0.006 A 
ATOM     23  C   UNL A   1      33.399  16.776  24.932  1.00  0.00    -0.049 A 
ATOM     24  C   UNL A   1      32.881  15.365  24.946  1.00  0.00     0.044 C 
BRANCH  16  25
ATOM     25  C   UNL A   1      35.849  21.328  24.649  1.00  0.00     0.122 C 
ATOM     26  C   UNL A   1      36.151  22.368  23.589  1.00  0.00     0.028 C 
ENDBRANCH  16  25
ENDBRANCH  10  15
ENDBRANCH   6   9
ENDBRANCH   4   5
ENDBRANCH   3   4
ENDBRANCH   2   3
ENDBRANCH   1   2
BRANCH   1  27
ATOM     27  C   UNL A   1      33.159  30.122  26.236  1.00  0.00     0.021 C 
BRANCH  27  28
ATOM     28  C   UNL A   1      33.579  30.282  27.698  1.00  0.00     0.116 C 
BRANCH  28  29
ATOM     29  N   UNL A   1      34.138  31.584  27.989  1.00  0.00    -0.352 N 
ATOM     30  C   UNL A   1      35.398  32.069  28.182  1.00  0.00     0.251 C 
ATOM     31  H   UNL A   1      33.448  32.282  28.068  1.00  0.00     0.163 HD
ATOM     32  O   UNL A   1      35.477  33.287  28.371  1.00  0.00    -0.269 OA
BRANCH  30  33
ATOM     33  C   UNL A   1      36.633  31.244  28.241  1.00  0.00     0.039 A 
ATOM     34  C   UNL A   1      36.776  29.948  27.743  1.00  0.00     0.014 A 
ATOM     35  C   UNL A   1      37.724  31.830  28.913  1.00  0.00     0.014 A 
ATOM     36  C   UNL A   1      37.926  29.217  28.008  1.00  0.00     0.010 A 
ATOM     37  C   UNL A   1      38.886  31.113  29.155  1.00  0.00     0.010 A 
ATOM     38  C   UNL A   1      38.960  29.785  28.753  1.00  0.00    -0.014 A 
BRANCH  38  39
ATOM     39  C   UNL A   1      40.148  28.974  28.997  1.00  0.00     0.031 A 
ATOM     40  C   UNL A   1      40.451  28.766  30.439  1.00  0.00     0.074 A 
ATOM     41  C   UNL A   1      40.847  28.376  28.012  1.00  0.00     0.049 A 
ATOM     42  N   UNL A   1      41.461  29.204  31.118  1.00  0.00    -0.248 NA
ATOM     43  C   UNL A   1      39.410  28.130  31.262  1.00  0.00     0.031 C 
ATOM     44  C   UNL A   1      40.464  28.258  26.600  1.00  0.00     0.029 A 
ATOM     45  N   UNL A   1      41.999  27.649  28.077  1.00  0.00    -0.354 N 
ATOM     46  C   UNL A   1      41.296  28.696  32.408  1.00  0.00     0.074 A 
ATOM     47  C   UNL A   1      39.938  28.226  32.482  1.00  0.00     0.031 C 
ATOM     48  C   UNL A   1      41.221  27.307  26.009  1.00  0.00     0.029 A 
ATOM     49  C   UNL A   1      42.246  26.882  26.947  1.00  0.00     0.049 A 
ATOM     50  H   UNL A   1      42.600  27.666  28.856  1.00  0.00     0.167 HD
ATOM     51  C   UNL A   1      42.368  28.446  33.213  1.00  0.00     0.034 A 
ATOM     52  C   UNL A   1      43.192  25.923  26.803  1.00  0.00     0.034 A 
ATOM     53  C   UNL A   1      43.550  29.082  32.705  1.00  0.00     0.049 A 
ATOM     54  C   UNL A   1      44.236  26.141  27.825  1.00  0.00     0.074 A 
ATOM     55  C   UNL A   1      44.078  30.352  32.689  1.00  0.00     0.029 A 
ATOM     56  N   UNL A   1      44.212  28.343  31.760  1.00  0.00    -0.354 N 
ATOM     57  N   UNL A   1      45.040  27.166  27.830  1.00  0.00    -0.248 NA
ATOM     58  C   UNL A   1      44.186  25.377  29.067  1.00  0.00     0.031 C 
ATOM     59  C   UNL A   1      44.950  30.399  31.563  1.00  0.00     0.029 A 
ATOM     60  C   UNL A   1      44.958  29.148  30.944  1.00  0.00     0.049 A 
ATOM     61  H   UNL A   1      44.158  27.364  31.679  1.00  0.00     0.167 HD
ATOM     62  C   UNL A   1      45.234  27.432  29.170  1.00  0.00     0.074 A 
ATOM     63  C   UNL A   1      44.861  26.207  29.866  1.00  0.00     0.031 C 
ATOM     64  C   UNL A   1      45.363  28.713  29.620  1.00  0.00     0.034 A 
BRANCH  51  65
ATOM     65  C   UNL A   1      42.465  27.254  34.150  1.00  0.00     0.023 A 
ATOM     66  C   UNL A   1      43.263  26.127  33.879  1.00  0.00     0.031 A 
ATOM     67  C   UNL A   1      41.969  27.341  35.470  1.00  0.00     0.131 A 
ATOM     68  C   UNL A   1      43.551  25.167  34.858  1.00  0.00     0.055 A 
ATOM     69  C   UNL A   1      42.307  26.415  36.468  1.00  0.00     0.041 A 
ATOM     70  F   UNL A   1      41.192  28.367  35.851  1.00  0.00    -0.206 F 
ATOM     71  C   UNL A   1      43.108  25.322  36.165  1.00  0.00     0.022 A 
BRANCH  68  72
ATOM     72  S   UNL A   1      44.541  23.708  34.430  1.00  0.00     0.124 S 
ATOM     73  O   UNL A   1      45.422  24.240  33.390  1.00  0.00    -0.237 OA
ATOM     74  O   UNL A   1      45.187  23.407  35.709  1.00  0.00    -0.237 OA
ATOM     75  O   UNL A   1      43.552  22.738  33.995  1.00  0.00    -0.744 OA
ENDBRANCH  68  72
ENDBRANCH  51  65
BRANCH  52  76
ATOM     76  C   UNL A   1      43.031  24.615  26.129  1.00  0.00     0.023 A 
ATOM     77  C   UNL A   1      41.953  23.786  26.489  1.00  0.00     0.031 A 
ATOM     78  C   UNL A   1      44.087  24.034  25.406  1.00  0.00     0.131 A 
ATOM     79  C   UNL A   1      41.983  22.417  26.192  1.00  0.00     0.055 A 
ATOM     80  C   UNL A   1      44.103  22.670  25.090  1.00  0.00     0.041 A 
ATOM     81  F   UNL A   1      45.158  24.765  25.059  1.00  0.00    -0.206 F 
ATOM     82  C   UNL A   1      43.056  21.851  25.502  1.00  0.00     0.022 A 
BRANCH  79  83
ATOM     83  S   UNL A   1      40.671  21.319  26.794  1.00  0.00     0.124 S 
ATOM     84  O   UNL A   1      39.471  21.946  26.245  1.00  0.00    -0.237 OA
ATOM     85  O   UNL A   1      41.049  20.048  26.186  1.00  0.00    -0.237 OA
ATOM     86  O   UNL A   1      40.799  21.396  28.245  1.00  0.00    -0.744 OA
ENDBRANCH  79  83
ENDBRANCH  52  76
BRANCH  64  87
ATOM     87  C   UNL A   1      45.765  29.783  28.644  1.00  0.00     0.023 A 
ATOM     88  C   UNL A   1      47.142  30.014  28.500  1.00  0.00     0.031 A 
ATOM     89  C   UNL A   1      44.879  30.677  28.018  1.00  0.00     0.131 A 
ATOM     90  C   UNL A   1      47.599  31.139  27.811  1.00  0.00     0.055 A 
ATOM     91  C   UNL A   1      45.342  31.758  27.262  1.00  0.00     0.041 A 
ATOM     92  F   UNL A   1      43.553  30.577  28.177  1.00  0.00    -0.206 F 
ATOM     93  C   UNL A   1      46.709  32.007  27.173  1.00  0.00     0.022 A 
BRANCH  90  94
ATOM     94  S   UNL A   1      49.352  31.586  27.870  1.00  0.00     0.124 S 
ATOM     95  O   UNL A   1      49.959  30.389  28.444  1.00  0.00    -0.237 OA
ATOM     96  O   UNL A   1      49.656  31.830  26.461  1.00  0.00    -0.237 OA
ATOM     97  O   UNL A   1      49.387  32.772  28.721  1.00  0.00    -0.744 OA
ENDBRANCH  90  94
ENDBRANCH  64  87
ENDBRANCH  38  39
ENDBRANCH  30  33
ENDBRANCH  28  29
ENDBRANCH  27  28
ENDBRANCH   1  27
TORSDOF 18
ENDMDL
MODEL 3
REMARK VINA RESULT:     -11.5      2.249      2.604
REMARK SMILES CCn1c(N2CCC(C(=O)NCCCCCCNC(=O)c3ccc(-c4c5nc(c(-c6cc(S(=O)(=O)[O-])ccc6F)c6ccc([nH]6)c(-c6cc(S(=O)(=O)[O-])ccc6F)c6nc(c(-c7cc(S(=O)(=O)[O-])ccc7F)c7ccc4[nH]7)C=C6)C=C5)cc3)CC2)nc2cc(C)ccc21
REMARK SMILES IDX 15 1 14 2 13 3 12 4 11 5 9 6 10 7 8 9 5 10 6 11 85 12 7 13
REMARK SMILES IDX 84 14 4 15 3 16 93 17 86 18 87 19 92 20 88 21 91 22 89 23
REMARK SMILES IDX 90 24 2 25 1 26 16 27 17 28 18 29 19 30 20 32 21 33 22 34
REMARK SMILES IDX 83 35 23 36 82 37 24 38 25 39 26 40 76 41 27 42 81 43 75 44
REMARK SMILES IDX 77 45 28 46 80 47 74 48 73 49 29 51 61 52 41 53 60 54 42 55
REMARK SMILES IDX 45 56 59 57 78 58 43 59 44 60 58 62 79 63 46 64 30 65 31 66
REMARK SMILES IDX 39 67 32 68 38 69 40 70 37 71 33 72 34 73 35 74 36 75 62 76
REMARK SMILES IDX 63 77 71 78 64 79 70 80 72 81 69 82 65 83 66 84 67 85 68 86
REMARK SMILES IDX 47 87 48 88 56 89 49 90 55 91 57 92 54 93 50 94 51 95 52 96
REMARK SMILES IDX 53 97
REMARK H PARENT 11 8 18 31 77 50 45 61
REMARK Flexibility Score: inf
ROOT
ATOM      1  C   UNL A   1      37.051  23.084  25.618  1.00  0.00     0.002 C 
ENDROOT
BRANCH   1   2
ATOM      2  C   UNL A   1      37.491  22.026  24.600  1.00  0.00     0.002 C 
BRANCH   2   3
ATOM      3  C   UNL A   1      36.664  20.739  24.625  1.00  0.00     0.021 C 
BRANCH   3   4
ATOM      4  C   UNL A   1      35.543  20.767  25.655  1.00  0.00     0.116 C 
BRANCH   4   5
ATOM      5  N   UNL A   1      34.256  20.541  25.019  1.00  0.00    -0.356 N 
ATOM      6  C   UNL A   1      33.222  21.394  24.801  1.00  0.00     0.223 C 
ATOM      7  O   UNL A   1      32.181  20.947  24.313  1.00  0.00    -0.275 OA
ATOM      8  H   UNL A   1      34.111  19.622  24.693  1.00  0.00     0.163 HD
BRANCH   6   9
ATOM      9  C   UNL A   1      33.346  22.871  25.126  1.00  0.00     0.082 C 
ATOM     10  N   UNL A   1      32.494  25.588  24.873  1.00  0.00    -0.342 N 
ATOM     11  C   UNL A   1      33.686  25.203  24.133  1.00  0.00     0.120 C 
ATOM     12  C   UNL A   1      32.138  24.864  26.081  1.00  0.00     0.120 C 
ATOM     13  C   UNL A   1      33.781  23.699  23.913  1.00  0.00     0.035 C 
ATOM     14  C   UNL A   1      32.081  23.372  25.832  1.00  0.00     0.035 C 
BRANCH  10  15
ATOM     15  C   UNL A   1      31.778  26.664  24.460  1.00  0.00     0.206 A 
ATOM     16  N   UNL A   1      31.840  27.904  25.062  1.00  0.00    -0.310 N 
ATOM     17  C   UNL A   1      30.962  28.741  24.387  1.00  0.00     0.070 A 
ATOM     18  N   UNL A   1      30.983  26.695  23.410  1.00  0.00    -0.213 NA
ATOM     19  C   UNL A   1      30.431  27.954  23.376  1.00  0.00     0.091 A 
ATOM     20  C   UNL A   1      30.602  30.082  24.576  1.00  0.00     0.029 A 
ATOM     21  C   UNL A   1      29.469  28.515  22.513  1.00  0.00     0.034 A 
ATOM     22  C   UNL A   1      29.652  30.625  23.708  1.00  0.00     0.006 A 
ATOM     23  C   UNL A   1      29.077  29.859  22.688  1.00  0.00    -0.049 A 
ATOM     24  C   UNL A   1      28.025  30.464  21.801  1.00  0.00     0.044 C 
BRANCH  16  25
ATOM     25  C   UNL A   1      32.625  28.412  26.169  1.00  0.00     0.122 C 
ATOM     26  C   UNL A   1      34.039  28.922  25.977  1.00  0.00     0.028 C 
ENDBRANCH  16  25
ENDBRANCH  10  15
ENDBRANCH   6   9
ENDBRANCH   4   5
ENDBRANCH   3   4
ENDBRANCH   2   3
ENDBRANCH   1   2
BRANCH   1  27
ATOM     27  C   UNL A   1      38.180  23.969  26.164  1.00  0.00     0.021 C 
BRANCH  27  28
ATOM     28  C   UNL A   1      39.209  23.215  27.007  1.00  0.00     0.116 C 
BRANCH  28  29
ATOM     29  N   UNL A   1      40.501  23.107  26.364  1.00  0.00    -0.352 N 
ATOM     30  C   UNL A   1      41.620  23.884  26.316  1.00  0.00     0.251 C 
ATOM     31  H   UNL A   1      40.592  22.280  25.838  1.00  0.00     0.163 HD
ATOM     32  O   UNL A   1      42.567  23.416  25.676  1.00  0.00    -0.269 OA
BRANCH  30  33
ATOM     33  C   UNL A   1      41.746  25.241  26.910  1.00  0.00     0.039 A 
ATOM     34  C   UNL A   1      42.364  25.549  28.122  1.00  0.00     0.014 A 
ATOM     35  C   UNL A   1      41.130  26.281  26.186  1.00  0.00     0.014 A 
ATOM     36  C   UNL A   1      42.270  26.829  28.653  1.00  0.00     0.010 A 
ATOM     37  C   UNL A   1      41.058  27.567  26.698  1.00  0.00     0.010 A 
ATOM     38  C   UNL A   1      41.577  27.824  27.961  1.00  0.00    -0.014 A 
BRANCH  38  39
ATOM     39  C   UNL A   1      41.514  29.151  28.562  1.00  0.00     0.031 A 
ATOM     40  C   UNL A   1      42.685  30.013  28.248  1.00  0.00     0.074 A 
ATOM     41  C   UNL A   1      40.444  29.599  29.250  1.00  0.00     0.049 A 
ATOM     42  N   UNL A   1      43.597  30.453  29.053  1.00  0.00    -0.248 NA
ATOM     43  C   UNL A   1      42.966  30.278  26.828  1.00  0.00     0.031 C 
ATOM     44  C   UNL A   1      39.128  28.958  29.354  1.00  0.00     0.029 A 
ATOM     45  N   UNL A   1      40.264  30.776  29.915  1.00  0.00    -0.354 N 
ATOM     46  C   UNL A   1      44.438  31.247  28.271  1.00  0.00     0.074 A 
ATOM     47  C   UNL A   1      44.122  30.938  26.902  1.00  0.00     0.031 C 
ATOM     48  C   UNL A   1      38.229  29.855  29.816  1.00  0.00     0.029 A 
ATOM     49  C   UNL A   1      38.937  31.065  30.200  1.00  0.00     0.049 A 
ATOM     50  H   UNL A   1      41.009  31.367  30.169  1.00  0.00     0.167 HD
ATOM     51  C   UNL A   1      45.124  32.296  28.809  1.00  0.00     0.034 A 
ATOM     52  C   UNL A   1      38.440  32.235  30.667  1.00  0.00     0.034 A 
ATOM     53  C   UNL A   1      45.130  32.223  30.243  1.00  0.00     0.049 A 
ATOM     54  C   UNL A   1      39.541  32.991  31.297  1.00  0.00     0.074 A 
ATOM     55  C   UNL A   1      45.803  31.511  31.209  1.00  0.00     0.029 A 
ATOM     56  N   UNL A   1      44.021  32.774  30.829  1.00  0.00    -0.354 N 
ATOM     57  N   UNL A   1      40.141  32.619  32.391  1.00  0.00    -0.248 NA
ATOM     58  C   UNL A   1      40.227  34.023  30.526  1.00  0.00     0.031 C 
ATOM     59  C   UNL A   1      44.951  31.498  32.350  1.00  0.00     0.029 A 
ATOM     60  C   UNL A   1      43.799  32.230  32.064  1.00  0.00     0.049 A 
ATOM     61  H   UNL A   1      43.459  33.470  30.416  1.00  0.00     0.167 HD
ATOM     62  C   UNL A   1      41.449  33.021  32.209  1.00  0.00     0.074 A 
ATOM     63  C   UNL A   1      41.400  34.034  31.163  1.00  0.00     0.031 C 
ATOM     64  C   UNL A   1      42.486  32.273  32.681  1.00  0.00     0.034 A 
BRANCH  51  65
ATOM     65  C   UNL A   1      45.350  33.618  28.095  1.00  0.00     0.023 A 
ATOM     66  C   UNL A   1      46.586  33.985  27.533  1.00  0.00     0.031 A 
ATOM     67  C   UNL A   1      44.252  34.426  27.724  1.00  0.00     0.131 A 
ATOM     68  C   UNL A   1      46.711  35.072  26.657  1.00  0.00     0.055 A 
ATOM     69  C   UNL A   1      44.363  35.475  26.800  1.00  0.00     0.041 A 
ATOM     70  F   UNL A   1      43.020  34.180  28.199  1.00  0.00    -0.206 F 
ATOM     71  C   UNL A   1      45.598  35.800  26.256  1.00  0.00     0.022 A 
BRANCH  68  72
ATOM     72  S   UNL A   1      48.344  35.528  26.009  1.00  0.00     0.124 S 
ATOM     73  O   UNL A   1      49.184  35.394  27.198  1.00  0.00    -0.237 OA
ATOM     74  O   UNL A   1      48.544  34.507  24.979  1.00  0.00    -0.237 OA
ATOM     75  O   UNL A   1      48.150  36.878  25.511  1.00  0.00    -0.744 OA
ENDBRANCH  68  72
ENDBRANCH  51  65
BRANCH  52  76
ATOM     76  C   UNL A   1      37.192  32.904  30.232  1.00  0.00     0.023 A 
ATOM     77  C   UNL A   1      36.395  33.556  31.190  1.00  0.00     0.031 A 
ATOM     78  C   UNL A   1      36.613  32.624  28.983  1.00  0.00     0.131 A 
ATOM     79  C   UNL A   1      35.051  33.842  30.916  1.00  0.00     0.055 A 
ATOM     80  C   UNL A   1      35.276  32.932  28.704  1.00  0.00     0.041 A 
ATOM     81  F   UNL A   1      37.311  31.977  28.037  1.00  0.00    -0.206 F 
ATOM     82  C   UNL A   1      34.483  33.526  29.681  1.00  0.00     0.022 A 
BRANCH  79  83
ATOM     83  S   UNL A   1      33.980  34.537  32.204  1.00  0.00     0.124 S 
ATOM     84  O   UNL A   1      33.653  33.357  33.001  1.00  0.00    -0.237 OA
ATOM     85  O   UNL A   1      34.874  35.496  32.844  1.00  0.00    -0.237 OA
ATOM     86  O   UNL A   1      32.866  35.105  31.454  1.00  0.00    -0.744 OA
ENDBRANCH  79  83
ENDBRANCH  52  76
BRANCH  64  87
ATOM     87  C   UNL A   1      42.220  31.287  33.784  1.00  0.00     0.023 A 
ATOM     88  C   UNL A   1      42.539  31.702  35.086  1.00  0.00     0.031 A 
ATOM     89  C   UNL A   1      41.858  29.942  33.594  1.00  0.00     0.131 A 
ATOM     90  C   UNL A   1      42.558  30.781  36.136  1.00  0.00     0.055 A 
ATOM     91  C   UNL A   1      41.802  29.040  34.661  1.00  0.00     0.041 A 
ATOM     92  F   UNL A   1      41.623  29.446  32.372  1.00  0.00    -0.206 F 
ATOM     93  C   UNL A   1      42.173  29.453  35.938  1.00  0.00     0.022 A 
BRANCH  90  94
ATOM     94  S   UNL A   1      43.240  31.255  37.744  1.00  0.00     0.124 S 
ATOM     95  O   UNL A   1      44.060  32.415  37.404  1.00  0.00    -0.237 OA
ATOM     96  O   UNL A   1      42.035  31.543  38.518  1.00  0.00    -0.237 OA
ATOM     97  O   UNL A   1      43.981  30.073  38.176  1.00  0.00    -0.744 OA
ENDBRANCH  90  94
ENDBRANCH  64  87
ENDBRANCH  38  39
ENDBRANCH  30  33
ENDBRANCH  28  29
ENDBRANCH  27  28
ENDBRANCH   1  27
TORSDOF 18
ENDMDL
