MODEL 1
REMARK VINA RESULT:     -11.2      0.000      0.000
REMARK SMILES [NH3+][C@]1(C(=O)NCCCCCCNC(=O)c2ccc(-c3c4nc(c(-c5cc(S(=O)(=O)[O-])ccc5F)c5ccc([nH]5)c(-c5cc(S(=O)(=O)[O-])ccc5F)c5nc(c(-c6cc(S(=O)(=O)[O-])ccc6F)c6ccc3[nH]6)C=C5)C=C4)cc2)CCC[C@@H]1CCn1cc(I)cn1
REMARK SMILES IDX 8 1 7 2 6 3 5 4 3 5 4 6 2 8 78 9 81 10 79 11 80 12 1 13
REMARK SMILES IDX 82 17 83 18 84 19 85 20 89 21 86 22 88 23 87 24 9 25 10 26
REMARK SMILES IDX 11 27 12 28 13 29 14 31 15 32 16 33 77 34 17 35 76 36 18 37
REMARK SMILES IDX 19 38 20 39 70 40 21 41 75 42 69 43 71 44 22 45 74 46 68 47
REMARK SMILES IDX 67 48 23 50 55 51 35 52 54 53 36 54 39 55 53 56 72 57 37 58
REMARK SMILES IDX 38 59 52 61 73 62 40 63 24 64 25 65 33 66 26 67 32 68 34 69
REMARK SMILES IDX 31 70 27 71 28 72 29 73 30 74 56 75 57 76 65 77 58 78 64 79
REMARK SMILES IDX 66 80 63 81 59 82 60 83 61 84 62 85 41 86 42 87 50 88 43 89
REMARK SMILES IDX 49 90 51 91 48 92 44 93 45 94 46 95 47 96
REMARK H PARENT 5 7 1 14 1 15 1 16 12 30 71 49 39 60
REMARK Flexibility Score: inf
ROOT
ATOM      1  C   UNL A   1      33.785  21.761  23.738  1.00  0.00     0.002 C 
ENDROOT
BRANCH   1   2
ATOM      2  C   UNL A   1      32.412  21.303  24.238  1.00  0.00     0.021 C 
BRANCH   2   3
ATOM      3  C   UNL A   1      32.272  21.381  25.757  1.00  0.00     0.116 C 
BRANCH   3   4
ATOM      4  N   UNL A   1      31.119  22.171  26.123  1.00  0.00    -0.351 N 
ATOM      5  C   UNL A   1      30.984  23.469  26.492  1.00  0.00     0.281 C 
ATOM      6  O   UNL A   1      30.029  23.678  27.257  1.00  0.00    -0.268 OA
ATOM      7  H   UNL A   1      30.270  21.672  26.100  1.00  0.00     0.163 HD
BRANCH   5   8
ATOM      8  C   UNL A   1      31.805  24.673  25.901  1.00  0.00     0.176 C 
ATOM      9  C   UNL A   1      33.279  24.432  26.328  1.00  0.00     0.079 C 
ATOM     10  C   UNL A   1      31.979  24.878  24.369  1.00  0.00     0.062 C 
ATOM     11  C   UNL A   1      34.103  25.391  25.487  1.00  0.00     0.008 C 
ATOM     12  C   UNL A   1      33.433  25.347  24.128  1.00  0.00     0.011 C 
BRANCH   8  13
ATOM     13  N   UNL A   1      31.350  25.864  26.632  1.00  0.00    -0.345 N 
ATOM     14  H   UNL A   1      30.889  25.577  27.496  1.00  0.00     0.345 HD
ATOM     15  H   UNL A   1      30.693  26.388  26.055  1.00  0.00     0.345 HD
ATOM     16  H   UNL A   1      32.152  26.454  26.855  1.00  0.00     0.345 HD
ENDBRANCH   8  13
BRANCH  10  17
ATOM     17  C   UNL A   1      30.941  25.662  23.517  1.00  0.00     0.034 C 
BRANCH  17  18
ATOM     18  C   UNL A   1      31.253  27.019  22.875  1.00  0.00     0.145 C 
BRANCH  18  19
ATOM     19  N   UNL A   1      30.164  27.962  22.795  1.00  0.00    -0.272 N 
ATOM     20  C   UNL A   1      30.215  29.263  22.384  1.00  0.00     0.123 A 
ATOM     21  N   UNL A   1      28.933  27.577  23.193  1.00  0.00    -0.180 NA
ATOM     22  C   UNL A   1      28.969  29.771  22.647  1.00  0.00     0.051 A 
ATOM     23  C   UNL A   1      28.207  28.696  23.112  1.00  0.00     0.149 A 
ATOM     24  I   UNL A   1      28.401  31.687  22.449  1.00  0.00    -0.041 I 
ENDBRANCH  18  19
ENDBRANCH  17  18
ENDBRANCH  10  17
ENDBRANCH   5   8
ENDBRANCH   3   4
ENDBRANCH   2   3
ENDBRANCH   1   2
BRANCH   1  25
ATOM     25  C   UNL A   1      34.918  21.611  24.761  1.00  0.00     0.002 C 
BRANCH  25  26
ATOM     26  C   UNL A   1      36.312  21.986  24.245  1.00  0.00     0.021 C 
BRANCH  26  27
ATOM     27  C   UNL A   1      37.227  22.611  25.297  1.00  0.00     0.116 C 
BRANCH  27  28
ATOM     28  N   UNL A   1      38.071  21.608  25.922  1.00  0.00    -0.352 N 
ATOM     29  C   UNL A   1      39.303  21.748  26.502  1.00  0.00     0.251 C 
ATOM     30  H   UNL A   1      37.704  20.695  25.932  1.00  0.00     0.163 HD
ATOM     31  O   UNL A   1      39.989  20.747  26.712  1.00  0.00    -0.269 OA
BRANCH  29  32
ATOM     32  C   UNL A   1      39.808  23.088  26.869  1.00  0.00     0.039 A 
ATOM     33  C   UNL A   1      40.661  23.209  27.968  1.00  0.00     0.014 A 
ATOM     34  C   UNL A   1      39.401  24.227  26.166  1.00  0.00     0.014 A 
ATOM     35  C   UNL A   1      41.138  24.467  28.339  1.00  0.00     0.010 A 
ATOM     36  C   UNL A   1      39.928  25.474  26.498  1.00  0.00     0.010 A 
ATOM     37  C   UNL A   1      40.792  25.607  27.595  1.00  0.00    -0.014 A 
BRANCH  37  38
ATOM     38  C   UNL A   1      41.324  26.942  27.964  1.00  0.00     0.031 A 
ATOM     39  C   UNL A   1      42.744  27.311  27.628  1.00  0.00     0.074 A 
ATOM     40  C   UNL A   1      40.536  27.802  28.637  1.00  0.00     0.049 A 
ATOM     41  N   UNL A   1      43.391  28.421  27.882  1.00  0.00    -0.248 NA
ATOM     42  C   UNL A   1      43.548  26.289  26.942  1.00  0.00     0.031 C 
ATOM     43  C   UNL A   1      39.160  27.529  29.059  1.00  0.00     0.029 A 
ATOM     44  N   UNL A   1      40.775  29.075  29.086  1.00  0.00    -0.354 N 
ATOM     45  C   UNL A   1      44.679  28.228  27.394  1.00  0.00     0.074 A 
ATOM     46  C   UNL A   1      44.736  26.873  26.887  1.00  0.00     0.031 C 
ATOM     47  C   UNL A   1      38.669  28.612  29.681  1.00  0.00     0.029 A 
ATOM     48  C   UNL A   1      39.702  29.642  29.734  1.00  0.00     0.049 A 
ATOM     49  H   UNL A   1      41.632  29.540  28.957  1.00  0.00     0.167 HD
ATOM     50  C   UNL A   1      45.711  29.109  27.353  1.00  0.00     0.034 A 
ATOM     51  C   UNL A   1      39.567  30.853  30.309  1.00  0.00     0.034 A 
ATOM     52  C   UNL A   1      45.630  30.460  27.855  1.00  0.00     0.049 A 
ATOM     53  C   UNL A   1      40.727  31.813  30.252  1.00  0.00     0.074 A 
ATOM     54  C   UNL A   1      46.590  31.456  27.811  1.00  0.00     0.029 A 
ATOM     55  N   UNL A   1      44.526  31.002  28.503  1.00  0.00    -0.354 N 
ATOM     56  N   UNL A   1      41.920  31.638  29.730  1.00  0.00    -0.248 NA
ATOM     57  C   UNL A   1      40.517  33.137  30.848  1.00  0.00     0.031 C 
ATOM     58  C   UNL A   1      46.091  32.577  28.487  1.00  0.00     0.029 A 
ATOM     59  C   UNL A   1      44.793  32.307  28.891  1.00  0.00     0.049 A 
ATOM     60  H   UNL A   1      43.678  30.528  28.663  1.00  0.00     0.167 HD
ATOM     61  C   UNL A   1      42.594  32.842  29.915  1.00  0.00     0.074 A 
ATOM     62  C   UNL A   1      41.666  33.738  30.576  1.00  0.00     0.031 C 
ATOM     63  C   UNL A   1      43.863  33.178  29.570  1.00  0.00     0.034 A 
BRANCH  50  64
ATOM     64  C   UNL A   1      47.017  28.624  26.767  1.00  0.00     0.023 A 
ATOM     65  C   UNL A   1      47.186  28.450  25.381  1.00  0.00     0.031 A 
ATOM     66  C   UNL A   1      48.100  28.305  27.604  1.00  0.00     0.131 A 
ATOM     67  C   UNL A   1      48.377  27.902  24.883  1.00  0.00     0.055 A 
ATOM     68  C   UNL A   1      49.313  27.836  27.095  1.00  0.00     0.041 A 
ATOM     69  F   UNL A   1      47.994  28.431  28.936  1.00  0.00    -0.206 F 
ATOM     70  C   UNL A   1      49.452  27.616  25.727  1.00  0.00     0.022 A 
BRANCH  67  71
ATOM     71  S   UNL A   1      48.450  27.433  23.131  1.00  0.00     0.124 S 
ATOM     72  O   UNL A   1      49.787  27.892  22.760  1.00  0.00    -0.237 OA
ATOM     73  O   UNL A   1      48.261  25.988  23.184  1.00  0.00    -0.237 OA
ATOM     74  O   UNL A   1      47.352  28.185  22.528  1.00  0.00    -0.744 OA
ENDBRANCH  67  71
ENDBRANCH  50  64
BRANCH  51  75
ATOM     75  C   UNL A   1      38.294  31.228  30.986  1.00  0.00     0.023 A 
ATOM     76  C   UNL A   1      37.251  31.843  30.275  1.00  0.00     0.031 A 
ATOM     77  C   UNL A   1      38.114  31.004  32.363  1.00  0.00     0.131 A 
ATOM     78  C   UNL A   1      36.093  32.253  30.952  1.00  0.00     0.055 A 
ATOM     79  C   UNL A   1      36.939  31.370  33.021  1.00  0.00     0.041 A 
ATOM     80  F   UNL A   1      39.078  30.411  33.086  1.00  0.00    -0.206 F 
ATOM     81  C   UNL A   1      35.925  32.011  32.317  1.00  0.00     0.022 A 
BRANCH  78  82
ATOM     82  S   UNL A   1      34.833  33.181  30.033  1.00  0.00     0.124 S 
ATOM     83  O   UNL A   1      34.228  32.134  29.218  1.00  0.00    -0.237 OA
ATOM     84  O   UNL A   1      34.007  33.716  31.110  1.00  0.00    -0.237 OA
ATOM     85  O   UNL A   1      35.614  34.174  29.298  1.00  0.00    -0.744 OA
ENDBRANCH  78  82
ENDBRANCH  51  75
BRANCH  63  86
ATOM     86  C   UNL A   1      44.299  34.589  29.884  1.00  0.00     0.023 A 
ATOM     87  C   UNL A   1      43.943  35.670  29.058  1.00  0.00     0.031 A 
ATOM     88  C   UNL A   1      45.104  34.849  31.006  1.00  0.00     0.131 A 
ATOM     89  C   UNL A   1      44.444  36.951  29.331  1.00  0.00     0.055 A 
ATOM     90  C   UNL A   1      45.548  36.137  31.307  1.00  0.00     0.041 A 
ATOM     91  F   UNL A   1      45.476  33.854  31.827  1.00  0.00    -0.206 F 
ATOM     92  C   UNL A   1      45.231  37.195  30.458  1.00  0.00     0.022 A 
BRANCH  89  93
ATOM     93  S   UNL A   1      44.137  38.277  28.131  1.00  0.00     0.124 S 
ATOM     94  O   UNL A   1      45.474  38.834  27.946  1.00  0.00    -0.237 OA
ATOM     95  O   UNL A   1      43.588  37.547  26.993  1.00  0.00    -0.237 OA
ATOM     96  O   UNL A   1      43.191  39.151  28.822  1.00  0.00    -0.744 OA
ENDBRANCH  89  93
ENDBRANCH  63  86
ENDBRANCH  37  38
ENDBRANCH  29  32
ENDBRANCH  27  28
ENDBRANCH  26  27
ENDBRANCH  25  26
ENDBRANCH   1  25
TORSDOF 20
ENDMDL
MODEL 2
REMARK VINA RESULT:     -10.9      5.843     10.863
REMARK SMILES [NH3+][C@]1(C(=O)NCCCCCCNC(=O)c2ccc(-c3c4nc(c(-c5cc(S(=O)(=O)[O-])ccc5F)c5ccc([nH]5)c(-c5cc(S(=O)(=O)[O-])ccc5F)c5nc(c(-c6cc(S(=O)(=O)[O-])ccc6F)c6ccc3[nH]6)C=C5)C=C4)cc2)CCC[C@@H]1CCn1cc(I)cn1
REMARK SMILES IDX 8 1 7 2 6 3 5 4 3 5 4 6 2 8 78 9 81 10 79 11 80 12 1 13
REMARK SMILES IDX 82 17 83 18 84 19 85 20 89 21 86 22 88 23 87 24 9 25 10 26
REMARK SMILES IDX 11 27 12 28 13 29 14 31 15 32 16 33 77 34 17 35 76 36 18 37
REMARK SMILES IDX 19 38 20 39 70 40 21 41 75 42 69 43 71 44 22 45 74 46 68 47
REMARK SMILES IDX 67 48 23 50 55 51 35 52 54 53 36 54 39 55 53 56 72 57 37 58
REMARK SMILES IDX 38 59 52 61 73 62 40 63 24 64 25 65 33 66 26 67 32 68 34 69
REMARK SMILES IDX 31 70 27 71 28 72 29 73 30 74 56 75 57 76 65 77 58 78 64 79
REMARK SMILES IDX 66 80 63 81 59 82 60 83 61 84 62 85 41 86 42 87 50 88 43 89
REMARK SMILES IDX 49 90 51 91 48 92 44 93 45 94 46 95 47 96
REMARK H PARENT 5 7 1 14 1 15 1 16 12 30 71 49 39 60
REMARK Flexibility Score: inf
ROOT
ATOM      1  C   UNL A   1      35.078  30.864  28.543  1.00  0.00     0.002 C 
ENDROOT
BRANCH   1   2
ATOM      2  C   UNL A   1      35.321  29.595  27.722  1.00  0.00     0.021 C 
BRANCH   2   3
ATOM      3  C   UNL A   1      34.143  29.232  26.819  1.00  0.00     0.116 C 
BRANCH   3   4
ATOM      4  N   UNL A   1      33.084  28.616  27.585  1.00  0.00    -0.351 N 
ATOM      5  C   UNL A   1      31.994  27.898  27.217  1.00  0.00     0.281 C 
ATOM      6  O   UNL A   1      31.034  28.008  27.996  1.00  0.00    -0.268 OA
ATOM      7  H   UNL A   1      33.170  28.742  28.557  1.00  0.00     0.163 HD
BRANCH   5   8
ATOM      8  C   UNL A   1      31.943  26.861  26.036  1.00  0.00     0.176 C 
ATOM      9  C   UNL A   1      31.159  27.560  24.892  1.00  0.00     0.079 C 
ATOM     10  C   UNL A   1      33.225  26.415  25.276  1.00  0.00     0.062 C 
ATOM     11  C   UNL A   1      31.402  26.706  23.659  1.00  0.00     0.008 C 
ATOM     12  C   UNL A   1      32.860  26.308  23.777  1.00  0.00     0.011 C 
BRANCH   8  13
ATOM     13  N   UNL A   1      31.095  25.758  26.508  1.00  0.00    -0.345 N 
ATOM     14  H   UNL A   1      30.939  25.098  25.745  1.00  0.00     0.345 HD
ATOM     15  H   UNL A   1      30.199  26.129  26.825  1.00  0.00     0.345 HD
ATOM     16  H   UNL A   1      31.557  25.280  27.282  1.00  0.00     0.345 HD
ENDBRANCH   8  13
BRANCH  10  17
ATOM     17  C   UNL A   1      34.110  25.236  25.770  1.00  0.00     0.034 C 
BRANCH  17  18
ATOM     18  C   UNL A   1      35.047  24.458  24.838  1.00  0.00     0.145 C 
BRANCH  18  19
ATOM     19  N   UNL A   1      34.911  23.021  24.836  1.00  0.00    -0.272 N 
ATOM     20  C   UNL A   1      33.837  22.285  24.427  1.00  0.00     0.123 A 
ATOM     21  N   UNL A   1      35.922  22.267  25.317  1.00  0.00    -0.180 NA
ATOM     22  C   UNL A   1      34.134  20.993  24.777  1.00  0.00     0.051 A 
ATOM     23  C   UNL A   1      35.433  21.024  25.290  1.00  0.00     0.149 A 
ATOM     24  I   UNL A   1      32.908  19.409  24.625  1.00  0.00    -0.041 I 
ENDBRANCH  18  19
ENDBRANCH  17  18
ENDBRANCH  10  17
ENDBRANCH   5   8
ENDBRANCH   3   4
ENDBRANCH   2   3
ENDBRANCH   1   2
BRANCH   1  25
ATOM     25  C   UNL A   1      34.971  32.149  27.714  1.00  0.00     0.002 C 
BRANCH  25  26
ATOM     26  C   UNL A   1      33.720  32.994  27.983  1.00  0.00     0.021 C 
BRANCH  26  27
ATOM     27  C   UNL A   1      33.969  34.501  28.006  1.00  0.00     0.116 C 
BRANCH  27  28
ATOM     28  N   UNL A   1      33.351  35.118  29.166  1.00  0.00    -0.352 N 
ATOM     29  C   UNL A   1      33.548  34.862  30.496  1.00  0.00     0.251 C 
ATOM     30  H   UNL A   1      32.696  35.826  28.967  1.00  0.00     0.163 HD
ATOM     31  O   UNL A   1      32.729  35.273  31.318  1.00  0.00    -0.269 OA
BRANCH  29  32
ATOM     32  C   UNL A   1      34.731  34.096  30.941  1.00  0.00     0.039 A 
ATOM     33  C   UNL A   1      36.003  34.557  30.594  1.00  0.00     0.014 A 
ATOM     34  C   UNL A   1      34.587  32.901  31.654  1.00  0.00     0.014 A 
ATOM     35  C   UNL A   1      37.132  33.840  30.993  1.00  0.00     0.010 A 
ATOM     36  C   UNL A   1      35.716  32.221  32.108  1.00  0.00     0.010 A 
ATOM     37  C   UNL A   1      36.998  32.678  31.771  1.00  0.00    -0.014 A 
BRANCH  37  38
ATOM     38  C   UNL A   1      38.197  31.932  32.229  1.00  0.00     0.031 A 
ATOM     39  C   UNL A   1      38.833  32.259  33.553  1.00  0.00     0.074 A 
ATOM     40  C   UNL A   1      38.731  30.990  31.429  1.00  0.00     0.049 A 
ATOM     41  N   UNL A   1      39.890  31.729  34.115  1.00  0.00    -0.248 NA
ATOM     42  C   UNL A   1      38.215  33.340  34.335  1.00  0.00     0.031 C 
ATOM     43  C   UNL A   1      38.227  30.627  30.102  1.00  0.00     0.029 A 
ATOM     44  N   UNL A   1      39.813  30.167  31.609  1.00  0.00    -0.354 N 
ATOM     45  C   UNL A   1      40.068  32.417  35.311  1.00  0.00     0.074 A 
ATOM     46  C   UNL A   1      39.047  33.441  35.360  1.00  0.00     0.031 C 
ATOM     47  C   UNL A   1      38.982  29.637  29.601  1.00  0.00     0.029 A 
ATOM     48  C   UNL A   1      40.043  29.318  30.551  1.00  0.00     0.049 A 
ATOM     49  H   UNL A   1      40.373  30.183  32.418  1.00  0.00     0.167 HD
ATOM     50  C   UNL A   1      40.986  32.197  36.287  1.00  0.00     0.034 A 
ATOM     51  C   UNL A   1      41.002  28.391  30.367  1.00  0.00     0.034 A 
ATOM     52  C   UNL A   1      41.990  31.162  36.222  1.00  0.00     0.049 A 
ATOM     53  C   UNL A   1      42.011  28.166  31.464  1.00  0.00     0.074 A 
ATOM     54  C   UNL A   1      42.930  30.809  37.176  1.00  0.00     0.029 A 
ATOM     55  N   UNL A   1      42.192  30.317  35.136  1.00  0.00    -0.354 N 
ATOM     56  N   UNL A   1      42.128  28.782  32.618  1.00  0.00    -0.248 NA
ATOM     57  C   UNL A   1      43.005  27.111  31.239  1.00  0.00     0.031 C 
ATOM     58  C   UNL A   1      43.739  29.798  36.643  1.00  0.00     0.029 A 
ATOM     59  C   UNL A   1      43.261  29.468  35.385  1.00  0.00     0.049 A 
ATOM     60  H   UNL A   1      41.656  30.322  34.311  1.00  0.00     0.167 HD
ATOM     61  C   UNL A   1      43.197  28.170  33.267  1.00  0.00     0.074 A 
ATOM     62  C   UNL A   1      43.673  27.125  32.383  1.00  0.00     0.031 C 
ATOM     63  C   UNL A   1      43.736  28.446  34.482  1.00  0.00     0.034 A 
BRANCH  50  64
ATOM     64  C   UNL A   1      40.955  33.111  37.490  1.00  0.00     0.023 A 
ATOM     65  C   UNL A   1      40.275  32.757  38.669  1.00  0.00     0.031 A 
ATOM     66  C   UNL A   1      41.590  34.364  37.450  1.00  0.00     0.131 A 
ATOM     67  C   UNL A   1      40.182  33.673  39.727  1.00  0.00     0.055 A 
ATOM     68  C   UNL A   1      41.562  35.240  38.538  1.00  0.00     0.041 A 
ATOM     69  F   UNL A   1      42.238  34.767  36.346  1.00  0.00    -0.206 F 
ATOM     70  C   UNL A   1      40.841  34.903  39.680  1.00  0.00     0.022 A 
BRANCH  67  71
ATOM     71  S   UNL A   1      39.067  33.294  41.108  1.00  0.00     0.124 S 
ATOM     72  O   UNL A   1      37.807  33.861  40.633  1.00  0.00    -0.237 OA
ATOM     73  O   UNL A   1      39.130  31.839  41.172  1.00  0.00    -0.237 OA
ATOM     74  O   UNL A   1      39.671  33.995  42.239  1.00  0.00    -0.744 OA
ENDBRANCH  67  71
ENDBRANCH  50  64
BRANCH  51  75
ATOM     75  C   UNL A   1      41.058  27.606  29.102  1.00  0.00     0.023 A 
ATOM     76  C   UNL A   1      42.026  27.879  28.123  1.00  0.00     0.031 A 
ATOM     77  C   UNL A   1      40.123  26.588  28.841  1.00  0.00     0.131 A 
ATOM     78  C   UNL A   1      42.011  27.174  26.910  1.00  0.00     0.055 A 
ATOM     79  C   UNL A   1      40.143  25.856  27.653  1.00  0.00     0.041 A 
ATOM     80  F   UNL A   1      39.183  26.281  29.749  1.00  0.00    -0.206 F 
ATOM     81  C   UNL A   1      41.083  26.158  26.673  1.00  0.00     0.022 A 
BRANCH  78  82
ATOM     82  S   UNL A   1      43.178  27.660  25.609  1.00  0.00     0.124 S 
ATOM     83  O   UNL A   1      43.839  26.394  25.315  1.00  0.00    -0.237 OA
ATOM     84  O   UNL A   1      42.282  28.172  24.577  1.00  0.00    -0.237 OA
ATOM     85  O   UNL A   1      44.013  28.666  26.261  1.00  0.00    -0.744 OA
ENDBRANCH  78  82
ENDBRANCH  51  75
BRANCH  63  86
ATOM     86  C   UNL A   1      44.887  27.576  34.925  1.00  0.00     0.023 A 
ATOM     87  C   UNL A   1      44.675  26.387  35.646  1.00  0.00     0.031 A 
ATOM     88  C   UNL A   1      46.211  27.956  34.647  1.00  0.00     0.131 A 
ATOM     89  C   UNL A   1      45.773  25.654  36.120  1.00  0.00     0.055 A 
ATOM     90  C   UNL A   1      47.298  27.188  35.068  1.00  0.00     0.041 A 
ATOM     91  F   UNL A   1      46.471  29.081  33.964  1.00  0.00    -0.206 F 
ATOM     92  C   UNL A   1      47.082  26.038  35.823  1.00  0.00     0.022 A 
BRANCH  89  93
ATOM     93  S   UNL A   1      45.465  24.245  37.221  1.00  0.00     0.124 S 
ATOM     94  O   UNL A   1      44.895  23.263  36.305  1.00  0.00    -0.237 OA
ATOM     95  O   UNL A   1      46.802  23.946  37.726  1.00  0.00    -0.237 OA
ATOM     96  O   UNL A   1      44.534  24.782  38.213  1.00  0.00    -0.744 OA
ENDBRANCH  89  93
ENDBRANCH  63  86
ENDBRANCH  37  38
ENDBRANCH  29  32
ENDBRANCH  27  28
ENDBRANCH  26  27
ENDBRANCH  25  26
ENDBRANCH   1  25
TORSDOF 20
ENDMDL
MODEL 3
REMARK VINA RESULT:     -10.8      2.144      2.466
REMARK SMILES [NH3+][C@]1(C(=O)NCCCCCCNC(=O)c2ccc(-c3c4nc(c(-c5cc(S(=O)(=O)[O-])ccc5F)c5ccc([nH]5)c(-c5cc(S(=O)(=O)[O-])ccc5F)c5nc(c(-c6cc(S(=O)(=O)[O-])ccc6F)c6ccc3[nH]6)C=C5)C=C4)cc2)CCC[C@@H]1CCn1cc(I)cn1
REMARK SMILES IDX 8 1 7 2 6 3 5 4 3 5 4 6 2 8 78 9 81 10 79 11 80 12 1 13
REMARK SMILES IDX 82 17 83 18 84 19 85 20 89 21 86 22 88 23 87 24 9 25 10 26
REMARK SMILES IDX 11 27 12 28 13 29 14 31 15 32 16 33 77 34 17 35 76 36 18 37
REMARK SMILES IDX 19 38 20 39 70 40 21 41 75 42 69 43 71 44 22 45 74 46 68 47
REMARK SMILES IDX 67 48 23 50 55 51 35 52 54 53 36 54 39 55 53 56 72 57 37 58
REMARK SMILES IDX 38 59 52 61 73 62 40 63 24 64 25 65 33 66 26 67 32 68 34 69
REMARK SMILES IDX 31 70 27 71 28 72 29 73 30 74 56 75 57 76 65 77 58 78 64 79
REMARK SMILES IDX 66 80 63 81 59 82 60 83 61 84 62 85 41 86 42 87 50 88 43 89
REMARK SMILES IDX 49 90 51 91 48 92 44 93 45 94 46 95 47 96
REMARK H PARENT 5 7 1 14 1 15 1 16 12 30 71 49 39 60
REMARK Flexibility Score: inf
ROOT
ATOM      1  C   UNL A   1      33.388  22.282  23.443  1.00  0.00     0.002 C 
ENDROOT
BRANCH   1   2
ATOM      2  C   UNL A   1      31.956  21.988  23.898  1.00  0.00     0.021 C 
BRANCH   2   3
ATOM      3  C   UNL A   1      31.846  21.736  25.400  1.00  0.00     0.116 C 
BRANCH   3   4
ATOM      4  N   UNL A   1      30.728  22.459  25.959  1.00  0.00    -0.351 N 
ATOM      5  C   UNL A   1      30.620  23.704  26.486  1.00  0.00     0.281 C 
ATOM      6  O   UNL A   1      29.739  23.808  27.354  1.00  0.00    -0.268 OA
ATOM      7  H   UNL A   1      29.884  21.952  25.957  1.00  0.00     0.163 HD
BRANCH   5   8
ATOM      8  C   UNL A   1      31.375  24.981  25.965  1.00  0.00     0.176 C 
ATOM      9  C   UNL A   1      32.883  24.721  26.232  1.00  0.00     0.079 C 
ATOM     10  C   UNL A   1      31.411  25.358  24.455  1.00  0.00     0.062 C 
ATOM     11  C   UNL A   1      33.621  25.783  25.435  1.00  0.00     0.008 C 
ATOM     12  C   UNL A   1      32.834  25.877  24.143  1.00  0.00     0.011 C 
BRANCH   8  13
ATOM     13  N   UNL A   1      30.976  26.075  26.861  1.00  0.00    -0.345 N 
ATOM     14  H   UNL A   1      31.666  26.825  26.810  1.00  0.00     0.345 HD
ATOM     15  H   UNL A   1      30.922  25.728  27.818  1.00  0.00     0.345 HD
ATOM     16  H   UNL A   1      30.064  26.433  26.577  1.00  0.00     0.345 HD
ENDBRANCH   8  13
BRANCH  10  17
ATOM     17  C   UNL A   1      30.295  26.212  23.791  1.00  0.00     0.034 C 
BRANCH  17  18
ATOM     18  C   UNL A   1      30.584  27.236  22.686  1.00  0.00     0.145 C 
BRANCH  18  19
ATOM     19  N   UNL A   1      29.674  28.352  22.585  1.00  0.00    -0.272 N 
ATOM     20  C   UNL A   1      29.973  29.646  22.272  1.00  0.00     0.123 A 
ATOM     21  N   UNL A   1      28.365  28.156  22.853  1.00  0.00    -0.180 NA
ATOM     22  C   UNL A   1      28.807  30.340  22.468  1.00  0.00     0.051 A 
ATOM     23  C   UNL A   1      27.841  29.383  22.793  1.00  0.00     0.149 A 
ATOM     24  I   UNL A   1      28.577  32.332  22.361  1.00  0.00    -0.041 I 
ENDBRANCH  18  19
ENDBRANCH  17  18
ENDBRANCH  10  17
ENDBRANCH   5   8
ENDBRANCH   3   4
ENDBRANCH   2   3
ENDBRANCH   1   2
BRANCH   1  25
ATOM     25  C   UNL A   1      34.478  21.729  24.369  1.00  0.00     0.002 C 
BRANCH  25  26
ATOM     26  C   UNL A   1      35.780  22.537  24.397  1.00  0.00     0.021 C 
BRANCH  26  27
ATOM     27  C   UNL A   1      36.479  22.561  25.755  1.00  0.00     0.116 C 
BRANCH  27  28
ATOM     28  N   UNL A   1      37.410  21.455  25.887  1.00  0.00    -0.352 N 
ATOM     29  C   UNL A   1      38.764  21.478  26.084  1.00  0.00     0.251 C 
ATOM     30  H   UNL A   1      37.009  20.558  25.828  1.00  0.00     0.163 HD
ATOM     31  O   UNL A   1      39.422  20.458  25.877  1.00  0.00    -0.269 OA
BRANCH  29  32
ATOM     32  C   UNL A   1      39.432  22.716  26.537  1.00  0.00     0.039 A 
ATOM     33  C   UNL A   1      39.116  23.922  25.909  1.00  0.00     0.014 A 
ATOM     34  C   UNL A   1      40.405  22.681  27.542  1.00  0.00     0.014 A 
ATOM     35  C   UNL A   1      39.746  25.100  26.314  1.00  0.00     0.010 A 
ATOM     36  C   UNL A   1      40.987  23.866  27.989  1.00  0.00     0.010 A 
ATOM     37  C   UNL A   1      40.671  25.085  27.371  1.00  0.00    -0.014 A 
BRANCH  37  38
ATOM     38  C   UNL A   1      41.317  26.340  27.828  1.00  0.00     0.031 A 
ATOM     39  C   UNL A   1      42.758  26.617  27.493  1.00  0.00     0.074 A 
ATOM     40  C   UNL A   1      40.612  27.207  28.579  1.00  0.00     0.049 A 
ATOM     41  N   UNL A   1      43.498  27.647  27.816  1.00  0.00    -0.248 NA
ATOM     42  C   UNL A   1      43.465  25.588  26.717  1.00  0.00     0.031 C 
ATOM     43  C   UNL A   1      39.224  27.016  29.007  1.00  0.00     0.029 A 
ATOM     44  N   UNL A   1      40.961  28.419  29.118  1.00  0.00    -0.354 N 
ATOM     45  C   UNL A   1      44.759  27.388  27.290  1.00  0.00     0.074 A 
ATOM     46  C   UNL A   1      44.697  26.076  26.682  1.00  0.00     0.031 C 
ATOM     47  C   UNL A   1      38.833  28.085  29.718  1.00  0.00     0.029 A 
ATOM     48  C   UNL A   1      39.948  29.020  29.828  1.00  0.00     0.049 A 
ATOM     49  H   UNL A   1      41.853  28.821  29.007  1.00  0.00     0.167 HD
ATOM     50  C   UNL A   1      45.859  28.182  27.294  1.00  0.00     0.034 A 
ATOM     51  C   UNL A   1      39.922  30.190  30.494  1.00  0.00     0.034 A 
ATOM     52  C   UNL A   1      45.897  29.493  27.898  1.00  0.00     0.049 A 
ATOM     53  C   UNL A   1      41.156  31.054  30.486  1.00  0.00     0.074 A 
ATOM     54  C   UNL A   1      46.935  30.409  27.909  1.00  0.00     0.029 A 
ATOM     55  N   UNL A   1      44.851  30.072  28.606  1.00  0.00    -0.354 N 
ATOM     56  N   UNL A   1      42.324  30.823  29.929  1.00  0.00    -0.248 NA
ATOM     57  C   UNL A   1      41.064  32.342  31.184  1.00  0.00     0.031 C 
ATOM     58  C   UNL A   1      46.540  31.511  28.677  1.00  0.00     0.029 A 
ATOM     59  C   UNL A   1      45.231  31.318  29.085  1.00  0.00     0.049 A 
ATOM     60  H   UNL A   1      43.969  29.658  28.747  1.00  0.00     0.167 HD
ATOM     61  C   UNL A   1      43.097  31.951  30.190  1.00  0.00     0.074 A 
ATOM     62  C   UNL A   1      42.255  32.866  30.935  1.00  0.00     0.031 C 
ATOM     63  C   UNL A   1      44.385  32.208  29.846  1.00  0.00     0.034 A 
BRANCH  50  64
ATOM     64  C   UNL A   1      47.113  27.639  26.648  1.00  0.00     0.023 A 
ATOM     65  C   UNL A   1      48.023  26.838  27.360  1.00  0.00     0.031 A 
ATOM     66  C   UNL A   1      47.417  27.946  25.310  1.00  0.00     0.131 A 
ATOM     67  C   UNL A   1      49.225  26.436  26.757  1.00  0.00     0.055 A 
ATOM     68  C   UNL A   1      48.576  27.476  24.691  1.00  0.00     0.041 A 
ATOM     69  F   UNL A   1      46.597  28.723  24.585  1.00  0.00    -0.206 F 
ATOM     70  C   UNL A   1      49.498  26.729  25.419  1.00  0.00     0.022 A 
BRANCH  67  71
ATOM     71  S   UNL A   1      50.493  25.648  27.790  1.00  0.00     0.124 S 
ATOM     72  O   UNL A   1      50.402  26.436  29.017  1.00  0.00    -0.237 OA
ATOM     73  O   UNL A   1      50.018  24.273  27.876  1.00  0.00    -0.237 OA
ATOM     74  O   UNL A   1      51.724  25.838  27.026  1.00  0.00    -0.744 OA
ENDBRANCH  67  71
ENDBRANCH  50  64
BRANCH  51  75
ATOM     75  C   UNL A   1      38.693  30.616  31.222  1.00  0.00     0.023 A 
ATOM     76  C   UNL A   1      37.652  31.282  30.556  1.00  0.00     0.031 A 
ATOM     77  C   UNL A   1      38.557  30.388  32.603  1.00  0.00     0.131 A 
ATOM     78  C   UNL A   1      36.540  31.736  31.280  1.00  0.00     0.055 A 
ATOM     79  C   UNL A   1      37.425  30.799  33.309  1.00  0.00     0.041 A 
ATOM     80  F   UNL A   1      39.520  29.747  33.284  1.00  0.00    -0.206 F 
ATOM     81  C   UNL A   1      36.414  31.490  32.649  1.00  0.00     0.022 A 
BRANCH  78  82
ATOM     82  S   UNL A   1      35.289  32.727  30.417  1.00  0.00     0.124 S 
ATOM     83  O   UNL A   1      36.048  33.920  30.061  1.00  0.00    -0.237 OA
ATOM     84  O   UNL A   1      34.917  31.848  29.314  1.00  0.00    -0.237 OA
ATOM     85  O   UNL A   1      34.254  32.924  31.430  1.00  0.00    -0.744 OA
ENDBRANCH  78  82
ENDBRANCH  51  75
BRANCH  63  86
ATOM     86  C   UNL A   1      44.940  33.550  30.256  1.00  0.00     0.023 A 
ATOM     87  C   UNL A   1      45.602  33.728  31.484  1.00  0.00     0.031 A 
ATOM     88  C   UNL A   1      44.780  34.669  29.421  1.00  0.00     0.131 A 
ATOM     89  C   UNL A   1      46.022  35.010  31.871  1.00  0.00     0.055 A 
ATOM     90  C   UNL A   1      45.256  35.929  29.783  1.00  0.00     0.041 A 
ATOM     91  F   UNL A   1      44.155  34.556  28.238  1.00  0.00    -0.206 F 
ATOM     92  C   UNL A   1      45.868  36.108  31.022  1.00  0.00     0.022 A 
BRANCH  89  93
ATOM     93  S   UNL A   1      46.681  35.239  33.545  1.00  0.00     0.124 S 
ATOM     94  O   UNL A   1      47.769  36.184  33.316  1.00  0.00    -0.237 OA
ATOM     95  O   UNL A   1      45.524  35.759  34.267  1.00  0.00    -0.237 OA
ATOM     96  O   UNL A   1      47.101  33.893  33.935  1.00  0.00    -0.744 OA
ENDBRANCH  89  93
ENDBRANCH  63  86
ENDBRANCH  37  38
ENDBRANCH  29  32
ENDBRANCH  27  28
ENDBRANCH  26  27
ENDBRANCH  25  26
ENDBRANCH   1  25
TORSDOF 20
ENDMDL
