MODEL 1
REMARK VINA RESULT:     -11.9      0.000      0.000
REMARK SMILES NS(=O)(=O)c1ccc(/N=N/c2ccc(O)c(C(=O)NCCCCCCNC(=O)c3ccc(-c4c5nc(c(-c6cc(S(=O)(=O)[O-])ccc6F)c6ccc([nH]6)c(-c6cc(S(=O)(=O)[O-])ccc6F)c6nc(c(-c7cc(S(=O)(=O)[O-])ccc7F)c7ccc4[nH]7)C=C6)C=C5)cc3)c2)cc1
REMARK SMILES IDX 22 1 21 2 20 3 19 4 17 5 18 6 16 8 11 9 12 10 92 11 13 12
REMARK SMILES IDX 14 13 10 14 9 15 8 16 5 17 6 18 94 19 7 20 93 21 2 22 3 23
REMARK SMILES IDX 4 24 1 25 15 28 23 30 24 31 25 32 26 33 27 34 28 36 29 37
REMARK SMILES IDX 30 38 91 39 31 40 90 41 32 42 33 43 34 44 84 45 35 46 89 47
REMARK SMILES IDX 83 48 85 49 36 50 88 51 82 52 81 53 37 55 69 56 49 57 68 58
REMARK SMILES IDX 50 59 53 60 67 61 86 62 51 63 52 64 66 66 87 67 54 68 38 69
REMARK SMILES IDX 39 70 47 71 40 72 46 73 48 74 45 75 41 76 42 77 43 78 44 79
REMARK SMILES IDX 70 80 71 81 79 82 72 83 78 84 80 85 77 86 73 87 74 88 75 89
REMARK SMILES IDX 76 90 55 91 56 92 64 93 57 94 63 95 65 96 62 97 58 98 59 99
REMARK SMILES IDX 60 100 61 101
REMARK H PARENT 19 7 1 26 1 27 15 29 26 35 85 54 53 65
REMARK Flexibility Score: inf
ROOT
ATOM      1  C   UNL A   1      34.054  26.882  25.871  1.00  0.00     0.002 C 
ENDROOT
BRANCH   1   2
ATOM      2  C   UNL A   1      34.194  25.800  24.802  1.00  0.00     0.021 C 
BRANCH   2   3
ATOM      3  C   UNL A   1      34.952  24.541  25.206  1.00  0.00     0.116 C 
BRANCH   3   4
ATOM      4  N   UNL A   1      34.629  23.366  24.408  1.00  0.00    -0.352 N 
ATOM      5  C   UNL A   1      33.451  22.667  24.268  1.00  0.00     0.255 C 
ATOM      6  O   UNL A   1      33.443  21.641  23.584  1.00  0.00    -0.269 OA
ATOM      7  H   UNL A   1      35.380  23.013  23.879  1.00  0.00     0.163 HD
BRANCH   5   8
ATOM      8  C   UNL A   1      32.200  23.043  24.980  1.00  0.00     0.083 A 
ATOM      9  C   UNL A   1      30.370  24.615  25.348  1.00  0.00     0.087 A 
ATOM     10  C   UNL A   1      30.058  23.952  26.539  1.00  0.00     0.034 A 
ATOM     11  C   UNL A   1      31.375  24.075  24.531  1.00  0.00     0.048 A 
ATOM     12  C   UNL A   1      30.768  22.811  26.927  1.00  0.00     0.049 A 
ATOM     13  C   UNL A   1      31.847  22.372  26.159  1.00  0.00     0.128 A 
BRANCH   9  14
ATOM     14  N   UNL A   1      29.719  25.837  25.040  1.00  0.00    -0.151 NA
ATOM     15  N   UNL A   1      29.949  26.164  23.852  1.00  0.00    -0.151 NA
BRANCH  15  16
ATOM     16  C   UNL A   1      29.530  27.469  23.537  1.00  0.00     0.086 A 
ATOM     17  C   UNL A   1      28.638  29.975  22.645  1.00  0.00     0.082 A 
ATOM     18  C   UNL A   1      27.708  28.976  22.940  1.00  0.00     0.024 A 
ATOM     19  C   UNL A   1      30.007  29.733  22.786  1.00  0.00     0.024 A 
ATOM     20  C   UNL A   1      28.160  27.726  23.380  1.00  0.00     0.031 A 
ATOM     21  C   UNL A   1      30.447  28.483  23.228  1.00  0.00     0.031 A 
BRANCH  17  22
ATOM     22  S   UNL A   1      28.098  31.565  22.076  1.00  0.00     0.238 S 
ATOM     23  O   UNL A   1      27.355  32.191  23.149  1.00  0.00    -0.207 OA
ATOM     24  O   UNL A   1      27.564  31.394  20.749  1.00  0.00    -0.207 OA
BRANCH  22  25
ATOM     25  N   UNL A   1      29.520  32.446  21.939  1.00  0.00    -0.225 NA
ATOM     26  H   UNL A   1      29.317  33.439  22.051  1.00  0.00     0.137 HD
ATOM     27  H   UNL A   1      29.933  32.284  21.020  1.00  0.00     0.137 HD
ENDBRANCH  22  25
ENDBRANCH  17  22
ENDBRANCH  15  16
ENDBRANCH   9  14
BRANCH  13  28
ATOM     28  O   UNL A   1      32.523  21.276  26.627  1.00  0.00    -0.507 OA
ATOM     29  H   UNL A   1      33.028  21.338  27.414  1.00  0.00     0.293 HD
ENDBRANCH  13  28
ENDBRANCH   5   8
ENDBRANCH   3   4
ENDBRANCH   2   3
ENDBRANCH   1   2
BRANCH   1  30
ATOM     30  C   UNL A   1      32.662  27.054  26.483  1.00  0.00     0.002 C 
BRANCH  30  31
ATOM     31  C   UNL A   1      32.075  28.468  26.441  1.00  0.00     0.021 C 
BRANCH  31  32
ATOM     32  C   UNL A   1      32.975  29.541  25.835  1.00  0.00     0.116 C 
BRANCH  32  33
ATOM     33  N   UNL A   1      32.641  30.875  26.301  1.00  0.00    -0.352 N 
ATOM     34  C   UNL A   1      33.283  31.666  27.223  1.00  0.00     0.251 C 
ATOM     35  H   UNL A   1      31.836  31.272  25.897  1.00  0.00     0.163 HD
ATOM     36  O   UNL A   1      32.745  32.695  27.624  1.00  0.00    -0.269 OA
BRANCH  34  37
ATOM     37  C   UNL A   1      34.604  31.261  27.753  1.00  0.00     0.039 A 
ATOM     38  C   UNL A   1      35.600  32.229  27.897  1.00  0.00     0.014 A 
ATOM     39  C   UNL A   1      34.857  29.936  28.119  1.00  0.00     0.014 A 
ATOM     40  C   UNL A   1      36.820  31.886  28.485  1.00  0.00     0.010 A 
ATOM     41  C   UNL A   1      36.046  29.611  28.769  1.00  0.00     0.010 A 
ATOM     42  C   UNL A   1      37.035  30.586  28.972  1.00  0.00    -0.014 A 
BRANCH  42  43
ATOM     43  C   UNL A   1      38.268  30.240  29.729  1.00  0.00     0.031 A 
ATOM     44  C   UNL A   1      39.239  29.229  29.182  1.00  0.00     0.074 A 
ATOM     45  C   UNL A   1      38.473  30.787  30.945  1.00  0.00     0.049 A 
ATOM     46  N   UNL A   1      40.314  28.734  29.739  1.00  0.00    -0.248 NA
ATOM     47  C   UNL A   1      38.947  28.687  27.848  1.00  0.00     0.031 C 
ATOM     48  C   UNL A   1      37.585  31.755  31.593  1.00  0.00     0.029 A 
ATOM     49  N   UNL A   1      39.481  30.602  31.859  1.00  0.00    -0.354 N 
ATOM     50  C   UNL A   1      40.825  27.816  28.827  1.00  0.00     0.074 A 
ATOM     51  C   UNL A   1      39.907  27.785  27.707  1.00  0.00     0.031 C 
ATOM     52  C   UNL A   1      38.099  32.094  32.786  1.00  0.00     0.029 A 
ATOM     53  C   UNL A   1      39.318  31.327  33.018  1.00  0.00     0.049 A 
ATOM     54  H   UNL A   1      40.249  30.007  31.700  1.00  0.00     0.167 HD
ATOM     55  C   UNL A   1      41.962  27.082  28.912  1.00  0.00     0.034 A 
ATOM     56  C   UNL A   1      40.051  31.355  34.149  1.00  0.00     0.034 A 
ATOM     57  C   UNL A   1      42.869  27.134  30.032  1.00  0.00     0.049 A 
ATOM     58  C   UNL A   1      41.284  30.490  34.238  1.00  0.00     0.074 A 
ATOM     59  C   UNL A   1      44.079  26.479  30.189  1.00  0.00     0.029 A 
ATOM     60  N   UNL A   1      42.664  27.868  31.193  1.00  0.00    -0.354 N 
ATOM     61  N   UNL A   1      41.779  29.668  33.343  1.00  0.00    -0.248 NA
ATOM     62  C   UNL A   1      42.058  30.559  35.485  1.00  0.00     0.031 C 
ATOM     63  C   UNL A   1      44.559  26.744  31.475  1.00  0.00     0.029 A 
ATOM     64  C   UNL A   1      43.697  27.638  32.089  1.00  0.00     0.049 A 
ATOM     65  H   UNL A   1      41.898  28.465  31.355  1.00  0.00     0.167 HD
ATOM     66  C   UNL A   1      42.940  29.146  33.909  1.00  0.00     0.074 A 
ATOM     67  C   UNL A   1      43.076  29.758  35.214  1.00  0.00     0.031 C 
ATOM     68  C   UNL A   1      43.814  28.243  33.396  1.00  0.00     0.034 A 
BRANCH  55  69
ATOM     69  C   UNL A   1      42.272  26.132  27.779  1.00  0.00     0.023 A 
ATOM     70  C   UNL A   1      41.786  24.813  27.761  1.00  0.00     0.031 A 
ATOM     71  C   UNL A   1      43.064  26.555  26.696  1.00  0.00     0.131 A 
ATOM     72  C   UNL A   1      42.148  23.947  26.716  1.00  0.00     0.055 A 
ATOM     73  C   UNL A   1      43.352  25.715  25.619  1.00  0.00     0.041 A 
ATOM     74  F   UNL A   1      43.576  27.796  26.669  1.00  0.00    -0.206 F 
ATOM     75  C   UNL A   1      42.904  24.398  25.632  1.00  0.00     0.022 A 
BRANCH  72  76
ATOM     76  S   UNL A   1      41.730  22.190  26.865  1.00  0.00     0.124 S 
ATOM     77  O   UNL A   1      42.065  21.694  25.532  1.00  0.00    -0.237 OA
ATOM     78  O   UNL A   1      42.602  21.749  27.948  1.00  0.00    -0.237 OA
ATOM     79  O   UNL A   1      40.303  22.201  27.176  1.00  0.00    -0.744 OA
ENDBRANCH  72  76
ENDBRANCH  55  69
BRANCH  56  80
ATOM     80  C   UNL A   1      39.625  32.193  35.309  1.00  0.00     0.023 A 
ATOM     81  C   UNL A   1      38.888  31.644  36.369  1.00  0.00     0.031 A 
ATOM     82  C   UNL A   1      39.903  33.573  35.345  1.00  0.00     0.131 A 
ATOM     83  C   UNL A   1      38.405  32.477  37.391  1.00  0.00     0.055 A 
ATOM     84  C   UNL A   1      39.477  34.385  36.397  1.00  0.00     0.041 A 
ATOM     85  F   UNL A   1      40.604  34.151  34.356  1.00  0.00    -0.206 F 
ATOM     86  C   UNL A   1      38.709  33.840  37.422  1.00  0.00     0.022 A 
BRANCH  83  87
ATOM     87  S   UNL A   1      37.279  31.771  38.625  1.00  0.00     0.124 S 
ATOM     88  O   UNL A   1      36.130  32.663  38.520  1.00  0.00    -0.237 OA
ATOM     89  O   UNL A   1      37.088  30.416  38.119  1.00  0.00    -0.237 OA
ATOM     90  O   UNL A   1      38.035  31.869  39.871  1.00  0.00    -0.744 OA
ENDBRANCH  83  87
ENDBRANCH  56  80
BRANCH  68  91
ATOM     91  C   UNL A   1      45.015  27.888  34.240  1.00  0.00     0.023 A 
ATOM     92  C   UNL A   1      45.000  26.796  35.124  1.00  0.00     0.031 A 
ATOM     93  C   UNL A   1      46.193  28.652  34.153  1.00  0.00     0.131 A 
ATOM     94  C   UNL A   1      46.122  26.528  35.924  1.00  0.00     0.055 A 
ATOM     95  C   UNL A   1      47.329  28.339  34.901  1.00  0.00     0.041 A 
ATOM     96  F   UNL A   1      46.263  29.709  33.329  1.00  0.00    -0.206 F 
ATOM     97  C   UNL A   1      47.293  27.279  35.802  1.00  0.00     0.022 A 
BRANCH  94  98
ATOM     98  S   UNL A   1      46.000  25.235  37.189  1.00  0.00     0.124 S 
ATOM     99  O   UNL A   1      46.304  24.032  36.421  1.00  0.00    -0.237 OA
ATOM    100  O   UNL A   1      47.011  25.648  38.156  1.00  0.00    -0.237 OA
ATOM    101  O   UNL A   1      44.618  25.341  37.655  1.00  0.00    -0.744 OA
ENDBRANCH  94  98
ENDBRANCH  68  91
ENDBRANCH  42  43
ENDBRANCH  34  37
ENDBRANCH  32  33
ENDBRANCH  31  32
ENDBRANCH  30  31
ENDBRANCH   1  30
TORSDOF 21
ENDMDL
MODEL 2
REMARK VINA RESULT:     -11.7      0.574      7.305
REMARK SMILES NS(=O)(=O)c1ccc(/N=N/c2ccc(O)c(C(=O)NCCCCCCNC(=O)c3ccc(-c4c5nc(c(-c6cc(S(=O)(=O)[O-])ccc6F)c6ccc([nH]6)c(-c6cc(S(=O)(=O)[O-])ccc6F)c6nc(c(-c7cc(S(=O)(=O)[O-])ccc7F)c7ccc4[nH]7)C=C6)C=C5)cc3)c2)cc1
REMARK SMILES IDX 22 1 21 2 20 3 19 4 17 5 18 6 16 8 11 9 12 10 92 11 13 12
REMARK SMILES IDX 14 13 10 14 9 15 8 16 5 17 6 18 94 19 7 20 93 21 2 22 3 23
REMARK SMILES IDX 4 24 1 25 15 28 23 30 24 31 25 32 26 33 27 34 28 36 29 37
REMARK SMILES IDX 30 38 91 39 31 40 90 41 32 42 33 43 34 44 84 45 35 46 89 47
REMARK SMILES IDX 83 48 85 49 36 50 88 51 82 52 81 53 37 55 69 56 49 57 68 58
REMARK SMILES IDX 50 59 53 60 67 61 86 62 51 63 52 64 66 66 87 67 54 68 38 69
REMARK SMILES IDX 39 70 47 71 40 72 46 73 48 74 45 75 41 76 42 77 43 78 44 79
REMARK SMILES IDX 70 80 71 81 79 82 72 83 78 84 80 85 77 86 73 87 74 88 75 89
REMARK SMILES IDX 76 90 55 91 56 92 64 93 57 94 63 95 65 96 62 97 58 98 59 99
REMARK SMILES IDX 60 100 61 101
REMARK H PARENT 19 7 1 26 1 27 15 29 26 35 85 54 53 65
REMARK Flexibility Score: inf
ROOT
ATOM      1  C   UNL A   1      33.710  26.949  26.121  1.00  0.00     0.002 C 
ENDROOT
BRANCH   1   2
ATOM      2  C   UNL A   1      34.072  25.959  25.015  1.00  0.00     0.021 C 
BRANCH   2   3
ATOM      3  C   UNL A   1      34.972  24.796  25.413  1.00  0.00     0.116 C 
BRANCH   3   4
ATOM      4  N   UNL A   1      34.753  23.579  24.644  1.00  0.00    -0.352 N 
ATOM      5  C   UNL A   1      33.618  22.821  24.461  1.00  0.00     0.255 C 
ATOM      6  O   UNL A   1      33.699  21.771  23.819  1.00  0.00    -0.269 OA
ATOM      7  H   UNL A   1      35.551  23.243  24.176  1.00  0.00     0.163 HD
BRANCH   5   8
ATOM      8  C   UNL A   1      32.310  23.163  25.080  1.00  0.00     0.083 A 
ATOM      9  C   UNL A   1      30.356  24.619  25.221  1.00  0.00     0.087 A 
ATOM     10  C   UNL A   1      30.033  24.043  26.453  1.00  0.00     0.034 A 
ATOM     11  C   UNL A   1      31.437  24.086  24.502  1.00  0.00     0.048 A 
ATOM     12  C   UNL A   1      30.802  22.997  26.975  1.00  0.00     0.049 A 
ATOM     13  C   UNL A   1      31.946  22.575  26.298  1.00  0.00     0.128 A 
BRANCH   9  14
ATOM     14  N   UNL A   1      29.637  25.757  24.774  1.00  0.00    -0.151 NA
ATOM     15  N   UNL A   1      29.987  26.062  23.609  1.00  0.00    -0.151 NA
BRANCH  15  16
ATOM     16  C   UNL A   1      29.489  27.305  23.181  1.00  0.00     0.086 A 
ATOM     17  C   UNL A   1      28.614  29.898  22.563  1.00  0.00     0.082 A 
ATOM     18  C   UNL A   1      29.949  29.551  22.348  1.00  0.00     0.024 A 
ATOM     19  C   UNL A   1      27.715  28.967  23.088  1.00  0.00     0.024 A 
ATOM     20  C   UNL A   1      30.381  28.257  22.663  1.00  0.00     0.031 A 
ATOM     21  C   UNL A   1      28.155  27.677  23.397  1.00  0.00     0.031 A 
BRANCH  17  22
ATOM     22  S   UNL A   1      28.039  31.532  22.183  1.00  0.00     0.238 S 
ATOM     23  O   UNL A   1      27.186  31.966  23.268  1.00  0.00    -0.207 OA
ATOM     24  O   UNL A   1      27.618  31.536  20.805  1.00  0.00    -0.207 OA
BRANCH  22  25
ATOM     25  N   UNL A   1      29.421  32.478  22.291  1.00  0.00    -0.225 NA
ATOM     26  H   UNL A   1      30.240  31.875  22.377  1.00  0.00     0.137 HD
ATOM     27  H   UNL A   1      29.356  33.082  23.110  1.00  0.00     0.137 HD
ENDBRANCH  22  25
ENDBRANCH  17  22
ENDBRANCH  15  16
ENDBRANCH   9  14
BRANCH  13  28
ATOM     28  O   UNL A   1      32.674  21.578  26.895  1.00  0.00    -0.507 OA
ATOM     29  H   UNL A   1      33.559  21.738  27.157  1.00  0.00     0.293 HD
ENDBRANCH  13  28
ENDBRANCH   5   8
ENDBRANCH   3   4
ENDBRANCH   2   3
ENDBRANCH   1   2
BRANCH   1  30
ATOM     30  C   UNL A   1      32.220  27.246  26.304  1.00  0.00     0.002 C 
BRANCH  30  31
ATOM     31  C   UNL A   1      31.807  28.718  26.215  1.00  0.00     0.021 C 
BRANCH  31  32
ATOM     32  C   UNL A   1      32.913  29.692  25.818  1.00  0.00     0.116 C 
BRANCH  32  33
ATOM     33  N   UNL A   1      32.690  31.029  26.339  1.00  0.00    -0.352 N 
ATOM     34  C   UNL A   1      33.401  31.731  27.282  1.00  0.00     0.251 C 
ATOM     35  H   UNL A   1      31.914  31.504  25.961  1.00  0.00     0.163 HD
ATOM     36  O   UNL A   1      32.950  32.783  27.729  1.00  0.00    -0.269 OA
BRANCH  34  37
ATOM     37  C   UNL A   1      34.691  31.204  27.779  1.00  0.00     0.039 A 
ATOM     38  C   UNL A   1      35.753  32.089  27.974  1.00  0.00     0.014 A 
ATOM     39  C   UNL A   1      34.851  29.844  28.064  1.00  0.00     0.014 A 
ATOM     40  C   UNL A   1      36.947  31.626  28.533  1.00  0.00     0.010 A 
ATOM     41  C   UNL A   1      36.016  29.399  28.686  1.00  0.00     0.010 A 
ATOM     42  C   UNL A   1      37.071  30.288  28.941  1.00  0.00    -0.014 A 
BRANCH  42  43
ATOM     43  C   UNL A   1      38.278  29.811  29.668  1.00  0.00     0.031 A 
ATOM     44  C   UNL A   1      38.610  30.355  31.031  1.00  0.00     0.074 A 
ATOM     45  C   UNL A   1      39.113  28.940  29.064  1.00  0.00     0.049 A 
ATOM     46  N   UNL A   1      39.663  30.130  31.774  1.00  0.00    -0.248 NA
ATOM     47  C   UNL A   1      37.645  31.293  31.621  1.00  0.00     0.031 C 
ATOM     48  C   UNL A   1      38.913  28.367  27.731  1.00  0.00     0.029 A 
ATOM     49  N   UNL A   1      40.300  28.391  29.483  1.00  0.00    -0.354 N 
ATOM     50  C   UNL A   1      39.492  30.903  32.918  1.00  0.00     0.074 A 
ATOM     51  C   UNL A   1      38.261  31.645  32.740  1.00  0.00     0.031 C 
ATOM     52  C   UNL A   1      39.927  27.534  27.452  1.00  0.00     0.029 A 
ATOM     53  C   UNL A   1      40.882  27.555  28.556  1.00  0.00     0.049 A 
ATOM     54  H   UNL A   1      40.698  28.577  30.364  1.00  0.00     0.167 HD
ATOM     55  C   UNL A   1      40.281  30.973  34.018  1.00  0.00     0.034 A 
ATOM     56  C   UNL A   1      42.059  26.899  28.578  1.00  0.00     0.034 A 
ATOM     57  C   UNL A   1      41.500  30.217  34.181  1.00  0.00     0.049 A 
ATOM     58  C   UNL A   1      42.943  27.034  29.794  1.00  0.00     0.074 A 
ATOM     59  C   UNL A   1      42.339  30.167  35.281  1.00  0.00     0.029 A 
ATOM     60  N   UNL A   1      42.064  29.393  33.216  1.00  0.00    -0.354 N 
ATOM     61  N   UNL A   1      42.738  27.729  30.888  1.00  0.00    -0.248 NA
ATOM     62  C   UNL A   1      44.212  26.294  29.780  1.00  0.00     0.031 C 
ATOM     63  C   UNL A   1      43.452  29.389  34.950  1.00  0.00     0.029 A 
ATOM     64  C   UNL A   1      43.265  28.875  33.677  1.00  0.00     0.049 A 
ATOM     65  H   UNL A   1      41.668  29.203  32.335  1.00  0.00     0.167 HD
ATOM     66  C   UNL A   1      43.840  27.484  31.704  1.00  0.00     0.074 A 
ATOM     67  C   UNL A   1      44.696  26.567  30.981  1.00  0.00     0.031 C 
ATOM     68  C   UNL A   1      44.119  27.973  32.939  1.00  0.00     0.034 A 
BRANCH  55  69
ATOM     69  C   UNL A   1      39.872  31.923  35.118  1.00  0.00     0.023 A 
ATOM     70  C   UNL A   1      39.099  31.503  36.214  1.00  0.00     0.031 A 
ATOM     71  C   UNL A   1      40.267  33.273  35.072  1.00  0.00     0.131 A 
ATOM     72  C   UNL A   1      38.692  32.433  37.183  1.00  0.00     0.055 A 
ATOM     73  C   UNL A   1      39.929  34.175  36.082  1.00  0.00     0.041 A 
ATOM     74  F   UNL A   1      40.986  33.738  34.039  1.00  0.00    -0.206 F 
ATOM     75  C   UNL A   1      39.125  33.761  37.139  1.00  0.00     0.022 A 
BRANCH  72  76
ATOM     76  S   UNL A   1      37.478  31.915  38.426  1.00  0.00     0.124 S 
ATOM     77  O   UNL A   1      36.388  32.857  38.183  1.00  0.00    -0.237 OA
ATOM     78  O   UNL A   1      37.219  30.529  38.055  1.00  0.00    -0.237 OA
ATOM     79  O   UNL A   1      38.181  32.103  39.692  1.00  0.00    -0.744 OA
ENDBRANCH  72  76
ENDBRANCH  55  69
BRANCH  56  80
ATOM     80  C   UNL A   1      42.499  26.090  27.404  1.00  0.00     0.023 A 
ATOM     81  C   UNL A   1      42.131  24.742  27.272  1.00  0.00     0.031 A 
ATOM     82  C   UNL A   1      43.343  26.641  26.421  1.00  0.00     0.131 A 
ATOM     83  C   UNL A   1      42.649  23.975  26.217  1.00  0.00     0.055 A 
ATOM     84  C   UNL A   1      43.803  25.890  25.337  1.00  0.00     0.041 A 
ATOM     85  F   UNL A   1      43.728  27.925  26.497  1.00  0.00    -0.206 F 
ATOM     86  C   UNL A   1      43.468  24.543  25.240  1.00  0.00     0.022 A 
BRANCH  83  87
ATOM     87  S   UNL A   1      42.324  22.190  26.203  1.00  0.00     0.124 S 
ATOM     88  O   UNL A   1      40.880  22.155  26.004  1.00  0.00    -0.237 OA
ATOM     89  O   UNL A   1      43.138  21.744  25.078  1.00  0.00    -0.237 OA
ATOM     90  O   UNL A   1      42.785  21.751  27.518  1.00  0.00    -0.744 OA
ENDBRANCH  83  87
ENDBRANCH  56  80
BRANCH  68  91
ATOM     91  C   UNL A   1      45.390  27.496  33.599  1.00  0.00     0.023 A 
ATOM     92  C   UNL A   1      45.424  26.332  34.385  1.00  0.00     0.031 A 
ATOM     93  C   UNL A   1      46.588  28.216  33.433  1.00  0.00     0.131 A 
ATOM     94  C   UNL A   1      46.617  25.948  35.017  1.00  0.00     0.055 A 
ATOM     95  C   UNL A   1      47.786  27.792  34.009  1.00  0.00     0.041 A 
ATOM     96  F   UNL A   1      46.615  29.338  32.697  1.00  0.00    -0.206 F 
ATOM     97  C   UNL A   1      47.802  26.658  34.817  1.00  0.00     0.022 A 
BRANCH  94  98
ATOM     98  S   UNL A   1      46.578  24.555  36.177  1.00  0.00     0.124 S 
ATOM     99  O   UNL A   1      47.034  23.452  35.338  1.00  0.00    -0.237 OA
ATOM    100  O   UNL A   1      47.502  24.990  37.219  1.00  0.00    -0.237 OA
ATOM    101  O   UNL A   1      45.175  24.487  36.583  1.00  0.00    -0.744 OA
ENDBRANCH  94  98
ENDBRANCH  68  91
ENDBRANCH  42  43
ENDBRANCH  34  37
ENDBRANCH  32  33
ENDBRANCH  31  32
ENDBRANCH  30  31
ENDBRANCH   1  30
TORSDOF 21
ENDMDL
MODEL 3
REMARK VINA RESULT:     -11.6      1.933      7.527
REMARK SMILES NS(=O)(=O)c1ccc(/N=N/c2ccc(O)c(C(=O)NCCCCCCNC(=O)c3ccc(-c4c5nc(c(-c6cc(S(=O)(=O)[O-])ccc6F)c6ccc([nH]6)c(-c6cc(S(=O)(=O)[O-])ccc6F)c6nc(c(-c7cc(S(=O)(=O)[O-])ccc7F)c7ccc4[nH]7)C=C6)C=C5)cc3)c2)cc1
REMARK SMILES IDX 22 1 21 2 20 3 19 4 17 5 18 6 16 8 11 9 12 10 92 11 13 12
REMARK SMILES IDX 14 13 10 14 9 15 8 16 5 17 6 18 94 19 7 20 93 21 2 22 3 23
REMARK SMILES IDX 4 24 1 25 15 28 23 30 24 31 25 32 26 33 27 34 28 36 29 37
REMARK SMILES IDX 30 38 91 39 31 40 90 41 32 42 33 43 34 44 84 45 35 46 89 47
REMARK SMILES IDX 83 48 85 49 36 50 88 51 82 52 81 53 37 55 69 56 49 57 68 58
REMARK SMILES IDX 50 59 53 60 67 61 86 62 51 63 52 64 66 66 87 67 54 68 38 69
REMARK SMILES IDX 39 70 47 71 40 72 46 73 48 74 45 75 41 76 42 77 43 78 44 79
REMARK SMILES IDX 70 80 71 81 79 82 72 83 78 84 80 85 77 86 73 87 74 88 75 89
REMARK SMILES IDX 76 90 55 91 56 92 64 93 57 94 63 95 65 96 62 97 58 98 59 99
REMARK SMILES IDX 60 100 61 101
REMARK H PARENT 19 7 1 26 1 27 15 29 26 35 85 54 53 65
REMARK Flexibility Score: inf
ROOT
ATOM      1  C   UNL A   1      34.022  26.864  25.981  1.00  0.00     0.002 C 
ENDROOT
BRANCH   1   2
ATOM      2  C   UNL A   1      34.334  25.807  24.923  1.00  0.00     0.021 C 
BRANCH   2   3
ATOM      3  C   UNL A   1      35.076  24.565  25.402  1.00  0.00     0.116 C 
BRANCH   3   4
ATOM      4  N   UNL A   1      34.785  23.362  24.635  1.00  0.00    -0.352 N 
ATOM      5  C   UNL A   1      33.613  22.660  24.468  1.00  0.00     0.255 C 
ATOM      6  O   UNL A   1      33.632  21.608  23.824  1.00  0.00    -0.269 OA
ATOM      7  H   UNL A   1      35.559  22.988  24.155  1.00  0.00     0.163 HD
BRANCH   5   8
ATOM      8  C   UNL A   1      32.332  23.064  25.107  1.00  0.00     0.083 A 
ATOM      9  C   UNL A   1      30.401  24.554  25.212  1.00  0.00     0.087 A 
ATOM     10  C   UNL A   1      30.118  24.073  26.494  1.00  0.00     0.034 A 
ATOM     11  C   UNL A   1      31.448  23.954  24.495  1.00  0.00     0.048 A 
ATOM     12  C   UNL A   1      30.894  23.058  27.063  1.00  0.00     0.049 A 
ATOM     13  C   UNL A   1      32.007  22.572  26.378  1.00  0.00     0.128 A 
BRANCH   9  14
ATOM     14  N   UNL A   1      29.678  25.665  24.708  1.00  0.00    -0.151 NA
ATOM     15  N   UNL A   1      30.252  26.135  23.697  1.00  0.00    -0.151 NA
BRANCH  15  16
ATOM     16  C   UNL A   1      29.725  27.369  23.276  1.00  0.00     0.086 A 
ATOM     17  C   UNL A   1      28.754  29.935  22.691  1.00  0.00     0.082 A 
ATOM     18  C   UNL A   1      30.127  29.689  22.642  1.00  0.00     0.024 A 
ATOM     19  C   UNL A   1      27.863  28.915  23.035  1.00  0.00     0.024 A 
ATOM     20  C   UNL A   1      30.606  28.408  22.940  1.00  0.00     0.031 A 
ATOM     21  C   UNL A   1      28.351  27.639  23.327  1.00  0.00     0.031 A 
BRANCH  17  22
ATOM     22  S   UNL A   1      28.117  31.550  22.329  1.00  0.00     0.238 S 
ATOM     23  O   UNL A   1      27.286  31.959  23.441  1.00  0.00    -0.207 OA
ATOM     24  O   UNL A   1      27.651  31.538  20.966  1.00  0.00    -0.207 OA
BRANCH  22  25
ATOM     25  N   UNL A   1      29.473  32.537  22.391  1.00  0.00    -0.225 NA
ATOM     26  H   UNL A   1      30.285  32.021  22.055  1.00  0.00     0.137 HD
ATOM     27  H   UNL A   1      29.633  32.834  23.354  1.00  0.00     0.137 HD
ENDBRANCH  22  25
ENDBRANCH  17  22
ENDBRANCH  15  16
ENDBRANCH   9  14
BRANCH  13  28
ATOM     28  O   UNL A   1      32.746  21.612  27.019  1.00  0.00    -0.507 OA
ATOM     29  H   UNL A   1      33.190  20.954  26.523  1.00  0.00     0.293 HD
ENDBRANCH  13  28
ENDBRANCH   5   8
ENDBRANCH   3   4
ENDBRANCH   2   3
ENDBRANCH   1   2
BRANCH   1  30
ATOM     30  C   UNL A   1      32.542  27.191  26.197  1.00  0.00     0.002 C 
BRANCH  30  31
ATOM     31  C   UNL A   1      32.169  28.676  26.190  1.00  0.00     0.021 C 
BRANCH  31  32
ATOM     32  C   UNL A   1      33.291  29.638  25.807  1.00  0.00     0.116 C 
BRANCH  32  33
ATOM     33  N   UNL A   1      33.040  30.993  26.264  1.00  0.00    -0.352 N 
ATOM     34  C   UNL A   1      33.666  31.712  27.255  1.00  0.00     0.251 C 
ATOM     35  H   UNL A   1      32.316  31.468  25.796  1.00  0.00     0.163 HD
ATOM     36  O   UNL A   1      33.191  32.783  27.623  1.00  0.00    -0.269 OA
BRANCH  34  37
ATOM     37  C   UNL A   1      34.889  31.180  27.895  1.00  0.00     0.039 A 
ATOM     38  C   UNL A   1      35.994  32.020  28.045  1.00  0.00     0.014 A 
ATOM     39  C   UNL A   1      34.943  29.862  28.359  1.00  0.00     0.014 A 
ATOM     40  C   UNL A   1      37.122  31.565  28.732  1.00  0.00     0.010 A 
ATOM     41  C   UNL A   1      36.040  29.434  29.105  1.00  0.00     0.010 A 
ATOM     42  C   UNL A   1      37.135  30.286  29.312  1.00  0.00    -0.014 A 
BRANCH  42  43
ATOM     43  C   UNL A   1      38.266  29.839  30.169  1.00  0.00     0.031 A 
ATOM     44  C   UNL A   1      38.437  30.395  31.556  1.00  0.00     0.074 A 
ATOM     45  C   UNL A   1      39.180  28.983  29.665  1.00  0.00     0.049 A 
ATOM     46  N   UNL A   1      39.407  30.196  32.410  1.00  0.00    -0.248 NA
ATOM     47  C   UNL A   1      37.394  31.315  32.032  1.00  0.00     0.031 C 
ATOM     48  C   UNL A   1      39.137  28.400  28.321  1.00  0.00     0.029 A 
ATOM     49  N   UNL A   1      40.326  28.462  30.213  1.00  0.00    -0.354 N 
ATOM     50  C   UNL A   1      39.097  30.970  33.524  1.00  0.00     0.074 A 
ATOM     51  C   UNL A   1      37.877  31.684  33.209  1.00  0.00     0.031 C 
ATOM     52  C   UNL A   1      40.193  27.588  28.159  1.00  0.00     0.029 A 
ATOM     53  C   UNL A   1      41.022  27.635  29.359  1.00  0.00     0.049 A 
ATOM     54  H   UNL A   1      40.622  28.660  31.131  1.00  0.00     0.167 HD
ATOM     55  C   UNL A   1      39.761  31.061  34.703  1.00  0.00     0.034 A 
ATOM     56  C   UNL A   1      42.204  27.005  29.514  1.00  0.00     0.034 A 
ATOM     57  C   UNL A   1      40.970  30.333  35.001  1.00  0.00     0.049 A 
ATOM     58  C   UNL A   1      42.947  27.163  30.817  1.00  0.00     0.074 A 
ATOM     59  C   UNL A   1      41.686  30.306  36.186  1.00  0.00     0.029 A 
ATOM     60  N   UNL A   1      41.653  29.517  34.109  1.00  0.00    -0.354 N 
ATOM     61  N   UNL A   1      42.610  27.859  31.878  1.00  0.00    -0.248 NA
ATOM     62  C   UNL A   1      44.226  26.451  30.945  1.00  0.00     0.031 C 
ATOM     63  C   UNL A   1      42.845  29.550  35.982  1.00  0.00     0.029 A 
ATOM     64  C   UNL A   1      42.808  29.027  34.700  1.00  0.00     0.049 A 
ATOM     65  H   UNL A   1      41.359  29.315  33.190  1.00  0.00     0.167 HD
ATOM     66  C   UNL A   1      43.622  27.641  32.810  1.00  0.00     0.074 A 
ATOM     67  C   UNL A   1      44.571  26.740  32.190  1.00  0.00     0.031 C 
ATOM     68  C   UNL A   1      43.755  28.141  34.065  1.00  0.00     0.034 A 
BRANCH  55  69
ATOM     69  C   UNL A   1      39.215  32.007  35.746  1.00  0.00     0.023 A 
ATOM     70  C   UNL A   1      39.653  33.339  35.843  1.00  0.00     0.031 A 
ATOM     71  C   UNL A   1      38.236  31.570  36.656  1.00  0.00     0.131 A 
ATOM     72  C   UNL A   1      39.161  34.166  36.865  1.00  0.00     0.055 A 
ATOM     73  C   UNL A   1      37.690  32.421  37.618  1.00  0.00     0.041 A 
ATOM     74  F   UNL A   1      37.796  30.302  36.628  1.00  0.00    -0.206 F 
ATOM     75  C   UNL A   1      38.162  33.725  37.736  1.00  0.00     0.022 A 
BRANCH  72  76
ATOM     76  S   UNL A   1      39.944  35.780  37.125  1.00  0.00     0.124 S 
ATOM     77  O   UNL A   1      41.339  35.400  37.338  1.00  0.00    -0.237 OA
ATOM     78  O   UNL A   1      39.655  36.476  35.876  1.00  0.00    -0.237 OA
ATOM     79  O   UNL A   1      39.264  36.306  38.306  1.00  0.00    -0.744 OA
ENDBRANCH  72  76
ENDBRANCH  55  69
BRANCH  56  80
ATOM     80  C   UNL A   1      42.785  26.200  28.399  1.00  0.00     0.023 A 
ATOM     81  C   UNL A   1      43.852  26.691  27.630  1.00  0.00     0.031 A 
ATOM     82  C   UNL A   1      42.244  24.949  28.051  1.00  0.00     0.131 A 
ATOM     83  C   UNL A   1      44.306  25.963  26.518  1.00  0.00     0.055 A 
ATOM     84  C   UNL A   1      42.743  24.198  26.985  1.00  0.00     0.041 A 
ATOM     85  F   UNL A   1      41.222  24.432  28.752  1.00  0.00    -0.206 F 
ATOM     86  C   UNL A   1      43.771  24.713  26.201  1.00  0.00     0.022 A 
BRANCH  83  87
ATOM     87  S   UNL A   1      45.536  26.728  25.426  1.00  0.00     0.124 S 
ATOM     88  O   UNL A   1      46.500  27.249  26.388  1.00  0.00    -0.237 OA
ATOM     89  O   UNL A   1      45.977  25.591  24.626  1.00  0.00    -0.237 OA
ATOM     90  O   UNL A   1      44.767  27.737  24.703  1.00  0.00    -0.744 OA
ENDBRANCH  83  87
ENDBRANCH  56  80
BRANCH  68  91
ATOM     91  C   UNL A   1      44.957  27.695  34.862  1.00  0.00     0.023 A 
ATOM     92  C   UNL A   1      44.934  26.528  35.646  1.00  0.00     0.031 A 
ATOM     93  C   UNL A   1      46.147  28.445  34.831  1.00  0.00     0.131 A 
ATOM     94  C   UNL A   1      46.058  26.173  36.406  1.00  0.00     0.055 A 
ATOM     95  C   UNL A   1      47.284  28.050  35.536  1.00  0.00     0.041 A 
ATOM     96  F   UNL A   1      46.226  29.571  34.103  1.00  0.00    -0.206 F 
ATOM     97  C   UNL A   1      47.240  26.914  36.339  1.00  0.00     0.022 A 
BRANCH  94  98
ATOM     98  S   UNL A   1      45.927  24.775  37.553  1.00  0.00     0.124 S 
ATOM     99  O   UNL A   1      45.846  23.642  36.638  1.00  0.00    -0.237 OA
ATOM    100  O   UNL A   1      47.161  24.886  38.324  1.00  0.00    -0.237 OA
ATOM    101  O   UNL A   1      44.702  25.059  38.300  1.00  0.00    -0.744 OA
ENDBRANCH  94  98
ENDBRANCH  68  91
ENDBRANCH  42  43
ENDBRANCH  34  37
ENDBRANCH  32  33
ENDBRANCH  31  32
ENDBRANCH  30  31
ENDBRANCH   1  30
TORSDOF 21
ENDMDL
