MODEL 1
REMARK VINA RESULT:     -10.4      0.000      0.000
REMARK SMILES C[C@H]([NH2+]CC1CCCC1)[C@H](C)C(=O)NCCCCCCNC(=O)c1ccc(-c2c3nc(c(-c4cc(S(=O)(=O)[O-])ccc4F)c4ccc([nH]4)c(-c4cc(S(=O)(=O)[O-])ccc4F)c4nc(c(-c5cc(S(=O)(=O)[O-])ccc5F)c5ccc2[nH]5)C=C4)C=C3)cc1
REMARK SMILES IDX 17 1 16 2 15 3 14 4 12 5 13 6 10 8 11 9 2 10 1 11 3 12 4 15
REMARK SMILES IDX 5 16 6 17 9 18 7 19 8 20 18 21 19 22 20 23 21 24 22 25 23 27
REMARK SMILES IDX 24 28 25 29 86 30 26 31 85 32 27 33 28 34 29 35 79 36 30 37
REMARK SMILES IDX 84 38 78 39 80 40 31 41 83 42 77 43 76 44 32 46 64 47 44 48
REMARK SMILES IDX 63 49 45 50 48 51 62 52 81 53 46 54 47 55 61 57 82 58 49 59
REMARK SMILES IDX 33 60 34 61 42 62 35 63 41 64 43 65 40 66 36 67 37 68 38 69
REMARK SMILES IDX 39 70 65 71 66 72 74 73 67 74 73 75 75 76 72 77 68 78 69 79
REMARK SMILES IDX 70 80 71 81 50 82 51 83 59 84 52 85 58 86 60 87 57 88 53 89
REMARK SMILES IDX 54 90 55 91 56 92
REMARK H PARENT 14 7 3 13 3 14 21 26 80 45 48 56
REMARK Flexibility Score: inf
ROOT
ATOM      1  C   UNL A   1      34.933  24.300  23.825  1.00  0.00     0.002 C 
ENDROOT
BRANCH   1   2
ATOM      2  C   UNL A   1      34.713  25.017  25.159  1.00  0.00     0.021 C 
BRANCH   2   3
ATOM      3  C   UNL A   1      33.265  25.366  25.465  1.00  0.00     0.116 C 
BRANCH   3   4
ATOM      4  N   UNL A   1      32.305  24.629  24.676  1.00  0.00    -0.356 N 
ATOM      5  C   UNL A   1      31.399  23.692  25.065  1.00  0.00     0.228 C 
ATOM      6  O   UNL A   1      30.615  23.275  24.206  1.00  0.00    -0.275 OA
ATOM      7  H   UNL A   1      32.305  24.838  23.713  1.00  0.00     0.163 HD
BRANCH   5   8
ATOM      8  C   UNL A   1      31.324  23.150  26.496  1.00  0.00     0.133 C 
ATOM      9  C   UNL A   1      29.876  23.044  26.997  1.00  0.00     0.024 C 
BRANCH   8  10
ATOM     10  C   UNL A   1      32.242  21.924  26.811  1.00  0.00     0.191 C 
ATOM     11  C   UNL A   1      33.585  22.365  27.406  1.00  0.00     0.076 C 
BRANCH  10  12
ATOM     12  N   UNL A   1      32.467  21.088  25.633  1.00  0.00    -0.343 N 
ATOM     13  H   UNL A   1      32.637  21.712  24.844  1.00  0.00     0.346 HD
ATOM     14  H   UNL A   1      31.630  20.510  25.562  1.00  0.00     0.346 HD
BRANCH  12  15
ATOM     15  C   UNL A   1      33.573  20.134  25.680  1.00  0.00     0.264 C 
BRANCH  15  16
ATOM     16  C   UNL A   1      33.133  18.958  24.796  1.00  0.00     0.044 C 
ATOM     17  C   UNL A   1      32.469  19.376  23.482  1.00  0.00     0.009 C 
ATOM     18  C   UNL A   1      34.258  18.058  24.304  1.00  0.00     0.009 C 
ATOM     19  C   UNL A   1      32.410  18.070  22.697  1.00  0.00     0.001 C 
ATOM     20  C   UNL A   1      33.600  17.240  23.191  1.00  0.00     0.001 C 
ENDBRANCH  15  16
ENDBRANCH  12  15
ENDBRANCH  10  12
ENDBRANCH   8  10
ENDBRANCH   5   8
ENDBRANCH   3   4
ENDBRANCH   2   3
ENDBRANCH   1   2
BRANCH   1  21
ATOM     21  C   UNL A   1      35.218  22.795  23.906  1.00  0.00     0.002 C 
BRANCH  21  22
ATOM     22  C   UNL A   1      36.658  22.400  24.241  1.00  0.00     0.021 C 
BRANCH  22  23
ATOM     23  C   UNL A   1      36.945  22.145  25.717  1.00  0.00     0.116 C 
BRANCH  23  24
ATOM     24  N   UNL A   1      38.013  21.185  25.918  1.00  0.00    -0.352 N 
ATOM     25  C   UNL A   1      39.316  21.391  26.302  1.00  0.00     0.251 C 
ATOM     26  H   UNL A   1      37.768  20.245  25.756  1.00  0.00     0.163 HD
ATOM     27  O   UNL A   1      40.114  20.464  26.257  1.00  0.00    -0.269 OA
BRANCH  25  28
ATOM     28  C   UNL A   1      39.755  22.738  26.736  1.00  0.00     0.039 A 
ATOM     29  C   UNL A   1      40.678  22.837  27.779  1.00  0.00     0.014 A 
ATOM     30  C   UNL A   1      39.258  23.896  26.130  1.00  0.00     0.014 A 
ATOM     31  C   UNL A   1      41.143  24.092  28.177  1.00  0.00     0.010 A 
ATOM     32  C   UNL A   1      39.782  25.140  26.474  1.00  0.00     0.010 A 
ATOM     33  C   UNL A   1      40.725  25.254  27.506  1.00  0.00    -0.014 A 
BRANCH  33  34
ATOM     34  C   UNL A   1      41.258  26.590  27.884  1.00  0.00     0.031 A 
ATOM     35  C   UNL A   1      42.686  26.952  27.570  1.00  0.00     0.074 A 
ATOM     36  C   UNL A   1      40.470  27.460  28.544  1.00  0.00     0.049 A 
ATOM     37  N   UNL A   1      43.346  28.044  27.859  1.00  0.00    -0.248 NA
ATOM     38  C   UNL A   1      43.484  25.938  26.862  1.00  0.00     0.031 C 
ATOM     39  C   UNL A   1      39.080  27.210  28.935  1.00  0.00     0.029 A 
ATOM     40  N   UNL A   1      40.718  28.728  29.007  1.00  0.00    -0.354 N 
ATOM     41  C   UNL A   1      44.636  27.847  27.377  1.00  0.00     0.074 A 
ATOM     42  C   UNL A   1      44.681  26.504  26.840  1.00  0.00     0.031 C 
ATOM     43  C   UNL A   1      38.592  28.302  29.546  1.00  0.00     0.029 A 
ATOM     44  C   UNL A   1      39.644  29.309  29.640  1.00  0.00     0.049 A 
ATOM     45  H   UNL A   1      41.585  29.181  28.895  1.00  0.00     0.167 HD
ATOM     46  C   UNL A   1      45.679  28.715  27.362  1.00  0.00     0.034 A 
ATOM     47  C   UNL A   1      39.522  30.510  30.240  1.00  0.00     0.034 A 
ATOM     48  C   UNL A   1      45.614  30.053  27.899  1.00  0.00     0.049 A 
ATOM     49  C   UNL A   1      40.706  31.443  30.244  1.00  0.00     0.074 A 
ATOM     50  C   UNL A   1      46.595  31.031  27.896  1.00  0.00     0.029 A 
ATOM     51  N   UNL A   1      44.512  30.602  28.545  1.00  0.00    -0.354 N 
ATOM     52  N   UNL A   1      41.905  31.260  29.740  1.00  0.00    -0.248 NA
ATOM     53  C   UNL A   1      40.517  32.751  30.885  1.00  0.00     0.031 C 
ATOM     54  C   UNL A   1      46.116  32.136  28.607  1.00  0.00     0.029 A 
ATOM     55  C   UNL A   1      44.803  31.889  28.974  1.00  0.00     0.049 A 
ATOM     56  H   UNL A   1      43.651  30.144  28.678  1.00  0.00     0.167 HD
ATOM     57  C   UNL A   1      42.600  32.446  29.972  1.00  0.00     0.074 A 
ATOM     58  C   UNL A   1      41.679  33.338  30.644  1.00  0.00     0.031 C 
ATOM     59  C   UNL A   1      43.879  32.768  29.654  1.00  0.00     0.034 A 
BRANCH  46  60
ATOM     60  C   UNL A   1      46.982  28.229  26.771  1.00  0.00     0.023 A 
ATOM     61  C   UNL A   1      47.213  28.231  25.383  1.00  0.00     0.031 A 
ATOM     62  C   UNL A   1      48.002  27.734  27.603  1.00  0.00     0.131 A 
ATOM     63  C   UNL A   1      48.394  27.677  24.867  1.00  0.00     0.055 A 
ATOM     64  C   UNL A   1      49.213  27.266  27.088  1.00  0.00     0.041 A 
ATOM     65  F   UNL A   1      47.834  27.683  28.934  1.00  0.00    -0.206 F 
ATOM     66  C   UNL A   1      49.409  27.221  25.711  1.00  0.00     0.022 A 
BRANCH  63  67
ATOM     67  S   UNL A   1      48.518  27.419  23.076  1.00  0.00     0.124 S 
ATOM     68  O   UNL A   1      47.359  28.164  22.590  1.00  0.00    -0.237 OA
ATOM     69  O   UNL A   1      49.823  27.993  22.764  1.00  0.00    -0.237 OA
ATOM     70  O   UNL A   1      48.423  25.968  22.931  1.00  0.00    -0.744 OA
ENDBRANCH  63  67
ENDBRANCH  46  60
BRANCH  47  71
ATOM     71  C   UNL A   1      38.240  30.903  30.897  1.00  0.00     0.023 A 
ATOM     72  C   UNL A   1      37.240  31.587  30.188  1.00  0.00     0.031 A 
ATOM     73  C   UNL A   1      38.016  30.643  32.262  1.00  0.00     0.131 A 
ATOM     74  C   UNL A   1      36.090  32.035  30.855  1.00  0.00     0.055 A 
ATOM     75  C   UNL A   1      36.843  31.036  32.907  1.00  0.00     0.041 A 
ATOM     76  F   UNL A   1      38.937  29.990  32.989  1.00  0.00    -0.206 F 
ATOM     77  C   UNL A   1      35.877  31.751  32.206  1.00  0.00     0.022 A 
BRANCH  74  78
ATOM     78  S   UNL A   1      34.917  33.087  29.955  1.00  0.00     0.124 S 
ATOM     79  O   UNL A   1      35.813  34.022  29.284  1.00  0.00    -0.237 OA
ATOM     80  O   UNL A   1      34.240  32.120  29.097  1.00  0.00    -0.237 OA
ATOM     81  O   UNL A   1      34.093  33.662  31.015  1.00  0.00    -0.744 OA
ENDBRANCH  74  78
ENDBRANCH  47  71
BRANCH  59  82
ATOM     82  C   UNL A   1      44.338  34.170  29.984  1.00  0.00     0.023 A 
ATOM     83  C   UNL A   1      44.995  34.474  31.189  1.00  0.00     0.031 A 
ATOM     84  C   UNL A   1      44.095  35.223  29.082  1.00  0.00     0.131 A 
ATOM     85  C   UNL A   1      45.326  35.804  31.489  1.00  0.00     0.055 A 
ATOM     86  C   UNL A   1      44.492  36.532  29.354  1.00  0.00     0.041 A 
ATOM     87  F   UNL A   1      43.467  34.994  27.918  1.00  0.00    -0.206 F 
ATOM     88  C   UNL A   1      45.096  36.832  30.572  1.00  0.00     0.022 A 
BRANCH  85  89
ATOM     89  S   UNL A   1      45.955  36.193  33.146  1.00  0.00     0.124 S 
ATOM     90  O   UNL A   1      46.523  34.915  33.562  1.00  0.00    -0.237 OA
ATOM     91  O   UNL A   1      46.915  37.258  32.872  1.00  0.00    -0.237 OA
ATOM     92  O   UNL A   1      44.760  36.609  33.878  1.00  0.00    -0.744 OA
ENDBRANCH  85  89
ENDBRANCH  59  82
ENDBRANCH  33  34
ENDBRANCH  25  28
ENDBRANCH  23  24
ENDBRANCH  22  23
ENDBRANCH  21  22
ENDBRANCH   1  21
TORSDOF 20
ENDMDL
MODEL 2
REMARK VINA RESULT:     -10.3      5.047      9.925
REMARK SMILES C[C@H]([NH2+]CC1CCCC1)[C@H](C)C(=O)NCCCCCCNC(=O)c1ccc(-c2c3nc(c(-c4cc(S(=O)(=O)[O-])ccc4F)c4ccc([nH]4)c(-c4cc(S(=O)(=O)[O-])ccc4F)c4nc(c(-c5cc(S(=O)(=O)[O-])ccc5F)c5ccc2[nH]5)C=C4)C=C3)cc1
REMARK SMILES IDX 17 1 16 2 15 3 14 4 12 5 13 6 10 8 11 9 2 10 1 11 3 12 4 15
REMARK SMILES IDX 5 16 6 17 9 18 7 19 8 20 18 21 19 22 20 23 21 24 22 25 23 27
REMARK SMILES IDX 24 28 25 29 86 30 26 31 85 32 27 33 28 34 29 35 79 36 30 37
REMARK SMILES IDX 84 38 78 39 80 40 31 41 83 42 77 43 76 44 32 46 64 47 44 48
REMARK SMILES IDX 63 49 45 50 48 51 62 52 81 53 46 54 47 55 61 57 82 58 49 59
REMARK SMILES IDX 33 60 34 61 42 62 35 63 41 64 43 65 40 66 36 67 37 68 38 69
REMARK SMILES IDX 39 70 65 71 66 72 74 73 67 74 73 75 75 76 72 77 68 78 69 79
REMARK SMILES IDX 70 80 71 81 50 82 51 83 59 84 52 85 58 86 60 87 57 88 53 89
REMARK SMILES IDX 54 90 55 91 56 92
REMARK H PARENT 14 7 3 13 3 14 21 26 80 45 48 56
REMARK Flexibility Score: inf
ROOT
ATOM      1  C   UNL A   1      33.257  25.904  26.142  1.00  0.00     0.002 C 
ENDROOT
BRANCH   1   2
ATOM      2  C   UNL A   1      34.086  25.795  24.860  1.00  0.00     0.021 C 
BRANCH   2   3
ATOM      3  C   UNL A   1      33.809  26.877  23.829  1.00  0.00     0.116 C 
BRANCH   3   4
ATOM      4  N   UNL A   1      33.795  26.398  22.465  1.00  0.00    -0.356 N 
ATOM      5  C   UNL A   1      32.775  25.856  21.747  1.00  0.00     0.228 C 
ATOM      6  O   UNL A   1      32.993  25.613  20.555  1.00  0.00    -0.275 OA
ATOM      7  H   UNL A   1      34.651  26.478  21.984  1.00  0.00     0.163 HD
BRANCH   5   8
ATOM      8  C   UNL A   1      31.403  25.543  22.354  1.00  0.00     0.133 C 
ATOM      9  C   UNL A   1      31.369  24.158  23.017  1.00  0.00     0.024 C 
BRANCH   8  10
ATOM     10  C   UNL A   1      30.737  26.701  23.166  1.00  0.00     0.191 C 
ATOM     11  C   UNL A   1      29.563  26.191  24.011  1.00  0.00     0.076 C 
BRANCH  10  12
ATOM     12  N   UNL A   1      30.294  27.795  22.303  1.00  0.00    -0.343 N 
ATOM     13  H   UNL A   1      29.279  27.734  22.231  1.00  0.00     0.346 HD
ATOM     14  H   UNL A   1      30.805  27.659  21.431  1.00  0.00     0.346 HD
BRANCH  12  15
ATOM     15  C   UNL A   1      30.622  29.158  22.714  1.00  0.00     0.264 C 
BRANCH  15  16
ATOM     16  C   UNL A   1      29.301  29.937  22.628  1.00  0.00     0.044 C 
ATOM     17  C   UNL A   1      29.126  30.994  23.721  1.00  0.00     0.009 C 
ATOM     18  C   UNL A   1      29.114  30.763  21.363  1.00  0.00     0.009 C 
ATOM     19  C   UNL A   1      27.919  31.791  23.237  1.00  0.00     0.001 C 
ATOM     20  C   UNL A   1      27.944  31.685  21.708  1.00  0.00     0.001 C 
ENDBRANCH  15  16
ENDBRANCH  12  15
ENDBRANCH  10  12
ENDBRANCH   8  10
ENDBRANCH   5   8
ENDBRANCH   3   4
ENDBRANCH   2   3
ENDBRANCH   1   2
BRANCH   1  21
ATOM     21  C   UNL A   1      32.519  27.230  26.360  1.00  0.00     0.002 C 
BRANCH  21  22
ATOM     22  C   UNL A   1      33.219  28.249  27.262  1.00  0.00     0.021 C 
BRANCH  22  23
ATOM     23  C   UNL A   1      34.047  29.307  26.543  1.00  0.00     0.116 C 
BRANCH  23  24
ATOM     24  N   UNL A   1      33.783  30.647  27.031  1.00  0.00    -0.352 N 
ATOM     25  C   UNL A   1      34.475  31.396  27.952  1.00  0.00     0.251 C 
ATOM     26  H   UNL A   1      32.991  31.085  26.644  1.00  0.00     0.163 HD
ATOM     27  O   UNL A   1      33.998  32.449  28.356  1.00  0.00    -0.269 OA
BRANCH  25  28
ATOM     28  C   UNL A   1      35.774  30.912  28.475  1.00  0.00     0.039 A 
ATOM     29  C   UNL A   1      35.772  29.893  29.430  1.00  0.00     0.014 A 
ATOM     30  C   UNL A   1      36.984  31.460  28.039  1.00  0.00     0.014 A 
ATOM     31  C   UNL A   1      36.984  29.387  29.905  1.00  0.00     0.010 A 
ATOM     32  C   UNL A   1      38.190  30.901  28.454  1.00  0.00     0.010 A 
ATOM     33  C   UNL A   1      38.205  29.862  29.397  1.00  0.00    -0.014 A 
BRANCH  33  34
ATOM     34  C   UNL A   1      39.499  29.290  29.854  1.00  0.00     0.031 A 
ATOM     35  C   UNL A   1      40.241  29.919  31.003  1.00  0.00     0.074 A 
ATOM     36  C   UNL A   1      40.025  28.230  29.209  1.00  0.00     0.049 A 
ATOM     37  N   UNL A   1      41.401  29.596  31.516  1.00  0.00    -0.248 NA
ATOM     38  C   UNL A   1      39.606  31.082  31.642  1.00  0.00     0.031 C 
ATOM     39  C   UNL A   1      39.417  27.556  28.059  1.00  0.00     0.029 A 
ATOM     40  N   UNL A   1      41.188  27.533  29.421  1.00  0.00    -0.354 N 
ATOM     41  C   UNL A   1      41.638  30.519  32.530  1.00  0.00     0.074 A 
ATOM     42  C   UNL A   1      40.534  31.453  32.511  1.00  0.00     0.031 C 
ATOM     43  C   UNL A   1      40.195  26.524  27.692  1.00  0.00     0.029 A 
ATOM     44  C   UNL A   1      41.381  26.493  28.541  1.00  0.00     0.049 A 
ATOM     45  H   UNL A   1      41.825  27.755  30.139  1.00  0.00     0.167 HD
ATOM     46  C   UNL A   1      42.669  30.567  33.410  1.00  0.00     0.034 A 
ATOM     47  C   UNL A   1      42.402  25.621  28.422  1.00  0.00     0.034 A 
ATOM     48  C   UNL A   1      43.760  29.622  33.418  1.00  0.00     0.049 A 
ATOM     49  C   UNL A   1      43.556  25.718  29.389  1.00  0.00     0.074 A 
ATOM     50  C   UNL A   1      44.832  29.551  34.291  1.00  0.00     0.029 A 
ATOM     51  N   UNL A   1      43.929  28.590  32.502  1.00  0.00    -0.354 N 
ATOM     52  N   UNL A   1      43.741  26.567  30.373  1.00  0.00    -0.248 NA
ATOM     53  C   UNL A   1      44.631  24.729  29.237  1.00  0.00     0.031 C 
ATOM     54  C   UNL A   1      45.685  28.531  33.858  1.00  0.00     0.029 A 
ATOM     55  C   UNL A   1      45.103  27.901  32.770  1.00  0.00     0.049 A 
ATOM     56  H   UNL A   1      43.305  28.379  31.770  1.00  0.00     0.167 HD
ATOM     57  C   UNL A   1      44.937  26.190  30.980  1.00  0.00     0.074 A 
ATOM     58  C   UNL A   1      45.416  25.028  30.260  1.00  0.00     0.031 C 
ATOM     59  C   UNL A   1      45.578  26.749  32.039  1.00  0.00     0.034 A 
BRANCH  46  60
ATOM     60  C   UNL A   1      42.675  31.695  34.417  1.00  0.00     0.023 A 
ATOM     61  C   UNL A   1      42.001  31.593  35.648  1.00  0.00     0.031 A 
ATOM     62  C   UNL A   1      43.344  32.899  34.135  1.00  0.00     0.131 A 
ATOM     63  C   UNL A   1      41.943  32.698  36.510  1.00  0.00     0.055 A 
ATOM     64  C   UNL A   1      43.359  33.964  35.038  1.00  0.00     0.041 A 
ATOM     65  F   UNL A   1      43.986  33.067  32.968  1.00  0.00    -0.206 F 
ATOM     66  C   UNL A   1      42.641  33.874  36.228  1.00  0.00     0.022 A 
BRANCH  63  67
ATOM     67  S   UNL A   1      40.817  32.630  37.930  1.00  0.00     0.124 S 
ATOM     68  O   UNL A   1      41.619  31.899  38.908  1.00  0.00    -0.237 OA
ATOM     69  O   UNL A   1      40.587  34.041  38.219  1.00  0.00    -0.237 OA
ATOM     70  O   UNL A   1      39.659  31.901  37.415  1.00  0.00    -0.744 OA
ENDBRANCH  63  67
ENDBRANCH  46  60
BRANCH  47  71
ATOM     71  C   UNL A   1      42.394  24.587  27.346  1.00  0.00     0.023 A 
ATOM     72  C   UNL A   1      41.608  23.429  27.457  1.00  0.00     0.031 A 
ATOM     73  C   UNL A   1      43.214  24.717  26.210  1.00  0.00     0.131 A 
ATOM     74  C   UNL A   1      41.697  22.425  26.481  1.00  0.00     0.055 A 
ATOM     75  C   UNL A   1      43.253  23.744  25.210  1.00  0.00     0.041 A 
ATOM     76  F   UNL A   1      43.986  25.805  26.050  1.00  0.00    -0.206 F 
ATOM     77  C   UNL A   1      42.503  22.581  25.351  1.00  0.00     0.022 A 
BRANCH  74  78
ATOM     78  S   UNL A   1      40.820  20.861  26.760  1.00  0.00     0.124 S 
ATOM     79  O   UNL A   1      39.520  21.140  26.161  1.00  0.00    -0.237 OA
ATOM     80  O   UNL A   1      41.665  19.909  26.047  1.00  0.00    -0.237 OA
ATOM     81  O   UNL A   1      40.822  20.726  28.215  1.00  0.00    -0.744 OA
ENDBRANCH  74  78
ENDBRANCH  47  71
BRANCH  59  82
ATOM     82  C   UNL A   1      46.843  26.072  32.513  1.00  0.00     0.023 A 
ATOM     83  C   UNL A   1      46.822  25.035  33.462  1.00  0.00     0.031 A 
ATOM     84  C   UNL A   1      48.093  26.487  32.017  1.00  0.00     0.131 A 
ATOM     85  C   UNL A   1      48.028  24.496  33.935  1.00  0.00     0.055 A 
ATOM     86  C   UNL A   1      49.285  25.897  32.438  1.00  0.00     0.041 A 
ATOM     87  F   UNL A   1      48.176  27.477  31.113  1.00  0.00    -0.206 F 
ATOM     88  C   UNL A   1      49.258  24.906  33.415  1.00  0.00     0.022 A 
BRANCH  85  89
ATOM     89  S   UNL A   1      47.976  23.331  35.326  1.00  0.00     0.124 S 
ATOM     90  O   UNL A   1      49.386  23.218  35.679  1.00  0.00    -0.237 OA
ATOM     91  O   UNL A   1      47.132  24.034  36.288  1.00  0.00    -0.237 OA
ATOM     92  O   UNL A   1      47.383  22.129  34.744  1.00  0.00    -0.744 OA
ENDBRANCH  85  89
ENDBRANCH  59  82
ENDBRANCH  33  34
ENDBRANCH  25  28
ENDBRANCH  23  24
ENDBRANCH  22  23
ENDBRANCH  21  22
ENDBRANCH   1  21
TORSDOF 20
ENDMDL
MODEL 3
REMARK VINA RESULT:     -10.2      4.644      9.761
REMARK SMILES C[C@H]([NH2+]CC1CCCC1)[C@H](C)C(=O)NCCCCCCNC(=O)c1ccc(-c2c3nc(c(-c4cc(S(=O)(=O)[O-])ccc4F)c4ccc([nH]4)c(-c4cc(S(=O)(=O)[O-])ccc4F)c4nc(c(-c5cc(S(=O)(=O)[O-])ccc5F)c5ccc2[nH]5)C=C4)C=C3)cc1
REMARK SMILES IDX 17 1 16 2 15 3 14 4 12 5 13 6 10 8 11 9 2 10 1 11 3 12 4 15
REMARK SMILES IDX 5 16 6 17 9 18 7 19 8 20 18 21 19 22 20 23 21 24 22 25 23 27
REMARK SMILES IDX 24 28 25 29 86 30 26 31 85 32 27 33 28 34 29 35 79 36 30 37
REMARK SMILES IDX 84 38 78 39 80 40 31 41 83 42 77 43 76 44 32 46 64 47 44 48
REMARK SMILES IDX 63 49 45 50 48 51 62 52 81 53 46 54 47 55 61 57 82 58 49 59
REMARK SMILES IDX 33 60 34 61 42 62 35 63 41 64 43 65 40 66 36 67 37 68 38 69
REMARK SMILES IDX 39 70 65 71 66 72 74 73 67 74 73 75 75 76 72 77 68 78 69 79
REMARK SMILES IDX 70 80 71 81 50 82 51 83 59 84 52 85 58 86 60 87 57 88 53 89
REMARK SMILES IDX 54 90 55 91 56 92
REMARK H PARENT 14 7 3 13 3 14 21 26 80 45 48 56
REMARK Flexibility Score: inf
ROOT
ATOM      1  C   UNL A   1      33.250  26.041  26.053  1.00  0.00     0.002 C 
ENDROOT
BRANCH   1   2
ATOM      2  C   UNL A   1      34.176  25.999  24.836  1.00  0.00     0.021 C 
BRANCH   2   3
ATOM      3  C   UNL A   1      33.828  26.987  23.735  1.00  0.00     0.116 C 
BRANCH   3   4
ATOM      4  N   UNL A   1      33.821  26.411  22.409  1.00  0.00    -0.356 N 
ATOM      5  C   UNL A   1      32.824  25.759  21.752  1.00  0.00     0.228 C 
ATOM      6  O   UNL A   1      33.037  25.443  20.577  1.00  0.00    -0.275 OA
ATOM      7  H   UNL A   1      34.663  26.506  21.907  1.00  0.00     0.163 HD
BRANCH   5   8
ATOM      8  C   UNL A   1      31.483  25.411  22.407  1.00  0.00     0.133 C 
ATOM      9  C   UNL A   1      31.523  24.046  23.111  1.00  0.00     0.024 C 
BRANCH   8  10
ATOM     10  C   UNL A   1      30.794  26.566  23.204  1.00  0.00     0.191 C 
ATOM     11  C   UNL A   1      29.587  26.056  24.002  1.00  0.00     0.076 C 
BRANCH  10  12
ATOM     12  N   UNL A   1      30.388  27.669  22.335  1.00  0.00    -0.343 N 
ATOM     13  H   UNL A   1      29.372  27.730  22.374  1.00  0.00     0.346 HD
ATOM     14  H   UNL A   1      30.779  27.436  21.422  1.00  0.00     0.346 HD
BRANCH  12  15
ATOM     15  C   UNL A   1      30.917  28.998  22.635  1.00  0.00     0.264 C 
BRANCH  15  16
ATOM     16  C   UNL A   1      29.704  29.938  22.591  1.00  0.00     0.044 C 
ATOM     17  C   UNL A   1      28.356  29.218  22.510  1.00  0.00     0.009 C 
ATOM     18  C   UNL A   1      29.515  30.815  23.821  1.00  0.00     0.009 C 
ATOM     19  C   UNL A   1      27.353  30.336  22.775  1.00  0.00     0.001 C 
ATOM     20  C   UNL A   1      28.087  31.342  23.668  1.00  0.00     0.001 C 
ENDBRANCH  15  16
ENDBRANCH  12  15
ENDBRANCH  10  12
ENDBRANCH   8  10
ENDBRANCH   5   8
ENDBRANCH   3   4
ENDBRANCH   2   3
ENDBRANCH   1   2
BRANCH   1  21
ATOM     21  C   UNL A   1      32.611  27.400  26.370  1.00  0.00     0.002 C 
BRANCH  21  22
ATOM     22  C   UNL A   1      33.439  28.344  27.244  1.00  0.00     0.021 C 
BRANCH  22  23
ATOM     23  C   UNL A   1      34.174  29.454  26.501  1.00  0.00     0.116 C 
BRANCH  23  24
ATOM     24  N   UNL A   1      33.905  30.767  27.055  1.00  0.00    -0.352 N 
ATOM     25  C   UNL A   1      34.565  31.451  28.047  1.00  0.00     0.251 C 
ATOM     26  H   UNL A   1      33.136  31.239  26.661  1.00  0.00     0.163 HD
ATOM     27  O   UNL A   1      34.084  32.486  28.491  1.00  0.00    -0.269 OA
BRANCH  25  28
ATOM     28  C   UNL A   1      35.834  30.919  28.596  1.00  0.00     0.039 A 
ATOM     29  C   UNL A   1      35.777  29.879  29.526  1.00  0.00     0.014 A 
ATOM     30  C   UNL A   1      37.071  31.443  28.208  1.00  0.00     0.014 A 
ATOM     31  C   UNL A   1      36.960  29.328  30.024  1.00  0.00     0.010 A 
ATOM     32  C   UNL A   1      38.249  30.841  28.645  1.00  0.00     0.010 A 
ATOM     33  C   UNL A   1      38.207  29.781  29.563  1.00  0.00    -0.014 A 
BRANCH  33  34
ATOM     34  C   UNL A   1      39.471  29.162  30.043  1.00  0.00     0.031 A 
ATOM     35  C   UNL A   1      40.169  29.712  31.259  1.00  0.00     0.074 A 
ATOM     36  C   UNL A   1      40.011  28.132  29.362  1.00  0.00     0.049 A 
ATOM     37  N   UNL A   1      41.299  29.341  31.804  1.00  0.00    -0.248 NA
ATOM     38  C   UNL A   1      39.522  30.848  31.934  1.00  0.00     0.031 C 
ATOM     39  C   UNL A   1      39.446  27.535  28.150  1.00  0.00     0.029 A 
ATOM     40  N   UNL A   1      41.153  27.405  29.586  1.00  0.00    -0.354 N 
ATOM     41  C   UNL A   1      41.504  30.201  32.878  1.00  0.00     0.074 A 
ATOM     42  C   UNL A   1      40.414  31.153  32.864  1.00  0.00     0.031 C 
ATOM     43  C   UNL A   1      40.225  26.512  27.759  1.00  0.00     0.029 A 
ATOM     44  C   UNL A   1      41.371  26.413  28.657  1.00  0.00     0.049 A 
ATOM     45  H   UNL A   1      41.760  27.575  30.343  1.00  0.00     0.167 HD
ATOM     46  C   UNL A   1      42.494  30.182  33.805  1.00  0.00     0.034 A 
ATOM     47  C   UNL A   1      42.385  25.533  28.534  1.00  0.00     0.034 A 
ATOM     48  C   UNL A   1      43.570  29.220  33.807  1.00  0.00     0.049 A 
ATOM     49  C   UNL A   1      43.494  25.555  29.555  1.00  0.00     0.074 A 
ATOM     50  C   UNL A   1      44.600  29.081  34.722  1.00  0.00     0.029 A 
ATOM     51  N   UNL A   1      43.766  28.239  32.841  1.00  0.00    -0.354 N 
ATOM     52  N   UNL A   1      43.646  26.344  30.594  1.00  0.00    -0.248 NA
ATOM     53  C   UNL A   1      44.561  24.559  29.395  1.00  0.00     0.031 C 
ATOM     54  C   UNL A   1      45.458  28.074  34.269  1.00  0.00     0.029 A 
ATOM     55  C   UNL A   1      44.916  27.517  33.122  1.00  0.00     0.049 A 
ATOM     56  H   UNL A   1      43.173  28.080  32.072  1.00  0.00     0.167 HD
ATOM     57  C   UNL A   1      44.808  25.913  31.231  1.00  0.00     0.074 A 
ATOM     58  C   UNL A   1      45.303  24.786  30.468  1.00  0.00     0.031 C 
ATOM     59  C   UNL A   1      45.408  26.400  32.347  1.00  0.00     0.034 A 
BRANCH  46  60
ATOM     60  C   UNL A   1      42.470  31.250  34.874  1.00  0.00     0.023 A 
ATOM     61  C   UNL A   1      43.058  32.513  34.674  1.00  0.00     0.031 A 
ATOM     62  C   UNL A   1      41.869  30.999  36.121  1.00  0.00     0.131 A 
ATOM     63  C   UNL A   1      43.105  33.441  35.725  1.00  0.00     0.055 A 
ATOM     64  C   UNL A   1      41.839  31.960  37.133  1.00  0.00     0.041 A 
ATOM     65  F   UNL A   1      41.311  29.806  36.382  1.00  0.00    -0.206 F 
ATOM     66  C   UNL A   1      42.474  33.184  36.945  1.00  0.00     0.022 A 
BRANCH  63  67
ATOM     67  S   UNL A   1      44.134  34.921  35.528  1.00  0.00     0.124 S 
ATOM     68  O   UNL A   1      45.462  34.336  35.364  1.00  0.00    -0.237 OA
ATOM     69  O   UNL A   1      43.560  35.549  34.343  1.00  0.00    -0.237 OA
ATOM     70  O   UNL A   1      43.932  35.648  36.780  1.00  0.00    -0.744 OA
ENDBRANCH  63  67
ENDBRANCH  46  60
BRANCH  47  71
ATOM     71  C   UNL A   1      42.411  24.561  27.401  1.00  0.00     0.023 A 
ATOM     72  C   UNL A   1      41.612  23.407  27.415  1.00  0.00     0.031 A 
ATOM     73  C   UNL A   1      43.276  24.747  26.307  1.00  0.00     0.131 A 
ATOM     74  C   UNL A   1      41.732  22.459  26.387  1.00  0.00     0.055 A 
ATOM     75  C   UNL A   1      43.347  23.832  25.255  1.00  0.00     0.041 A 
ATOM     76  F   UNL A   1      44.062  25.835  26.240  1.00  0.00    -0.206 F 
ATOM     77  C   UNL A   1      42.582  22.672  25.300  1.00  0.00     0.022 A 
BRANCH  74  78
ATOM     78  S   UNL A   1      40.832  20.891  26.542  1.00  0.00     0.124 S 
ATOM     79  O   UNL A   1      39.527  21.243  25.995  1.00  0.00    -0.237 OA
ATOM     80  O   UNL A   1      41.647  19.994  25.730  1.00  0.00    -0.237 OA
ATOM     81  O   UNL A   1      40.857  20.626  27.979  1.00  0.00    -0.744 OA
ENDBRANCH  74  78
ENDBRANCH  47  71
BRANCH  59  82
ATOM     82  C   UNL A   1      46.641  25.676  32.838  1.00  0.00     0.023 A 
ATOM     83  C   UNL A   1      47.910  25.903  32.279  1.00  0.00     0.031 A 
ATOM     84  C   UNL A   1      46.536  24.729  33.874  1.00  0.00     0.131 A 
ATOM     85  C   UNL A   1      49.010  25.145  32.709  1.00  0.00     0.055 A 
ATOM     86  C   UNL A   1      47.647  24.031  34.348  1.00  0.00     0.041 A 
ATOM     87  F   UNL A   1      45.349  24.466  34.443  1.00  0.00    -0.206 F 
ATOM     88  C   UNL A   1      48.891  24.225  33.753  1.00  0.00     0.022 A 
BRANCH  85  89
ATOM     89  S   UNL A   1      50.576  25.294  31.807  1.00  0.00     0.124 S 
ATOM     90  O   UNL A   1      51.353  24.193  32.365  1.00  0.00    -0.237 OA
ATOM     91  O   UNL A   1      50.152  25.135  30.419  1.00  0.00    -0.237 OA
ATOM     92  O   UNL A   1      51.051  26.630  32.160  1.00  0.00    -0.744 OA
ENDBRANCH  85  89
ENDBRANCH  59  82
ENDBRANCH  33  34
ENDBRANCH  25  28
ENDBRANCH  23  24
ENDBRANCH  22  23
ENDBRANCH  21  22
ENDBRANCH   1  21
TORSDOF 20
ENDMDL
