MODEL 1
REMARK VINA RESULT:     -11.0      0.000      0.000
REMARK SMILES CC(C)(C)n1ccnc(N(CC(=O)NCCCCCCNC(=O)c2ccc(-c3c4nc(c(-c5cc(S(=O)(=O)[O-])ccc5F)c5ccc([nH]5)c(-c5cc(S(=O)(=O)[O-])ccc5F)c5nc(c(-c6cc(S(=O)(=O)[O-])ccc6F)c6ccc3[nH]6)C=C5)C=C4)cc2)CC(F)(F)F)c1=O
REMARK SMILES IDX 17 1 16 2 15 3 14 4 12 5 13 6 11 8 10 9 9 10 5 11 6 12 92 13
REMARK SMILES IDX 7 14 93 15 8 16 2 17 1 18 3 19 4 20 87 21 88 22 89 23 90 24
REMARK SMILES IDX 91 25 18 26 19 27 20 28 21 29 22 30 23 32 24 33 25 34 86 35
REMARK SMILES IDX 26 36 85 37 27 38 28 39 29 40 79 41 30 42 84 43 78 44 80 45
REMARK SMILES IDX 31 46 83 47 77 48 76 49 32 51 64 52 44 53 63 54 45 55 48 56
REMARK SMILES IDX 62 57 81 58 46 59 47 60 61 62 82 63 49 64 33 65 34 66 42 67
REMARK SMILES IDX 35 68 41 69 43 70 40 71 36 72 37 73 38 74 39 75 65 76 66 77
REMARK SMILES IDX 74 78 67 79 73 80 75 81 72 82 68 83 69 84 70 85 71 86 50 87
REMARK SMILES IDX 51 88 59 89 52 90 58 91 60 92 57 93 53 94 54 95 55 96 56 97
REMARK H PARENT 14 7 21 31 80 50 48 61
REMARK Flexibility Score: inf
ROOT
ATOM      1  C   UNL A   1      33.713  28.689  25.681  1.00  0.00     0.002 C 
ENDROOT
BRANCH   1   2
ATOM      2  C   UNL A   1      33.687  27.205  26.068  1.00  0.00     0.021 C 
BRANCH   2   3
ATOM      3  C   UNL A   1      32.286  26.667  26.348  1.00  0.00     0.116 C 
BRANCH   3   4
ATOM      4  N   UNL A   1      32.346  25.358  26.973  1.00  0.00    -0.355 N 
ATOM      5  C   UNL A   1      31.575  24.260  26.730  1.00  0.00     0.239 C 
ATOM      6  O   UNL A   1      31.703  23.274  27.463  1.00  0.00    -0.273 OA
ATOM      7  H   UNL A   1      33.039  25.248  27.663  1.00  0.00     0.163 HD
BRANCH   5   8
ATOM      8  C   UNL A   1      30.584  24.252  25.565  1.00  0.00     0.218 C 
BRANCH   8   9
ATOM      9  N   UNL A   1      31.218  23.984  24.260  1.00  0.00    -0.334 N 
BRANCH   9  10
ATOM     10  C   UNL A   1      32.140  22.928  24.129  1.00  0.00     0.196 A 
ATOM     11  N   UNL A   1      34.471  21.995  24.407  1.00  0.00    -0.306 N 
ATOM     12  C   UNL A   1      33.853  20.775  24.184  1.00  0.00     0.110 A 
ATOM     13  C   UNL A   1      33.687  23.154  24.300  1.00  0.00     0.294 A 
ATOM     14  C   UNL A   1      32.557  20.684  23.886  1.00  0.00     0.131 A 
ATOM     15  O   UNL A   1      34.102  24.308  24.309  1.00  0.00    -0.265 OA
ATOM     16  N   UNL A   1      31.683  21.728  23.869  1.00  0.00    -0.233 NA
BRANCH  11  17
ATOM     17  C   UNL A   1      35.912  22.017  24.849  1.00  0.00     0.039 C 
ATOM     18  C   UNL A   1      36.178  22.862  26.116  1.00  0.00     0.034 C 
ATOM     19  C   UNL A   1      36.836  22.603  23.753  1.00  0.00     0.034 C 
ATOM     20  C   UNL A   1      36.347  20.570  25.163  1.00  0.00     0.034 C 
ENDBRANCH  11  17
ENDBRANCH   9  10
BRANCH   9  21
ATOM     21  C   UNL A   1      30.714  24.789  23.117  1.00  0.00     0.234 C 
BRANCH  21  22
ATOM     22  C   UNL A   1      31.774  25.529  22.282  1.00  0.00     0.405 C 
ATOM     23  F   UNL A   1      31.260  26.355  21.348  1.00  0.00    -0.169 F 
ATOM     24  F   UNL A   1      32.580  26.268  23.083  1.00  0.00    -0.169 F 
ATOM     25  F   UNL A   1      32.577  24.649  21.634  1.00  0.00    -0.169 F 
ENDBRANCH  21  22
ENDBRANCH   9  21
ENDBRANCH   8   9
ENDBRANCH   5   8
ENDBRANCH   3   4
ENDBRANCH   2   3
ENDBRANCH   1   2
BRANCH   1  26
ATOM     26  C   UNL A   1      32.583  29.120  24.740  1.00  0.00     0.002 C 
BRANCH  26  27
ATOM     27  C   UNL A   1      31.590  30.107  25.352  1.00  0.00     0.021 C 
BRANCH  27  28
ATOM     28  C   UNL A   1      31.944  30.546  26.767  1.00  0.00     0.116 C 
BRANCH  28  29
ATOM     29  N   UNL A   1      31.901  31.994  26.922  1.00  0.00    -0.352 N 
ATOM     30  C   UNL A   1      32.845  32.822  27.488  1.00  0.00     0.251 C 
ATOM     31  H   UNL A   1      31.093  32.439  26.578  1.00  0.00     0.163 HD
ATOM     32  O   UNL A   1      32.595  34.000  27.716  1.00  0.00    -0.269 OA
BRANCH  30  33
ATOM     33  C   UNL A   1      34.151  32.237  27.853  1.00  0.00     0.039 A 
ATOM     34  C   UNL A   1      34.221  30.890  28.213  1.00  0.00     0.014 A 
ATOM     35  C   UNL A   1      35.267  33.067  27.963  1.00  0.00     0.014 A 
ATOM     36  C   UNL A   1      35.346  30.426  28.881  1.00  0.00     0.010 A 
ATOM     37  C   UNL A   1      36.434  32.565  28.544  1.00  0.00     0.010 A 
ATOM     38  C   UNL A   1      36.460  31.263  29.070  1.00  0.00    -0.014 A 
BRANCH  38  39
ATOM     39  C   UNL A   1      37.630  30.765  29.840  1.00  0.00     0.031 A 
ATOM     40  C   UNL A   1      38.596  29.784  29.230  1.00  0.00     0.074 A 
ATOM     41  C   UNL A   1      37.843  31.231  31.085  1.00  0.00     0.049 A 
ATOM     42  N   UNL A   1      39.659  29.237  29.762  1.00  0.00    -0.248 NA
ATOM     43  C   UNL A   1      38.334  29.354  27.848  1.00  0.00     0.031 C 
ATOM     44  C   UNL A   1      36.982  32.195  31.770  1.00  0.00     0.029 A 
ATOM     45  N   UNL A   1      38.841  30.970  31.989  1.00  0.00    -0.354 N 
ATOM     46  C   UNL A   1      40.173  28.377  28.797  1.00  0.00     0.074 A 
ATOM     47  C   UNL A   1      39.288  28.453  27.656  1.00  0.00     0.031 C 
ATOM     48  C   UNL A   1      37.509  32.476  32.967  1.00  0.00     0.029 A 
ATOM     49  C   UNL A   1      38.694  31.649  33.176  1.00  0.00     0.049 A 
ATOM     50  H   UNL A   1      39.589  30.356  31.807  1.00  0.00     0.167 HD
ATOM     51  C   UNL A   1      41.286  27.607  28.859  1.00  0.00     0.034 A 
ATOM     52  C   UNL A   1      39.408  31.596  34.318  1.00  0.00     0.034 A 
ATOM     53  C   UNL A   1      42.169  27.566  29.999  1.00  0.00     0.049 A 
ATOM     54  C   UNL A   1      40.621  30.709  34.378  1.00  0.00     0.074 A 
ATOM     55  C   UNL A   1      43.352  26.863  30.134  1.00  0.00     0.029 A 
ATOM     56  N   UNL A   1      41.970  28.243  31.196  1.00  0.00    -0.354 N 
ATOM     57  N   UNL A   1      41.127  29.946  33.437  1.00  0.00    -0.248 NA
ATOM     58  C   UNL A   1      41.362  30.670  35.644  1.00  0.00     0.031 C 
ATOM     59  C   UNL A   1      43.822  27.043  31.435  1.00  0.00     0.029 A 
ATOM     60  C   UNL A   1      42.986  27.937  32.087  1.00  0.00     0.049 A 
ATOM     61  H   UNL A   1      41.218  28.851  31.382  1.00  0.00     0.167 HD
ATOM     62  C   UNL A   1      42.254  29.347  33.993  1.00  0.00     0.074 A 
ATOM     63  C   UNL A   1      42.371  29.860  35.343  1.00  0.00     0.031 C 
ATOM     64  C   UNL A   1      43.105  28.450  33.433  1.00  0.00     0.034 A 
BRANCH  51  65
ATOM     65  C   UNL A   1      41.634  26.730  27.677  1.00  0.00     0.023 A 
ATOM     66  C   UNL A   1      41.186  25.395  27.643  1.00  0.00     0.031 A 
ATOM     67  C   UNL A   1      42.507  27.160  26.661  1.00  0.00     0.131 A 
ATOM     68  C   UNL A   1      41.640  24.530  26.639  1.00  0.00     0.055 A 
ATOM     69  C   UNL A   1      42.915  26.308  25.635  1.00  0.00     0.041 A 
ATOM     70  F   UNL A   1      42.970  28.421  26.649  1.00  0.00    -0.206 F 
ATOM     71  C   UNL A   1      42.493  24.982  25.628  1.00  0.00     0.022 A 
BRANCH  68  72
ATOM     72  S   UNL A   1      41.209  22.768  26.652  1.00  0.00     0.124 S 
ATOM     73  O   UNL A   1      42.016  22.255  25.546  1.00  0.00    -0.237 OA
ATOM     74  O   UNL A   1      41.645  22.357  27.984  1.00  0.00    -0.237 OA
ATOM     75  O   UNL A   1      39.768  22.756  26.428  1.00  0.00    -0.744 OA
ENDBRANCH  68  72
ENDBRANCH  51  65
BRANCH  52  76
ATOM     76  C   UNL A   1      38.980  32.451  35.464  1.00  0.00     0.023 A 
ATOM     77  C   UNL A   1      39.427  33.783  35.567  1.00  0.00     0.031 A 
ATOM     78  C   UNL A   1      38.269  31.905  36.544  1.00  0.00     0.131 A 
ATOM     79  C   UNL A   1      39.251  34.483  36.767  1.00  0.00     0.055 A 
ATOM     80  C   UNL A   1      38.020  32.639  37.704  1.00  0.00     0.041 A 
ATOM     81  F   UNL A   1      37.834  30.637  36.494  1.00  0.00    -0.206 F 
ATOM     82  C   UNL A   1      38.535  33.927  37.830  1.00  0.00     0.022 A 
BRANCH  79  83
ATOM     83  S   UNL A   1      40.093  36.067  37.044  1.00  0.00     0.124 S 
ATOM     84  O   UNL A   1      39.897  36.745  35.768  1.00  0.00    -0.237 OA
ATOM     85  O   UNL A   1      39.335  36.608  38.171  1.00  0.00    -0.237 OA
ATOM     86  O   UNL A   1      41.465  35.680  37.350  1.00  0.00    -0.744 OA
ENDBRANCH  79  83
ENDBRANCH  52  76
BRANCH  64  87
ATOM     87  C   UNL A   1      44.261  27.934  34.260  1.00  0.00     0.023 A 
ATOM     88  C   UNL A   1      44.092  26.790  35.066  1.00  0.00     0.031 A 
ATOM     89  C   UNL A   1      45.458  28.660  34.383  1.00  0.00     0.131 A 
ATOM     90  C   UNL A   1      45.077  26.440  35.998  1.00  0.00     0.055 A 
ATOM     91  C   UNL A   1      46.463  28.273  35.272  1.00  0.00     0.041 A 
ATOM     92  F   UNL A   1      45.665  29.762  33.645  1.00  0.00    -0.206 F 
ATOM     93  C   UNL A   1      46.266  27.169  36.098  1.00  0.00     0.022 A 
BRANCH  90  94
ATOM     94  S   UNL A   1      44.806  25.094  37.185  1.00  0.00     0.124 S 
ATOM     95  O   UNL A   1      45.189  23.921  36.403  1.00  0.00    -0.237 OA
ATOM     96  O   UNL A   1      45.721  25.450  38.265  1.00  0.00    -0.237 OA
ATOM     97  O   UNL A   1      43.386  25.189  37.507  1.00  0.00    -0.744 OA
ENDBRANCH  90  94
ENDBRANCH  64  87
ENDBRANCH  38  39
ENDBRANCH  30  33
ENDBRANCH  28  29
ENDBRANCH  27  28
ENDBRANCH  26  27
ENDBRANCH   1  26
TORSDOF 21
ENDMDL
MODEL 2
REMARK VINA RESULT:     -10.9      0.818      7.625
REMARK SMILES CC(C)(C)n1ccnc(N(CC(=O)NCCCCCCNC(=O)c2ccc(-c3c4nc(c(-c5cc(S(=O)(=O)[O-])ccc5F)c5ccc([nH]5)c(-c5cc(S(=O)(=O)[O-])ccc5F)c5nc(c(-c6cc(S(=O)(=O)[O-])ccc6F)c6ccc3[nH]6)C=C5)C=C4)cc2)CC(F)(F)F)c1=O
REMARK SMILES IDX 17 1 16 2 15 3 14 4 12 5 13 6 11 8 10 9 9 10 5 11 6 12 92 13
REMARK SMILES IDX 7 14 93 15 8 16 2 17 1 18 3 19 4 20 87 21 88 22 89 23 90 24
REMARK SMILES IDX 91 25 18 26 19 27 20 28 21 29 22 30 23 32 24 33 25 34 86 35
REMARK SMILES IDX 26 36 85 37 27 38 28 39 29 40 79 41 30 42 84 43 78 44 80 45
REMARK SMILES IDX 31 46 83 47 77 48 76 49 32 51 64 52 44 53 63 54 45 55 48 56
REMARK SMILES IDX 62 57 81 58 46 59 47 60 61 62 82 63 49 64 33 65 34 66 42 67
REMARK SMILES IDX 35 68 41 69 43 70 40 71 36 72 37 73 38 74 39 75 65 76 66 77
REMARK SMILES IDX 74 78 67 79 73 80 75 81 72 82 68 83 69 84 70 85 71 86 50 87
REMARK SMILES IDX 51 88 59 89 52 90 58 91 60 92 57 93 53 94 54 95 55 96 56 97
REMARK H PARENT 14 7 21 31 80 50 48 61
REMARK Flexibility Score: inf
ROOT
ATOM      1  C   UNL A   1      33.593  29.070  25.699  1.00  0.00     0.002 C 
ENDROOT
BRANCH   1   2
ATOM      2  C   UNL A   1      33.464  27.749  26.467  1.00  0.00     0.021 C 
BRANCH   2   3
ATOM      3  C   UNL A   1      32.022  27.278  26.642  1.00  0.00     0.116 C 
BRANCH   3   4
ATOM      4  N   UNL A   1      31.975  25.899  27.094  1.00  0.00    -0.355 N 
ATOM      5  C   UNL A   1      31.200  24.876  26.634  1.00  0.00     0.239 C 
ATOM      6  O   UNL A   1      31.219  23.801  27.242  1.00  0.00    -0.273 OA
ATOM      7  H   UNL A   1      32.587  25.672  27.830  1.00  0.00     0.163 HD
BRANCH   5   8
ATOM      8  C   UNL A   1      30.337  25.058  25.384  1.00  0.00     0.218 C 
BRANCH   8   9
ATOM      9  N   UNL A   1      31.091  24.902  24.125  1.00  0.00    -0.334 N 
BRANCH   9  10
ATOM     10  C   UNL A   1      31.934  23.788  23.944  1.00  0.00     0.196 A 
ATOM     11  N   UNL A   1      34.197  22.686  24.143  1.00  0.00    -0.306 N 
ATOM     12  C   UNL A   1      33.491  21.519  23.899  1.00  0.00     0.110 A 
ATOM     13  C   UNL A   1      33.495  23.900  24.088  1.00  0.00     0.294 A 
ATOM     14  C   UNL A   1      32.186  21.529  23.628  1.00  0.00     0.131 A 
ATOM     15  O   UNL A   1      33.991  25.021  24.121  1.00  0.00    -0.265 OA
ATOM     16  N   UNL A   1      31.387  22.631  23.659  1.00  0.00    -0.233 NA
BRANCH  11  17
ATOM     17  C   UNL A   1      35.645  22.594  24.555  1.00  0.00     0.039 C 
ATOM     18  C   UNL A   1      36.040  23.532  25.718  1.00  0.00     0.034 C 
ATOM     19  C   UNL A   1      36.594  22.954  23.386  1.00  0.00     0.034 C 
ATOM     20  C   UNL A   1      35.930  21.149  25.015  1.00  0.00     0.034 C 
ENDBRANCH  11  17
ENDBRANCH   9  10
BRANCH   9  21
ATOM     21  C   UNL A   1      30.786  25.891  23.059  1.00  0.00     0.234 C 
BRANCH  21  22
ATOM     22  C   UNL A   1      29.779  26.997  23.422  1.00  0.00     0.405 C 
ATOM     23  F   UNL A   1      30.034  27.608  24.597  1.00  0.00    -0.169 F 
ATOM     24  F   UNL A   1      29.753  27.952  22.461  1.00  0.00    -0.169 F 
ATOM     25  F   UNL A   1      28.521  26.496  23.501  1.00  0.00    -0.169 F 
ENDBRANCH  21  22
ENDBRANCH   9  21
ENDBRANCH   8   9
ENDBRANCH   5   8
ENDBRANCH   3   4
ENDBRANCH   2   3
ENDBRANCH   1   2
BRANCH   1  26
ATOM     26  C   UNL A   1      32.364  29.442  24.863  1.00  0.00     0.002 C 
BRANCH  26  27
ATOM     27  C   UNL A   1      31.483  30.528  25.480  1.00  0.00     0.021 C 
BRANCH  27  28
ATOM     28  C   UNL A   1      31.901  30.939  26.887  1.00  0.00     0.116 C 
BRANCH  28  29
ATOM     29  N   UNL A   1      31.912  32.386  27.058  1.00  0.00    -0.352 N 
ATOM     30  C   UNL A   1      32.898  33.174  27.608  1.00  0.00     0.251 C 
ATOM     31  H   UNL A   1      31.111  32.862  26.739  1.00  0.00     0.163 HD
ATOM     32  O   UNL A   1      32.696  34.358  27.853  1.00  0.00    -0.269 OA
BRANCH  30  33
ATOM     33  C   UNL A   1      34.192  32.540  27.933  1.00  0.00     0.039 A 
ATOM     34  C   UNL A   1      34.231  31.176  28.227  1.00  0.00     0.014 A 
ATOM     35  C   UNL A   1      35.329  33.335  28.073  1.00  0.00     0.014 A 
ATOM     36  C   UNL A   1      35.348  30.652  28.863  1.00  0.00     0.010 A 
ATOM     37  C   UNL A   1      36.488  32.777  28.618  1.00  0.00     0.010 A 
ATOM     38  C   UNL A   1      36.484  31.451  29.082  1.00  0.00    -0.014 A 
BRANCH  38  39
ATOM     39  C   UNL A   1      37.648  30.888  29.817  1.00  0.00     0.031 A 
ATOM     40  C   UNL A   1      37.915  31.268  31.249  1.00  0.00     0.074 A 
ATOM     41  C   UNL A   1      38.448  30.000  29.197  1.00  0.00     0.049 A 
ATOM     42  N   UNL A   1      38.889  30.883  32.035  1.00  0.00    -0.248 NA
ATOM     43  C   UNL A   1      36.974  32.204  31.884  1.00  0.00     0.031 C 
ATOM     44  C   UNL A   1      38.275  29.548  27.817  1.00  0.00     0.029 A 
ATOM     45  N   UNL A   1      39.551  29.315  29.639  1.00  0.00    -0.354 N 
ATOM     46  C   UNL A   1      38.699  31.552  33.239  1.00  0.00     0.074 A 
ATOM     47  C   UNL A   1      37.532  32.389  33.073  1.00  0.00     0.031 C 
ATOM     48  C   UNL A   1      39.209  28.632  27.538  1.00  0.00     0.029 A 
ATOM     49  C   UNL A   1      40.103  28.495  28.684  1.00  0.00     0.049 A 
ATOM     50  H   UNL A   1      39.912  29.402  30.551  1.00  0.00     0.167 HD
ATOM     51  C   UNL A   1      39.426  31.463  34.378  1.00  0.00     0.034 A 
ATOM     52  C   UNL A   1      41.219  27.738  28.708  1.00  0.00     0.034 A 
ATOM     53  C   UNL A   1      40.573  30.601  34.530  1.00  0.00     0.049 A 
ATOM     54  C   UNL A   1      42.032  27.680  29.972  1.00  0.00     0.074 A 
ATOM     55  C   UNL A   1      41.340  30.397  35.663  1.00  0.00     0.029 A 
ATOM     56  N   UNL A   1      41.122  29.809  33.531  1.00  0.00    -0.354 N 
ATOM     57  N   UNL A   1      41.807  28.272  31.121  1.00  0.00    -0.248 NA
ATOM     58  C   UNL A   1      43.247  26.855  29.951  1.00  0.00     0.031 C 
ATOM     59  C   UNL A   1      42.400  29.554  35.328  1.00  0.00     0.029 A 
ATOM     60  C   UNL A   1      42.244  29.151  34.011  1.00  0.00     0.049 A 
ATOM     61  H   UNL A   1      40.768  29.727  32.616  1.00  0.00     0.167 HD
ATOM     62  C   UNL A   1      42.843  27.882  31.964  1.00  0.00     0.074 A 
ATOM     63  C   UNL A   1      43.679  26.978  31.200  1.00  0.00     0.031 C 
ATOM     64  C   UNL A   1      43.078  28.247  33.251  1.00  0.00     0.034 A 
BRANCH  51  65
ATOM     65  C   UNL A   1      39.032  32.313  35.565  1.00  0.00     0.023 A 
ATOM     66  C   UNL A   1      39.520  33.630  35.674  1.00  0.00     0.031 A 
ATOM     67  C   UNL A   1      38.295  31.791  36.643  1.00  0.00     0.131 A 
ATOM     68  C   UNL A   1      39.298  34.365  36.845  1.00  0.00     0.055 A 
ATOM     69  C   UNL A   1      38.032  32.546  37.787  1.00  0.00     0.041 A 
ATOM     70  F   UNL A   1      37.811  30.538  36.596  1.00  0.00    -0.206 F 
ATOM     71  C   UNL A   1      38.546  33.834  37.898  1.00  0.00     0.022 A 
BRANCH  68  72
ATOM     72  S   UNL A   1      40.041  36.002  37.083  1.00  0.00     0.124 S 
ATOM     73  O   UNL A   1      39.769  36.643  35.798  1.00  0.00    -0.237 OA
ATOM     74  O   UNL A   1      39.276  36.523  38.213  1.00  0.00    -0.237 OA
ATOM     75  O   UNL A   1      41.446  35.716  37.350  1.00  0.00    -0.744 OA
ENDBRANCH  68  72
ENDBRANCH  51  65
BRANCH  52  76
ATOM     76  C   UNL A   1      41.577  26.963  27.484  1.00  0.00     0.023 A 
ATOM     77  C   UNL A   1      41.336  25.576  27.421  1.00  0.00     0.031 A 
ATOM     78  C   UNL A   1      42.312  27.556  26.445  1.00  0.00     0.131 A 
ATOM     79  C   UNL A   1      41.918  24.816  26.399  1.00  0.00     0.055 A 
ATOM     80  C   UNL A   1      42.814  26.805  25.381  1.00  0.00     0.041 A 
ATOM     81  F   UNL A   1      42.575  28.871  26.469  1.00  0.00    -0.206 F 
ATOM     82  C   UNL A   1      42.641  25.424  25.369  1.00  0.00     0.022 A 
BRANCH  79  83
ATOM     83  S   UNL A   1      41.899  23.003  26.471  1.00  0.00     0.124 S 
ATOM     84  O   UNL A   1      42.495  22.640  25.190  1.00  0.00    -0.237 OA
ATOM     85  O   UNL A   1      42.726  22.748  27.648  1.00  0.00    -0.237 OA
ATOM     86  O   UNL A   1      40.486  22.678  26.625  1.00  0.00    -0.744 OA
ENDBRANCH  79  83
ENDBRANCH  52  76
BRANCH  64  87
ATOM     87  C   UNL A   1      44.294  27.687  33.952  1.00  0.00     0.023 A 
ATOM     88  C   UNL A   1      44.177  26.524  34.740  1.00  0.00     0.031 A 
ATOM     89  C   UNL A   1      45.512  28.387  33.983  1.00  0.00     0.131 A 
ATOM     90  C   UNL A   1      45.236  26.130  35.566  1.00  0.00     0.055 A 
ATOM     91  C   UNL A   1      46.586  27.957  34.764  1.00  0.00     0.041 A 
ATOM     92  F   UNL A   1      45.673  29.507  33.259  1.00  0.00    -0.206 F 
ATOM     93  C   UNL A   1      46.444  26.834  35.575  1.00  0.00     0.022 A 
BRANCH  90  94
ATOM     94  S   UNL A   1      45.048  24.755  36.736  1.00  0.00     0.124 S 
ATOM     95  O   UNL A   1      43.829  25.130  37.449  1.00  0.00    -0.237 OA
ATOM     96  O   UNL A   1      44.922  23.607  35.843  1.00  0.00    -0.237 OA
ATOM     97  O   UNL A   1      46.271  24.801  37.532  1.00  0.00    -0.744 OA
ENDBRANCH  90  94
ENDBRANCH  64  87
ENDBRANCH  38  39
ENDBRANCH  30  33
ENDBRANCH  28  29
ENDBRANCH  27  28
ENDBRANCH  26  27
ENDBRANCH   1  26
TORSDOF 21
ENDMDL
MODEL 3
REMARK VINA RESULT:     -10.9      2.081      2.786
REMARK SMILES CC(C)(C)n1ccnc(N(CC(=O)NCCCCCCNC(=O)c2ccc(-c3c4nc(c(-c5cc(S(=O)(=O)[O-])ccc5F)c5ccc([nH]5)c(-c5cc(S(=O)(=O)[O-])ccc5F)c5nc(c(-c6cc(S(=O)(=O)[O-])ccc6F)c6ccc3[nH]6)C=C5)C=C4)cc2)CC(F)(F)F)c1=O
REMARK SMILES IDX 17 1 16 2 15 3 14 4 12 5 13 6 11 8 10 9 9 10 5 11 6 12 92 13
REMARK SMILES IDX 7 14 93 15 8 16 2 17 1 18 3 19 4 20 87 21 88 22 89 23 90 24
REMARK SMILES IDX 91 25 18 26 19 27 20 28 21 29 22 30 23 32 24 33 25 34 86 35
REMARK SMILES IDX 26 36 85 37 27 38 28 39 29 40 79 41 30 42 84 43 78 44 80 45
REMARK SMILES IDX 31 46 83 47 77 48 76 49 32 51 64 52 44 53 63 54 45 55 48 56
REMARK SMILES IDX 62 57 81 58 46 59 47 60 61 62 82 63 49 64 33 65 34 66 42 67
REMARK SMILES IDX 35 68 41 69 43 70 40 71 36 72 37 73 38 74 39 75 65 76 66 77
REMARK SMILES IDX 74 78 67 79 73 80 75 81 72 82 68 83 69 84 70 85 71 86 50 87
REMARK SMILES IDX 51 88 59 89 52 90 58 91 60 92 57 93 53 94 54 95 55 96 56 97
REMARK H PARENT 14 7 21 31 80 50 48 61
REMARK Flexibility Score: inf
ROOT
ATOM      1  C   UNL A   1      32.186  28.327  26.230  1.00  0.00     0.002 C 
ENDROOT
BRANCH   1   2
ATOM      2  C   UNL A   1      30.959  27.506  26.650  1.00  0.00     0.021 C 
BRANCH   2   3
ATOM      3  C   UNL A   1      30.901  26.120  26.012  1.00  0.00     0.116 C 
BRANCH   3   4
ATOM      4  N   UNL A   1      31.516  25.125  26.872  1.00  0.00    -0.355 N 
ATOM      5  C   UNL A   1      31.671  23.788  26.655  1.00  0.00     0.239 C 
ATOM      6  O   UNL A   1      32.111  23.087  27.572  1.00  0.00    -0.273 OA
ATOM      7  H   UNL A   1      31.872  25.462  27.725  1.00  0.00     0.163 HD
BRANCH   5   8
ATOM      8  C   UNL A   1      31.318  23.177  25.298  1.00  0.00     0.218 C 
BRANCH   8   9
ATOM      9  N   UNL A   1      32.493  22.953  24.433  1.00  0.00    -0.334 N 
BRANCH   9  10
ATOM     10  C   UNL A   1      33.385  21.901  24.718  1.00  0.00     0.196 A 
ATOM     11  N   UNL A   1      33.933  19.436  24.776  1.00  0.00    -0.306 N 
ATOM     12  C   UNL A   1      35.234  19.877  24.958  1.00  0.00     0.110 A 
ATOM     13  C   UNL A   1      32.914  20.401  24.740  1.00  0.00     0.294 A 
ATOM     14  C   UNL A   1      35.529  21.170  25.089  1.00  0.00     0.131 A 
ATOM     15  O   UNL A   1      31.709  20.176  24.746  1.00  0.00    -0.265 OA
ATOM     16  N   UNL A   1      34.639  22.193  24.958  1.00  0.00    -0.233 NA
BRANCH  11  17
ATOM     17  C   UNL A   1      33.684  17.971  24.522  1.00  0.00     0.039 C 
ATOM     18  C   UNL A   1      34.956  17.094  24.540  1.00  0.00     0.034 C 
ATOM     19  C   UNL A   1      33.032  17.735  23.137  1.00  0.00     0.034 C 
ATOM     20  C   UNL A   1      32.744  17.438  25.624  1.00  0.00     0.034 C 
ENDBRANCH  11  17
ENDBRANCH   9  10
BRANCH   9  21
ATOM     21  C   UNL A   1      32.570  23.797  23.212  1.00  0.00     0.234 C 
BRANCH  21  22
ATOM     22  C   UNL A   1      33.238  25.173  23.374  1.00  0.00     0.405 C 
ATOM     23  F   UNL A   1      34.133  25.466  22.409  1.00  0.00    -0.169 F 
ATOM     24  F   UNL A   1      32.306  26.158  23.381  1.00  0.00    -0.169 F 
ATOM     25  F   UNL A   1      33.893  25.254  24.559  1.00  0.00    -0.169 F 
ENDBRANCH  21  22
ENDBRANCH   9  21
ENDBRANCH   8   9
ENDBRANCH   5   8
ENDBRANCH   3   4
ENDBRANCH   2   3
ENDBRANCH   1   2
BRANCH   1  26
ATOM     26  C   UNL A   1      32.652  29.349  27.271  1.00  0.00     0.002 C 
BRANCH  26  27
ATOM     27  C   UNL A   1      32.488  30.808  26.845  1.00  0.00     0.021 C 
BRANCH  27  28
ATOM     28  C   UNL A   1      33.503  31.755  27.472  1.00  0.00     0.116 C 
BRANCH  28  29
ATOM     29  N   UNL A   1      33.003  33.121  27.560  1.00  0.00    -0.352 N 
ATOM     30  C   UNL A   1      33.332  34.095  28.476  1.00  0.00     0.251 C 
ATOM     31  H   UNL A   1      32.345  33.382  26.875  1.00  0.00     0.163 HD
ATOM     32  O   UNL A   1      32.698  35.141  28.539  1.00  0.00    -0.269 OA
BRANCH  30  33
ATOM     33  C   UNL A   1      34.444  33.822  29.408  1.00  0.00     0.039 A 
ATOM     34  C   UNL A   1      35.742  34.195  29.054  1.00  0.00     0.014 A 
ATOM     35  C   UNL A   1      34.204  33.077  30.563  1.00  0.00     0.014 A 
ATOM     36  C   UNL A   1      36.816  33.644  29.740  1.00  0.00     0.010 A 
ATOM     37  C   UNL A   1      35.288  32.610  31.311  1.00  0.00     0.010 A 
ATOM     38  C   UNL A   1      36.602  32.830  30.866  1.00  0.00    -0.014 A 
BRANCH  38  39
ATOM     39  C   UNL A   1      37.763  32.202  31.551  1.00  0.00     0.031 A 
ATOM     40  C   UNL A   1      38.562  31.117  30.879  1.00  0.00     0.074 A 
ATOM     41  C   UNL A   1      38.119  32.640  32.773  1.00  0.00     0.049 A 
ATOM     42  N   UNL A   1      39.594  30.453  31.335  1.00  0.00    -0.248 NA
ATOM     43  C   UNL A   1      38.150  30.720  29.523  1.00  0.00     0.031 C 
ATOM     44  C   UNL A   1      37.427  33.695  33.512  1.00  0.00     0.029 A 
ATOM     45  N   UNL A   1      39.146  32.267  33.602  1.00  0.00    -0.354 N 
ATOM     46  C   UNL A   1      39.933  29.540  30.342  1.00  0.00     0.074 A 
ATOM     47  C   UNL A   1      38.979  29.716  29.269  1.00  0.00     0.031 C 
ATOM     48  C   UNL A   1      38.071  33.915  34.664  1.00  0.00     0.029 A 
ATOM     49  C   UNL A   1      39.166  32.958  34.791  1.00  0.00     0.049 A 
ATOM     50  H   UNL A   1      39.804  31.572  33.370  1.00  0.00     0.167 HD
ATOM     51  C   UNL A   1      40.952  28.649  30.327  1.00  0.00     0.034 A 
ATOM     52  C   UNL A   1      39.954  32.824  35.877  1.00  0.00     0.034 A 
ATOM     53  C   UNL A   1      41.908  28.507  31.398  1.00  0.00     0.049 A 
ATOM     54  C   UNL A   1      41.059  31.804  35.854  1.00  0.00     0.074 A 
ATOM     55  C   UNL A   1      43.011  27.674  31.451  1.00  0.00     0.029 A 
ATOM     56  N   UNL A   1      41.877  29.202  32.600  1.00  0.00    -0.354 N 
ATOM     57  N   UNL A   1      41.404  30.990  34.884  1.00  0.00    -0.248 NA
ATOM     58  C   UNL A   1      41.884  31.681  37.062  1.00  0.00     0.031 C 
ATOM     59  C   UNL A   1      43.594  27.799  32.711  1.00  0.00     0.029 A 
ATOM     60  C   UNL A   1      42.916  28.782  33.417  1.00  0.00     0.049 A 
ATOM     61  H   UNL A   1      41.215  29.891  32.838  1.00  0.00     0.167 HD
ATOM     62  C   UNL A   1      42.493  30.266  35.360  1.00  0.00     0.074 A 
ATOM     63  C   UNL A   1      42.768  30.762  36.693  1.00  0.00     0.031 C 
ATOM     64  C   UNL A   1      43.193  29.278  34.746  1.00  0.00     0.034 A 
BRANCH  51  65
ATOM     65  C   UNL A   1      41.110  27.738  29.130  1.00  0.00     0.023 A 
ATOM     66  C   UNL A   1      42.100  28.016  28.167  1.00  0.00     0.031 A 
ATOM     67  C   UNL A   1      40.212  26.688  28.869  1.00  0.00     0.131 A 
ATOM     68  C   UNL A   1      42.145  27.280  26.976  1.00  0.00     0.055 A 
ATOM     69  C   UNL A   1      40.294  25.924  27.704  1.00  0.00     0.041 A 
ATOM     70  F   UNL A   1      39.243  26.383  29.749  1.00  0.00    -0.206 F 
ATOM     71  C   UNL A   1      41.255  26.228  26.744  1.00  0.00     0.022 A 
BRANCH  68  72
ATOM     72  S   UNL A   1      43.304  27.710  25.649  1.00  0.00     0.124 S 
ATOM     73  O   UNL A   1      44.006  26.445  25.444  1.00  0.00    -0.237 OA
ATOM     74  O   UNL A   1      42.400  28.102  24.570  1.00  0.00    -0.237 OA
ATOM     75  O   UNL A   1      44.110  28.784  26.219  1.00  0.00    -0.744 OA
ENDBRANCH  68  72
ENDBRANCH  51  65
BRANCH  52  76
ATOM     76  C   UNL A   1      39.712  33.722  37.044  1.00  0.00     0.023 A 
ATOM     77  C   UNL A   1      40.520  34.857  37.251  1.00  0.00     0.031 A 
ATOM     78  C   UNL A   1      38.796  33.368  38.048  1.00  0.00     0.131 A 
ATOM     79  C   UNL A   1      40.470  35.531  38.478  1.00  0.00     0.055 A 
ATOM     80  C   UNL A   1      38.689  34.098  39.233  1.00  0.00     0.041 A 
ATOM     81  F   UNL A   1      38.014  32.289  37.899  1.00  0.00    -0.206 F 
ATOM     82  C   UNL A   1      39.547  35.169  39.464  1.00  0.00     0.022 A 
BRANCH  79  83
ATOM     83  S   UNL A   1      41.716  36.783  38.896  1.00  0.00     0.124 S 
ATOM     84  O   UNL A   1      40.890  37.948  39.193  1.00  0.00    -0.237 OA
ATOM     85  O   UNL A   1      42.376  36.166  40.045  1.00  0.00    -0.237 OA
ATOM     86  O   UNL A   1      42.530  36.876  37.690  1.00  0.00    -0.744 OA
ENDBRANCH  79  83
ENDBRANCH  52  76
BRANCH  64  87
ATOM     87  C   UNL A   1      44.341  28.634  35.488  1.00  0.00     0.023 A 
ATOM     88  C   UNL A   1      44.101  27.531  36.333  1.00  0.00     0.031 A 
ATOM     89  C   UNL A   1      45.625  29.206  35.497  1.00  0.00     0.131 A 
ATOM     90  C   UNL A   1      45.109  27.074  37.190  1.00  0.00     0.055 A 
ATOM     91  C   UNL A   1      46.645  28.710  36.310  1.00  0.00     0.041 A 
ATOM     92  F   UNL A   1      45.904  30.264  34.719  1.00  0.00    -0.206 F 
ATOM     93  C   UNL A   1      46.384  27.650  37.175  1.00  0.00     0.022 A 
BRANCH  90  94
ATOM     94  S   UNL A   1      44.775  25.788  38.426  1.00  0.00     0.124 S 
ATOM     95  O   UNL A   1      43.728  25.006  37.773  1.00  0.00    -0.237 OA
ATOM     96  O   UNL A   1      46.072  25.126  38.538  1.00  0.00    -0.237 OA
ATOM     97  O   UNL A   1      44.348  26.536  39.604  1.00  0.00    -0.744 OA
ENDBRANCH  90  94
ENDBRANCH  64  87
ENDBRANCH  38  39
ENDBRANCH  30  33
ENDBRANCH  28  29
ENDBRANCH  27  28
ENDBRANCH  26  27
ENDBRANCH   1  26
TORSDOF 21
ENDMDL
