MODEL 1
REMARK VINA RESULT:     -11.6      0.000      0.000
REMARK SMILES COC(=O)c1c(-c2ccccc2Cl)csc1NC(=O)[C@@H]1[C@@H]2CC[C@@H](C2)[C@@H]1C(=O)NCCCCCCNC(=O)c1ccc(-c2c3nc(c(-c4cc(S(=O)(=O)[O-])ccc4F)c4ccc([nH]4)c(-c4cc(S(=O)(=O)[O-])ccc4F)c4nc(c(-c5cc(S(=O)(=O)[O-])ccc5F)c5ccc2[nH]5)C=C4)C=C3)cc1
REMARK SMILES IDX 32 1 31 2 30 3 29 4 27 5 28 6 26 8 20 9 21 10 22 11 25 12
REMARK SMILES IDX 24 13 23 14 18 15 17 16 19 18 16 19 5 20 6 21 14 22 15 23
REMARK SMILES IDX 3 24 4 25 2 26 1 27 7 28 8 29 12 30 9 31 11 32 13 33 10 34
REMARK SMILES IDX 33 35 34 36 35 37 36 38 37 39 38 41 39 42 40 43 101 44 41 45
REMARK SMILES IDX 100 46 42 47 43 48 44 49 94 50 45 51 99 52 93 53 95 54 46 55
REMARK SMILES IDX 98 56 92 57 91 58 47 60 79 61 59 62 78 63 60 64 63 65 77 66
REMARK SMILES IDX 96 67 61 68 62 69 76 71 97 72 64 73 48 74 49 75 57 76 50 77
REMARK SMILES IDX 56 78 58 79 55 80 51 81 52 82 53 83 54 84 80 85 81 86 89 87
REMARK SMILES IDX 82 88 88 89 90 90 87 91 83 92 84 93 85 94 86 95 65 96 66 97
REMARK SMILES IDX 74 98 67 99 73 100 75 101 72 102 68 103 69 104 70 105 71 106
REMARK H PARENT 29 7 17 17 36 40 95 59 63 70
REMARK Flexibility Score: inf
ROOT
ATOM      1  C   UNL A   1      37.438  21.487  24.795  1.00  0.00     0.002 C 
ENDROOT
BRANCH   1   2
ATOM      2  C   UNL A   1      37.116  22.410  23.620  1.00  0.00     0.021 C 
BRANCH   2   3
ATOM      3  C   UNL A   1      35.908  23.281  23.927  1.00  0.00     0.116 C 
BRANCH   3   4
ATOM      4  N   UNL A   1      35.025  23.377  22.790  1.00  0.00    -0.356 N 
ATOM      5  C   UNL A   1      33.708  23.146  22.634  1.00  0.00     0.224 C 
ATOM      6  O   UNL A   1      33.284  23.243  21.474  1.00  0.00    -0.275 OA
ATOM      7  H   UNL A   1      35.475  23.670  21.965  1.00  0.00     0.163 HD
BRANCH   5   8
ATOM      8  C   UNL A   1      32.734  22.745  23.731  1.00  0.00     0.094 C 
ATOM      9  C   UNL A   1      32.640  23.296  25.168  1.00  0.00     0.094 C 
ATOM     10  C   UNL A   1      32.545  21.953  25.989  1.00  0.00     0.002 C 
ATOM     11  C   UNL A   1      33.845  21.118  25.931  1.00  0.00     0.005 C 
ATOM     12  C   UNL A   1      31.643  21.107  25.087  1.00  0.00     0.009 C 
ATOM     13  C   UNL A   1      32.598  21.206  23.894  1.00  0.00     0.002 C 
ATOM     14  C   UNL A   1      33.862  20.584  24.490  1.00  0.00     0.005 C 
BRANCH   9  15
ATOM     15  C   UNL A   1      33.538  24.328  25.847  1.00  0.00     0.229 C 
ATOM     16  N   UNL A   1      33.541  25.678  25.663  1.00  0.00    -0.317 N 
ATOM     17  H   UNL A   1      34.024  26.168  26.366  1.00  0.00     0.170 HD
ATOM     18  O   UNL A   1      34.336  23.938  26.714  1.00  0.00    -0.274 OA
BRANCH  16  19
ATOM     19  C   UNL A   1      33.003  26.499  24.691  1.00  0.00     0.110 A 
ATOM     20  C   UNL A   1      31.747  27.107  24.733  1.00  0.00     0.102 A 
ATOM     21  C   UNL A   1      31.696  28.202  23.766  1.00  0.00     0.011 A 
ATOM     22  C   UNL A   1      32.787  28.132  22.914  1.00  0.00     0.076 A 
ATOM     23  S   UNL A   1      33.795  26.785  23.231  1.00  0.00    -0.125 S 
BRANCH  20  24
ATOM     24  C   UNL A   1      30.756  26.750  25.752  1.00  0.00     0.341 C 
ATOM     25  O   UNL A   1      30.812  27.190  26.907  1.00  0.00    -0.246 OA
BRANCH  24  26
ATOM     26  O   UNL A   1      29.801  25.885  25.327  1.00  0.00    -0.465 OA
ATOM     27  C   UNL A   1      29.082  26.311  24.168  1.00  0.00     0.282 C 
ENDBRANCH  24  26
ENDBRANCH  20  24
BRANCH  21  28
ATOM     28  C   UNL A   1      30.805  29.384  23.737  1.00  0.00     0.002 A 
ATOM     29  C   UNL A   1      29.877  29.486  22.684  1.00  0.00     0.010 A 
ATOM     30  C   UNL A   1      30.748  30.376  24.731  1.00  0.00     0.048 A 
ATOM     31  C   UNL A   1      28.931  30.511  22.607  1.00  0.00     0.001 A 
ATOM     32  C   UNL A   1      29.778  31.394  24.671  1.00  0.00     0.021 A 
ATOM     33  Cl  UNL A   1      31.857  30.446  26.058  1.00  0.00    -0.084 Cl
ATOM     34  C   UNL A   1      28.871  31.461  23.614  1.00  0.00     0.002 A 
ENDBRANCH  21  28
ENDBRANCH  16  19
ENDBRANCH   9  15
ENDBRANCH   5   8
ENDBRANCH   3   4
ENDBRANCH   2   3
ENDBRANCH   1   2
BRANCH   1  35
ATOM     35  C   UNL A   1      37.394  19.991  24.482  1.00  0.00     0.002 C 
BRANCH  35  36
ATOM     36  C   UNL A   1      38.258  19.115  25.381  1.00  0.00     0.021 C 
BRANCH  36  37
ATOM     37  C   UNL A   1      39.442  19.827  26.016  1.00  0.00     0.116 C 
BRANCH  37  38
ATOM     38  N   UNL A   1      40.669  19.046  25.979  1.00  0.00    -0.352 N 
ATOM     39  C   UNL A   1      41.948  19.500  26.191  1.00  0.00     0.251 C 
ATOM     40  H   UNL A   1      40.571  18.087  25.782  1.00  0.00     0.163 HD
ATOM     41  O   UNL A   1      42.912  18.754  26.072  1.00  0.00    -0.269 OA
BRANCH  39  42
ATOM     42  C   UNL A   1      42.117  20.928  26.514  1.00  0.00     0.039 A 
ATOM     43  C   UNL A   1      42.313  21.297  27.845  1.00  0.00     0.014 A 
ATOM     44  C   UNL A   1      42.222  21.866  25.482  1.00  0.00     0.014 A 
ATOM     45  C   UNL A   1      42.676  22.610  28.142  1.00  0.00     0.010 A 
ATOM     46  C   UNL A   1      42.652  23.154  25.775  1.00  0.00     0.010 A 
ATOM     47  C   UNL A   1      42.881  23.538  27.107  1.00  0.00    -0.014 A 
BRANCH  47  48
ATOM     48  C   UNL A   1      43.308  24.929  27.396  1.00  0.00     0.031 A 
ATOM     49  C   UNL A   1      42.338  25.877  28.042  1.00  0.00     0.074 A 
ATOM     50  C   UNL A   1      44.530  25.350  27.016  1.00  0.00     0.049 A 
ATOM     51  N   UNL A   1      42.465  27.154  28.287  1.00  0.00    -0.248 NA
ATOM     52  C   UNL A   1      41.033  25.315  28.427  1.00  0.00     0.031 C 
ATOM     53  C   UNL A   1      45.537  24.532  26.337  1.00  0.00     0.029 A 
ATOM     54  N   UNL A   1      45.128  26.579  27.135  1.00  0.00    -0.354 N 
ATOM     55  C   UNL A   1      41.250  27.554  28.834  1.00  0.00     0.074 A 
ATOM     56  C   UNL A   1      40.383  26.395  28.827  1.00  0.00     0.031 C 
ATOM     57  C   UNL A   1      46.631  25.277  26.113  1.00  0.00     0.029 A 
ATOM     58  C   UNL A   1      46.394  26.633  26.598  1.00  0.00     0.049 A 
ATOM     59  H   UNL A   1      44.692  27.351  27.563  1.00  0.00     0.167 HD
ATOM     60  C   UNL A   1      40.901  28.771  29.319  1.00  0.00     0.034 A 
ATOM     61  C   UNL A   1      47.257  27.664  26.501  1.00  0.00     0.034 A 
ATOM     62  C   UNL A   1      41.788  29.906  29.340  1.00  0.00     0.049 A 
ATOM     63  C   UNL A   1      46.854  29.003  27.062  1.00  0.00     0.074 A 
ATOM     64  C   UNL A   1      41.562  31.170  29.856  1.00  0.00     0.029 A 
ATOM     65  N   UNL A   1      43.077  29.913  28.821  1.00  0.00    -0.354 N 
ATOM     66  N   UNL A   1      45.717  29.357  27.615  1.00  0.00    -0.248 NA
ATOM     67  C   UNL A   1      47.854  30.077  26.998  1.00  0.00     0.031 C 
ATOM     68  C   UNL A   1      42.694  31.954  29.605  1.00  0.00     0.029 A 
ATOM     69  C   UNL A   1      43.650  31.163  28.988  1.00  0.00     0.049 A 
ATOM     70  H   UNL A   1      43.518  29.143  28.397  1.00  0.00     0.167 HD
ATOM     71  C   UNL A   1      45.874  30.688  27.987  1.00  0.00     0.074 A 
ATOM     72  C   UNL A   1      47.221  31.069  27.606  1.00  0.00     0.031 C 
ATOM     73  C   UNL A   1      44.991  31.522  28.592  1.00  0.00     0.034 A 
BRANCH  60  74
ATOM     74  C   UNL A   1      39.493  28.925  29.840  1.00  0.00     0.023 A 
ATOM     75  C   UNL A   1      38.473  29.485  29.051  1.00  0.00     0.031 A 
ATOM     76  C   UNL A   1      39.176  28.552  31.158  1.00  0.00     0.131 A 
ATOM     77  C   UNL A   1      37.211  29.734  29.610  1.00  0.00     0.055 A 
ATOM     78  C   UNL A   1      37.894  28.726  31.683  1.00  0.00     0.041 A 
ATOM     79  F   UNL A   1      40.114  28.033  31.966  1.00  0.00    -0.206 F 
ATOM     80  C   UNL A   1      36.906  29.335  30.914  1.00  0.00     0.022 A 
BRANCH  77  81
ATOM     81  S   UNL A   1      36.022  30.717  28.658  1.00  0.00     0.124 S 
ATOM     82  O   UNL A   1      36.897  31.695  28.016  1.00  0.00    -0.237 OA
ATOM     83  O   UNL A   1      35.421  29.722  27.777  1.00  0.00    -0.237 OA
ATOM     84  O   UNL A   1      35.132  31.264  29.681  1.00  0.00    -0.744 OA
ENDBRANCH  77  81
ENDBRANCH  60  74
BRANCH  61  85
ATOM     85  C   UNL A   1      48.580  27.478  25.843  1.00  0.00     0.023 A 
ATOM     86  C   UNL A   1      48.724  27.620  24.454  1.00  0.00     0.031 A 
ATOM     87  C   UNL A   1      49.716  27.124  26.592  1.00  0.00     0.131 A 
ATOM     88  C   UNL A   1      49.966  27.372  23.850  1.00  0.00     0.055 A 
ATOM     89  C   UNL A   1      50.960  26.920  25.992  1.00  0.00     0.041 A 
ATOM     90  F   UNL A   1      49.633  26.986  27.926  1.00  0.00    -0.206 F 
ATOM     91  C   UNL A   1      51.088  27.032  24.611  1.00  0.00     0.022 A 
BRANCH  88  92
ATOM     92  S   UNL A   1      50.081  27.433  22.041  1.00  0.00     0.124 S 
ATOM     93  O   UNL A   1      48.892  26.687  21.642  1.00  0.00    -0.237 OA
ATOM     94  O   UNL A   1      50.054  28.869  21.785  1.00  0.00    -0.237 OA
ATOM     95  O   UNL A   1      51.355  26.775  21.757  1.00  0.00    -0.744 OA
ENDBRANCH  88  92
ENDBRANCH  61  85
BRANCH  73  96
ATOM     96  C   UNL A   1      45.475  32.911  28.915  1.00  0.00     0.023 A 
ATOM     97  C   UNL A   1      45.348  33.969  27.998  1.00  0.00     0.031 A 
ATOM     98  C   UNL A   1      46.074  33.177  30.159  1.00  0.00     0.131 A 
ATOM     99  C   UNL A   1      45.855  35.235  28.321  1.00  0.00     0.055 A 
ATOM    100  C   UNL A   1      46.532  34.451  30.495  1.00  0.00     0.041 A 
ATOM    101  F   UNL A   1      46.220  32.200  31.069  1.00  0.00    -0.206 F 
ATOM    102  C   UNL A   1      46.432  35.487  29.569  1.00  0.00     0.022 A 
BRANCH  99 103
ATOM    103  S   UNL A   1      45.811  36.539  27.062  1.00  0.00     0.124 S 
ATOM    104  O   UNL A   1      46.270  35.827  25.873  1.00  0.00    -0.237 OA
ATOM    105  O   UNL A   1      44.405  36.931  27.066  1.00  0.00    -0.237 OA
ATOM    106  O   UNL A   1      46.736  37.547  27.578  1.00  0.00    -0.744 OA
ENDBRANCH  99 103
ENDBRANCH  73  96
ENDBRANCH  47  48
ENDBRANCH  39  42
ENDBRANCH  37  38
ENDBRANCH  36  37
ENDBRANCH  35  36
ENDBRANCH   1  35
TORSDOF 21
ENDMDL
MODEL 2
REMARK VINA RESULT:     -11.3      1.852      2.163
REMARK SMILES COC(=O)c1c(-c2ccccc2Cl)csc1NC(=O)[C@@H]1[C@@H]2CC[C@@H](C2)[C@@H]1C(=O)NCCCCCCNC(=O)c1ccc(-c2c3nc(c(-c4cc(S(=O)(=O)[O-])ccc4F)c4ccc([nH]4)c(-c4cc(S(=O)(=O)[O-])ccc4F)c4nc(c(-c5cc(S(=O)(=O)[O-])ccc5F)c5ccc2[nH]5)C=C4)C=C3)cc1
REMARK SMILES IDX 32 1 31 2 30 3 29 4 27 5 28 6 26 8 20 9 21 10 22 11 25 12
REMARK SMILES IDX 24 13 23 14 18 15 17 16 19 18 16 19 5 20 6 21 14 22 15 23
REMARK SMILES IDX 3 24 4 25 2 26 1 27 7 28 8 29 12 30 9 31 11 32 13 33 10 34
REMARK SMILES IDX 33 35 34 36 35 37 36 38 37 39 38 41 39 42 40 43 101 44 41 45
REMARK SMILES IDX 100 46 42 47 43 48 44 49 94 50 45 51 99 52 93 53 95 54 46 55
REMARK SMILES IDX 98 56 92 57 91 58 47 60 79 61 59 62 78 63 60 64 63 65 77 66
REMARK SMILES IDX 96 67 61 68 62 69 76 71 97 72 64 73 48 74 49 75 57 76 50 77
REMARK SMILES IDX 56 78 58 79 55 80 51 81 52 82 53 83 54 84 80 85 81 86 89 87
REMARK SMILES IDX 82 88 88 89 90 90 87 91 83 92 84 93 85 94 86 95 65 96 66 97
REMARK SMILES IDX 74 98 67 99 73 100 75 101 72 102 68 103 69 104 70 105 71 106
REMARK H PARENT 29 7 17 17 36 40 95 59 63 70
REMARK Flexibility Score: inf
ROOT
ATOM      1  C   UNL A   1      37.390  21.621  24.644  1.00  0.00     0.002 C 
ENDROOT
BRANCH   1   2
ATOM      2  C   UNL A   1      37.022  22.572  23.505  1.00  0.00     0.021 C 
BRANCH   2   3
ATOM      3  C   UNL A   1      35.761  23.353  23.833  1.00  0.00     0.116 C 
BRANCH   3   4
ATOM      4  N   UNL A   1      34.820  23.319  22.739  1.00  0.00    -0.356 N 
ATOM      5  C   UNL A   1      33.519  22.985  22.664  1.00  0.00     0.224 C 
ATOM      6  O   UNL A   1      33.034  22.984  21.523  1.00  0.00    -0.275 OA
ATOM      7  H   UNL A   1      35.208  23.596  21.878  1.00  0.00     0.163 HD
BRANCH   5   8
ATOM      8  C   UNL A   1      32.630  22.579  23.829  1.00  0.00     0.094 C 
ATOM      9  C   UNL A   1      32.585  23.183  25.247  1.00  0.00     0.094 C 
ATOM     10  C   UNL A   1      32.610  21.872  26.123  1.00  0.00     0.002 C 
ATOM     11  C   UNL A   1      33.949  21.104  26.022  1.00  0.00     0.005 C 
ATOM     12  C   UNL A   1      31.707  20.944  25.307  1.00  0.00     0.009 C 
ATOM     13  C   UNL A   1      32.587  21.043  24.058  1.00  0.00     0.002 C 
ATOM     14  C   UNL A   1      33.915  20.513  24.604  1.00  0.00     0.005 C 
BRANCH   9  15
ATOM     15  C   UNL A   1      33.462  24.288  25.834  1.00  0.00     0.229 C 
ATOM     16  N   UNL A   1      33.414  25.621  25.561  1.00  0.00    -0.317 N 
ATOM     17  H   UNL A   1      33.895  26.174  26.218  1.00  0.00     0.170 HD
ATOM     18  O   UNL A   1      34.293  23.984  26.706  1.00  0.00    -0.274 OA
BRANCH  16  19
ATOM     19  C   UNL A   1      32.826  26.357  24.550  1.00  0.00     0.110 A 
ATOM     20  C   UNL A   1      31.516  26.839  24.539  1.00  0.00     0.102 A 
ATOM     21  C   UNL A   1      31.386  27.895  23.538  1.00  0.00     0.011 A 
ATOM     22  C   UNL A   1      32.503  27.908  22.717  1.00  0.00     0.076 A 
ATOM     23  S   UNL A   1      33.629  26.678  23.102  1.00  0.00    -0.125 S 
BRANCH  20  24
ATOM     24  C   UNL A   1      30.537  26.415  25.543  1.00  0.00     0.341 C 
ATOM     25  O   UNL A   1      29.399  26.039  25.234  1.00  0.00    -0.246 OA
BRANCH  24  26
ATOM     26  O   UNL A   1      30.975  26.495  26.824  1.00  0.00    -0.465 OA
ATOM     27  C   UNL A   1      31.232  27.824  27.286  1.00  0.00     0.282 C 
ENDBRANCH  24  26
ENDBRANCH  20  24
BRANCH  21  28
ATOM     28  C   UNL A   1      30.385  28.982  23.449  1.00  0.00     0.002 A 
ATOM     29  C   UNL A   1      29.306  28.814  22.560  1.00  0.00     0.010 A 
ATOM     30  C   UNL A   1      30.374  30.137  24.249  1.00  0.00     0.048 A 
ATOM     31  C   UNL A   1      28.259  29.734  22.461  1.00  0.00     0.001 A 
ATOM     32  C   UNL A   1      29.307  31.051  24.172  1.00  0.00     0.021 A 
ATOM     33  Cl  UNL A   1      31.653  30.537  25.343  1.00  0.00    -0.084 Cl
ATOM     34  C   UNL A   1      28.252  30.850  23.282  1.00  0.00     0.002 A 
ENDBRANCH  21  28
ENDBRANCH  16  19
ENDBRANCH   9  15
ENDBRANCH   5   8
ENDBRANCH   3   4
ENDBRANCH   2   3
ENDBRANCH   1   2
BRANCH   1  35
ATOM     35  C   UNL A   1      37.422  20.138  24.274  1.00  0.00     0.002 C 
BRANCH  35  36
ATOM     36  C   UNL A   1      38.135  19.236  25.274  1.00  0.00     0.021 C 
BRANCH  36  37
ATOM     37  C   UNL A   1      39.303  19.886  25.997  1.00  0.00     0.116 C 
BRANCH  37  38
ATOM     38  N   UNL A   1      40.515  19.081  25.974  1.00  0.00    -0.352 N 
ATOM     39  C   UNL A   1      41.794  19.498  26.245  1.00  0.00     0.251 C 
ATOM     40  H   UNL A   1      40.403  18.131  25.738  1.00  0.00     0.163 HD
ATOM     41  O   UNL A   1      42.746  18.736  26.131  1.00  0.00    -0.269 OA
BRANCH  39  42
ATOM     42  C   UNL A   1      41.982  20.910  26.626  1.00  0.00     0.039 A 
ATOM     43  C   UNL A   1      42.385  21.206  27.927  1.00  0.00     0.014 A 
ATOM     44  C   UNL A   1      41.896  21.910  25.651  1.00  0.00     0.014 A 
ATOM     45  C   UNL A   1      42.761  22.511  28.244  1.00  0.00     0.010 A 
ATOM     46  C   UNL A   1      42.338  23.191  25.951  1.00  0.00     0.010 A 
ATOM     47  C   UNL A   1      42.774  23.504  27.250  1.00  0.00    -0.014 A 
BRANCH  47  48
ATOM     48  C   UNL A   1      43.211  24.889  27.553  1.00  0.00     0.031 A 
ATOM     49  C   UNL A   1      42.234  25.850  28.167  1.00  0.00     0.074 A 
ATOM     50  C   UNL A   1      44.450  25.293  27.213  1.00  0.00     0.049 A 
ATOM     51  N   UNL A   1      42.371  27.126  28.416  1.00  0.00    -0.248 NA
ATOM     52  C   UNL A   1      40.910  25.307  28.510  1.00  0.00     0.031 C 
ATOM     53  C   UNL A   1      45.467  24.460  26.567  1.00  0.00     0.029 A 
ATOM     54  N   UNL A   1      45.061  26.513  27.351  1.00  0.00    -0.354 N 
ATOM     55  C   UNL A   1      41.145  27.543  28.924  1.00  0.00     0.074 A 
ATOM     56  C   UNL A   1      40.262  26.397  28.888  1.00  0.00     0.031 C 
ATOM     57  C   UNL A   1      46.579  25.189  26.380  1.00  0.00     0.029 A 
ATOM     58  C   UNL A   1      46.345  26.549  26.857  1.00  0.00     0.049 A 
ATOM     59  H   UNL A   1      44.623  27.291  27.766  1.00  0.00     0.167 HD
ATOM     60  C   UNL A   1      40.797  28.765  29.397  1.00  0.00     0.034 A 
ATOM     61  C   UNL A   1      47.226  27.567  26.788  1.00  0.00     0.034 A 
ATOM     62  C   UNL A   1      41.700  29.887  29.448  1.00  0.00     0.049 A 
ATOM     63  C   UNL A   1      46.823  28.912  27.336  1.00  0.00     0.074 A 
ATOM     64  C   UNL A   1      41.475  31.155  29.956  1.00  0.00     0.029 A 
ATOM     65  N   UNL A   1      43.004  29.876  28.971  1.00  0.00    -0.354 N 
ATOM     66  N   UNL A   1      45.674  29.282  27.851  1.00  0.00    -0.248 NA
ATOM     67  C   UNL A   1      47.840  29.971  27.305  1.00  0.00     0.031 C 
ATOM     68  C   UNL A   1      42.625  31.923  29.742  1.00  0.00     0.029 A 
ATOM     69  C   UNL A   1      43.590  31.118  29.157  1.00  0.00     0.049 A 
ATOM     70  H   UNL A   1      43.449  29.099  28.561  1.00  0.00     0.167 HD
ATOM     71  C   UNL A   1      45.838  30.611  28.228  1.00  0.00     0.074 A 
ATOM     72  C   UNL A   1      47.202  30.972  27.892  1.00  0.00     0.031 C 
ATOM     73  C   UNL A   1      44.948  31.457  28.805  1.00  0.00     0.034 A 
BRANCH  60  74
ATOM     74  C   UNL A   1      39.376  28.940  29.872  1.00  0.00     0.023 A 
ATOM     75  C   UNL A   1      38.372  29.441  29.025  1.00  0.00     0.031 A 
ATOM     76  C   UNL A   1      39.028  28.645  31.202  1.00  0.00     0.131 A 
ATOM     77  C   UNL A   1      37.095  29.715  29.536  1.00  0.00     0.055 A 
ATOM     78  C   UNL A   1      37.731  28.841  31.684  1.00  0.00     0.041 A 
ATOM     79  F   UNL A   1      39.947  28.183  32.064  1.00  0.00    -0.206 F 
ATOM     80  C   UNL A   1      36.760  29.394  30.853  1.00  0.00     0.022 A 
BRANCH  77  81
ATOM     81  S   UNL A   1      35.925  30.628  28.496  1.00  0.00     0.124 S 
ATOM     82  O   UNL A   1      35.180  29.540  27.867  1.00  0.00    -0.237 OA
ATOM     83  O   UNL A   1      35.189  31.425  29.472  1.00  0.00    -0.237 OA
ATOM     84  O   UNL A   1      36.788  31.387  27.594  1.00  0.00    -0.744 OA
ENDBRANCH  77  81
ENDBRANCH  60  74
BRANCH  61  85
ATOM     85  C   UNL A   1      48.567  27.362  26.173  1.00  0.00     0.023 A 
ATOM     86  C   UNL A   1      49.677  27.016  26.958  1.00  0.00     0.031 A 
ATOM     87  C   UNL A   1      48.763  27.542  24.792  1.00  0.00     0.131 A 
ATOM     88  C   UNL A   1      50.944  26.898  26.364  1.00  0.00     0.055 A 
ATOM     89  C   UNL A   1      50.017  27.382  24.199  1.00  0.00     0.041 A 
ATOM     90  F   UNL A   1      47.730  27.864  23.996  1.00  0.00    -0.206 F 
ATOM     91  C   UNL A   1      51.119  27.069  24.988  1.00  0.00     0.022 A 
BRANCH  88  92
ATOM     92  S   UNL A   1      52.377  26.583  27.430  1.00  0.00     0.124 S 
ATOM     93  O   UNL A   1      52.981  25.423  26.783  1.00  0.00    -0.237 OA
ATOM     94  O   UNL A   1      53.115  27.836  27.322  1.00  0.00    -0.237 OA
ATOM     95  O   UNL A   1      51.778  26.326  28.739  1.00  0.00    -0.744 OA
ENDBRANCH  88  92
ENDBRANCH  61  85
BRANCH  73  96
ATOM     96  C   UNL A   1      45.441  32.840  29.143  1.00  0.00     0.023 A 
ATOM     97  C   UNL A   1      46.003  33.137  30.396  1.00  0.00     0.031 A 
ATOM     98  C   UNL A   1      45.343  33.873  28.196  1.00  0.00     0.131 A 
ATOM     99  C   UNL A   1      46.406  34.448  30.686  1.00  0.00     0.055 A 
ATOM    100  C   UNL A   1      45.792  35.165  28.471  1.00  0.00     0.041 A 
ATOM    101  F   UNL A   1      44.813  33.641  26.984  1.00  0.00    -0.206 F 
ATOM    102  C   UNL A   1      46.317  35.461  29.727  1.00  0.00     0.022 A 
BRANCH  99 103
ATOM    103  S   UNL A   1      46.987  34.832  32.360  1.00  0.00     0.124 S 
ATOM    104  O   UNL A   1      48.436  34.853  32.181  1.00  0.00    -0.237 OA
ATOM    105  O   UNL A   1      46.359  36.123  32.621  1.00  0.00    -0.237 OA
ATOM    106  O   UNL A   1      46.476  33.723  33.164  1.00  0.00    -0.744 OA
ENDBRANCH  99 103
ENDBRANCH  73  96
ENDBRANCH  47  48
ENDBRANCH  39  42
ENDBRANCH  37  38
ENDBRANCH  36  37
ENDBRANCH  35  36
ENDBRANCH   1  35
TORSDOF 21
ENDMDL
MODEL 3
REMARK VINA RESULT:     -11.1      1.775      7.359
REMARK SMILES COC(=O)c1c(-c2ccccc2Cl)csc1NC(=O)[C@@H]1[C@@H]2CC[C@@H](C2)[C@@H]1C(=O)NCCCCCCNC(=O)c1ccc(-c2c3nc(c(-c4cc(S(=O)(=O)[O-])ccc4F)c4ccc([nH]4)c(-c4cc(S(=O)(=O)[O-])ccc4F)c4nc(c(-c5cc(S(=O)(=O)[O-])ccc5F)c5ccc2[nH]5)C=C4)C=C3)cc1
REMARK SMILES IDX 32 1 31 2 30 3 29 4 27 5 28 6 26 8 20 9 21 10 22 11 25 12
REMARK SMILES IDX 24 13 23 14 18 15 17 16 19 18 16 19 5 20 6 21 14 22 15 23
REMARK SMILES IDX 3 24 4 25 2 26 1 27 7 28 8 29 12 30 9 31 11 32 13 33 10 34
REMARK SMILES IDX 33 35 34 36 35 37 36 38 37 39 38 41 39 42 40 43 101 44 41 45
REMARK SMILES IDX 100 46 42 47 43 48 44 49 94 50 45 51 99 52 93 53 95 54 46 55
REMARK SMILES IDX 98 56 92 57 91 58 47 60 79 61 59 62 78 63 60 64 63 65 77 66
REMARK SMILES IDX 96 67 61 68 62 69 76 71 97 72 64 73 48 74 49 75 57 76 50 77
REMARK SMILES IDX 56 78 58 79 55 80 51 81 52 82 53 83 54 84 80 85 81 86 89 87
REMARK SMILES IDX 82 88 88 89 90 90 87 91 83 92 84 93 85 94 86 95 65 96 66 97
REMARK SMILES IDX 74 98 67 99 73 100 75 101 72 102 68 103 69 104 70 105 71 106
REMARK H PARENT 29 7 17 17 36 40 95 59 63 70
REMARK Flexibility Score: inf
ROOT
ATOM      1  C   UNL A   1      36.970  23.322  24.394  1.00  0.00     0.002 C 
ENDROOT
BRANCH   1   2
ATOM      2  C   UNL A   1      35.784  22.608  23.747  1.00  0.00     0.021 C 
BRANCH   2   3
ATOM      3  C   UNL A   1      34.570  22.630  24.661  1.00  0.00     0.116 C 
BRANCH   3   4
ATOM      4  N   UNL A   1      33.721  21.485  24.438  1.00  0.00    -0.356 N 
ATOM      5  C   UNL A   1      32.409  21.267  24.642  1.00  0.00     0.224 C 
ATOM      6  O   UNL A   1      32.019  20.112  24.419  1.00  0.00    -0.275 OA
ATOM      7  H   UNL A   1      34.196  20.709  24.062  1.00  0.00     0.163 HD
BRANCH   5   8
ATOM      8  C   UNL A   1      31.401  22.286  25.150  1.00  0.00     0.094 C 
ATOM      9  C   UNL A   1      31.027  23.646  24.528  1.00  0.00     0.094 C 
ATOM     10  C   UNL A   1      31.089  24.575  25.800  1.00  0.00     0.002 C 
ATOM     11  C   UNL A   1      32.521  24.736  26.361  1.00  0.00     0.005 C 
ATOM     12  C   UNL A   1      30.482  23.666  26.872  1.00  0.00     0.009 C 
ATOM     13  C   UNL A   1      31.541  22.578  26.670  1.00  0.00     0.002 C 
ATOM     14  C   UNL A   1      32.817  23.362  26.982  1.00  0.00     0.005 C 
BRANCH   9  15
ATOM     15  C   UNL A   1      31.621  24.318  23.291  1.00  0.00     0.229 C 
ATOM     16  N   UNL A   1      31.410  25.590  22.853  1.00  0.00    -0.317 N 
ATOM     17  H   UNL A   1      32.068  25.889  22.185  1.00  0.00     0.170 HD
ATOM     18  O   UNL A   1      32.440  23.681  22.608  1.00  0.00    -0.274 OA
BRANCH  16  19
ATOM     19  C   UNL A   1      30.460  26.547  23.155  1.00  0.00     0.110 A 
ATOM     20  C   UNL A   1      30.655  27.929  23.145  1.00  0.00     0.102 A 
ATOM     21  C   UNL A   1      29.363  28.610  23.103  1.00  0.00     0.011 A 
ATOM     22  C   UNL A   1      28.344  27.708  23.367  1.00  0.00     0.076 A 
ATOM     23  S   UNL A   1      28.920  26.130  23.698  1.00  0.00    -0.125 S 
BRANCH  20  24
ATOM     24  C   UNL A   1      31.993  28.513  23.014  1.00  0.00     0.341 C 
ATOM     25  O   UNL A   1      32.263  29.352  22.145  1.00  0.00    -0.246 OA
BRANCH  24  26
ATOM     26  O   UNL A   1      32.902  28.037  23.902  1.00  0.00    -0.465 OA
ATOM     27  C   UNL A   1      34.248  28.458  23.662  1.00  0.00     0.282 C 
ENDBRANCH  24  26
ENDBRANCH  20  24
BRANCH  21  28
ATOM     28  C   UNL A   1      29.042  29.980  22.645  1.00  0.00     0.002 A 
ATOM     29  C   UNL A   1      28.378  30.126  21.413  1.00  0.00     0.010 A 
ATOM     30  C   UNL A   1      29.269  31.153  23.386  1.00  0.00     0.048 A 
ATOM     31  C   UNL A   1      27.949  31.364  20.927  1.00  0.00     0.001 A 
ATOM     32  C   UNL A   1      28.813  32.398  22.913  1.00  0.00     0.021 A 
ATOM     33  Cl  UNL A   1      30.131  31.168  24.886  1.00  0.00    -0.084 Cl
ATOM     34  C   UNL A   1      28.154  32.503  21.688  1.00  0.00     0.002 A 
ENDBRANCH  21  28
ENDBRANCH  16  19
ENDBRANCH   9  15
ENDBRANCH   5   8
ENDBRANCH   3   4
ENDBRANCH   2   3
ENDBRANCH   1   2
BRANCH   1  35
ATOM     35  C   UNL A   1      37.529  22.655  25.651  1.00  0.00     0.002 C 
BRANCH  35  36
ATOM     36  C   UNL A   1      38.436  21.457  25.400  1.00  0.00     0.021 C 
BRANCH  36  37
ATOM     37  C   UNL A   1      39.477  21.209  26.480  1.00  0.00     0.116 C 
BRANCH  37  38
ATOM     38  N   UNL A   1      40.517  20.276  26.073  1.00  0.00    -0.352 N 
ATOM     39  C   UNL A   1      41.866  20.521  25.993  1.00  0.00     0.251 C 
ATOM     40  H   UNL A   1      40.220  19.370  25.830  1.00  0.00     0.163 HD
ATOM     41  O   UNL A   1      42.639  19.668  25.576  1.00  0.00    -0.269 OA
BRANCH  39  42
ATOM     42  C   UNL A   1      42.337  21.864  26.377  1.00  0.00     0.039 A 
ATOM     43  C   UNL A   1      42.419  22.852  25.398  1.00  0.00     0.014 A 
ATOM     44  C   UNL A   1      42.552  22.164  27.727  1.00  0.00     0.014 A 
ATOM     45  C   UNL A   1      42.664  24.171  25.779  1.00  0.00     0.010 A 
ATOM     46  C   UNL A   1      42.727  23.488  28.109  1.00  0.00     0.010 A 
ATOM     47  C   UNL A   1      42.786  24.503  27.139  1.00  0.00    -0.014 A 
BRANCH  47  48
ATOM     48  C   UNL A   1      43.005  25.905  27.571  1.00  0.00     0.031 A 
ATOM     49  C   UNL A   1      44.394  26.475  27.540  1.00  0.00     0.074 A 
ATOM     50  C   UNL A   1      41.976  26.630  28.052  1.00  0.00     0.049 A 
ATOM     51  N   UNL A   1      44.825  27.632  27.968  1.00  0.00    -0.248 NA
ATOM     52  C   UNL A   1      45.445  25.606  26.988  1.00  0.00     0.031 C 
ATOM     53  C   UNL A   1      40.593  26.163  28.175  1.00  0.00     0.029 A 
ATOM     54  N   UNL A   1      41.937  27.910  28.541  1.00  0.00    -0.354 N 
ATOM     55  C   UNL A   1      46.200  27.622  27.757  1.00  0.00     0.074 A 
ATOM     56  C   UNL A   1      46.534  26.320  27.221  1.00  0.00     0.031 C 
ATOM     57  C   UNL A   1      39.840  27.148  28.690  1.00  0.00     0.029 A 
ATOM     58  C   UNL A   1      40.689  28.302  28.968  1.00  0.00     0.049 A 
ATOM     59  H   UNL A   1      42.728  28.496  28.582  1.00  0.00     0.167 HD
ATOM     60  C   UNL A   1      47.096  28.617  27.971  1.00  0.00     0.034 A 
ATOM     61  C   UNL A   1      40.282  29.458  29.531  1.00  0.00     0.034 A 
ATOM     62  C   UNL A   1      46.739  29.916  28.482  1.00  0.00     0.049 A 
ATOM     63  C   UNL A   1      41.292  30.556  29.743  1.00  0.00     0.074 A 
ATOM     64  C   UNL A   1      47.551  31.017  28.686  1.00  0.00     0.029 A 
ATOM     65  N   UNL A   1      45.458  30.289  28.870  1.00  0.00    -0.354 N 
ATOM     66  N   UNL A   1      42.582  30.548  29.500  1.00  0.00    -0.248 NA
ATOM     67  C   UNL A   1      40.789  31.822  30.291  1.00  0.00     0.031 C 
ATOM     68  C   UNL A   1      46.773  32.038  29.244  1.00  0.00     0.029 A 
ATOM     69  C   UNL A   1      45.462  31.596  29.329  1.00  0.00     0.049 A 
ATOM     70  H   UNL A   1      44.664  29.709  28.825  1.00  0.00     0.167 HD
ATOM     71  C   UNL A   1      43.041  31.816  29.844  1.00  0.00     0.074 A 
ATOM     72  C   UNL A   1      41.886  32.565  30.298  1.00  0.00     0.031 C 
ATOM     73  C   UNL A   1      44.299  32.320  29.786  1.00  0.00     0.034 A 
BRANCH  60  74
ATOM     74  C   UNL A   1      48.543  28.316  27.668  1.00  0.00     0.023 A 
ATOM     75  C   UNL A   1      49.088  28.528  26.389  1.00  0.00     0.031 A 
ATOM     76  C   UNL A   1      49.379  27.766  28.656  1.00  0.00     0.131 A 
ATOM     77  C   UNL A   1      50.398  28.115  26.107  1.00  0.00     0.055 A 
ATOM     78  C   UNL A   1      50.709  27.433  28.392  1.00  0.00     0.041 A 
ATOM     79  F   UNL A   1      48.910  27.520  29.889  1.00  0.00    -0.206 F 
ATOM     80  C   UNL A   1      51.222  27.592  27.107  1.00  0.00     0.022 A 
BRANCH  77  81
ATOM     81  S   UNL A   1      50.960  28.136  24.384  1.00  0.00     0.124 S 
ATOM     82  O   UNL A   1      49.707  27.920  23.664  1.00  0.00    -0.237 OA
ATOM     83  O   UNL A   1      51.548  29.465  24.258  1.00  0.00    -0.237 OA
ATOM     84  O   UNL A   1      51.908  27.025  24.318  1.00  0.00    -0.744 OA
ENDBRANCH  77  81
ENDBRANCH  60  74
BRANCH  61  85
ATOM     85  C   UNL A   1      38.862  29.637  29.940  1.00  0.00     0.023 A 
ATOM     86  C   UNL A   1      37.954  30.328  29.121  1.00  0.00     0.031 A 
ATOM     87  C   UNL A   1      38.398  29.147  31.173  1.00  0.00     0.131 A 
ATOM     88  C   UNL A   1      36.639  30.544  29.561  1.00  0.00     0.055 A 
ATOM     89  C   UNL A   1      37.077  29.327  31.589  1.00  0.00     0.041 A 
ATOM     90  F   UNL A   1      39.224  28.471  31.989  1.00  0.00    -0.206 F 
ATOM     91  C   UNL A   1      36.192  30.039  30.786  1.00  0.00     0.022 A 
BRANCH  88  92
ATOM     92  S   UNL A   1      35.536  31.555  28.538  1.00  0.00     0.124 S 
ATOM     93  O   UNL A   1      34.664  32.156  29.542  1.00  0.00    -0.237 OA
ATOM     94  O   UNL A   1      36.475  32.457  27.881  1.00  0.00    -0.237 OA
ATOM     95  O   UNL A   1      34.895  30.578  27.659  1.00  0.00    -0.744 OA
ENDBRANCH  88  92
ENDBRANCH  61  85
BRANCH  73  96
ATOM     96  C   UNL A   1      44.477  33.761  30.186  1.00  0.00     0.023 A 
ATOM     97  C   UNL A   1      44.335  34.807  29.258  1.00  0.00     0.031 A 
ATOM     98  C   UNL A   1      44.793  34.088  31.516  1.00  0.00     0.131 A 
ATOM     99  C   UNL A   1      44.555  36.131  29.663  1.00  0.00     0.055 A 
ATOM    100  C   UNL A   1      44.962  35.412  31.924  1.00  0.00     0.041 A 
ATOM    101  F   UNL A   1      44.939  33.126  32.440  1.00  0.00    -0.206 F 
ATOM    102  C   UNL A   1      44.853  36.442  30.993  1.00  0.00     0.022 A 
BRANCH  99 103
ATOM    103  S   UNL A   1      44.514  37.443  28.412  1.00  0.00     0.124 S 
ATOM    104  O   UNL A   1      45.539  36.999  27.472  1.00  0.00    -0.237 OA
ATOM    105  O   UNL A   1      43.137  37.376  27.932  1.00  0.00    -0.237 OA
ATOM    106  O   UNL A   1      44.847  38.649  29.168  1.00  0.00    -0.744 OA
ENDBRANCH  99 103
ENDBRANCH  73  96
ENDBRANCH  47  48
ENDBRANCH  39  42
ENDBRANCH  37  38
ENDBRANCH  36  37
ENDBRANCH  35  36
ENDBRANCH   1  35
TORSDOF 21
ENDMDL
