MODEL 1
REMARK VINA RESULT:     -11.4      0.000      0.000
REMARK SMILES COc1cc(/C=C2/CCc3cc(OC(C)(C)C(=O)NCCCCCCNC(=O)c4ccc(-c5c6nc(c(-c7cc(S(=O)(=O)[O-])ccc7F)c7ccc([nH]7)c(-c7cc(S(=O)(=O)[O-])ccc7F)c7nc(c(-c8cc(S(=O)(=O)[O-])ccc8F)c8ccc5[nH]8)C=C7)C=C6)cc4)ccc3C2=O)cc(OC)c1O
REMARK SMILES IDX 22 1 21 2 20 3 19 4 17 5 18 6 14 8 15 9 16 10 13 11 12 12
REMARK SMILES IDX 6 13 7 14 8 15 95 16 9 17 94 18 96 19 10 20 93 21 11 22
REMARK SMILES IDX 92 23 5 24 3 25 4 26 101 27 98 28 97 29 2 30 1 31 102 32
REMARK SMILES IDX 99 34 100 35 23 36 24 37 25 38 26 39 27 40 28 42 29 43 30 44
REMARK SMILES IDX 91 45 31 46 90 47 32 48 33 49 34 50 84 51 35 52 89 53 83 54
REMARK SMILES IDX 85 55 36 56 88 57 82 58 81 59 37 61 69 62 49 63 68 64 50 65
REMARK SMILES IDX 53 66 67 67 86 68 51 69 52 70 66 72 87 73 54 74 38 75 39 76
REMARK SMILES IDX 47 77 40 78 46 79 48 80 45 81 41 82 42 83 43 84 44 85 70 86
REMARK SMILES IDX 71 87 79 88 72 89 78 90 80 91 77 92 73 93 74 94 75 95 76 96
REMARK SMILES IDX 55 97 56 98 64 99 57 100 63 101 65 102 62 103 58 104 59 105
REMARK SMILES IDX 60 106 61 107
REMARK H PARENT 19 7 102 33 26 41 85 60 53 71
REMARK Flexibility Score: inf
ROOT
ATOM      1  C   UNL A   1      37.243  22.131  24.557  1.00  0.00     0.002 C 
ENDROOT
BRANCH   1   2
ATOM      2  C   UNL A   1      35.885  22.416  25.197  1.00  0.00     0.021 C 
BRANCH   2   3
ATOM      3  C   UNL A   1      35.279  21.240  25.958  1.00  0.00     0.116 C 
BRANCH   3   4
ATOM      4  N   UNL A   1      35.524  19.955  25.323  1.00  0.00    -0.353 N 
ATOM      5  C   UNL A   1      34.654  19.039  24.779  1.00  0.00     0.263 C 
ATOM      6  O   UNL A   1      35.163  18.053  24.236  1.00  0.00    -0.270 OA
ATOM      7  H   UNL A   1      36.473  19.696  25.274  1.00  0.00     0.163 HD
BRANCH   5   8
ATOM      8  C   UNL A   1      33.106  19.215  24.902  1.00  0.00     0.181 C 
ATOM      9  C   UNL A   1      32.559  18.346  26.039  1.00  0.00     0.067 C 
ATOM     10  C   UNL A   1      32.539  18.868  23.497  1.00  0.00     0.067 C 
BRANCH   8  11
ATOM     11  O   UNL A   1      32.824  20.580  25.388  1.00  0.00    -0.478 OA
BRANCH  11  12
ATOM     12  C   UNL A   1      32.247  21.412  24.462  1.00  0.00     0.121 A 
ATOM     13  C   UNL A   1      31.607  26.956  21.774  1.00  0.00     0.016 C 
ATOM     14  C   UNL A   1      32.142  25.726  21.913  1.00  0.00     0.001 C 
ATOM     15  C   UNL A   1      32.673  24.773  20.860  1.00  0.00     0.044 C 
ATOM     16  C   UNL A   1      32.219  25.172  23.277  1.00  0.00     0.189 C 
ATOM     17  C   UNL A   1      33.389  23.511  21.464  1.00  0.00     0.041 C 
ATOM     18  C   UNL A   1      31.785  23.786  23.348  1.00  0.00     0.026 A 
ATOM     19  O   UNL A   1      32.768  25.699  24.233  1.00  0.00    -0.289 OA
ATOM     20  C   UNL A   1      32.620  22.924  22.632  1.00  0.00    -0.033 A 
ATOM     21  C   UNL A   1      30.948  23.396  24.388  1.00  0.00     0.016 A 
ATOM     22  C   UNL A   1      32.877  21.697  23.232  1.00  0.00     0.051 A 
ATOM     23  C   UNL A   1      31.160  22.150  24.934  1.00  0.00     0.047 A 
BRANCH  13  24
ATOM     24  C   UNL A   1      31.346  27.821  22.951  1.00  0.00    -0.018 A 
ATOM     25  C   UNL A   1      29.962  29.639  23.769  1.00  0.00     0.165 A 
ATOM     26  C   UNL A   1      30.149  28.539  22.932  1.00  0.00     0.058 A 
ATOM     27  C   UNL A   1      30.991  30.042  24.635  1.00  0.00     0.200 A 
ATOM     28  C   UNL A   1      32.168  29.286  24.738  1.00  0.00     0.165 A 
ATOM     29  C   UNL A   1      32.326  28.163  23.901  1.00  0.00     0.058 A 
BRANCH  25  30
ATOM     30  O   UNL A   1      28.795  30.320  23.536  1.00  0.00    -0.493 OA
ATOM     31  C   UNL A   1      27.745  29.587  22.917  1.00  0.00     0.278 C 
ENDBRANCH  25  30
BRANCH  27  32
ATOM     32  O   UNL A   1      30.879  31.247  25.277  1.00  0.00    -0.502 OA
ATOM     33  H   UNL A   1      31.185  32.029  24.861  1.00  0.00     0.293 HD
ENDBRANCH  27  32
BRANCH  28  34
ATOM     34  O   UNL A   1      33.282  29.560  25.494  1.00  0.00    -0.493 OA
ATOM     35  C   UNL A   1      33.997  28.467  26.057  1.00  0.00     0.278 C 
ENDBRANCH  28  34
ENDBRANCH  13  24
ENDBRANCH  11  12
ENDBRANCH   8  11
ENDBRANCH   5   8
ENDBRANCH   3   4
ENDBRANCH   2   3
ENDBRANCH   1   2
BRANCH   1  36
ATOM     36  C   UNL A   1      38.385  21.851  25.541  1.00  0.00     0.002 C 
BRANCH  36  37
ATOM     37  C   UNL A   1      39.152  20.543  25.318  1.00  0.00     0.021 C 
BRANCH  37  38
ATOM     38  C   UNL A   1      39.836  19.974  26.558  1.00  0.00     0.116 C 
BRANCH  38  39
ATOM     39  N   UNL A   1      41.143  19.420  26.252  1.00  0.00    -0.352 N 
ATOM     40  C   UNL A   1      42.350  20.059  26.078  1.00  0.00     0.251 C 
ATOM     41  H   UNL A   1      41.170  18.441  26.156  1.00  0.00     0.163 HD
ATOM     42  O   UNL A   1      43.298  19.446  25.620  1.00  0.00    -0.269 OA
BRANCH  40  43
ATOM     43  C   UNL A   1      42.481  21.493  26.429  1.00  0.00     0.039 A 
ATOM     44  C   UNL A   1      42.651  21.843  27.770  1.00  0.00     0.014 A 
ATOM     45  C   UNL A   1      42.416  22.485  25.447  1.00  0.00     0.014 A 
ATOM     46  C   UNL A   1      42.819  23.186  28.122  1.00  0.00     0.010 A 
ATOM     47  C   UNL A   1      42.643  23.817  25.791  1.00  0.00     0.010 A 
ATOM     48  C   UNL A   1      42.850  24.180  27.131  1.00  0.00    -0.014 A 
BRANCH  48  49
ATOM     49  C   UNL A   1      43.106  25.604  27.474  1.00  0.00     0.031 A 
ATOM     50  C   UNL A   1      44.497  26.166  27.371  1.00  0.00     0.074 A 
ATOM     51  C   UNL A   1      42.097  26.364  27.946  1.00  0.00     0.049 A 
ATOM     52  N   UNL A   1      44.940  27.347  27.722  1.00  0.00    -0.248 NA
ATOM     53  C   UNL A   1      45.532  25.275  26.825  1.00  0.00     0.031 C 
ATOM     54  C   UNL A   1      40.712  25.919  28.118  1.00  0.00     0.029 A 
ATOM     55  N   UNL A   1      42.081  27.666  28.381  1.00  0.00    -0.354 N 
ATOM     56  C   UNL A   1      46.305  27.336  27.455  1.00  0.00     0.074 A 
ATOM     57  C   UNL A   1      46.623  26.015  26.954  1.00  0.00     0.031 C 
ATOM     58  C   UNL A   1      39.982  26.932  28.613  1.00  0.00     0.029 A 
ATOM     59  C   UNL A   1      40.851  28.082  28.839  1.00  0.00     0.049 A 
ATOM     60  H   UNL A   1      42.875  28.248  28.368  1.00  0.00     0.167 HD
ATOM     61  C   UNL A   1      47.203  28.341  27.599  1.00  0.00     0.034 A 
ATOM     62  C   UNL A   1      40.471  29.249  29.397  1.00  0.00     0.034 A 
ATOM     63  C   UNL A   1      46.866  29.659  28.081  1.00  0.00     0.049 A 
ATOM     64  C   UNL A   1      41.497  30.342  29.567  1.00  0.00     0.074 A 
ATOM     65  C   UNL A   1      47.686  30.766  28.204  1.00  0.00     0.029 A 
ATOM     66  N   UNL A   1      45.609  30.046  28.527  1.00  0.00    -0.354 N 
ATOM     67  N   UNL A   1      42.774  30.331  29.259  1.00  0.00    -0.248 NA
ATOM     68  C   UNL A   1      41.030  31.607  30.148  1.00  0.00     0.031 C 
ATOM     69  C   UNL A   1      46.945  31.799  28.787  1.00  0.00     0.029 A 
ATOM     70  C   UNL A   1      45.641  31.363  28.956  1.00  0.00     0.049 A 
ATOM     71  H   UNL A   1      44.811  29.469  28.536  1.00  0.00     0.167 HD
ATOM     72  C   UNL A   1      43.251  31.598  29.581  1.00  0.00     0.074 A 
ATOM     73  C   UNL A   1      42.123  32.351  30.088  1.00  0.00     0.031 C 
ATOM     74  C   UNL A   1      44.508  32.098  29.468  1.00  0.00     0.034 A 
BRANCH  61  75
ATOM     75  C   UNL A   1      48.644  28.048  27.257  1.00  0.00     0.023 A 
ATOM     76  C   UNL A   1      49.160  28.265  25.968  1.00  0.00     0.031 A 
ATOM     77  C   UNL A   1      49.518  27.548  28.241  1.00  0.00     0.131 A 
ATOM     78  C   UNL A   1      50.493  27.933  25.682  1.00  0.00     0.055 A 
ATOM     79  C   UNL A   1      50.862  27.288  27.970  1.00  0.00     0.041 A 
ATOM     80  F   UNL A   1      49.076  27.303  29.485  1.00  0.00    -0.206 F 
ATOM     81  C   UNL A   1      51.355  27.470  26.680  1.00  0.00     0.022 A 
BRANCH  78  82
ATOM     82  S   UNL A   1      51.056  28.008  23.960  1.00  0.00     0.124 S 
ATOM     83  O   UNL A   1      51.786  29.273  23.944  1.00  0.00    -0.237 OA
ATOM     84  O   UNL A   1      51.866  26.801  23.840  1.00  0.00    -0.237 OA
ATOM     85  O   UNL A   1      49.812  28.004  23.192  1.00  0.00    -0.744 OA
ENDBRANCH  78  82
ENDBRANCH  61  75
BRANCH  62  86
ATOM     86  C   UNL A   1      39.069  29.448  29.867  1.00  0.00     0.023 A 
ATOM     87  C   UNL A   1      38.182  30.280  29.165  1.00  0.00     0.031 A 
ATOM     88  C   UNL A   1      38.614  28.863  31.062  1.00  0.00     0.131 A 
ATOM     89  C   UNL A   1      36.911  30.554  29.694  1.00  0.00     0.055 A 
ATOM     90  C   UNL A   1      37.327  29.089  31.553  1.00  0.00     0.041 A 
ATOM     91  F   UNL A   1      39.419  28.055  31.772  1.00  0.00    -0.206 F 
ATOM     92  C   UNL A   1      36.473  29.953  30.877  1.00  0.00     0.022 A 
BRANCH  89  93
ATOM     93  S   UNL A   1      35.879  31.798  28.871  1.00  0.00     0.124 S 
ATOM     94  O   UNL A   1      35.491  31.100  27.650  1.00  0.00    -0.237 OA
ATOM     95  O   UNL A   1      34.821  32.009  29.853  1.00  0.00    -0.237 OA
ATOM     96  O   UNL A   1      36.789  32.925  28.683  1.00  0.00    -0.744 OA
ENDBRANCH  89  93
ENDBRANCH  62  86
BRANCH  74  97
ATOM     97  C   UNL A   1      44.709  33.542  29.858  1.00  0.00     0.023 A 
ATOM     98  C   UNL A   1      44.588  34.585  28.923  1.00  0.00     0.031 A 
ATOM     99  C   UNL A   1      45.044  33.876  31.182  1.00  0.00     0.131 A 
ATOM    100  C   UNL A   1      44.857  35.905  29.311  1.00  0.00     0.055 A 
ATOM    101  C   UNL A   1      45.249  35.198  31.577  1.00  0.00     0.041 A 
ATOM    102  F   UNL A   1      45.175  32.920  32.116  1.00  0.00    -0.206 F 
ATOM    103  C   UNL A   1      45.169  36.220  30.636  1.00  0.00     0.022 A 
BRANCH 100 104
ATOM    104  S   UNL A   1      44.881  37.199  28.039  1.00  0.00     0.124 S 
ATOM    105  O   UNL A   1      45.752  36.612  27.026  1.00  0.00    -0.237 OA
ATOM    106  O   UNL A   1      43.471  37.310  27.680  1.00  0.00    -0.237 OA
ATOM    107  O   UNL A   1      45.434  38.357  28.739  1.00  0.00    -0.744 OA
ENDBRANCH 100 104
ENDBRANCH  74  97
ENDBRANCH  48  49
ENDBRANCH  40  43
ENDBRANCH  38  39
ENDBRANCH  37  38
ENDBRANCH  36  37
ENDBRANCH   1  36
TORSDOF 22
ENDMDL
MODEL 2
REMARK VINA RESULT:     -11.3      1.480      7.210
REMARK SMILES COc1cc(/C=C2/CCc3cc(OC(C)(C)C(=O)NCCCCCCNC(=O)c4ccc(-c5c6nc(c(-c7cc(S(=O)(=O)[O-])ccc7F)c7ccc([nH]7)c(-c7cc(S(=O)(=O)[O-])ccc7F)c7nc(c(-c8cc(S(=O)(=O)[O-])ccc8F)c8ccc5[nH]8)C=C7)C=C6)cc4)ccc3C2=O)cc(OC)c1O
REMARK SMILES IDX 22 1 21 2 20 3 19 4 17 5 18 6 14 8 15 9 16 10 13 11 12 12
REMARK SMILES IDX 6 13 7 14 8 15 95 16 9 17 94 18 96 19 10 20 93 21 11 22
REMARK SMILES IDX 92 23 5 24 3 25 4 26 101 27 98 28 97 29 2 30 1 31 102 32
REMARK SMILES IDX 99 34 100 35 23 36 24 37 25 38 26 39 27 40 28 42 29 43 30 44
REMARK SMILES IDX 91 45 31 46 90 47 32 48 33 49 34 50 84 51 35 52 89 53 83 54
REMARK SMILES IDX 85 55 36 56 88 57 82 58 81 59 37 61 69 62 49 63 68 64 50 65
REMARK SMILES IDX 53 66 67 67 86 68 51 69 52 70 66 72 87 73 54 74 38 75 39 76
REMARK SMILES IDX 47 77 40 78 46 79 48 80 45 81 41 82 42 83 43 84 44 85 70 86
REMARK SMILES IDX 71 87 79 88 72 89 78 90 80 91 77 92 73 93 74 94 75 95 76 96
REMARK SMILES IDX 55 97 56 98 64 99 57 100 63 101 65 102 62 103 58 104 59 105
REMARK SMILES IDX 60 106 61 107
REMARK H PARENT 19 7 102 33 26 41 85 60 53 71
REMARK Flexibility Score: inf
ROOT
ATOM      1  C   UNL A   1      36.911  22.622  24.681  1.00  0.00     0.002 C 
ENDROOT
BRANCH   1   2
ATOM      2  C   UNL A   1      35.526  22.687  25.324  1.00  0.00     0.021 C 
BRANCH   2   3
ATOM      3  C   UNL A   1      35.117  21.431  26.086  1.00  0.00     0.116 C 
BRANCH   3   4
ATOM      4  N   UNL A   1      35.454  20.199  25.390  1.00  0.00    -0.353 N 
ATOM      5  C   UNL A   1      34.652  19.241  24.815  1.00  0.00     0.263 C 
ATOM      6  O   UNL A   1      35.230  18.325  24.222  1.00  0.00    -0.270 OA
ATOM      7  H   UNL A   1      36.420  20.019  25.319  1.00  0.00     0.163 HD
BRANCH   5   8
ATOM      8  C   UNL A   1      33.096  19.287  24.962  1.00  0.00     0.181 C 
ATOM      9  C   UNL A   1      32.640  18.354  26.089  1.00  0.00     0.067 C 
ATOM     10  C   UNL A   1      32.538  18.922  23.559  1.00  0.00     0.067 C 
BRANCH   8  11
ATOM     11  O   UNL A   1      32.711  20.614  25.481  1.00  0.00    -0.478 OA
BRANCH  11  12
ATOM     12  C   UNL A   1      32.166  21.460  24.547  1.00  0.00     0.121 A 
ATOM     13  C   UNL A   1      31.686  27.017  21.855  1.00  0.00     0.016 C 
ATOM     14  C   UNL A   1      32.192  25.776  22.000  1.00  0.00     0.001 C 
ATOM     15  C   UNL A   1      32.717  24.812  20.954  1.00  0.00     0.044 C 
ATOM     16  C   UNL A   1      32.237  25.220  23.365  1.00  0.00     0.189 C 
ATOM     17  C   UNL A   1      33.395  23.534  21.567  1.00  0.00     0.041 C 
ATOM     18  C   UNL A   1      31.772  23.843  23.429  1.00  0.00     0.026 A 
ATOM     19  O   UNL A   1      32.785  25.734  24.329  1.00  0.00    -0.289 OA
ATOM     20  C   UNL A   1      32.598  22.964  22.724  1.00  0.00    -0.033 A 
ATOM     21  C   UNL A   1      30.913  23.472  24.457  1.00  0.00     0.016 A 
ATOM     22  C   UNL A   1      32.819  21.731  23.327  1.00  0.00     0.051 A 
ATOM     23  C   UNL A   1      31.089  22.221  25.004  1.00  0.00     0.047 A 
BRANCH  13  24
ATOM     24  C   UNL A   1      31.428  27.887  23.028  1.00  0.00    -0.018 A 
ATOM     25  C   UNL A   1      30.039  29.702  23.846  1.00  0.00     0.165 A 
ATOM     26  C   UNL A   1      30.226  28.598  23.014  1.00  0.00     0.058 A 
ATOM     27  C   UNL A   1      31.071  30.116  24.703  1.00  0.00     0.200 A 
ATOM     28  C   UNL A   1      32.253  29.367  24.801  1.00  0.00     0.165 A 
ATOM     29  C   UNL A   1      32.413  28.241  23.969  1.00  0.00     0.058 A 
BRANCH  25  30
ATOM     30  O   UNL A   1      28.866  30.374  23.618  1.00  0.00    -0.493 OA
ATOM     31  C   UNL A   1      27.834  29.647  22.964  1.00  0.00     0.278 C 
ENDBRANCH  25  30
BRANCH  27  32
ATOM     32  O   UNL A   1      30.957  31.324  25.339  1.00  0.00    -0.502 OA
ATOM     33  H   UNL A   1      30.785  32.100  24.842  1.00  0.00     0.293 HD
ENDBRANCH  27  32
BRANCH  28  34
ATOM     34  O   UNL A   1      33.371  29.653  25.548  1.00  0.00    -0.493 OA
ATOM     35  C   UNL A   1      33.670  28.813  26.656  1.00  0.00     0.278 C 
ENDBRANCH  28  34
ENDBRANCH  13  24
ENDBRANCH  11  12
ENDBRANCH   8  11
ENDBRANCH   5   8
ENDBRANCH   3   4
ENDBRANCH   2   3
ENDBRANCH   1   2
BRANCH   1  36
ATOM     36  C   UNL A   1      38.072  22.371  25.651  1.00  0.00     0.002 C 
BRANCH  36  37
ATOM     37  C   UNL A   1      38.891  21.101  25.396  1.00  0.00     0.021 C 
BRANCH  37  38
ATOM     38  C   UNL A   1      39.629  20.551  26.613  1.00  0.00     0.116 C 
BRANCH  38  39
ATOM     39  N   UNL A   1      40.711  19.659  26.236  1.00  0.00    -0.352 N 
ATOM     40  C   UNL A   1      42.036  19.938  25.991  1.00  0.00     0.251 C 
ATOM     41  H   UNL A   1      40.458  18.712  26.143  1.00  0.00     0.163 HD
ATOM     42  O   UNL A   1      42.749  19.091  25.482  1.00  0.00    -0.269 OA
BRANCH  40  43
ATOM     43  C   UNL A   1      42.581  21.274  26.328  1.00  0.00     0.039 A 
ATOM     44  C   UNL A   1      42.640  22.247  25.328  1.00  0.00     0.014 A 
ATOM     45  C   UNL A   1      43.049  21.559  27.613  1.00  0.00     0.014 A 
ATOM     46  C   UNL A   1      43.112  23.528  25.632  1.00  0.00     0.010 A 
ATOM     47  C   UNL A   1      43.463  22.852  27.930  1.00  0.00     0.010 A 
ATOM     48  C   UNL A   1      43.495  23.850  26.943  1.00  0.00    -0.014 A 
BRANCH  48  49
ATOM     49  C   UNL A   1      43.925  25.227  27.305  1.00  0.00     0.031 A 
ATOM     50  C   UNL A   1      42.924  26.210  27.850  1.00  0.00     0.074 A 
ATOM     51  C   UNL A   1      45.197  25.607  27.075  1.00  0.00     0.049 A 
ATOM     52  N   UNL A   1      43.079  27.480  28.126  1.00  0.00    -0.248 NA
ATOM     53  C   UNL A   1      41.565  25.704  28.093  1.00  0.00     0.031 C 
ATOM     54  C   UNL A   1      46.249  24.750  26.522  1.00  0.00     0.029 A 
ATOM     55  N   UNL A   1      45.822  26.815  27.262  1.00  0.00    -0.354 N 
ATOM     56  C   UNL A   1      41.836  27.930  28.559  1.00  0.00     0.074 A 
ATOM     57  C   UNL A   1      40.929  26.805  28.465  1.00  0.00     0.031 C 
ATOM     58  C   UNL A   1      47.386  25.456  26.424  1.00  0.00     0.029 A 
ATOM     59  C   UNL A   1      47.138  26.826  26.859  1.00  0.00     0.049 A 
ATOM     60  H   UNL A   1      45.371  27.601  27.648  1.00  0.00     0.167 HD
ATOM     61  C   UNL A   1      41.491  29.161  29.007  1.00  0.00     0.034 A 
ATOM     62  C   UNL A   1      48.037  27.831  26.825  1.00  0.00     0.034 A 
ATOM     63  C   UNL A   1      42.413  30.266  29.112  1.00  0.00     0.049 A 
ATOM     64  C   UNL A   1      47.619  29.198  27.308  1.00  0.00     0.074 A 
ATOM     65  C   UNL A   1      42.181  31.536  29.613  1.00  0.00     0.029 A 
ATOM     66  N   UNL A   1      43.740  30.238  28.704  1.00  0.00    -0.354 N 
ATOM     67  N   UNL A   1      46.452  29.591  27.764  1.00  0.00    -0.248 NA
ATOM     68  C   UNL A   1      48.640  30.253  27.283  1.00  0.00     0.031 C 
ATOM     69  C   UNL A   1      43.345  32.294  29.444  1.00  0.00     0.029 A 
ATOM     70  C   UNL A   1      44.328  31.477  28.909  1.00  0.00     0.049 A 
ATOM     71  H   UNL A   1      44.196  29.454  28.324  1.00  0.00     0.167 HD
ATOM     72  C   UNL A   1      46.611  30.930  28.109  1.00  0.00     0.074 A 
ATOM     73  C   UNL A   1      47.991  31.270  27.826  1.00  0.00     0.031 C 
ATOM     74  C   UNL A   1      45.703  31.802  28.614  1.00  0.00     0.034 A 
BRANCH  61  75
ATOM     75  C   UNL A   1      40.049  29.389  29.392  1.00  0.00     0.023 A 
ATOM     76  C   UNL A   1      39.650  29.513  30.735  1.00  0.00     0.031 A 
ATOM     77  C   UNL A   1      39.058  29.490  28.398  1.00  0.00     0.131 A 
ATOM     78  C   UNL A   1      38.293  29.675  31.049  1.00  0.00     0.055 A 
ATOM     79  C   UNL A   1      37.719  29.724  28.714  1.00  0.00     0.041 A 
ATOM     80  F   UNL A   1      39.377  29.360  27.101  1.00  0.00    -0.206 F 
ATOM     81  C   UNL A   1      37.327  29.807  30.048  1.00  0.00     0.022 A 
BRANCH  78  82
ATOM     82  S   UNL A   1      37.790  29.599  32.790  1.00  0.00     0.124 S 
ATOM     83  O   UNL A   1      36.679  30.546  32.817  1.00  0.00    -0.237 OA
ATOM     84  O   UNL A   1      37.437  28.194  32.956  1.00  0.00    -0.237 OA
ATOM     85  O   UNL A   1      38.986  30.031  33.511  1.00  0.00    -0.744 OA
ENDBRANCH  78  82
ENDBRANCH  61  75
BRANCH  62  86
ATOM     86  C   UNL A   1      49.412  27.605  26.290  1.00  0.00     0.023 A 
ATOM     87  C   UNL A   1      49.760  28.015  24.993  1.00  0.00     0.031 A 
ATOM     88  C   UNL A   1      50.379  26.915  27.043  1.00  0.00     0.131 A 
ATOM     89  C   UNL A   1      51.016  27.679  24.465  1.00  0.00     0.055 A 
ATOM     90  C   UNL A   1      51.649  26.636  26.536  1.00  0.00     0.041 A 
ATOM     91  F   UNL A   1      50.101  26.503  28.291  1.00  0.00    -0.206 F 
ATOM     92  C   UNL A   1      51.968  27.004  25.233  1.00  0.00     0.022 A 
BRANCH  89  93
ATOM     93  S   UNL A   1      51.347  28.038  22.719  1.00  0.00     0.124 S 
ATOM     94  O   UNL A   1      52.233  29.192  22.816  1.00  0.00    -0.237 OA
ATOM     95  O   UNL A   1      51.961  26.794  22.266  1.00  0.00    -0.237 OA
ATOM     96  O   UNL A   1      50.021  28.314  22.171  1.00  0.00    -0.744 OA
ENDBRANCH  89  93
ENDBRANCH  62  86
BRANCH  74  97
ATOM     97  C   UNL A   1      46.193  33.193  28.936  1.00  0.00     0.023 A 
ATOM     98  C   UNL A   1      46.177  34.223  27.980  1.00  0.00     0.031 A 
ATOM     99  C   UNL A   1      46.700  33.485  30.215  1.00  0.00     0.131 A 
ATOM    100  C   UNL A   1      46.712  35.480  28.298  1.00  0.00     0.055 A 
ATOM    101  C   UNL A   1      47.174  34.755  30.545  1.00  0.00     0.041 A 
ATOM    102  F   UNL A   1      46.742  32.538  31.167  1.00  0.00    -0.206 F 
ATOM    103  C   UNL A   1      47.194  35.757  29.580  1.00  0.00     0.022 A 
BRANCH 100 104
ATOM    104  S   UNL A   1      46.852  36.724  26.985  1.00  0.00     0.124 S 
ATOM    105  O   UNL A   1      48.219  37.202  27.165  1.00  0.00    -0.237 OA
ATOM    106  O   UNL A   1      46.606  35.936  25.781  1.00  0.00    -0.237 OA
ATOM    107  O   UNL A   1      45.806  37.691  27.316  1.00  0.00    -0.744 OA
ENDBRANCH 100 104
ENDBRANCH  74  97
ENDBRANCH  48  49
ENDBRANCH  40  43
ENDBRANCH  38  39
ENDBRANCH  37  38
ENDBRANCH  36  37
ENDBRANCH   1  36
TORSDOF 22
ENDMDL
MODEL 3
REMARK VINA RESULT:     -10.9      5.611     11.167
REMARK SMILES COc1cc(/C=C2/CCc3cc(OC(C)(C)C(=O)NCCCCCCNC(=O)c4ccc(-c5c6nc(c(-c7cc(S(=O)(=O)[O-])ccc7F)c7ccc([nH]7)c(-c7cc(S(=O)(=O)[O-])ccc7F)c7nc(c(-c8cc(S(=O)(=O)[O-])ccc8F)c8ccc5[nH]8)C=C7)C=C6)cc4)ccc3C2=O)cc(OC)c1O
REMARK SMILES IDX 22 1 21 2 20 3 19 4 17 5 18 6 14 8 15 9 16 10 13 11 12 12
REMARK SMILES IDX 6 13 7 14 8 15 95 16 9 17 94 18 96 19 10 20 93 21 11 22
REMARK SMILES IDX 92 23 5 24 3 25 4 26 101 27 98 28 97 29 2 30 1 31 102 32
REMARK SMILES IDX 99 34 100 35 23 36 24 37 25 38 26 39 27 40 28 42 29 43 30 44
REMARK SMILES IDX 91 45 31 46 90 47 32 48 33 49 34 50 84 51 35 52 89 53 83 54
REMARK SMILES IDX 85 55 36 56 88 57 82 58 81 59 37 61 69 62 49 63 68 64 50 65
REMARK SMILES IDX 53 66 67 67 86 68 51 69 52 70 66 72 87 73 54 74 38 75 39 76
REMARK SMILES IDX 47 77 40 78 46 79 48 80 45 81 41 82 42 83 43 84 44 85 70 86
REMARK SMILES IDX 71 87 79 88 72 89 78 90 80 91 77 92 73 93 74 94 75 95 76 96
REMARK SMILES IDX 55 97 56 98 64 99 57 100 63 101 65 102 62 103 58 104 59 105
REMARK SMILES IDX 60 106 61 107
REMARK H PARENT 19 7 102 33 26 41 85 60 53 71
REMARK Flexibility Score: inf
ROOT
ATOM      1  C   UNL A   1      34.800  33.118  29.984  1.00  0.00     0.002 C 
ENDROOT
BRANCH   1   2
ATOM      2  C   UNL A   1      36.028  33.833  29.422  1.00  0.00     0.021 C 
BRANCH   2   3
ATOM      3  C   UNL A   1      36.930  32.963  28.552  1.00  0.00     0.116 C 
BRANCH   3   4
ATOM      4  N   UNL A   1      36.253  31.795  28.008  1.00  0.00    -0.353 N 
ATOM      5  C   UNL A   1      36.332  30.467  28.353  1.00  0.00     0.263 C 
ATOM      6  O   UNL A   1      35.574  29.697  27.754  1.00  0.00    -0.270 OA
ATOM      7  H   UNL A   1      35.635  31.989  27.266  1.00  0.00     0.163 HD
BRANCH   5   8
ATOM      8  C   UNL A   1      37.371  29.960  29.407  1.00  0.00     0.181 C 
ATOM      9  C   UNL A   1      36.672  29.642  30.733  1.00  0.00     0.067 C 
ATOM     10  C   UNL A   1      38.445  31.079  29.498  1.00  0.00     0.067 C 
BRANCH   8  11
ATOM     11  O   UNL A   1      37.860  28.633  28.986  1.00  0.00    -0.478 OA
BRANCH  11  12
ATOM     12  C   UNL A   1      39.200  28.582  28.692  1.00  0.00     0.121 A 
ATOM     13  C   UNL A   1      44.110  25.809  26.129  1.00  0.00     0.016 C 
ATOM     14  C   UNL A   1      43.054  26.647  26.138  1.00  0.00     0.001 C 
ATOM     15  C   UNL A   1      42.854  27.967  25.418  1.00  0.00     0.044 C 
ATOM     16  C   UNL A   1      41.904  26.277  26.984  1.00  0.00     0.189 C 
ATOM     17  C   UNL A   1      41.395  28.536  25.550  1.00  0.00     0.041 C 
ATOM     18  C   UNL A   1      41.394  27.395  27.763  1.00  0.00     0.026 A 
ATOM     19  O   UNL A   1      41.280  25.228  26.924  1.00  0.00    -0.289 OA
ATOM     20  C   UNL A   1      40.858  28.407  26.962  1.00  0.00    -0.033 A 
ATOM     21  C   UNL A   1      41.079  27.192  29.101  1.00  0.00     0.016 A 
ATOM     22  C   UNL A   1      39.698  29.004  27.442  1.00  0.00     0.051 A 
ATOM     23  C   UNL A   1      39.968  27.842  29.593  1.00  0.00     0.047 A 
BRANCH  13  24
ATOM     24  C   UNL A   1      44.025  24.456  26.729  1.00  0.00    -0.018 A 
ATOM     25  C   UNL A   1      43.335  22.168  26.300  1.00  0.00     0.165 A 
ATOM     26  C   UNL A   1      43.797  23.403  25.841  1.00  0.00     0.058 A 
ATOM     27  C   UNL A   1      43.085  21.979  27.668  1.00  0.00     0.200 A 
ATOM     28  C   UNL A   1      43.391  22.990  28.591  1.00  0.00     0.165 A 
ATOM     29  C   UNL A   1      43.879  24.221  28.109  1.00  0.00     0.058 A 
BRANCH  25  30
ATOM     30  O   UNL A   1      43.029  21.286  25.297  1.00  0.00    -0.493 OA
ATOM     31  C   UNL A   1      43.949  20.224  25.081  1.00  0.00     0.278 C 
ENDBRANCH  25  30
BRANCH  27  32
ATOM     32  O   UNL A   1      42.423  20.848  28.067  1.00  0.00    -0.502 OA
ATOM     33  H   UNL A   1      42.046  20.804  28.924  1.00  0.00     0.293 HD
ENDBRANCH  27  32
BRANCH  28  34
ATOM     34  O   UNL A   1      43.169  22.988  29.947  1.00  0.00    -0.493 OA
ATOM     35  C   UNL A   1      44.194  23.487  30.796  1.00  0.00     0.278 C 
ENDBRANCH  28  34
ENDBRANCH  13  24
ENDBRANCH  11  12
ENDBRANCH   8  11
ENDBRANCH   5   8
ENDBRANCH   3   4
ENDBRANCH   2   3
ENDBRANCH   1   2
BRANCH   1  36
ATOM     36  C   UNL A   1      34.576  33.286  31.491  1.00  0.00     0.002 C 
BRANCH  36  37
ATOM     37  C   UNL A   1      35.688  32.741  32.395  1.00  0.00     0.021 C 
BRANCH  37  38
ATOM     38  C   UNL A   1      36.507  33.802  33.126  1.00  0.00     0.116 C 
BRANCH  38  39
ATOM     39  N   UNL A   1      36.527  33.580  34.561  1.00  0.00    -0.352 N 
ATOM     40  C   UNL A   1      37.326  32.747  35.311  1.00  0.00     0.251 C 
ATOM     41  H   UNL A   1      35.871  34.105  35.074  1.00  0.00     0.163 HD
ATOM     42  O   UNL A   1      37.054  32.541  36.481  1.00  0.00    -0.269 OA
BRANCH  40  43
ATOM     43  C   UNL A   1      38.498  32.092  34.685  1.00  0.00     0.039 A 
ATOM     44  C   UNL A   1      38.306  30.901  33.982  1.00  0.00     0.014 A 
ATOM     45  C   UNL A   1      39.780  32.636  34.809  1.00  0.00     0.014 A 
ATOM     46  C   UNL A   1      39.390  30.286  33.348  1.00  0.00     0.010 A 
ATOM     47  C   UNL A   1      40.848  32.055  34.127  1.00  0.00     0.010 A 
ATOM     48  C   UNL A   1      40.663  30.877  33.387  1.00  0.00    -0.014 A 
BRANCH  48  49
ATOM     49  C   UNL A   1      41.812  30.282  32.654  1.00  0.00     0.031 A 
ATOM     50  C   UNL A   1      42.528  29.085  33.218  1.00  0.00     0.074 A 
ATOM     51  C   UNL A   1      42.251  30.867  31.521  1.00  0.00     0.049 A 
ATOM     52  N   UNL A   1      43.609  28.488  32.784  1.00  0.00    -0.248 NA
ATOM     53  C   UNL A   1      41.968  28.497  34.444  1.00  0.00     0.031 C 
ATOM     54  C   UNL A   1      41.656  32.050  30.895  1.00  0.00     0.029 A 
ATOM     55  N   UNL A   1      43.307  30.557  30.701  1.00  0.00    -0.354 N 
ATOM     56  C   UNL A   1      43.869  27.465  33.691  1.00  0.00     0.074 A 
ATOM     57  C   UNL A   1      42.856  27.554  34.722  1.00  0.00     0.031 C 
ATOM     58  C   UNL A   1      42.350  32.358  29.788  1.00  0.00     0.029 A 
ATOM     59  C   UNL A   1      43.465  31.429  29.647  1.00  0.00     0.049 A 
ATOM     60  H   UNL A   1      43.897  29.782  30.851  1.00  0.00     0.167 HD
ATOM     61  C   UNL A   1      44.851  26.533  33.655  1.00  0.00     0.034 A 
ATOM     62  C   UNL A   1      44.413  31.486  28.690  1.00  0.00     0.034 A 
ATOM     63  C   UNL A   1      45.841  26.447  32.609  1.00  0.00     0.049 A 
ATOM     64  C   UNL A   1      45.508  30.448  28.688  1.00  0.00     0.074 A 
ATOM     65  C   UNL A   1      46.840  25.502  32.444  1.00  0.00     0.029 A 
ATOM     66  N   UNL A   1      45.965  27.341  31.555  1.00  0.00    -0.354 N 
ATOM     67  N   UNL A   1      45.707  29.456  29.525  1.00  0.00    -0.248 NA
ATOM     68  C   UNL A   1      46.499  30.530  27.608  1.00  0.00     0.031 C 
ATOM     69  C   UNL A   1      47.607  25.864  31.332  1.00  0.00     0.029 A 
ATOM     70  C   UNL A   1      47.043  26.990  30.756  1.00  0.00     0.049 A 
ATOM     71  H   UNL A   1      45.374  28.112  31.397  1.00  0.00     0.167 HD
ATOM     72  C   UNL A   1      46.827  28.779  29.051  1.00  0.00     0.074 A 
ATOM     73  C   UNL A   1      47.248  29.465  27.846  1.00  0.00     0.031 C 
ATOM     74  C   UNL A   1      47.454  27.689  29.562  1.00  0.00     0.034 A 
BRANCH  61  75
ATOM     75  C   UNL A   1      44.922  25.545  34.795  1.00  0.00     0.023 A 
ATOM     76  C   UNL A   1      45.757  25.752  35.907  1.00  0.00     0.031 A 
ATOM     77  C   UNL A   1      44.135  24.378  34.770  1.00  0.00     0.131 A 
ATOM     78  C   UNL A   1      45.827  24.784  36.919  1.00  0.00     0.055 A 
ATOM     79  C   UNL A   1      44.155  23.454  35.816  1.00  0.00     0.041 A 
ATOM     80  F   UNL A   1      43.333  24.117  33.725  1.00  0.00    -0.206 F 
ATOM     81  C   UNL A   1      45.013  23.648  36.895  1.00  0.00     0.022 A 
BRANCH  78  82
ATOM     82  S   UNL A   1      47.080  24.974  38.216  1.00  0.00     0.124 S 
ATOM     83  O   UNL A   1      46.250  25.155  39.403  1.00  0.00    -0.237 OA
ATOM     84  O   UNL A   1      47.813  23.716  38.134  1.00  0.00    -0.237 OA
ATOM     85  O   UNL A   1      47.827  26.159  37.800  1.00  0.00    -0.744 OA
ENDBRANCH  78  82
ENDBRANCH  61  75
BRANCH  62  86
ATOM     86  C   UNL A   1      44.399  32.573  27.668  1.00  0.00     0.023 A 
ATOM     87  C   UNL A   1      44.834  33.870  27.985  1.00  0.00     0.031 A 
ATOM     88  C   UNL A   1      43.886  32.350  26.378  1.00  0.00     0.131 A 
ATOM     89  C   UNL A   1      44.692  34.905  27.049  1.00  0.00     0.055 A 
ATOM     90  C   UNL A   1      43.804  33.370  25.428  1.00  0.00     0.041 A 
ATOM     91  F   UNL A   1      43.460  31.128  26.019  1.00  0.00    -0.206 F 
ATOM     92  C   UNL A   1      44.192  34.661  25.768  1.00  0.00     0.022 A 
BRANCH  89  93
ATOM     93  S   UNL A   1      45.065  36.602  27.570  1.00  0.00     0.124 S 
ATOM     94  O   UNL A   1      44.940  36.503  29.019  1.00  0.00    -0.237 OA
ATOM     95  O   UNL A   1      46.418  36.785  27.053  1.00  0.00    -0.237 OA
ATOM     96  O   UNL A   1      44.033  37.396  26.907  1.00  0.00    -0.744 OA
ENDBRANCH  89  93
ENDBRANCH  62  86
BRANCH  74  97
ATOM     97  C   UNL A   1      48.630  27.149  28.786  1.00  0.00     0.023 A 
ATOM     98  C   UNL A   1      49.939  27.611  29.010  1.00  0.00     0.031 A 
ATOM     99  C   UNL A   1      48.434  26.169  27.797  1.00  0.00     0.131 A 
ATOM    100  C   UNL A   1      50.992  27.136  28.215  1.00  0.00     0.055 A 
ATOM    101  C   UNL A   1      49.496  25.656  27.051  1.00  0.00     0.041 A 
ATOM    102  F   UNL A   1      47.205  25.694  27.539  1.00  0.00    -0.206 F 
ATOM    103  C   UNL A   1      50.782  26.149  27.249  1.00  0.00     0.022 A 
BRANCH 100 104
ATOM    104  S   UNL A   1      52.631  27.893  28.399  1.00  0.00     0.124 S 
ATOM    105  O   UNL A   1      52.568  28.429  29.755  1.00  0.00    -0.237 OA
ATOM    106  O   UNL A   1      53.524  26.754  28.205  1.00  0.00    -0.237 OA
ATOM    107  O   UNL A   1      52.667  28.895  27.335  1.00  0.00    -0.744 OA
ENDBRANCH 100 104
ENDBRANCH  74  97
ENDBRANCH  48  49
ENDBRANCH  40  43
ENDBRANCH  38  39
ENDBRANCH  37  38
ENDBRANCH  36  37
ENDBRANCH   1  36
TORSDOF 22
ENDMDL
