MODEL 1
REMARK VINA RESULT:     -12.2      0.000      0.000
REMARK SMILES CCOc1cc2c(cc1/C=C1/C(=O)N(c3cccc(C(=O)NCCCCCCNC(=O)c4ccc(-c5c6nc(c(-c7cc(S(=O)(=O)[O-])ccc7F)c7ccc([nH]7)c(-c7cc(S(=O)(=O)[O-])ccc7F)c7nc(c(-c8cc(S(=O)(=O)[O-])ccc8F)c8ccc5[nH]8)C=C7)C=C6)cc4)c3)C(=S)N=C1O)OCO2
REMARK SMILES IDX 25 1 24 2 23 3 22 4 20 5 21 6 19 8 15 9 16 10 95 11 17 12
REMARK SMILES IDX 18 13 14 14 10 15 11 16 12 17 99 18 13 19 98 20 96 21 97 22
REMARK SMILES IDX 9 23 4 24 5 25 6 26 8 27 7 28 103 29 101 30 102 31 3 32 2 33
REMARK SMILES IDX 1 34 100 35 26 37 27 38 28 39 29 40 30 41 31 43 32 44 33 45
REMARK SMILES IDX 94 46 34 47 93 48 35 49 36 50 37 51 87 52 38 53 92 54 86 55
REMARK SMILES IDX 88 56 39 57 91 58 85 59 84 60 40 62 72 63 52 64 71 65 53 66
REMARK SMILES IDX 56 67 70 68 89 69 54 70 55 71 69 73 90 74 57 75 41 76 42 77
REMARK SMILES IDX 50 78 43 79 49 80 51 81 48 82 44 83 45 84 46 85 47 86 73 87
REMARK SMILES IDX 74 88 82 89 75 90 81 91 83 92 80 93 76 94 77 95 78 96 79 97
REMARK SMILES IDX 58 98 59 99 67 100 60 101 66 102 68 103 65 104 61 105 62 106
REMARK SMILES IDX 63 107 64 108
REMARK H PARENT 22 7 100 36 29 42 88 61 56 72
REMARK Flexibility Score: inf
ROOT
ATOM      1  C   UNL A   1      38.496  23.812  26.399  1.00  0.00     0.002 C 
ENDROOT
BRANCH   1   2
ATOM      2  C   UNL A   1      37.333  23.395  25.503  1.00  0.00     0.021 C 
BRANCH   2   3
ATOM      3  C   UNL A   1      36.147  22.734  26.194  1.00  0.00     0.116 C 
BRANCH   3   4
ATOM      4  N   UNL A   1      35.891  21.365  25.778  1.00  0.00    -0.352 N 
ATOM      5  C   UNL A   1      34.961  20.828  24.914  1.00  0.00     0.251 C 
ATOM      6  O   UNL A   1      34.954  19.608  24.753  1.00  0.00    -0.269 OA
ATOM      7  H   UNL A   1      36.491  20.700  26.188  1.00  0.00     0.163 HD
BRANCH   5   8
ATOM      8  C   UNL A   1      33.926  21.654  24.225  1.00  0.00     0.041 A 
ATOM      9  C   UNL A   1      32.512  23.639  24.106  1.00  0.00     0.052 A 
ATOM     10  C   UNL A   1      31.768  23.030  23.090  1.00  0.00     0.027 A 
ATOM     11  C   UNL A   1      33.677  22.990  24.545  1.00  0.00     0.040 A 
ATOM     12  C   UNL A   1      32.085  21.742  22.650  1.00  0.00     0.003 A 
ATOM     13  C   UNL A   1      33.131  21.039  23.250  1.00  0.00     0.014 A 
BRANCH   9  14
ATOM     14  N   UNL A   1      32.039  24.788  24.860  1.00  0.00    -0.251 N 
ATOM     15  C   UNL A   1      32.608  28.412  25.067  1.00  0.00     0.031 C 
ATOM     16  C   UNL A   1      32.296  27.160  25.479  1.00  0.00     0.103 C 
ATOM     17  C   UNL A   1      32.644  26.028  24.562  1.00  0.00     0.270 C 
ATOM     18  C   UNL A   1      31.634  26.735  26.701  1.00  0.00     0.226 C 
ATOM     19  O   UNL A   1      33.411  26.210  23.615  1.00  0.00    -0.268 OA
ATOM     20  N   UNL A   1      31.094  25.603  26.920  1.00  0.00    -0.184 NA
ATOM     21  C   UNL A   1      31.179  24.605  25.982  1.00  0.00     0.210 C 
ATOM     22  S   UNL A   1      30.337  23.184  26.404  1.00  0.00    -0.038 S 
BRANCH  15  23
ATOM     23  C   UNL A   1      32.372  29.762  25.656  1.00  0.00     0.021 A 
ATOM     24  C   UNL A   1      31.230  30.530  25.274  1.00  0.00     0.130 A 
ATOM     25  C   UNL A   1      30.998  31.801  25.819  1.00  0.00     0.097 A 
ATOM     26  C   UNL A   1      31.925  32.311  26.697  1.00  0.00     0.169 A 
ATOM     27  C   UNL A   1      33.212  30.288  26.654  1.00  0.00     0.062 A 
ATOM     28  C   UNL A   1      32.999  31.573  27.108  1.00  0.00     0.166 A 
ATOM     29  O   UNL A   1      31.876  33.531  27.292  1.00  0.00    -0.453 OA
ATOM     30  O   UNL A   1      33.779  32.241  28.001  1.00  0.00    -0.454 OA
ATOM     31  C   UNL A   1      33.130  33.535  28.002  1.00  0.00     0.468 C 
BRANCH  24  32
ATOM     32  O   UNL A   1      30.274  29.935  24.481  1.00  0.00    -0.493 OA
BRANCH  32  33
ATOM     33  C   UNL A   1      29.363  30.826  23.826  1.00  0.00     0.226 C 
ATOM     34  C   UNL A   1      28.291  30.097  23.033  1.00  0.00     0.049 C 
ENDBRANCH  32  33
ENDBRANCH  24  32
ENDBRANCH  15  23
BRANCH  18  35
ATOM     35  O   UNL A   1      31.658  27.566  27.740  1.00  0.00    -0.493 OA
ATOM     36  H   UNL A   1      31.128  27.390  28.493  1.00  0.00     0.295 HD
ENDBRANCH  18  35
ENDBRANCH   9  14
ENDBRANCH   5   8
ENDBRANCH   3   4
ENDBRANCH   2   3
ENDBRANCH   1   2
BRANCH   1  37
ATOM     37  C   UNL A   1      39.706  22.874  26.419  1.00  0.00     0.002 C 
BRANCH  37  38
ATOM     38  C   UNL A   1      39.420  21.411  26.763  1.00  0.00     0.021 C 
BRANCH  38  39
ATOM     39  C   UNL A   1      39.585  20.418  25.617  1.00  0.00     0.116 C 
BRANCH  39  40
ATOM     40  N   UNL A   1      40.509  19.342  25.938  1.00  0.00    -0.352 N 
ATOM     41  C   UNL A   1      41.836  19.411  26.281  1.00  0.00     0.251 C 
ATOM     42  H   UNL A   1      40.127  18.435  25.905  1.00  0.00     0.163 HD
ATOM     43  O   UNL A   1      42.503  18.379  26.343  1.00  0.00    -0.269 OA
BRANCH  41  44
ATOM     44  C   UNL A   1      42.465  20.724  26.543  1.00  0.00     0.039 A 
ATOM     45  C   UNL A   1      42.873  21.509  25.462  1.00  0.00     0.014 A 
ATOM     46  C   UNL A   1      42.650  21.182  27.850  1.00  0.00     0.014 A 
ATOM     47  C   UNL A   1      43.404  22.782  25.690  1.00  0.00     0.010 A 
ATOM     48  C   UNL A   1      43.108  22.479  28.072  1.00  0.00     0.010 A 
ATOM     49  C   UNL A   1      43.491  23.294  26.995  1.00  0.00    -0.014 A 
BRANCH  49  50
ATOM     50  C   UNL A   1      44.002  24.667  27.258  1.00  0.00     0.031 A 
ATOM     51  C   UNL A   1      43.068  25.727  27.780  1.00  0.00     0.074 A 
ATOM     52  C   UNL A   1      45.286  24.977  26.984  1.00  0.00     0.049 A 
ATOM     53  N   UNL A   1      43.282  27.005  27.965  1.00  0.00    -0.248 NA
ATOM     54  C   UNL A   1      41.700  25.295  28.103  1.00  0.00     0.031 C 
ATOM     55  C   UNL A   1      46.290  24.048  26.456  1.00  0.00     0.029 A 
ATOM     56  N   UNL A   1      45.966  26.164  27.103  1.00  0.00    -0.354 N 
ATOM     57  C   UNL A   1      42.076  27.531  28.418  1.00  0.00     0.074 A 
ATOM     58  C   UNL A   1      41.119  26.445  28.410  1.00  0.00     0.031 C 
ATOM     59  C   UNL A   1      47.462  24.694  26.329  1.00  0.00     0.029 A 
ATOM     60  C   UNL A   1      47.283  26.090  26.713  1.00  0.00     0.049 A 
ATOM     61  H   UNL A   1      45.549  26.990  27.437  1.00  0.00     0.167 HD
ATOM     62  C   UNL A   1      41.798  28.795  28.825  1.00  0.00     0.034 A 
ATOM     63  C   UNL A   1      48.232  27.046  26.648  1.00  0.00     0.034 A 
ATOM     64  C   UNL A   1      42.765  29.867  28.831  1.00  0.00     0.049 A 
ATOM     65  C   UNL A   1      47.875  28.461  27.022  1.00  0.00     0.074 A 
ATOM     66  C   UNL A   1      42.600  31.173  29.259  1.00  0.00     0.029 A 
ATOM     67  N   UNL A   1      44.075  29.760  28.382  1.00  0.00    -0.354 N 
ATOM     68  N   UNL A   1      46.731  28.941  27.450  1.00  0.00    -0.248 NA
ATOM     69  C   UNL A   1      48.941  29.463  26.893  1.00  0.00     0.031 C 
ATOM     70  C   UNL A   1      43.782  31.875  28.995  1.00  0.00     0.029 A 
ATOM     71  C   UNL A   1      44.715  30.986  28.488  1.00  0.00     0.049 A 
ATOM     72  H   UNL A   1      44.488  28.936  28.039  1.00  0.00     0.167 HD
ATOM     73  C   UNL A   1      46.953  30.296  27.676  1.00  0.00     0.074 A 
ATOM     74  C   UNL A   1      48.338  30.554  27.337  1.00  0.00     0.031 C 
ATOM     75  C   UNL A   1      46.092  31.238  28.136  1.00  0.00     0.034 A 
BRANCH  62  76
ATOM     76  C   UNL A   1      40.384  29.088  29.269  1.00  0.00     0.023 A 
ATOM     77  C   UNL A   1      40.013  29.048  30.625  1.00  0.00     0.031 A 
ATOM     78  C   UNL A   1      39.384  29.382  28.325  1.00  0.00     0.131 A 
ATOM     79  C   UNL A   1      38.668  29.210  30.989  1.00  0.00     0.055 A 
ATOM     80  C   UNL A   1      38.064  29.636  28.703  1.00  0.00     0.041 A 
ATOM     81  F   UNL A   1      39.668  29.414  27.014  1.00  0.00    -0.206 F 
ATOM     82  C   UNL A   1      37.695  29.532  30.042  1.00  0.00     0.022 A 
BRANCH  79  83
ATOM     83  S   UNL A   1      38.185  28.826  32.695  1.00  0.00     0.124 S 
ATOM     84  O   UNL A   1      38.155  27.365  32.670  1.00  0.00    -0.237 OA
ATOM     85  O   UNL A   1      39.261  29.430  33.471  1.00  0.00    -0.237 OA
ATOM     86  O   UNL A   1      36.879  29.465  32.833  1.00  0.00    -0.744 OA
ENDBRANCH  79  83
ENDBRANCH  62  76
BRANCH  63  87
ATOM     87  C   UNL A   1      49.600  26.735  26.152  1.00  0.00     0.023 A 
ATOM     88  C   UNL A   1      50.021  27.126  24.871  1.00  0.00     0.031 A 
ATOM     89  C   UNL A   1      50.471  25.950  26.922  1.00  0.00     0.131 A 
ATOM     90  C   UNL A   1      51.267  26.695  24.386  1.00  0.00     0.055 A 
ATOM     91  C   UNL A   1      51.729  25.568  26.456  1.00  0.00     0.041 A 
ATOM     92  F   UNL A   1      50.099  25.538  28.144  1.00  0.00    -0.206 F 
ATOM     93  C   UNL A   1      52.132  25.937  25.178  1.00  0.00     0.022 A 
BRANCH  90  94
ATOM     94  S   UNL A   1      51.701  27.046  22.661  1.00  0.00     0.124 S 
ATOM     95  O   UNL A   1      50.443  26.767  21.980  1.00  0.00    -0.237 OA
ATOM     96  O   UNL A   1      52.102  28.447  22.725  1.00  0.00    -0.237 OA
ATOM     97  O   UNL A   1      52.784  26.103  22.386  1.00  0.00    -0.744 OA
ENDBRANCH  90  94
ENDBRANCH  63  87
BRANCH  75  98
ATOM     98  C   UNL A   1      46.647  32.622  28.362  1.00  0.00     0.023 A 
ATOM     99  C   UNL A   1      46.822  33.536  27.309  1.00  0.00     0.031 A 
ATOM    100  C   UNL A   1      47.012  33.027  29.659  1.00  0.00     0.131 A 
ATOM    101  C   UNL A   1      47.396  34.792  27.565  1.00  0.00     0.055 A 
ATOM    102  C   UNL A   1      47.522  34.299  29.916  1.00  0.00     0.041 A 
ATOM    103  F   UNL A   1      46.873  32.190  30.700  1.00  0.00    -0.206 F 
ATOM    104  C   UNL A   1      47.728  35.186  28.864  1.00  0.00     0.022 A 
BRANCH 101 105
ATOM    105  S   UNL A   1      47.785  35.872  26.161  1.00  0.00     0.124 S 
ATOM    106  O   UNL A   1      47.932  34.913  25.072  1.00  0.00    -0.237 OA
ATOM    107  O   UNL A   1      46.610  36.735  26.095  1.00  0.00    -0.237 OA
ATOM    108  O   UNL A   1      49.019  36.538  26.572  1.00  0.00    -0.744 OA
ENDBRANCH 101 105
ENDBRANCH  75  98
ENDBRANCH  49  50
ENDBRANCH  41  44
ENDBRANCH  39  40
ENDBRANCH  38  39
ENDBRANCH  37  38
ENDBRANCH   1  37
TORSDOF 21
ENDMDL
MODEL 2
REMARK VINA RESULT:     -11.6      1.368      2.191
REMARK SMILES CCOc1cc2c(cc1/C=C1/C(=O)N(c3cccc(C(=O)NCCCCCCNC(=O)c4ccc(-c5c6nc(c(-c7cc(S(=O)(=O)[O-])ccc7F)c7ccc([nH]7)c(-c7cc(S(=O)(=O)[O-])ccc7F)c7nc(c(-c8cc(S(=O)(=O)[O-])ccc8F)c8ccc5[nH]8)C=C7)C=C6)cc4)c3)C(=S)N=C1O)OCO2
REMARK SMILES IDX 25 1 24 2 23 3 22 4 20 5 21 6 19 8 15 9 16 10 95 11 17 12
REMARK SMILES IDX 18 13 14 14 10 15 11 16 12 17 99 18 13 19 98 20 96 21 97 22
REMARK SMILES IDX 9 23 4 24 5 25 6 26 8 27 7 28 103 29 101 30 102 31 3 32 2 33
REMARK SMILES IDX 1 34 100 35 26 37 27 38 28 39 29 40 30 41 31 43 32 44 33 45
REMARK SMILES IDX 94 46 34 47 93 48 35 49 36 50 37 51 87 52 38 53 92 54 86 55
REMARK SMILES IDX 88 56 39 57 91 58 85 59 84 60 40 62 72 63 52 64 71 65 53 66
REMARK SMILES IDX 56 67 70 68 89 69 54 70 55 71 69 73 90 74 57 75 41 76 42 77
REMARK SMILES IDX 50 78 43 79 49 80 51 81 48 82 44 83 45 84 46 85 47 86 73 87
REMARK SMILES IDX 74 88 82 89 75 90 81 91 83 92 80 93 76 94 77 95 78 96 79 97
REMARK SMILES IDX 58 98 59 99 67 100 60 101 66 102 68 103 65 104 61 105 62 106
REMARK SMILES IDX 63 107 64 108
REMARK H PARENT 22 7 100 36 29 42 88 61 56 72
REMARK Flexibility Score: inf
ROOT
ATOM      1  C   UNL A   1      38.501  24.122  26.939  1.00  0.00     0.002 C 
ENDROOT
BRANCH   1   2
ATOM      2  C   UNL A   1      37.379  24.120  25.905  1.00  0.00     0.021 C 
BRANCH   2   3
ATOM      3  C   UNL A   1      36.254  23.116  26.124  1.00  0.00     0.116 C 
BRANCH   3   4
ATOM      4  N   UNL A   1      36.610  21.737  25.837  1.00  0.00    -0.352 N 
ATOM      5  C   UNL A   1      35.938  20.738  25.165  1.00  0.00     0.251 C 
ATOM      6  O   UNL A   1      36.474  19.633  25.081  1.00  0.00    -0.269 OA
ATOM      7  H   UNL A   1      37.491  21.467  26.185  1.00  0.00     0.163 HD
BRANCH   5   8
ATOM      8  C   UNL A   1      34.568  20.922  24.602  1.00  0.00     0.041 A 
ATOM      9  C   UNL A   1      32.562  22.269  24.268  1.00  0.00     0.052 A 
ATOM     10  C   UNL A   1      31.891  21.130  23.813  1.00  0.00     0.027 A 
ATOM     11  C   UNL A   1      33.941  22.165  24.509  1.00  0.00     0.040 A 
ATOM     12  C   UNL A   1      32.541  19.893  23.762  1.00  0.00     0.003 A 
ATOM     13  C   UNL A   1      33.861  19.782  24.202  1.00  0.00     0.014 A 
BRANCH   9  14
ATOM     14  N   UNL A   1      31.878  23.479  24.694  1.00  0.00    -0.251 N 
ATOM     15  C   UNL A   1      31.109  26.839  23.421  1.00  0.00     0.031 C 
ATOM     16  C   UNL A   1      31.376  25.863  24.322  1.00  0.00     0.103 C 
ATOM     17  C   UNL A   1      31.906  24.565  23.794  1.00  0.00     0.270 C 
ATOM     18  C   UNL A   1      31.202  25.874  25.765  1.00  0.00     0.226 C 
ATOM     19  O   UNL A   1      32.325  24.492  22.637  1.00  0.00    -0.268 OA
ATOM     20  N   UNL A   1      31.176  24.861  26.537  1.00  0.00    -0.184 NA
ATOM     21  C   UNL A   1      31.413  23.606  26.035  1.00  0.00     0.210 C 
ATOM     22  S   UNL A   1      31.265  22.360  27.189  1.00  0.00    -0.038 S 
BRANCH  15  23
ATOM     23  C   UNL A   1      30.531  28.208  23.551  1.00  0.00     0.021 A 
ATOM     24  C   UNL A   1      31.242  29.231  24.251  1.00  0.00     0.130 A 
ATOM     25  C   UNL A   1      30.709  30.522  24.381  1.00  0.00     0.097 A 
ATOM     26  C   UNL A   1      29.461  30.766  23.860  1.00  0.00     0.169 A 
ATOM     27  C   UNL A   1      29.319  28.559  22.932  1.00  0.00     0.062 A 
ATOM     28  C   UNL A   1      28.786  29.812  23.150  1.00  0.00     0.166 A 
ATOM     29  O   UNL A   1      28.784  31.941  23.923  1.00  0.00    -0.453 OA
ATOM     30  O   UNL A   1      27.585  30.257  22.690  1.00  0.00    -0.454 OA
ATOM     31  C   UNL A   1      27.536  31.567  23.308  1.00  0.00     0.468 C 
BRANCH  24  32
ATOM     32  O   UNL A   1      32.533  28.974  24.656  1.00  0.00    -0.493 OA
BRANCH  32  33
ATOM     33  C   UNL A   1      32.932  29.578  25.892  1.00  0.00     0.226 C 
ATOM     34  C   UNL A   1      34.356  29.229  26.289  1.00  0.00     0.049 C 
ENDBRANCH  32  33
ENDBRANCH  24  32
ENDBRANCH  15  23
BRANCH  18  35
ATOM     35  O   UNL A   1      31.147  27.056  26.374  1.00  0.00    -0.493 OA
ATOM     36  H   UNL A   1      31.923  27.428  26.745  1.00  0.00     0.295 HD
ENDBRANCH  18  35
ENDBRANCH   9  14
ENDBRANCH   5   8
ENDBRANCH   3   4
ENDBRANCH   2   3
ENDBRANCH   1   2
BRANCH   1  37
ATOM     37  C   UNL A   1      39.769  23.351  26.563  1.00  0.00     0.002 C 
BRANCH  37  38
ATOM     38  C   UNL A   1      39.806  21.875  26.964  1.00  0.00     0.021 C 
BRANCH  38  39
ATOM     39  C   UNL A   1      39.889  20.879  25.812  1.00  0.00     0.116 C 
BRANCH  39  40
ATOM     40  N   UNL A   1      40.907  19.863  26.023  1.00  0.00    -0.352 N 
ATOM     41  C   UNL A   1      42.241  20.017  26.312  1.00  0.00     0.251 C 
ATOM     42  H   UNL A   1      40.595  18.932  25.950  1.00  0.00     0.163 HD
ATOM     43  O   UNL A   1      42.988  19.039  26.280  1.00  0.00    -0.269 OA
BRANCH  41  44
ATOM     44  C   UNL A   1      42.779  21.358  26.629  1.00  0.00     0.039 A 
ATOM     45  C   UNL A   1      43.076  22.235  25.582  1.00  0.00     0.014 A 
ATOM     46  C   UNL A   1      42.988  21.752  27.953  1.00  0.00     0.014 A 
ATOM     47  C   UNL A   1      43.518  23.530  25.867  1.00  0.00     0.010 A 
ATOM     48  C   UNL A   1      43.355  23.066  28.235  1.00  0.00     0.010 A 
ATOM     49  C   UNL A   1      43.626  23.970  27.197  1.00  0.00    -0.014 A 
BRANCH  49  50
ATOM     50  C   UNL A   1      44.042  25.361  27.523  1.00  0.00     0.031 A 
ATOM     51  C   UNL A   1      43.018  26.357  28.000  1.00  0.00     0.074 A 
ATOM     52  C   UNL A   1      45.322  25.745  27.344  1.00  0.00     0.049 A 
ATOM     53  N   UNL A   1      43.149  27.640  28.226  1.00  0.00    -0.248 NA
ATOM     54  C   UNL A   1      41.656  25.846  28.219  1.00  0.00     0.031 C 
ATOM     55  C   UNL A   1      46.409  24.885  26.869  1.00  0.00     0.029 A 
ATOM     56  N   UNL A   1      45.927  26.963  27.535  1.00  0.00    -0.354 N 
ATOM     57  C   UNL A   1      41.888  28.090  28.605  1.00  0.00     0.074 A 
ATOM     58  C   UNL A   1      40.994  26.955  28.508  1.00  0.00     0.031 C 
ATOM     59  C   UNL A   1      47.550  25.594  26.837  1.00  0.00     0.029 A 
ATOM     60  C   UNL A   1      47.270  26.969  27.236  1.00  0.00     0.049 A 
ATOM     61  H   UNL A   1      45.444  27.758  27.856  1.00  0.00     0.167 HD
ATOM     62  C   UNL A   1      41.514  29.327  29.018  1.00  0.00     0.034 A 
ATOM     63  C   UNL A   1      48.167  27.975  27.257  1.00  0.00     0.034 A 
ATOM     64  C   UNL A   1      42.418  30.448  29.114  1.00  0.00     0.049 A 
ATOM     65  C   UNL A   1      47.709  29.360  27.634  1.00  0.00     0.074 A 
ATOM     66  C   UNL A   1      42.154  31.733  29.556  1.00  0.00     0.029 A 
ATOM     67  N   UNL A   1      43.760  30.422  28.755  1.00  0.00    -0.354 N 
ATOM     68  N   UNL A   1      46.514  29.768  27.992  1.00  0.00    -0.248 NA
ATOM     69  C   UNL A   1      48.725  30.420  27.600  1.00  0.00     0.031 C 
ATOM     70  C   UNL A   1      43.311  32.503  29.389  1.00  0.00     0.029 A 
ATOM     71  C   UNL A   1      44.324  31.677  28.929  1.00  0.00     0.049 A 
ATOM     72  H   UNL A   1      44.240  29.629  28.423  1.00  0.00     0.167 HD
ATOM     73  C   UNL A   1      46.646  31.127  28.261  1.00  0.00     0.074 A 
ATOM     74  C   UNL A   1      48.034  31.467  28.024  1.00  0.00     0.031 C 
ATOM     75  C   UNL A   1      45.705  32.010  28.679  1.00  0.00     0.034 A 
BRANCH  62  76
ATOM     76  C   UNL A   1      40.059  29.534  29.369  1.00  0.00     0.023 A 
ATOM     77  C   UNL A   1      39.628  29.626  30.704  1.00  0.00     0.031 A 
ATOM     78  C   UNL A   1      39.083  29.610  28.359  1.00  0.00     0.131 A 
ATOM     79  C   UNL A   1      38.258  29.700  30.995  1.00  0.00     0.055 A 
ATOM     80  C   UNL A   1      37.729  29.779  28.653  1.00  0.00     0.041 A 
ATOM     81  F   UNL A   1      39.427  29.508  27.066  1.00  0.00    -0.206 F 
ATOM     82  C   UNL A   1      37.306  29.807  29.979  1.00  0.00     0.022 A 
BRANCH  79  83
ATOM     83  S   UNL A   1      37.729  29.484  32.717  1.00  0.00     0.124 S 
ATOM     84  O   UNL A   1      38.826  30.120  33.443  1.00  0.00    -0.237 OA
ATOM     85  O   UNL A   1      36.452  30.187  32.745  1.00  0.00    -0.237 OA
ATOM     86  O   UNL A   1      37.648  28.034  32.871  1.00  0.00    -0.744 OA
ENDBRANCH  79  83
ENDBRANCH  62  76
BRANCH  63  87
ATOM     87  C   UNL A   1      49.581  27.749  26.850  1.00  0.00     0.023 A 
ATOM     88  C   UNL A   1      50.001  27.939  25.524  1.00  0.00     0.031 A 
ATOM     89  C   UNL A   1      50.509  27.241  27.771  1.00  0.00     0.131 A 
ATOM     90  C   UNL A   1      51.307  27.583  25.151  1.00  0.00     0.055 A 
ATOM     91  C   UNL A   1      51.822  26.939  27.406  1.00  0.00     0.041 A 
ATOM     92  F   UNL A   1      50.143  27.027  29.044  1.00  0.00    -0.206 F 
ATOM     93  C   UNL A   1      52.226  27.104  26.087  1.00  0.00     0.022 A 
BRANCH  90  94
ATOM     94  S   UNL A   1      51.762  27.651  23.396  1.00  0.00     0.124 S 
ATOM     95  O   UNL A   1      51.988  29.079  23.207  1.00  0.00    -0.237 OA
ATOM     96  O   UNL A   1      52.946  26.800  23.354  1.00  0.00    -0.237 OA
ATOM     97  O   UNL A   1      50.585  27.108  22.721  1.00  0.00    -0.744 OA
ENDBRANCH  90  94
ENDBRANCH  63  87
BRANCH  75  98
ATOM     98  C   UNL A   1      46.167  33.416  28.972  1.00  0.00     0.023 A 
ATOM     99  C   UNL A   1      46.072  34.445  28.020  1.00  0.00     0.031 A 
ATOM    100  C   UNL A   1      46.719  33.725  30.228  1.00  0.00     0.131 A 
ATOM    101  C   UNL A   1      46.568  35.723  28.323  1.00  0.00     0.055 A 
ATOM    102  C   UNL A   1      47.152  35.011  30.546  1.00  0.00     0.041 A 
ATOM    103  F   UNL A   1      46.841  32.777  31.172  1.00  0.00    -0.206 F 
ATOM    104  C   UNL A   1      47.089  36.017  29.586  1.00  0.00     0.022 A 
BRANCH 101 105
ATOM    105  S   UNL A   1      46.606  36.975  27.011  1.00  0.00     0.124 S 
ATOM    106  O   UNL A   1      45.188  37.149  26.718  1.00  0.00    -0.237 OA
ATOM    107  O   UNL A   1      47.261  38.100  27.672  1.00  0.00    -0.237 OA
ATOM    108  O   UNL A   1      47.387  36.340  25.952  1.00  0.00    -0.744 OA
ENDBRANCH 101 105
ENDBRANCH  75  98
ENDBRANCH  49  50
ENDBRANCH  41  44
ENDBRANCH  39  40
ENDBRANCH  38  39
ENDBRANCH  37  38
ENDBRANCH   1  37
TORSDOF 21
ENDMDL
MODEL 3
REMARK VINA RESULT:     -11.4      3.942      9.014
REMARK SMILES CCOc1cc2c(cc1/C=C1/C(=O)N(c3cccc(C(=O)NCCCCCCNC(=O)c4ccc(-c5c6nc(c(-c7cc(S(=O)(=O)[O-])ccc7F)c7ccc([nH]7)c(-c7cc(S(=O)(=O)[O-])ccc7F)c7nc(c(-c8cc(S(=O)(=O)[O-])ccc8F)c8ccc5[nH]8)C=C7)C=C6)cc4)c3)C(=S)N=C1O)OCO2
REMARK SMILES IDX 25 1 24 2 23 3 22 4 20 5 21 6 19 8 15 9 16 10 95 11 17 12
REMARK SMILES IDX 18 13 14 14 10 15 11 16 12 17 99 18 13 19 98 20 96 21 97 22
REMARK SMILES IDX 9 23 4 24 5 25 6 26 8 27 7 28 103 29 101 30 102 31 3 32 2 33
REMARK SMILES IDX 1 34 100 35 26 37 27 38 28 39 29 40 30 41 31 43 32 44 33 45
REMARK SMILES IDX 94 46 34 47 93 48 35 49 36 50 37 51 87 52 38 53 92 54 86 55
REMARK SMILES IDX 88 56 39 57 91 58 85 59 84 60 40 62 72 63 52 64 71 65 53 66
REMARK SMILES IDX 56 67 70 68 89 69 54 70 55 71 69 73 90 74 57 75 41 76 42 77
REMARK SMILES IDX 50 78 43 79 49 80 51 81 48 82 44 83 45 84 46 85 47 86 73 87
REMARK SMILES IDX 74 88 82 89 75 90 81 91 83 92 80 93 76 94 77 95 78 96 79 97
REMARK SMILES IDX 58 98 59 99 67 100 60 101 66 102 68 103 65 104 61 105 62 106
REMARK SMILES IDX 63 107 64 108
REMARK H PARENT 22 7 100 36 29 42 88 61 56 72
REMARK Flexibility Score: inf
ROOT
ATOM      1  C   UNL A   1      37.637  22.985  26.263  1.00  0.00     0.002 C 
ENDROOT
BRANCH   1   2
ATOM      2  C   UNL A   1      37.511  21.999  25.104  1.00  0.00     0.021 C 
BRANCH   2   3
ATOM      3  C   UNL A   1      36.113  21.470  24.812  1.00  0.00     0.116 C 
BRANCH   3   4
ATOM      4  N   UNL A   1      35.329  21.149  25.992  1.00  0.00    -0.352 N 
ATOM      5  C   UNL A   1      34.049  21.500  26.366  1.00  0.00     0.251 C 
ATOM      6  O   UNL A   1      33.629  21.095  27.449  1.00  0.00    -0.269 OA
ATOM      7  H   UNL A   1      35.796  20.576  26.644  1.00  0.00     0.163 HD
BRANCH   5   8
ATOM      8  C   UNL A   1      33.186  22.401  25.547  1.00  0.00     0.041 A 
ATOM      9  C   UNL A   1      32.706  24.582  24.565  1.00  0.00     0.052 A 
ATOM     10  C   UNL A   1      31.407  24.151  24.279  1.00  0.00     0.027 A 
ATOM     11  C   UNL A   1      33.618  23.636  25.059  1.00  0.00     0.040 A 
ATOM     12  C   UNL A   1      30.990  22.864  24.632  1.00  0.00     0.003 A 
ATOM     13  C   UNL A   1      31.863  22.010  25.307  1.00  0.00     0.014 A 
BRANCH   9  14
ATOM     14  N   UNL A   1      33.096  25.982  24.572  1.00  0.00    -0.251 N 
ATOM     15  C   UNL A   1      33.609  28.721  26.967  1.00  0.00     0.031 C 
ATOM     16  C   UNL A   1      33.305  28.111  25.796  1.00  0.00     0.103 C 
ATOM     17  C   UNL A   1      33.099  26.628  25.827  1.00  0.00     0.270 C 
ATOM     18  C   UNL A   1      33.167  28.689  24.470  1.00  0.00     0.226 C 
ATOM     19  O   UNL A   1      32.949  26.045  26.902  1.00  0.00    -0.268 OA
ATOM     20  N   UNL A   1      33.179  28.063  23.361  1.00  0.00    -0.184 NA
ATOM     21  C   UNL A   1      33.243  26.691  23.344  1.00  0.00     0.210 C 
ATOM     22  S   UNL A   1      33.327  26.022  21.780  1.00  0.00    -0.038 S 
BRANCH  15  23
ATOM     23  C   UNL A   1      33.936  30.133  27.320  1.00  0.00     0.021 A 
ATOM     24  C   UNL A   1      35.280  30.509  27.630  1.00  0.00     0.130 A 
ATOM     25  C   UNL A   1      35.600  31.832  27.964  1.00  0.00     0.097 A 
ATOM     26  C   UNL A   1      34.581  32.751  28.035  1.00  0.00     0.169 A 
ATOM     27  C   UNL A   1      32.963  31.147  27.285  1.00  0.00     0.062 A 
ATOM     28  C   UNL A   1      33.298  32.420  27.698  1.00  0.00     0.166 A 
ATOM     29  O   UNL A   1      34.706  34.061  28.373  1.00  0.00    -0.453 OA
ATOM     30  O   UNL A   1      32.444  33.474  27.802  1.00  0.00    -0.454 OA
ATOM     31  C   UNL A   1      33.326  34.474  28.365  1.00  0.00     0.468 C 
BRANCH  24  32
ATOM     32  O   UNL A   1      36.281  29.584  27.437  1.00  0.00    -0.493 OA
BRANCH  32  33
ATOM     33  C   UNL A   1      37.201  29.424  28.524  1.00  0.00     0.226 C 
ATOM     34  C   UNL A   1      38.343  28.476  28.197  1.00  0.00     0.049 C 
ENDBRANCH  32  33
ENDBRANCH  24  32
ENDBRANCH  15  23
BRANCH  18  35
ATOM     35  O   UNL A   1      32.916  29.993  24.385  1.00  0.00    -0.493 OA
ATOM     36  H   UNL A   1      32.420  30.419  25.057  1.00  0.00     0.295 HD
ENDBRANCH  18  35
ENDBRANCH   9  14
ENDBRANCH   5   8
ENDBRANCH   3   4
ENDBRANCH   2   3
ENDBRANCH   1   2
BRANCH   1  37
ATOM     37  C   UNL A   1      38.213  24.362  25.920  1.00  0.00     0.002 C 
BRANCH  37  38
ATOM     38  C   UNL A   1      39.112  25.000  26.980  1.00  0.00     0.021 C 
BRANCH  38  39
ATOM     39  C   UNL A   1      40.399  24.245  27.297  1.00  0.00     0.116 C 
BRANCH  39  40
ATOM     40  N   UNL A   1      41.340  24.253  26.189  1.00  0.00    -0.352 N 
ATOM     41  C   UNL A   1      42.130  25.278  25.729  1.00  0.00     0.251 C 
ATOM     42  H   UNL A   1      41.423  23.403  25.700  1.00  0.00     0.163 HD
ATOM     43  O   UNL A   1      42.734  25.150  24.664  1.00  0.00    -0.269 OA
BRANCH  41  44
ATOM     44  C   UNL A   1      42.229  26.538  26.497  1.00  0.00     0.039 A 
ATOM     45  C   UNL A   1      42.993  26.563  27.666  1.00  0.00     0.014 A 
ATOM     46  C   UNL A   1      41.573  27.694  26.065  1.00  0.00     0.014 A 
ATOM     47  C   UNL A   1      43.155  27.763  28.364  1.00  0.00     0.010 A 
ATOM     48  C   UNL A   1      41.796  28.904  26.719  1.00  0.00     0.010 A 
ATOM     49  C   UNL A   1      42.589  28.953  27.876  1.00  0.00    -0.014 A 
BRANCH  49  50
ATOM     50  C   UNL A   1      42.792  30.253  28.573  1.00  0.00     0.031 A 
ATOM     51  C   UNL A   1      43.984  31.107  28.231  1.00  0.00     0.074 A 
ATOM     52  C   UNL A   1      41.941  30.642  29.544  1.00  0.00     0.049 A 
ATOM     53  N   UNL A   1      44.405  32.210  28.797  1.00  0.00    -0.248 NA
ATOM     54  C   UNL A   1      44.834  30.638  27.126  1.00  0.00     0.031 C 
ATOM     55  C   UNL A   1      40.758  29.897  29.986  1.00  0.00     0.029 A 
ATOM     56  N   UNL A   1      41.943  31.759  30.342  1.00  0.00    -0.354 N 
ATOM     57  C   UNL A   1      45.571  32.562  28.123  1.00  0.00     0.074 A 
ATOM     58  C   UNL A   1      45.825  31.515  27.156  1.00  0.00     0.031 C 
ATOM     59  C   UNL A   1      40.134  30.595  30.951  1.00  0.00     0.029 A 
ATOM     60  C   UNL A   1      40.897  31.806  31.235  1.00  0.00     0.049 A 
ATOM     61  H   UNL A   1      42.629  32.462  30.280  1.00  0.00     0.167 HD
ATOM     62  C   UNL A   1      46.344  33.665  28.280  1.00  0.00     0.034 A 
ATOM     63  C   UNL A   1      40.601  32.710  32.190  1.00  0.00     0.034 A 
ATOM     64  C   UNL A   1      46.076  34.703  29.246  1.00  0.00     0.049 A 
ATOM     65  C   UNL A   1      41.524  33.881  32.404  1.00  0.00     0.074 A 
ATOM     66  C   UNL A   1      46.771  35.880  29.462  1.00  0.00     0.029 A 
ATOM     67  N   UNL A   1      45.033  34.687  30.164  1.00  0.00    -0.354 N 
ATOM     68  N   UNL A   1      42.621  34.199  31.757  1.00  0.00    -0.248 NA
ATOM     69  C   UNL A   1      41.169  34.808  33.486  1.00  0.00     0.031 C 
ATOM     70  C   UNL A   1      46.199  36.534  30.559  1.00  0.00     0.029 A 
ATOM     71  C   UNL A   1      45.091  35.813  30.970  1.00  0.00     0.049 A 
ATOM     72  H   UNL A   1      44.353  33.978  30.232  1.00  0.00     0.167 HD
ATOM     73  C   UNL A   1      43.064  35.386  32.333  1.00  0.00     0.074 A 
ATOM     74  C   UNL A   1      42.118  35.724  33.376  1.00  0.00     0.031 C 
ATOM     75  C   UNL A   1      44.150  36.136  32.016  1.00  0.00     0.034 A 
BRANCH  62  76
ATOM     76  C   UNL A   1      47.569  33.787  27.403  1.00  0.00     0.023 A 
ATOM     77  C   UNL A   1      48.803  33.226  27.777  1.00  0.00     0.031 A 
ATOM     78  C   UNL A   1      47.514  34.498  26.191  1.00  0.00     0.131 A 
ATOM     79  C   UNL A   1      49.945  33.459  26.997  1.00  0.00     0.055 A 
ATOM     80  C   UNL A   1      48.634  34.645  25.370  1.00  0.00     0.041 A 
ATOM     81  F   UNL A   1      46.371  35.075  25.787  1.00  0.00    -0.206 F 
ATOM     82  C   UNL A   1      49.865  34.140  25.780  1.00  0.00     0.022 A 
BRANCH  79  83
ATOM     83  S   UNL A   1      51.563  33.005  27.679  1.00  0.00     0.124 S 
ATOM     84  O   UNL A   1      52.386  32.952  26.473  1.00  0.00    -0.237 OA
ATOM     85  O   UNL A   1      51.840  34.106  28.594  1.00  0.00    -0.237 OA
ATOM     86  O   UNL A   1      51.317  31.712  28.312  1.00  0.00    -0.744 OA
ENDBRANCH  79  83
ENDBRANCH  62  76
BRANCH  63  87
ATOM     87  C   UNL A   1      39.418  32.529  33.075  1.00  0.00     0.023 A 
ATOM     88  C   UNL A   1      38.155  33.027  32.719  1.00  0.00     0.031 A 
ATOM     89  C   UNL A   1      39.564  31.941  34.340  1.00  0.00     0.131 A 
ATOM     90  C   UNL A   1      37.096  32.960  33.640  1.00  0.00     0.055 A 
ATOM     91  C   UNL A   1      38.496  31.829  35.231  1.00  0.00     0.041 A 
ATOM     92  F   UNL A   1      40.760  31.469  34.727  1.00  0.00    -0.206 F 
ATOM     93  C   UNL A   1      37.253  32.346  34.884  1.00  0.00     0.022 A 
BRANCH  90  94
ATOM     94  S   UNL A   1      35.533  33.785  33.235  1.00  0.00     0.124 S 
ATOM     95  O   UNL A   1      35.818  35.160  33.628  1.00  0.00    -0.237 OA
ATOM     96  O   UNL A   1      35.417  33.535  31.803  1.00  0.00    -0.237 OA
ATOM     97  O   UNL A   1      34.555  33.086  34.068  1.00  0.00    -0.744 OA
ENDBRANCH  90  94
ENDBRANCH  63  87
BRANCH  75  98
ATOM     98  C   UNL A   1      44.332  37.432  32.767  1.00  0.00     0.023 A 
ATOM     99  C   UNL A   1      43.622  38.596  32.428  1.00  0.00     0.031 A 
ATOM    100  C   UNL A   1      45.241  37.498  33.838  1.00  0.00     0.131 A 
ATOM    101  C   UNL A   1      43.871  39.790  33.121  1.00  0.00     0.055 A 
ATOM    102  C   UNL A   1      45.436  38.672  34.565  1.00  0.00     0.041 A 
ATOM    103  F   UNL A   1      45.951  36.417  34.199  1.00  0.00    -0.206 F 
ATOM    104  C   UNL A   1      44.758  39.831  34.200  1.00  0.00     0.022 A 
BRANCH 101 105
ATOM    105  S   UNL A   1      43.082  41.316  32.537  1.00  0.00     0.124 S 
ATOM    106  O   UNL A   1      41.904  41.396  33.393  1.00  0.00    -0.237 OA
ATOM    107  O   UNL A   1      44.117  42.316  32.784  1.00  0.00    -0.237 OA
ATOM    108  O   UNL A   1      42.809  41.043  31.127  1.00  0.00    -0.744 OA
ENDBRANCH 101 105
ENDBRANCH  75  98
ENDBRANCH  49  50
ENDBRANCH  41  44
ENDBRANCH  39  40
ENDBRANCH  38  39
ENDBRANCH  37  38
ENDBRANCH   1  37
TORSDOF 21
ENDMDL
