MODEL 1
REMARK VINA RESULT:     -10.0      0.000      0.000
REMARK SMILES COCC[N@H+](C)[C@H](C(=O)NCCCCCCNC(=O)c1ccc(-c2c3nc(c(-c4cc(S(=O)(=O)[O-])ccc4F)c4ccc([nH]4)c(-c4cc(S(=O)(=O)[O-])ccc4F)c4nc(c(-c5cc(S(=O)(=O)[O-])ccc5F)c5ccc2[nH]5)C=C4)C=C3)cc1)c1ccc(OC)nc1
REMARK SMILES IDX 13 1 12 2 11 3 10 4 8 5 9 6 7 8 5 9 6 10 4 12 3 13 2 14 1 15
REMARK SMILES IDX 83 16 84 17 90 18 85 19 89 20 86 21 87 22 88 23 14 24 15 25
REMARK SMILES IDX 16 26 17 27 18 28 19 30 20 31 21 32 82 33 22 34 81 35 23 36
REMARK SMILES IDX 24 37 25 38 75 39 26 40 80 41 74 42 76 43 27 44 79 45 73 46
REMARK SMILES IDX 72 47 28 49 60 50 40 51 59 52 41 53 44 54 58 55 77 56 42 57
REMARK SMILES IDX 43 58 57 60 78 61 45 62 29 63 30 64 38 65 31 66 37 67 39 68
REMARK SMILES IDX 36 69 32 70 33 71 34 72 35 73 61 74 62 75 70 76 63 77 69 78
REMARK SMILES IDX 71 79 68 80 64 81 65 82 66 83 67 84 46 85 47 86 55 87 48 88
REMARK SMILES IDX 54 89 56 90 53 91 49 92 50 93 51 94 52 95
REMARK H PARENT 10 7 5 11 17 29 76 48 44 59
REMARK Flexibility Score: inf
ROOT
ATOM      1  C   UNL A   1      33.889  29.270  26.454  1.00  0.00     0.002 C 
ENDROOT
BRANCH   1   2
ATOM      2  C   UNL A   1      32.603  28.442  26.550  1.00  0.00     0.021 C 
BRANCH   2   3
ATOM      3  C   UNL A   1      32.782  26.934  26.426  1.00  0.00     0.116 C 
BRANCH   3   4
ATOM      4  N   UNL A   1      31.564  26.197  26.702  1.00  0.00    -0.351 N 
ATOM      5  C   UNL A   1      31.021  25.112  26.070  1.00  0.00     0.283 C 
ATOM      6  O   UNL A   1      30.097  24.545  26.667  1.00  0.00    -0.268 OA
ATOM      7  H   UNL A   1      31.044  26.531  27.469  1.00  0.00     0.163 HD
BRANCH   5   8
ATOM      8  C   UNL A   1      31.571  24.618  24.688  1.00  0.00     0.306 C 
BRANCH   8   9
ATOM      9  N   UNL A   1      31.799  25.836  23.857  1.00  0.00    -0.321 N 
ATOM     10  C   UNL A   1      32.863  25.706  22.864  1.00  0.00     0.333 C 
ATOM     11  H   UNL A   1      32.133  26.500  24.554  1.00  0.00     0.348 HD
BRANCH   9  12
ATOM     12  C   UNL A   1      30.591  26.453  23.284  1.00  0.00     0.291 C 
BRANCH  12  13
ATOM     13  C   UNL A   1      30.859  27.661  22.359  1.00  0.00     0.221 C 
BRANCH  13  14
ATOM     14  O   UNL A   1      29.717  28.460  22.044  1.00  0.00    -0.379 OA
ATOM     15  C   UNL A   1      29.910  29.861  22.162  1.00  0.00     0.195 C 
ENDBRANCH  13  14
ENDBRANCH  12  13
ENDBRANCH   9  12
ENDBRANCH   8   9
BRANCH   8  16
ATOM     16  C   UNL A   1      32.764  23.670  24.804  1.00  0.00     0.038 A 
ATOM     17  C   UNL A   1      34.014  24.037  25.314  1.00  0.00     0.017 A 
ATOM     18  C   UNL A   1      32.666  22.365  24.331  1.00  0.00     0.125 A 
ATOM     19  C   UNL A   1      35.081  23.136  25.301  1.00  0.00     0.069 A 
ATOM     20  N   UNL A   1      33.685  21.473  24.302  1.00  0.00    -0.222 NA
ATOM     21  C   UNL A   1      34.884  21.872  24.772  1.00  0.00     0.212 A 
BRANCH  21  22
ATOM     22  O   UNL A   1      35.848  20.912  24.651  1.00  0.00    -0.481 OA
ATOM     23  C   UNL A   1      37.076  21.149  25.324  1.00  0.00     0.280 C 
ENDBRANCH  21  22
ENDBRANCH   8  16
ENDBRANCH   5   8
ENDBRANCH   3   4
ENDBRANCH   2   3
ENDBRANCH   1   2
BRANCH   1  24
ATOM     24  C   UNL A   1      34.136  30.258  27.596  1.00  0.00     0.002 C 
BRANCH  24  25
ATOM     25  C   UNL A   1      33.965  31.737  27.245  1.00  0.00     0.021 C 
BRANCH  25  26
ATOM     26  C   UNL A   1      32.617  32.346  27.613  1.00  0.00     0.116 C 
BRANCH  26  27
ATOM     27  N   UNL A   1      32.654  33.797  27.672  1.00  0.00    -0.352 N 
ATOM     28  C   UNL A   1      33.464  34.614  28.419  1.00  0.00     0.251 C 
ATOM     29  H   UNL A   1      32.005  34.259  27.095  1.00  0.00     0.163 HD
ATOM     30  O   UNL A   1      33.237  35.823  28.457  1.00  0.00    -0.269 OA
BRANCH  28  31
ATOM     31  C   UNL A   1      34.584  34.041  29.198  1.00  0.00     0.039 A 
ATOM     32  C   UNL A   1      34.298  33.316  30.358  1.00  0.00     0.014 A 
ATOM     33  C   UNL A   1      35.912  34.217  28.796  1.00  0.00     0.014 A 
ATOM     34  C   UNL A   1      35.337  32.726  31.081  1.00  0.00     0.010 A 
ATOM     35  C   UNL A   1      36.938  33.561  29.473  1.00  0.00     0.010 A 
ATOM     36  C   UNL A   1      36.663  32.815  30.630  1.00  0.00    -0.014 A 
BRANCH  36  37
ATOM     37  C   UNL A   1      37.773  32.157  31.372  1.00  0.00     0.031 A 
ATOM     38  C   UNL A   1      38.530  31.018  30.742  1.00  0.00     0.074 A 
ATOM     39  C   UNL A   1      38.078  32.563  32.621  1.00  0.00     0.049 A 
ATOM     40  N   UNL A   1      39.488  30.281  31.245  1.00  0.00    -0.248 NA
ATOM     41  C   UNL A   1      38.137  30.639  29.376  1.00  0.00     0.031 C 
ATOM     42  C   UNL A   1      37.395  33.633  33.352  1.00  0.00     0.029 A 
ATOM     43  N   UNL A   1      39.037  32.123  33.500  1.00  0.00    -0.354 N 
ATOM     44  C   UNL A   1      39.815  29.358  30.257  1.00  0.00     0.074 A 
ATOM     45  C   UNL A   1      38.895  29.575  29.161  1.00  0.00     0.031 C 
ATOM     46  C   UNL A   1      37.974  33.785  34.554  1.00  0.00     0.029 A 
ATOM     47  C   UNL A   1      39.035  32.793  34.703  1.00  0.00     0.049 A 
ATOM     48  H   UNL A   1      39.667  31.398  33.290  1.00  0.00     0.167 HD
ATOM     49  C   UNL A   1      40.810  28.436  30.248  1.00  0.00     0.034 A 
ATOM     50  C   UNL A   1      39.792  32.619  35.806  1.00  0.00     0.034 A 
ATOM     51  C   UNL A   1      41.719  28.228  31.350  1.00  0.00     0.049 A 
ATOM     52  C   UNL A   1      40.862  31.554  35.791  1.00  0.00     0.074 A 
ATOM     53  C   UNL A   1      42.771  27.333  31.443  1.00  0.00     0.029 A 
ATOM     54  N   UNL A   1      41.685  28.924  32.553  1.00  0.00    -0.354 N 
ATOM     55  N   UNL A   1      41.179  30.713  34.833  1.00  0.00    -0.248 NA
ATOM     56  C   UNL A   1      41.688  31.428  36.999  1.00  0.00     0.031 C 
ATOM     57  C   UNL A   1      43.327  27.438  32.723  1.00  0.00     0.029 A 
ATOM     58  C   UNL A   1      42.682  28.462  33.398  1.00  0.00     0.049 A 
ATOM     59  H   UNL A   1      41.046  29.640  32.772  1.00  0.00     0.167 HD
ATOM     60  C   UNL A   1      42.270  29.988  35.311  1.00  0.00     0.074 A 
ATOM     61  C   UNL A   1      42.565  30.507  36.630  1.00  0.00     0.031 C 
ATOM     62  C   UNL A   1      42.967  28.988  34.713  1.00  0.00     0.034 A 
BRANCH  49  63
ATOM     63  C   UNL A   1      40.953  27.580  29.012  1.00  0.00     0.023 A 
ATOM     64  C   UNL A   1      41.982  27.804  28.079  1.00  0.00     0.031 A 
ATOM     65  C   UNL A   1      40.042  26.543  28.745  1.00  0.00     0.131 A 
ATOM     66  C   UNL A   1      42.030  27.057  26.892  1.00  0.00     0.055 A 
ATOM     67  C   UNL A   1      40.148  25.744  27.604  1.00  0.00     0.041 A 
ATOM     68  F   UNL A   1      39.024  26.293  29.584  1.00  0.00    -0.206 F 
ATOM     69  C   UNL A   1      41.137  26.010  26.661  1.00  0.00     0.022 A 
BRANCH  66  70
ATOM     70  S   UNL A   1      43.180  27.578  25.590  1.00  0.00     0.124 S 
ATOM     71  O   UNL A   1      42.273  28.196  24.626  1.00  0.00    -0.237 OA
ATOM     72  O   UNL A   1      44.073  28.485  26.301  1.00  0.00    -0.237 OA
ATOM     73  O   UNL A   1      43.786  26.323  25.148  1.00  0.00    -0.744 OA
ENDBRANCH  66  70
ENDBRANCH  49  63
BRANCH  50  74
ATOM     74  C   UNL A   1      39.567  33.451  37.025  1.00  0.00     0.023 A 
ATOM     75  C   UNL A   1      38.930  32.921  38.160  1.00  0.00     0.031 A 
ATOM     76  C   UNL A   1      39.920  34.812  37.049  1.00  0.00     0.131 A 
ATOM     77  C   UNL A   1      38.601  33.760  39.235  1.00  0.00     0.055 A 
ATOM     78  C   UNL A   1      39.654  35.627  38.151  1.00  0.00     0.041 A 
ATOM     79  F   UNL A   1      40.532  35.374  35.994  1.00  0.00    -0.206 F 
ATOM     80  C   UNL A   1      38.971  35.106  39.245  1.00  0.00     0.022 A 
BRANCH  77  81
ATOM     81  S   UNL A   1      37.563  33.095  40.568  1.00  0.00     0.124 S 
ATOM     82  O   UNL A   1      37.522  34.217  41.498  1.00  0.00    -0.237 OA
ATOM     83  O   UNL A   1      36.320  32.800  39.862  1.00  0.00    -0.237 OA
ATOM     84  O   UNL A   1      38.309  31.927  41.029  1.00  0.00    -0.744 OA
ENDBRANCH  77  81
ENDBRANCH  50  74
BRANCH  62  85
ATOM     85  C   UNL A   1      44.161  28.440  35.461  1.00  0.00     0.023 A 
ATOM     86  C   UNL A   1      44.035  27.423  36.423  1.00  0.00     0.031 A 
ATOM     87  C   UNL A   1      45.444  28.964  35.220  1.00  0.00     0.131 A 
ATOM     88  C   UNL A   1      45.158  27.015  37.161  1.00  0.00     0.055 A 
ATOM     89  C   UNL A   1      46.569  28.502  35.904  1.00  0.00     0.041 A 
ATOM     90  F   UNL A   1      45.626  29.938  34.314  1.00  0.00    -0.206 F 
ATOM     91  C   UNL A   1      46.426  27.534  36.893  1.00  0.00     0.022 A 
BRANCH  88  92
ATOM     92  S   UNL A   1      44.916  25.882  38.557  1.00  0.00     0.124 S 
ATOM     93  O   UNL A   1      46.290  25.592  38.953  1.00  0.00    -0.237 OA
ATOM     94  O   UNL A   1      44.143  26.698  39.490  1.00  0.00    -0.237 OA
ATOM     95  O   UNL A   1      44.189  24.760  37.967  1.00  0.00    -0.744 OA
ENDBRANCH  88  92
ENDBRANCH  62  85
ENDBRANCH  36  37
ENDBRANCH  28  31
ENDBRANCH  26  27
ENDBRANCH  25  26
ENDBRANCH  24  25
ENDBRANCH   1  24
TORSDOF 22
ENDMDL
MODEL 2
REMARK VINA RESULT:      -9.9      5.684     11.571
REMARK SMILES COCC[N@H+](C)[C@H](C(=O)NCCCCCCNC(=O)c1ccc(-c2c3nc(c(-c4cc(S(=O)(=O)[O-])ccc4F)c4ccc([nH]4)c(-c4cc(S(=O)(=O)[O-])ccc4F)c4nc(c(-c5cc(S(=O)(=O)[O-])ccc5F)c5ccc2[nH]5)C=C4)C=C3)cc1)c1ccc(OC)nc1
REMARK SMILES IDX 13 1 12 2 11 3 10 4 8 5 9 6 7 8 5 9 6 10 4 12 3 13 2 14 1 15
REMARK SMILES IDX 83 16 84 17 90 18 85 19 89 20 86 21 87 22 88 23 14 24 15 25
REMARK SMILES IDX 16 26 17 27 18 28 19 30 20 31 21 32 82 33 22 34 81 35 23 36
REMARK SMILES IDX 24 37 25 38 75 39 26 40 80 41 74 42 76 43 27 44 79 45 73 46
REMARK SMILES IDX 72 47 28 49 60 50 40 51 59 52 41 53 44 54 58 55 77 56 42 57
REMARK SMILES IDX 43 58 57 60 78 61 45 62 29 63 30 64 38 65 31 66 37 67 39 68
REMARK SMILES IDX 36 69 32 70 33 71 34 72 35 73 61 74 62 75 70 76 63 77 69 78
REMARK SMILES IDX 71 79 68 80 64 81 65 82 66 83 67 84 46 85 47 86 55 87 48 88
REMARK SMILES IDX 54 89 56 90 53 91 49 92 50 93 51 94 52 95
REMARK H PARENT 10 7 5 11 17 29 76 48 44 59
REMARK Flexibility Score: inf
ROOT
ATOM      1  C   UNL A   1      37.330  22.673  24.622  1.00  0.00     0.002 C 
ENDROOT
BRANCH   1   2
ATOM      2  C   UNL A   1      36.472  22.759  23.355  1.00  0.00     0.021 C 
BRANCH   2   3
ATOM      3  C   UNL A   1      35.234  23.640  23.459  1.00  0.00     0.116 C 
BRANCH   3   4
ATOM      4  N   UNL A   1      34.039  22.996  22.949  1.00  0.00    -0.351 N 
ATOM      5  C   UNL A   1      32.842  22.736  23.559  1.00  0.00     0.283 C 
ATOM      6  O   UNL A   1      31.919  22.389  22.810  1.00  0.00    -0.268 OA
ATOM      7  H   UNL A   1      34.099  22.697  22.013  1.00  0.00     0.163 HD
BRANCH   5   8
ATOM      8  C   UNL A   1      32.666  22.903  25.107  1.00  0.00     0.306 C 
BRANCH   8   9
ATOM      9  N   UNL A   1      33.728  22.076  25.751  1.00  0.00    -0.321 N 
ATOM     10  C   UNL A   1      33.692  22.068  27.212  1.00  0.00     0.333 C 
ATOM     11  H   UNL A   1      34.572  22.583  25.485  1.00  0.00     0.348 HD
BRANCH   9  12
ATOM     12  C   UNL A   1      33.902  20.720  25.202  1.00  0.00     0.291 C 
BRANCH  12  13
ATOM     13  C   UNL A   1      32.723  19.759  25.470  1.00  0.00     0.221 C 
BRANCH  13  14
ATOM     14  O   UNL A   1      32.785  18.506  24.787  1.00  0.00    -0.379 OA
ATOM     15  C   UNL A   1      32.682  17.360  25.619  1.00  0.00     0.195 C 
ENDBRANCH  13  14
ENDBRANCH  12  13
ENDBRANCH   9  12
ENDBRANCH   8   9
BRANCH   8  16
ATOM     16  C   UNL A   1      32.601  24.360  25.565  1.00  0.00     0.038 A 
ATOM     17  C   UNL A   1      33.690  25.238  25.555  1.00  0.00     0.017 A 
ATOM     18  C   UNL A   1      31.418  24.874  26.088  1.00  0.00     0.125 A 
ATOM     19  C   UNL A   1      33.570  26.527  26.077  1.00  0.00     0.069 A 
ATOM     20  N   UNL A   1      31.276  26.117  26.605  1.00  0.00    -0.222 NA
ATOM     21  C   UNL A   1      32.355  26.925  26.608  1.00  0.00     0.212 A 
BRANCH  21  22
ATOM     22  O   UNL A   1      32.112  28.135  27.193  1.00  0.00    -0.481 OA
ATOM     23  C   UNL A   1      31.749  29.203  26.329  1.00  0.00     0.280 C 
ENDBRANCH  21  22
ENDBRANCH   8  16
ENDBRANCH   5   8
ENDBRANCH   3   4
ENDBRANCH   2   3
ENDBRANCH   1   2
BRANCH   1  24
ATOM     24  C   UNL A   1      37.672  21.262  25.106  1.00  0.00     0.002 C 
BRANCH  24  25
ATOM     25  C   UNL A   1      39.161  20.963  25.287  1.00  0.00     0.021 C 
BRANCH  25  26
ATOM     26  C   UNL A   1      39.514  20.107  26.498  1.00  0.00     0.116 C 
BRANCH  26  27
ATOM     27  N   UNL A   1      40.596  19.176  26.231  1.00  0.00    -0.352 N 
ATOM     28  C   UNL A   1      41.938  19.425  26.079  1.00  0.00     0.251 C 
ATOM     29  H   UNL A   1      40.330  18.232  26.146  1.00  0.00     0.163 HD
ATOM     30  O   UNL A   1      42.682  18.524  25.695  1.00  0.00    -0.269 OA
BRANCH  28  31
ATOM     31  C   UNL A   1      42.478  20.776  26.346  1.00  0.00     0.039 A 
ATOM     32  C   UNL A   1      42.745  21.622  25.266  1.00  0.00     0.014 A 
ATOM     33  C   UNL A   1      42.726  21.213  27.651  1.00  0.00     0.014 A 
ATOM     34  C   UNL A   1      43.210  22.918  25.498  1.00  0.00     0.010 A 
ATOM     35  C   UNL A   1      43.112  22.531  27.883  1.00  0.00     0.010 A 
ATOM     36  C   UNL A   1      43.369  23.397  26.809  1.00  0.00    -0.014 A 
BRANCH  36  37
ATOM     37  C   UNL A   1      43.826  24.790  27.067  1.00  0.00     0.031 A 
ATOM     38  C   UNL A   1      42.862  25.812  27.607  1.00  0.00     0.074 A 
ATOM     39  C   UNL A   1      45.098  25.141  26.788  1.00  0.00     0.049 A 
ATOM     40  N   UNL A   1      43.051  27.086  27.846  1.00  0.00    -0.248 NA
ATOM     41  C   UNL A   1      41.495  25.347  27.888  1.00  0.00     0.031 C 
ATOM     42  C   UNL A   1      46.117  24.248  26.230  1.00  0.00     0.029 A 
ATOM     43  N   UNL A   1      45.752  26.340  26.930  1.00  0.00    -0.354 N 
ATOM     44  C   UNL A   1      41.832  27.570  28.309  1.00  0.00     0.074 A 
ATOM     45  C   UNL A   1      40.891  26.473  28.236  1.00  0.00     0.031 C 
ATOM     46  C   UNL A   1      47.272  24.923  26.105  1.00  0.00     0.029 A 
ATOM     47  C   UNL A   1      47.067  26.306  26.524  1.00  0.00     0.049 A 
ATOM     48  H   UNL A   1      45.321  27.148  27.290  1.00  0.00     0.167 HD
ATOM     49  C   UNL A   1      41.531  28.805  28.783  1.00  0.00     0.034 A 
ATOM     50  C   UNL A   1      47.997  27.282  26.480  1.00  0.00     0.034 A 
ATOM     51  C   UNL A   1      42.480  29.891  28.847  1.00  0.00     0.049 A 
ATOM     52  C   UNL A   1      47.625  28.662  26.968  1.00  0.00     0.074 A 
ATOM     53  C   UNL A   1      42.287  31.178  29.321  1.00  0.00     0.029 A 
ATOM     54  N   UNL A   1      43.802  29.820  28.424  1.00  0.00    -0.354 N 
ATOM     55  N   UNL A   1      46.475  29.093  27.435  1.00  0.00    -0.248 NA
ATOM     56  C   UNL A   1      48.682  29.681  26.939  1.00  0.00     0.031 C 
ATOM     57  C   UNL A   1      43.467  31.902  29.121  1.00  0.00     0.029 A 
ATOM     58  C   UNL A   1      44.426  31.045  28.607  1.00  0.00     0.049 A 
ATOM     59  H   UNL A   1      44.232  29.018  28.050  1.00  0.00     0.167 HD
ATOM     60  C   UNL A   1      46.687  30.423  27.795  1.00  0.00     0.074 A 
ATOM     61  C   UNL A   1      48.076  30.712  27.509  1.00  0.00     0.031 C 
ATOM     62  C   UNL A   1      45.815  31.322  28.318  1.00  0.00     0.034 A 
BRANCH  49  63
ATOM     63  C   UNL A   1      40.116  29.042  29.254  1.00  0.00     0.023 A 
ATOM     64  C   UNL A   1      39.786  29.021  30.622  1.00  0.00     0.031 A 
ATOM     65  C   UNL A   1      39.079  29.269  28.334  1.00  0.00     0.131 A 
ATOM     66  C   UNL A   1      38.447  29.145  31.023  1.00  0.00     0.055 A 
ATOM     67  C   UNL A   1      37.761  29.482  28.745  1.00  0.00     0.041 A 
ATOM     68  F   UNL A   1      39.325  29.279  27.013  1.00  0.00    -0.206 F 
ATOM     69  C   UNL A   1      37.436  29.405  30.096  1.00  0.00     0.022 A 
BRANCH  66  70
ATOM     70  S   UNL A   1      38.029  28.812  32.756  1.00  0.00     0.124 S 
ATOM     71  O   UNL A   1      39.134  29.464  33.456  1.00  0.00    -0.237 OA
ATOM     72  O   UNL A   1      36.722  29.444  32.894  1.00  0.00    -0.237 OA
ATOM     73  O   UNL A   1      38.029  27.352  32.833  1.00  0.00    -0.744 OA
ENDBRANCH  66  70
ENDBRANCH  49  63
BRANCH  50  74
ATOM     74  C   UNL A   1      49.364  27.010  25.945  1.00  0.00     0.023 A 
ATOM     75  C   UNL A   1      50.428  26.681  26.801  1.00  0.00     0.031 A 
ATOM     76  C   UNL A   1      49.645  27.148  24.574  1.00  0.00     0.131 A 
ATOM     77  C   UNL A   1      51.731  26.573  26.290  1.00  0.00     0.055 A 
ATOM     78  C   UNL A   1      50.932  26.971  24.060  1.00  0.00     0.041 A 
ATOM     79  F   UNL A   1      48.668  27.460  23.707  1.00  0.00    -0.206 F 
ATOM     80  C   UNL A   1      51.988  26.701  24.924  1.00  0.00     0.022 A 
BRANCH  77  81
ATOM     81  S   UNL A   1      53.108  26.395  27.460  1.00  0.00     0.124 S 
ATOM     82  O   UNL A   1      53.715  27.719  27.405  1.00  0.00    -0.237 OA
ATOM     83  O   UNL A   1      52.411  26.057  28.696  1.00  0.00    -0.237 OA
ATOM     84  O   UNL A   1      53.907  25.317  26.881  1.00  0.00    -0.744 OA
ENDBRANCH  77  81
ENDBRANCH  50  74
BRANCH  62  85
ATOM     85  C   UNL A   1      46.363  32.684  28.676  1.00  0.00     0.023 A 
ATOM     86  C   UNL A   1      46.309  33.768  27.782  1.00  0.00     0.031 A 
ATOM     87  C   UNL A   1      46.972  32.891  29.927  1.00  0.00     0.131 A 
ATOM     88  C   UNL A   1      46.918  34.986  28.123  1.00  0.00     0.055 A 
ATOM     89  C   UNL A   1      47.511  34.126  30.289  1.00  0.00     0.041 A 
ATOM     90  F   UNL A   1      47.055  31.892  30.821  1.00  0.00    -0.206 F 
ATOM     91  C   UNL A   1      47.501  35.177  29.378  1.00  0.00     0.022 A 
BRANCH  88  92
ATOM     92  S   UNL A   1      47.044  36.279  26.857  1.00  0.00     0.124 S 
ATOM     93  O   UNL A   1      46.637  35.565  25.652  1.00  0.00    -0.237 OA
ATOM     94  O   UNL A   1      46.108  37.287  27.347  1.00  0.00    -0.237 OA
ATOM     95  O   UNL A   1      48.453  36.668  26.903  1.00  0.00    -0.744 OA
ENDBRANCH  88  92
ENDBRANCH  62  85
ENDBRANCH  36  37
ENDBRANCH  28  31
ENDBRANCH  26  27
ENDBRANCH  25  26
ENDBRANCH  24  25
ENDBRANCH   1  24
TORSDOF 22
ENDMDL
MODEL 3
REMARK VINA RESULT:      -9.9      5.563      9.301
REMARK SMILES COCC[N@H+](C)[C@H](C(=O)NCCCCCCNC(=O)c1ccc(-c2c3nc(c(-c4cc(S(=O)(=O)[O-])ccc4F)c4ccc([nH]4)c(-c4cc(S(=O)(=O)[O-])ccc4F)c4nc(c(-c5cc(S(=O)(=O)[O-])ccc5F)c5ccc2[nH]5)C=C4)C=C3)cc1)c1ccc(OC)nc1
REMARK SMILES IDX 13 1 12 2 11 3 10 4 8 5 9 6 7 8 5 9 6 10 4 12 3 13 2 14 1 15
REMARK SMILES IDX 83 16 84 17 90 18 85 19 89 20 86 21 87 22 88 23 14 24 15 25
REMARK SMILES IDX 16 26 17 27 18 28 19 30 20 31 21 32 82 33 22 34 81 35 23 36
REMARK SMILES IDX 24 37 25 38 75 39 26 40 80 41 74 42 76 43 27 44 79 45 73 46
REMARK SMILES IDX 72 47 28 49 60 50 40 51 59 52 41 53 44 54 58 55 77 56 42 57
REMARK SMILES IDX 43 58 57 60 78 61 45 62 29 63 30 64 38 65 31 66 37 67 39 68
REMARK SMILES IDX 36 69 32 70 33 71 34 72 35 73 61 74 62 75 70 76 63 77 69 78
REMARK SMILES IDX 71 79 68 80 64 81 65 82 66 83 67 84 46 85 47 86 55 87 48 88
REMARK SMILES IDX 54 89 56 90 53 91 49 92 50 93 51 94 52 95
REMARK H PARENT 10 7 5 11 17 29 76 48 44 59
REMARK Flexibility Score: inf
ROOT
ATOM      1  C   UNL A   1      37.169  22.761  24.701  1.00  0.00     0.002 C 
ENDROOT
BRANCH   1   2
ATOM      2  C   UNL A   1      36.381  22.706  23.388  1.00  0.00     0.021 C 
BRANCH   2   3
ATOM      3  C   UNL A   1      35.177  23.636  23.304  1.00  0.00     0.116 C 
BRANCH   3   4
ATOM      4  N   UNL A   1      33.965  22.954  22.896  1.00  0.00    -0.351 N 
ATOM      5  C   UNL A   1      32.819  22.688  23.594  1.00  0.00     0.283 C 
ATOM      6  O   UNL A   1      31.855  22.300  22.922  1.00  0.00    -0.268 OA
ATOM      7  H   UNL A   1      33.967  22.629  21.966  1.00  0.00     0.163 HD
BRANCH   5   8
ATOM      8  C   UNL A   1      32.746  22.896  25.145  1.00  0.00     0.306 C 
BRANCH   8   9
ATOM      9  N   UNL A   1      33.789  22.014  25.746  1.00  0.00    -0.321 N 
ATOM     10  C   UNL A   1      33.840  22.039  27.206  1.00  0.00     0.333 C 
ATOM     11  H   UNL A   1      34.646  22.459  25.419  1.00  0.00     0.348 HD
BRANCH   9  12
ATOM     12  C   UNL A   1      33.842  20.639  25.222  1.00  0.00     0.291 C 
BRANCH  12  13
ATOM     13  C   UNL A   1      32.843  19.659  25.876  1.00  0.00     0.221 C 
BRANCH  13  14
ATOM     14  O   UNL A   1      32.215  18.736  24.986  1.00  0.00    -0.379 OA
ATOM     15  C   UNL A   1      32.471  17.366  25.259  1.00  0.00     0.195 C 
ENDBRANCH  13  14
ENDBRANCH  12  13
ENDBRANCH   9  12
ENDBRANCH   8   9
BRANCH   8  16
ATOM     16  C   UNL A   1      32.802  24.363  25.572  1.00  0.00     0.038 A 
ATOM     17  C   UNL A   1      33.944  25.166  25.484  1.00  0.00     0.017 A 
ATOM     18  C   UNL A   1      31.686  24.966  26.145  1.00  0.00     0.125 A 
ATOM     19  C   UNL A   1      33.938  26.470  25.980  1.00  0.00     0.069 A 
ATOM     20  N   UNL A   1      31.654  26.226  26.640  1.00  0.00    -0.222 NA
ATOM     21  C   UNL A   1      32.783  26.960  26.566  1.00  0.00     0.212 A 
BRANCH  21  22
ATOM     22  O   UNL A   1      32.652  28.194  27.135  1.00  0.00    -0.481 OA
ATOM     23  C   UNL A   1      31.679  29.061  26.569  1.00  0.00     0.280 C 
ENDBRANCH  21  22
ENDBRANCH   8  16
ENDBRANCH   5   8
ENDBRANCH   3   4
ENDBRANCH   2   3
ENDBRANCH   1   2
BRANCH   1  24
ATOM     24  C   UNL A   1      37.568  21.411  25.300  1.00  0.00     0.002 C 
BRANCH  24  25
ATOM     25  C   UNL A   1      39.068  21.115  25.332  1.00  0.00     0.021 C 
BRANCH  25  26
ATOM     26  C   UNL A   1      39.520  20.143  26.416  1.00  0.00     0.116 C 
BRANCH  26  27
ATOM     27  N   UNL A   1      40.814  19.547  26.131  1.00  0.00    -0.352 N 
ATOM     28  C   UNL A   1      42.050  20.143  26.076  1.00  0.00     0.251 C 
ATOM     29  H   UNL A   1      40.804  18.580  25.952  1.00  0.00     0.163 HD
ATOM     30  O   UNL A   1      43.013  19.502  25.659  1.00  0.00    -0.269 OA
BRANCH  28  31
ATOM     31  C   UNL A   1      42.214  21.555  26.486  1.00  0.00     0.039 A 
ATOM     32  C   UNL A   1      42.328  21.853  27.847  1.00  0.00     0.014 A 
ATOM     33  C   UNL A   1      42.253  22.585  25.542  1.00  0.00     0.014 A 
ATOM     34  C   UNL A   1      42.531  23.173  28.254  1.00  0.00     0.010 A 
ATOM     35  C   UNL A   1      42.537  23.889  25.944  1.00  0.00     0.010 A 
ATOM     36  C   UNL A   1      42.670  24.200  27.306  1.00  0.00    -0.014 A 
BRANCH  36  37
ATOM     37  C   UNL A   1      42.926  25.604  27.727  1.00  0.00     0.031 A 
ATOM     38  C   UNL A   1      44.321  26.165  27.672  1.00  0.00     0.074 A 
ATOM     39  C   UNL A   1      41.910  26.363  28.187  1.00  0.00     0.049 A 
ATOM     40  N   UNL A   1      44.758  27.342  28.045  1.00  0.00    -0.248 NA
ATOM     41  C   UNL A   1      45.371  25.275  27.154  1.00  0.00     0.031 C 
ATOM     42  C   UNL A   1      40.519  25.921  28.320  1.00  0.00     0.029 A 
ATOM     43  N   UNL A   1      41.887  27.661  28.632  1.00  0.00    -0.354 N 
ATOM     44  C   UNL A   1      46.128  27.334  27.803  1.00  0.00     0.074 A 
ATOM     45  C   UNL A   1      46.460  26.007  27.330  1.00  0.00     0.031 C 
ATOM     46  C   UNL A   1      39.777  26.939  28.786  1.00  0.00     0.029 A 
ATOM     47  C   UNL A   1      40.641  28.089  29.033  1.00  0.00     0.049 A 
ATOM     48  H   UNL A   1      42.687  28.234  28.662  1.00  0.00     0.167 HD
ATOM     49  C   UNL A   1      47.021  28.346  27.930  1.00  0.00     0.034 A 
ATOM     50  C   UNL A   1      40.243  29.268  29.553  1.00  0.00     0.034 A 
ATOM     51  C   UNL A   1      46.676  29.665  28.405  1.00  0.00     0.049 A 
ATOM     52  C   UNL A   1      41.266  30.365  29.731  1.00  0.00     0.074 A 
ATOM     53  C   UNL A   1      47.497  30.768  28.560  1.00  0.00     0.029 A 
ATOM     54  N   UNL A   1      45.404  30.059  28.804  1.00  0.00    -0.354 N 
ATOM     55  N   UNL A   1      42.552  30.349  29.464  1.00  0.00    -0.248 NA
ATOM     56  C   UNL A   1      40.778  31.644  30.263  1.00  0.00     0.031 C 
ATOM     57  C   UNL A   1      46.740  31.805  29.115  1.00  0.00     0.029 A 
ATOM     58  C   UNL A   1      45.426  31.381  29.223  1.00  0.00     0.049 A 
ATOM     59  H   UNL A   1      44.605  29.485  28.790  1.00  0.00     0.167 HD
ATOM     60  C   UNL A   1      43.015  31.631  29.756  1.00  0.00     0.074 A 
ATOM     61  C   UNL A   1      41.868  32.394  30.199  1.00  0.00     0.031 C 
ATOM     62  C   UNL A   1      44.273  32.133  29.663  1.00  0.00     0.034 A 
BRANCH  49  63
ATOM     63  C   UNL A   1      48.457  28.056  27.559  1.00  0.00     0.023 A 
ATOM     64  C   UNL A   1      48.939  28.286  26.258  1.00  0.00     0.031 A 
ATOM     65  C   UNL A   1      49.351  27.523  28.504  1.00  0.00     0.131 A 
ATOM     66  C   UNL A   1      50.249  27.915  25.918  1.00  0.00     0.055 A 
ATOM     67  C   UNL A   1      50.680  27.238  28.183  1.00  0.00     0.041 A 
ATOM     68  F   UNL A   1      48.945  27.259  29.757  1.00  0.00    -0.206 F 
ATOM     69  C   UNL A   1      51.131  27.419  26.879  1.00  0.00     0.022 A 
BRANCH  66  70
ATOM     70  S   UNL A   1      50.730  27.947  24.170  1.00  0.00     0.124 S 
ATOM     71  O   UNL A   1      49.436  27.808  23.506  1.00  0.00    -0.237 OA
ATOM     72  O   UNL A   1      51.377  29.248  24.044  1.00  0.00    -0.237 OA
ATOM     73  O   UNL A   1      51.617  26.793  24.037  1.00  0.00    -0.744 OA
ENDBRANCH  66  70
ENDBRANCH  49  63
BRANCH  50  74
ATOM     74  C   UNL A   1      38.823  29.481  29.963  1.00  0.00     0.023 A 
ATOM     75  C   UNL A   1      37.917  30.150  29.123  1.00  0.00     0.031 A 
ATOM     76  C   UNL A   1      38.369  29.085  31.234  1.00  0.00     0.131 A 
ATOM     77  C   UNL A   1      36.632  30.466  29.589  1.00  0.00     0.055 A 
ATOM     78  C   UNL A   1      37.066  29.340  31.666  1.00  0.00     0.041 A 
ATOM     79  F   UNL A   1      39.190  28.441  32.080  1.00  0.00    -0.206 F 
ATOM     80  C   UNL A   1      36.195  30.053  30.849  1.00  0.00     0.022 A 
BRANCH  77  81
ATOM     81  S   UNL A   1      35.581  31.542  28.573  1.00  0.00     0.124 S 
ATOM     82  O   UNL A   1      34.629  32.040  29.558  1.00  0.00    -0.237 OA
ATOM     83  O   UNL A   1      36.546  32.512  28.064  1.00  0.00    -0.237 OA
ATOM     84  O   UNL A   1      35.028  30.631  27.573  1.00  0.00    -0.744 OA
ENDBRANCH  77  81
ENDBRANCH  50  74
BRANCH  62  85
ATOM     85  C   UNL A   1      44.455  33.598  29.986  1.00  0.00     0.023 A 
ATOM     86  C   UNL A   1      44.682  34.050  31.297  1.00  0.00     0.031 A 
ATOM     87  C   UNL A   1      44.373  34.560  28.962  1.00  0.00     0.131 A 
ATOM     88  C   UNL A   1      44.747  35.428  31.561  1.00  0.00     0.055 A 
ATOM     89  C   UNL A   1      44.512  35.924  29.220  1.00  0.00     0.041 A 
ATOM     90  F   UNL A   1      44.155  34.188  27.690  1.00  0.00    -0.206 F 
ATOM     91  C   UNL A   1      44.683  36.366  30.527  1.00  0.00     0.022 A 
BRANCH  88  92
ATOM     92  S   UNL A   1      44.795  35.981  33.287  1.00  0.00     0.124 S 
ATOM     93  O   UNL A   1      43.565  36.758  33.392  1.00  0.00    -0.237 OA
ATOM     94  O   UNL A   1      44.815  34.718  34.019  1.00  0.00    -0.237 OA
ATOM     95  O   UNL A   1      46.030  36.760  33.363  1.00  0.00    -0.744 OA
ENDBRANCH  88  92
ENDBRANCH  62  85
ENDBRANCH  36  37
ENDBRANCH  28  31
ENDBRANCH  26  27
ENDBRANCH  25  26
ENDBRANCH  24  25
ENDBRANCH   1  24
TORSDOF 22
ENDMDL
