MODEL 1
REMARK VINA RESULT:     -11.1      0.000      0.000
REMARK SMILES CC(C)(C)OC(=O)[C@]1(C(=O)NCCCCCCNC(=O)c2ccc(-c3c4nc(c(-c5cc(S(=O)(=O)[O-])ccc5F)c5ccc([nH]5)c(-c5cc(S(=O)(=O)[O-])ccc5F)c5nc(c(-c6cc(S(=O)(=O)[O-])ccc6F)c6ccc3[nH]6)C=C5)C=C4)cc2)CC=CC[C@@H]1[NH3+]
REMARK SMILES IDX 14 1 13 2 12 3 11 4 9 5 10 6 8 8 84 9 88 10 85 11 87 12
REMARK SMILES IDX 86 13 6 14 7 15 5 16 2 17 1 18 3 19 4 20 89 21 15 25 16 26
REMARK SMILES IDX 17 27 18 28 19 29 20 31 21 32 22 33 83 34 23 35 82 36 24 37
REMARK SMILES IDX 25 38 26 39 76 40 27 41 81 42 75 43 77 44 28 45 80 46 74 47
REMARK SMILES IDX 73 48 29 50 61 51 41 52 60 53 42 54 45 55 59 56 78 57 43 58
REMARK SMILES IDX 44 59 58 61 79 62 46 63 30 64 31 65 39 66 32 67 38 68 40 69
REMARK SMILES IDX 37 70 33 71 34 72 35 73 36 74 62 75 63 76 71 77 64 78 70 79
REMARK SMILES IDX 72 80 69 81 65 82 66 83 67 84 68 85 47 86 48 87 56 88 49 89
REMARK SMILES IDX 55 90 57 91 54 92 50 93 51 94 52 95 53 96
REMARK H PARENT 11 7 89 22 89 23 89 24 18 30 77 49 45 60
REMARK Flexibility Score: inf
ROOT
ATOM      1  C   UNL A   1      31.484  29.661  25.211  1.00  0.00     0.002 C 
ENDROOT
BRANCH   1   2
ATOM      2  C   UNL A   1      31.218  28.155  25.126  1.00  0.00     0.021 C 
BRANCH   2   3
ATOM      3  C   UNL A   1      31.929  27.276  26.151  1.00  0.00     0.116 C 
BRANCH   3   4
ATOM      4  N   UNL A   1      31.175  26.107  26.547  1.00  0.00    -0.355 N 
ATOM      5  C   UNL A   1      31.476  24.783  26.465  1.00  0.00     0.244 C 
ATOM      6  O   UNL A   1      30.676  24.040  27.053  1.00  0.00    -0.274 OA
ATOM      7  H   UNL A   1      30.293  26.303  26.942  1.00  0.00     0.163 HD
BRANCH   5   8
ATOM      8  C   UNL A   1      32.621  24.186  25.617  1.00  0.00     0.201 C 
ATOM      9  C   UNL A   1      33.827  25.168  25.786  1.00  0.00     0.062 C 
ATOM     10  C   UNL A   1      32.993  22.811  26.258  1.00  0.00     0.212 C 
ATOM     11  C   UNL A   1      35.164  24.590  25.431  1.00  0.00    -0.029 C 
ATOM     12  C   UNL A   1      34.390  22.259  25.863  1.00  0.00     0.093 C 
ATOM     13  C   UNL A   1      35.412  23.278  25.472  1.00  0.00    -0.025 C 
BRANCH   8  14
ATOM     14  C   UNL A   1      32.345  24.180  24.119  1.00  0.00     0.328 C 
ATOM     15  O   UNL A   1      31.490  23.469  23.602  1.00  0.00    -0.251 OA
BRANCH  14  16
ATOM     16  O   UNL A   1      33.127  25.050  23.422  1.00  0.00    -0.459 OA
BRANCH  16  17
ATOM     17  C   UNL A   1      32.567  25.899  22.378  1.00  0.00     0.104 C 
ATOM     18  C   UNL A   1      33.399  27.190  22.427  1.00  0.00     0.056 C 
ATOM     19  C   UNL A   1      31.100  26.260  22.641  1.00  0.00     0.056 C 
ATOM     20  C   UNL A   1      32.754  25.253  21.002  1.00  0.00     0.056 C 
ENDBRANCH  16  17
ENDBRANCH  14  16
ENDBRANCH   8  14
BRANCH  10  21
ATOM     21  N   UNL A   1      31.981  21.746  26.071  1.00  0.00    -0.353 N 
ATOM     22  H   UNL A   1      31.168  21.944  26.656  1.00  0.00     0.344 HD
ATOM     23  H   UNL A   1      32.382  20.847  26.338  1.00  0.00     0.344 HD
ATOM     24  H   UNL A   1      31.697  21.716  25.092  1.00  0.00     0.344 HD
ENDBRANCH  10  21
ENDBRANCH   5   8
ENDBRANCH   3   4
ENDBRANCH   2   3
ENDBRANCH   1   2
BRANCH   1  25
ATOM     25  C   UNL A   1      31.815  30.227  26.594  1.00  0.00     0.002 C 
BRANCH  25  26
ATOM     26  C   UNL A   1      31.603  31.730  26.781  1.00  0.00     0.021 C 
BRANCH  26  27
ATOM     27  C   UNL A   1      32.855  32.548  27.075  1.00  0.00     0.116 C 
BRANCH  27  28
ATOM     28  N   UNL A   1      32.571  33.835  27.685  1.00  0.00    -0.352 N 
ATOM     29  C   UNL A   1      33.221  34.459  28.724  1.00  0.00     0.251 C 
ATOM     30  H   UNL A   1      31.810  34.329  27.302  1.00  0.00     0.163 HD
ATOM     31  O   UNL A   1      32.770  35.502  29.194  1.00  0.00    -0.269 OA
BRANCH  29  32
ATOM     32  C   UNL A   1      34.442  33.848  29.297  1.00  0.00     0.039 A 
ATOM     33  C   UNL A   1      35.691  34.376  28.958  1.00  0.00     0.014 A 
ATOM     34  C   UNL A   1      34.352  32.773  30.185  1.00  0.00     0.014 A 
ATOM     35  C   UNL A   1      36.846  33.875  29.568  1.00  0.00     0.010 A 
ATOM     36  C   UNL A   1      35.495  32.322  30.840  1.00  0.00     0.010 A 
ATOM     37  C   UNL A   1      36.754  32.869  30.541  1.00  0.00    -0.014 A 
BRANCH  37  38
ATOM     38  C   UNL A   1      37.951  32.343  31.251  1.00  0.00     0.031 A 
ATOM     39  C   UNL A   1      38.737  31.216  30.638  1.00  0.00     0.074 A 
ATOM     40  C   UNL A   1      38.274  32.805  32.476  1.00  0.00     0.049 A 
ATOM     41  N   UNL A   1      39.687  30.484  31.159  1.00  0.00    -0.248 NA
ATOM     42  C   UNL A   1      38.374  30.841  29.263  1.00  0.00     0.031 C 
ATOM     43  C   UNL A   1      37.583  33.885  33.182  1.00  0.00     0.029 A 
ATOM     44  N   UNL A   1      39.252  32.407  33.355  1.00  0.00    -0.354 N 
ATOM     45  C   UNL A   1      40.016  29.544  30.189  1.00  0.00     0.074 A 
ATOM     46  C   UNL A   1      39.126  29.770  29.070  1.00  0.00     0.031 C 
ATOM     47  C   UNL A   1      38.162  34.067  34.380  1.00  0.00     0.029 A 
ATOM     48  C   UNL A   1      39.227  33.083  34.554  1.00  0.00     0.049 A 
ATOM     49  H   UNL A   1      39.909  31.703  33.146  1.00  0.00     0.167 HD
ATOM     50  C   UNL A   1      40.983  28.593  30.222  1.00  0.00     0.034 A 
ATOM     51  C   UNL A   1      39.958  32.910  35.675  1.00  0.00     0.034 A 
ATOM     52  C   UNL A   1      41.875  28.398  31.339  1.00  0.00     0.049 A 
ATOM     53  C   UNL A   1      41.007  31.825  35.703  1.00  0.00     0.074 A 
ATOM     54  C   UNL A   1      42.918  27.496  31.462  1.00  0.00     0.029 A 
ATOM     55  N   UNL A   1      41.830  29.117  32.527  1.00  0.00    -0.354 N 
ATOM     56  N   UNL A   1      41.319  30.954  34.771  1.00  0.00    -0.248 NA
ATOM     57  C   UNL A   1      41.806  31.701  36.930  1.00  0.00     0.031 C 
ATOM     58  C   UNL A   1      43.460  27.624  32.745  1.00  0.00     0.029 A 
ATOM     59  C   UNL A   1      42.809  28.660  33.395  1.00  0.00     0.049 A 
ATOM     60  H   UNL A   1      41.196  29.843  32.723  1.00  0.00     0.167 HD
ATOM     61  C   UNL A   1      42.379  30.211  35.284  1.00  0.00     0.074 A 
ATOM     62  C   UNL A   1      42.650  30.731  36.608  1.00  0.00     0.031 C 
ATOM     63  C   UNL A   1      43.074  29.198  34.708  1.00  0.00     0.034 A 
BRANCH  50  64
ATOM     64  C   UNL A   1      41.097  27.676  29.029  1.00  0.00     0.023 A 
ATOM     65  C   UNL A   1      42.090  27.854  28.050  1.00  0.00     0.031 A 
ATOM     66  C   UNL A   1      40.178  26.626  28.848  1.00  0.00     0.131 A 
ATOM     67  C   UNL A   1      42.090  27.055  26.897  1.00  0.00     0.055 A 
ATOM     68  C   UNL A   1      40.239  25.776  27.741  1.00  0.00     0.041 A 
ATOM     69  F   UNL A   1      39.195  26.416  29.737  1.00  0.00    -0.206 F 
ATOM     70  C   UNL A   1      41.189  26.000  26.748  1.00  0.00     0.022 A 
BRANCH  67  71
ATOM     71  S   UNL A   1      43.187  27.516  25.528  1.00  0.00     0.124 S 
ATOM     72  O   UNL A   1      42.268  28.225  24.642  1.00  0.00    -0.237 OA
ATOM     73  O   UNL A   1      44.194  28.336  26.192  1.00  0.00    -0.237 OA
ATOM     74  O   UNL A   1      43.662  26.230  25.022  1.00  0.00    -0.744 OA
ENDBRANCH  67  71
ENDBRANCH  50  64
BRANCH  51  75
ATOM     75  C   UNL A   1      39.718  33.764  36.873  1.00  0.00     0.023 A 
ATOM     76  C   UNL A   1      39.086  33.246  38.014  1.00  0.00     0.031 A 
ATOM     77  C   UNL A   1      40.078  35.124  36.880  1.00  0.00     0.131 A 
ATOM     78  C   UNL A   1      38.789  34.091  39.096  1.00  0.00     0.055 A 
ATOM     79  C   UNL A   1      39.830  35.948  37.980  1.00  0.00     0.041 A 
ATOM     80  F   UNL A   1      40.688  35.671  35.816  1.00  0.00    -0.206 F 
ATOM     81  C   UNL A   1      39.169  35.435  39.092  1.00  0.00     0.022 A 
BRANCH  78  82
ATOM     82  S   UNL A   1      37.815  33.427  40.474  1.00  0.00     0.124 S 
ATOM     83  O   UNL A   1      37.454  34.643  41.195  1.00  0.00    -0.237 OA
ATOM     84  O   UNL A   1      36.729  32.747  39.777  1.00  0.00    -0.237 OA
ATOM     85  O   UNL A   1      38.759  32.549  41.164  1.00  0.00    -0.744 OA
ENDBRANCH  78  82
ENDBRANCH  51  75
BRANCH  63  86
ATOM     86  C   UNL A   1      44.247  28.636  35.473  1.00  0.00     0.023 A 
ATOM     87  C   UNL A   1      44.098  27.619  36.429  1.00  0.00     0.031 A 
ATOM     88  C   UNL A   1      45.543  29.114  35.206  1.00  0.00     0.131 A 
ATOM     89  C   UNL A   1      45.225  27.133  37.110  1.00  0.00     0.055 A 
ATOM     90  C   UNL A   1      46.666  28.593  35.850  1.00  0.00     0.041 A 
ATOM     91  F   UNL A   1      45.740  30.087  34.301  1.00  0.00    -0.206 F 
ATOM     92  C   UNL A   1      46.508  27.601  36.813  1.00  0.00     0.022 A 
BRANCH  89  93
ATOM     93  S   UNL A   1      44.991  25.911  38.429  1.00  0.00     0.124 S 
ATOM     94  O   UNL A   1      44.028  26.580  39.298  1.00  0.00    -0.237 OA
ATOM     95  O   UNL A   1      44.491  24.751  37.698  1.00  0.00    -0.237 OA
ATOM     96  O   UNL A   1      46.331  25.752  38.994  1.00  0.00    -0.744 OA
ENDBRANCH  89  93
ENDBRANCH  63  86
ENDBRANCH  37  38
ENDBRANCH  29  32
ENDBRANCH  27  28
ENDBRANCH  26  27
ENDBRANCH  25  26
ENDBRANCH   1  25
TORSDOF 20
ENDMDL
MODEL 2
REMARK VINA RESULT:     -11.0      4.808      7.954
REMARK SMILES CC(C)(C)OC(=O)[C@]1(C(=O)NCCCCCCNC(=O)c2ccc(-c3c4nc(c(-c5cc(S(=O)(=O)[O-])ccc5F)c5ccc([nH]5)c(-c5cc(S(=O)(=O)[O-])ccc5F)c5nc(c(-c6cc(S(=O)(=O)[O-])ccc6F)c6ccc3[nH]6)C=C5)C=C4)cc2)CC=CC[C@@H]1[NH3+]
REMARK SMILES IDX 14 1 13 2 12 3 11 4 9 5 10 6 8 8 84 9 88 10 85 11 87 12
REMARK SMILES IDX 86 13 6 14 7 15 5 16 2 17 1 18 3 19 4 20 89 21 15 25 16 26
REMARK SMILES IDX 17 27 18 28 19 29 20 31 21 32 22 33 83 34 23 35 82 36 24 37
REMARK SMILES IDX 25 38 26 39 76 40 27 41 81 42 75 43 77 44 28 45 80 46 74 47
REMARK SMILES IDX 73 48 29 50 61 51 41 52 60 53 42 54 45 55 59 56 78 57 43 58
REMARK SMILES IDX 44 59 58 61 79 62 46 63 30 64 31 65 39 66 32 67 38 68 40 69
REMARK SMILES IDX 37 70 33 71 34 72 35 73 36 74 62 75 63 76 71 77 64 78 70 79
REMARK SMILES IDX 72 80 69 81 65 82 66 83 67 84 68 85 47 86 48 87 56 88 49 89
REMARK SMILES IDX 55 90 57 91 54 92 50 93 51 94 52 95 53 96
REMARK H PARENT 11 7 89 22 89 23 89 24 18 30 77 49 45 60
REMARK Flexibility Score: inf
ROOT
ATOM      1  C   UNL A   1      34.258  24.205  25.260  1.00  0.00     0.002 C 
ENDROOT
BRANCH   1   2
ATOM      2  C   UNL A   1      33.138  23.523  26.053  1.00  0.00     0.021 C 
BRANCH   2   3
ATOM      3  C   UNL A   1      31.742  24.125  25.922  1.00  0.00     0.116 C 
BRANCH   3   4
ATOM      4  N   UNL A   1      31.555  25.346  26.677  1.00  0.00    -0.355 N 
ATOM      5  C   UNL A   1      31.334  26.623  26.263  1.00  0.00     0.244 C 
ATOM      6  O   UNL A   1      31.048  27.412  27.176  1.00  0.00    -0.274 OA
ATOM      7  H   UNL A   1      31.596  25.233  27.655  1.00  0.00     0.163 HD
BRANCH   5   8
ATOM      8  C   UNL A   1      31.538  27.135  24.820  1.00  0.00     0.201 C 
ATOM      9  C   UNL A   1      33.087  27.195  24.609  1.00  0.00     0.062 C 
ATOM     10  C   UNL A   1      30.938  26.054  23.865  1.00  0.00     0.212 C 
ATOM     11  C   UNL A   1      33.526  27.233  23.176  1.00  0.00    -0.029 C 
ATOM     12  C   UNL A   1      31.429  26.132  22.393  1.00  0.00     0.093 C 
ATOM     13  C   UNL A   1      32.775  26.748  22.183  1.00  0.00    -0.025 C 
BRANCH   8  14
ATOM     14  C   UNL A   1      31.070  28.566  24.598  1.00  0.00     0.328 C 
ATOM     15  O   UNL A   1      31.801  29.539  24.756  1.00  0.00    -0.251 OA
BRANCH  14  16
ATOM     16  O   UNL A   1      29.772  28.655  24.192  1.00  0.00    -0.459 OA
BRANCH  16  17
ATOM     17  C   UNL A   1      29.366  29.602  23.163  1.00  0.00     0.104 C 
ATOM     18  C   UNL A   1      27.993  29.102  22.684  1.00  0.00     0.056 C 
ATOM     19  C   UNL A   1      30.321  29.610  21.964  1.00  0.00     0.056 C 
ATOM     20  C   UNL A   1      29.191  31.002  23.759  1.00  0.00     0.056 C 
ENDBRANCH  16  17
ENDBRANCH  14  16
ENDBRANCH   8  14
BRANCH  10  21
ATOM     21  N   UNL A   1      29.460  25.967  23.878  1.00  0.00    -0.353 N 
ATOM     22  H   UNL A   1      29.088  26.622  24.567  1.00  0.00     0.344 HD
ATOM     23  H   UNL A   1      29.178  25.018  24.124  1.00  0.00     0.344 HD
ATOM     24  H   UNL A   1      29.098  26.202  22.954  1.00  0.00     0.344 HD
ENDBRANCH  10  21
ENDBRANCH   5   8
ENDBRANCH   3   4
ENDBRANCH   2   3
ENDBRANCH   1   2
BRANCH   1  25
ATOM     25  C   UNL A   1      34.932  23.375  24.165  1.00  0.00     0.002 C 
BRANCH  25  26
ATOM     26  C   UNL A   1      36.412  23.055  24.372  1.00  0.00     0.021 C 
BRANCH  26  27
ATOM     27  C   UNL A   1      36.901  23.067  25.816  1.00  0.00     0.116 C 
BRANCH  27  28
ATOM     28  N   UNL A   1      38.068  22.229  26.036  1.00  0.00    -0.352 N 
ATOM     29  C   UNL A   1      39.319  22.591  26.477  1.00  0.00     0.251 C 
ATOM     30  H   UNL A   1      37.946  21.271  25.842  1.00  0.00     0.163 HD
ATOM     31  O   UNL A   1      40.229  21.765  26.493  1.00  0.00    -0.269 OA
BRANCH  29  32
ATOM     32  C   UNL A   1      39.572  23.989  26.896  1.00  0.00     0.039 A 
ATOM     33  C   UNL A   1      39.311  24.361  28.217  1.00  0.00     0.014 A 
ATOM     34  C   UNL A   1      40.088  24.922  25.992  1.00  0.00     0.014 A 
ATOM     35  C   UNL A   1      39.639  25.649  28.653  1.00  0.00     0.010 A 
ATOM     36  C   UNL A   1      40.474  26.180  26.445  1.00  0.00     0.010 A 
ATOM     37  C   UNL A   1      40.257  26.558  27.780  1.00  0.00    -0.014 A 
BRANCH  37  38
ATOM     38  C   UNL A   1      40.667  27.920  28.217  1.00  0.00     0.031 A 
ATOM     39  C   UNL A   1      42.130  28.237  28.366  1.00  0.00     0.074 A 
ATOM     40  C   UNL A   1      39.738  28.832  28.568  1.00  0.00     0.049 A 
ATOM     41  N   UNL A   1      42.704  29.280  28.907  1.00  0.00    -0.248 NA
ATOM     42  C   UNL A   1      43.071  27.221  27.873  1.00  0.00     0.031 C 
ATOM     43  C   UNL A   1      38.290  28.640  28.479  1.00  0.00     0.029 A 
ATOM     44  N   UNL A   1      39.874  30.094  29.092  1.00  0.00    -0.354 N 
ATOM     45  C   UNL A   1      44.072  29.035  28.845  1.00  0.00     0.074 A 
ATOM     46  C   UNL A   1      44.234  27.720  28.261  1.00  0.00     0.031 C 
ATOM     47  C   UNL A   1      37.672  29.746  28.928  1.00  0.00     0.029 A 
ATOM     48  C   UNL A   1      38.675  30.702  29.387  1.00  0.00     0.049 A 
ATOM     49  H   UNL A   1      40.748  30.523  29.243  1.00  0.00     0.167 HD
ATOM     50  C   UNL A   1      45.097  29.839  29.224  1.00  0.00     0.034 A 
ATOM     51  C   UNL A   1      38.414  31.883  29.987  1.00  0.00     0.034 A 
ATOM     52  C   UNL A   1      44.914  31.155  29.785  1.00  0.00     0.049 A 
ATOM     53  C   UNL A   1      39.568  32.749  30.430  1.00  0.00     0.074 A 
ATOM     54  C   UNL A   1      45.880  32.073  30.163  1.00  0.00     0.029 A 
ATOM     55  N   UNL A   1      43.684  31.744  30.050  1.00  0.00    -0.354 N 
ATOM     56  N   UNL A   1      40.857  32.511  30.350  1.00  0.00    -0.248 NA
ATOM     57  C   UNL A   1      39.235  34.043  31.041  1.00  0.00     0.031 C 
ATOM     58  C   UNL A   1      45.237  33.185  30.714  1.00  0.00     0.029 A 
ATOM     59  C   UNL A   1      43.868  32.999  30.608  1.00  0.00     0.049 A 
ATOM     60  H   UNL A   1      42.810  31.330  29.868  1.00  0.00     0.167 HD
ATOM     61  C   UNL A   1      41.485  33.645  30.858  1.00  0.00     0.074 A 
ATOM     62  C   UNL A   1      40.436  34.564  31.247  1.00  0.00     0.031 C 
ATOM     63  C   UNL A   1      42.811  33.908  30.980  1.00  0.00     0.034 A 
BRANCH  50  64
ATOM     64  C   UNL A   1      46.497  29.297  29.074  1.00  0.00     0.023 A 
ATOM     65  C   UNL A   1      47.141  29.249  27.825  1.00  0.00     0.031 A 
ATOM     66  C   UNL A   1      47.188  28.789  30.189  1.00  0.00     0.131 A 
ATOM     67  C   UNL A   1      48.395  28.631  27.706  1.00  0.00     0.055 A 
ATOM     68  C   UNL A   1      48.474  28.256  30.079  1.00  0.00     0.041 A 
ATOM     69  F   UNL A   1      46.619  28.788  31.404  1.00  0.00    -0.206 F 
ATOM     70  C   UNL A   1      49.078  28.159  28.828  1.00  0.00     0.022 A 
BRANCH  67  71
ATOM     71  S   UNL A   1      49.048  28.316  26.044  1.00  0.00     0.124 S 
ATOM     72  O   UNL A   1      49.369  26.893  26.119  1.00  0.00    -0.237 OA
ATOM     73  O   UNL A   1      47.921  28.673  25.189  1.00  0.00    -0.237 OA
ATOM     74  O   UNL A   1      50.206  29.204  25.957  1.00  0.00    -0.744 OA
ENDBRANCH  67  71
ENDBRANCH  50  64
BRANCH  51  75
ATOM     75  C   UNL A   1      37.006  32.315  30.225  1.00  0.00     0.023 A 
ATOM     76  C   UNL A   1      36.289  33.014  29.242  1.00  0.00     0.031 A 
ATOM     77  C   UNL A   1      36.371  32.072  31.456  1.00  0.00     0.131 A 
ATOM     78  C   UNL A   1      34.998  33.490  29.521  1.00  0.00     0.055 A 
ATOM     79  C   UNL A   1      35.065  32.499  31.710  1.00  0.00     0.041 A 
ATOM     80  F   UNL A   1      37.009  31.404  32.431  1.00  0.00    -0.206 F 
ATOM     81  C   UNL A   1      34.376  33.224  30.744  1.00  0.00     0.022 A 
BRANCH  78  82
ATOM     82  S   UNL A   1      34.175  34.540  28.293  1.00  0.00     0.124 S 
ATOM     83  O   UNL A   1      34.242  35.850  28.931  1.00  0.00    -0.237 OA
ATOM     84  O   UNL A   1      35.021  34.353  27.119  1.00  0.00    -0.237 OA
ATOM     85  O   UNL A   1      32.836  33.961  28.194  1.00  0.00    -0.744 OA
ENDBRANCH  78  82
ENDBRANCH  51  75
BRANCH  63  86
ATOM     86  C   UNL A   1      43.205  35.273  31.485  1.00  0.00     0.023 A 
ATOM     87  C   UNL A   1      43.289  35.569  32.855  1.00  0.00     0.031 A 
ATOM     88  C   UNL A   1      43.535  36.285  30.564  1.00  0.00     0.131 A 
ATOM     89  C   UNL A   1      43.662  36.858  33.267  1.00  0.00     0.055 A 
ATOM     90  C   UNL A   1      43.954  37.550  30.980  1.00  0.00     0.041 A 
ATOM     91  F   UNL A   1      43.471  36.054  29.243  1.00  0.00    -0.206 F 
ATOM     92  C   UNL A   1      44.012  37.843  32.339  1.00  0.00     0.022 A 
BRANCH  89  93
ATOM     93  S   UNL A   1      43.639  37.251  35.038  1.00  0.00     0.124 S 
ATOM     94  O   UNL A   1      44.438  36.168  35.601  1.00  0.00    -0.237 OA
ATOM     95  O   UNL A   1      44.248  38.577  35.072  1.00  0.00    -0.237 OA
ATOM     96  O   UNL A   1      42.217  37.216  35.380  1.00  0.00    -0.744 OA
ENDBRANCH  89  93
ENDBRANCH  63  86
ENDBRANCH  37  38
ENDBRANCH  29  32
ENDBRANCH  27  28
ENDBRANCH  26  27
ENDBRANCH  25  26
ENDBRANCH   1  25
TORSDOF 20
ENDMDL
MODEL 3
REMARK VINA RESULT:     -11.0      1.818      2.717
REMARK SMILES CC(C)(C)OC(=O)[C@]1(C(=O)NCCCCCCNC(=O)c2ccc(-c3c4nc(c(-c5cc(S(=O)(=O)[O-])ccc5F)c5ccc([nH]5)c(-c5cc(S(=O)(=O)[O-])ccc5F)c5nc(c(-c6cc(S(=O)(=O)[O-])ccc6F)c6ccc3[nH]6)C=C5)C=C4)cc2)CC=CC[C@@H]1[NH3+]
REMARK SMILES IDX 14 1 13 2 12 3 11 4 9 5 10 6 8 8 84 9 88 10 85 11 87 12
REMARK SMILES IDX 86 13 6 14 7 15 5 16 2 17 1 18 3 19 4 20 89 21 15 25 16 26
REMARK SMILES IDX 17 27 18 28 19 29 20 31 21 32 22 33 83 34 23 35 82 36 24 37
REMARK SMILES IDX 25 38 26 39 76 40 27 41 81 42 75 43 77 44 28 45 80 46 74 47
REMARK SMILES IDX 73 48 29 50 61 51 41 52 60 53 42 54 45 55 59 56 78 57 43 58
REMARK SMILES IDX 44 59 58 61 79 62 46 63 30 64 31 65 39 66 32 67 38 68 40 69
REMARK SMILES IDX 37 70 33 71 34 72 35 73 36 74 62 75 63 76 71 77 64 78 70 79
REMARK SMILES IDX 72 80 69 81 65 82 66 83 67 84 68 85 47 86 48 87 56 88 49 89
REMARK SMILES IDX 55 90 57 91 54 92 50 93 51 94 52 95 53 96
REMARK H PARENT 11 7 89 22 89 23 89 24 18 30 77 49 45 60
REMARK Flexibility Score: inf
ROOT
ATOM      1  C   UNL A   1      32.205  29.265  24.138  1.00  0.00     0.002 C 
ENDROOT
BRANCH   1   2
ATOM      2  C   UNL A   1      31.327  28.807  22.969  1.00  0.00     0.021 C 
BRANCH   2   3
ATOM      3  C   UNL A   1      31.138  27.301  22.805  1.00  0.00     0.116 C 
BRANCH   3   4
ATOM      4  N   UNL A   1      32.235  26.642  22.130  1.00  0.00    -0.355 N 
ATOM      5  C   UNL A   1      32.881  25.478  22.410  1.00  0.00     0.244 C 
ATOM      6  O   UNL A   1      33.673  25.109  21.529  1.00  0.00    -0.274 OA
ATOM      7  H   UNL A   1      32.572  27.117  21.336  1.00  0.00     0.163 HD
BRANCH   5   8
ATOM      8  C   UNL A   1      32.782  24.707  23.746  1.00  0.00     0.201 C 
ATOM      9  C   UNL A   1      32.613  25.801  24.851  1.00  0.00     0.062 C 
ATOM     10  C   UNL A   1      31.479  23.849  23.679  1.00  0.00     0.212 C 
ATOM     11  C   UNL A   1      32.060  25.301  26.152  1.00  0.00    -0.029 C 
ATOM     12  C   UNL A   1      30.943  23.360  25.053  1.00  0.00     0.093 C 
ATOM     13  C   UNL A   1      31.304  24.203  26.235  1.00  0.00    -0.025 C 
BRANCH   8  14
ATOM     14  C   UNL A   1      34.057  23.971  24.133  1.00  0.00     0.328 C 
ATOM     15  O   UNL A   1      35.070  24.549  24.516  1.00  0.00    -0.251 OA
BRANCH  14  16
ATOM     16  O   UNL A   1      33.953  22.617  24.028  1.00  0.00    -0.459 OA
BRANCH  16  17
ATOM     17  C   UNL A   1      34.419  21.739  25.094  1.00  0.00     0.104 C 
ATOM     18  C   UNL A   1      33.453  20.544  25.073  1.00  0.00     0.056 C 
ATOM     19  C   UNL A   1      34.338  22.400  26.475  1.00  0.00     0.056 C 
ATOM     20  C   UNL A   1      35.831  21.228  24.791  1.00  0.00     0.056 C 
ENDBRANCH  16  17
ENDBRANCH  14  16
ENDBRANCH   8  14
BRANCH  10  21
ATOM     21  N   UNL A   1      31.542  22.699  22.748  1.00  0.00    -0.353 N 
ATOM     22  H   UNL A   1      31.808  21.859  23.262  1.00  0.00     0.344 HD
ATOM     23  H   UNL A   1      32.234  22.888  22.022  1.00  0.00     0.344 HD
ATOM     24  H   UNL A   1      30.627  22.560  22.318  1.00  0.00     0.344 HD
ENDBRANCH  10  21
ENDBRANCH   5   8
ENDBRANCH   3   4
ENDBRANCH   2   3
ENDBRANCH   1   2
BRANCH   1  25
ATOM     25  C   UNL A   1      31.502  29.512  25.475  1.00  0.00     0.002 C 
BRANCH  25  26
ATOM     26  C   UNL A   1      31.372  30.971  25.914  1.00  0.00     0.021 C 
BRANCH  26  27
ATOM     27  C   UNL A   1      32.435  31.471  26.886  1.00  0.00     0.116 C 
BRANCH  27  28
ATOM     28  N   UNL A   1      32.299  32.881  27.211  1.00  0.00    -0.352 N 
ATOM     29  C   UNL A   1      33.111  33.667  27.995  1.00  0.00     0.251 C 
ATOM     30  H   UNL A   1      31.520  33.335  26.815  1.00  0.00     0.163 HD
ATOM     31  O   UNL A   1      32.779  34.820  28.261  1.00  0.00    -0.269 OA
BRANCH  29  32
ATOM     32  C   UNL A   1      34.364  33.104  28.547  1.00  0.00     0.039 A 
ATOM     33  C   UNL A   1      35.545  33.845  28.447  1.00  0.00     0.014 A 
ATOM     34  C   UNL A   1      34.367  31.859  29.183  1.00  0.00     0.014 A 
ATOM     35  C   UNL A   1      36.714  33.372  29.052  1.00  0.00     0.010 A 
ATOM     36  C   UNL A   1      35.515  31.424  29.840  1.00  0.00     0.010 A 
ATOM     37  C   UNL A   1      36.700  32.176  29.784  1.00  0.00    -0.014 A 
BRANCH  37  38
ATOM     38  C   UNL A   1      37.909  31.663  30.485  1.00  0.00     0.031 A 
ATOM     39  C   UNL A   1      38.763  30.621  29.816  1.00  0.00     0.074 A 
ATOM     40  C   UNL A   1      38.183  32.055  31.746  1.00  0.00     0.049 A 
ATOM     41  N   UNL A   1      39.739  29.903  30.309  1.00  0.00    -0.248 NA
ATOM     42  C   UNL A   1      38.447  30.322  28.412  1.00  0.00     0.031 C 
ATOM     43  C   UNL A   1      37.424  33.049  32.506  1.00  0.00     0.029 A 
ATOM     44  N   UNL A   1      39.162  31.648  32.618  1.00  0.00    -0.354 N 
ATOM     45  C   UNL A   1      40.135  29.049  29.286  1.00  0.00     0.074 A 
ATOM     46  C   UNL A   1      39.257  29.306  28.164  1.00  0.00     0.031 C 
ATOM     47  C   UNL A   1      37.968  33.177  33.727  1.00  0.00     0.029 A 
ATOM     48  C   UNL A   1      39.078  32.238  33.859  1.00  0.00     0.049 A 
ATOM     49  H   UNL A   1      39.858  30.993  32.379  1.00  0.00     0.167 HD
ATOM     50  C   UNL A   1      41.148  28.146  29.278  1.00  0.00     0.034 A 
ATOM     51  C   UNL A   1      39.795  32.025  34.983  1.00  0.00     0.034 A 
ATOM     52  C   UNL A   1      42.026  27.921  30.400  1.00  0.00     0.049 A 
ATOM     53  C   UNL A   1      40.898  30.995  34.963  1.00  0.00     0.074 A 
ATOM     54  C   UNL A   1      43.111  27.065  30.487  1.00  0.00     0.029 A 
ATOM     55  N   UNL A   1      41.921  28.553  31.632  1.00  0.00    -0.354 N 
ATOM     56  N   UNL A   1      41.272  30.206  33.982  1.00  0.00    -0.248 NA
ATOM     57  C   UNL A   1      41.677  30.827  36.197  1.00  0.00     0.031 C 
ATOM     58  C   UNL A   1      43.620  27.132  31.787  1.00  0.00     0.029 A 
ATOM     59  C   UNL A   1      42.905  28.088  32.490  1.00  0.00     0.049 A 
ATOM     60  H   UNL A   1      41.247  29.232  31.862  1.00  0.00     0.167 HD
ATOM     61  C   UNL A   1      42.358  29.483  34.469  1.00  0.00     0.074 A 
ATOM     62  C   UNL A   1      42.576  29.924  35.831  1.00  0.00     0.031 C 
ATOM     63  C   UNL A   1      43.116  28.547  33.842  1.00  0.00     0.034 A 
BRANCH  50  64
ATOM     64  C   UNL A   1      41.332  27.320  28.029  1.00  0.00     0.023 A 
ATOM     65  C   UNL A   1      40.948  25.968  27.973  1.00  0.00     0.031 A 
ATOM     66  C   UNL A   1      41.930  27.880  26.886  1.00  0.00     0.131 A 
ATOM     67  C   UNL A   1      41.243  25.202  26.836  1.00  0.00     0.055 A 
ATOM     68  C   UNL A   1      42.140  27.134  25.723  1.00  0.00     0.041 A 
ATOM     69  F   UNL A   1      42.336  29.159  26.883  1.00  0.00    -0.206 F 
ATOM     70  C   UNL A   1      41.811  25.782  25.700  1.00  0.00     0.022 A 
BRANCH  67  71
ATOM     71  S   UNL A   1      41.014  23.405  26.922  1.00  0.00     0.124 S 
ATOM     72  O   UNL A   1      41.850  22.949  25.815  1.00  0.00    -0.237 OA
ATOM     73  O   UNL A   1      41.499  23.089  28.261  1.00  0.00    -0.237 OA
ATOM     74  O   UNL A   1      39.576  23.233  26.720  1.00  0.00    -0.744 OA
ENDBRANCH  67  71
ENDBRANCH  50  64
BRANCH  51  75
ATOM     75  C   UNL A   1      39.488  32.783  36.230  1.00  0.00     0.023 A 
ATOM     76  C   UNL A   1      38.615  32.259  37.196  1.00  0.00     0.031 A 
ATOM     77  C   UNL A   1      40.028  34.062  36.454  1.00  0.00     0.131 A 
ATOM     78  C   UNL A   1      38.269  33.028  38.319  1.00  0.00     0.055 A 
ATOM     79  C   UNL A   1      39.724  34.801  37.600  1.00  0.00     0.041 A 
ATOM     80  F   UNL A   1      40.871  34.611  35.565  1.00  0.00    -0.206 F 
ATOM     81  C   UNL A   1      38.829  34.290  38.534  1.00  0.00     0.022 A 
BRANCH  78  82
ATOM     82  S   UNL A   1      37.005  32.391  39.451  1.00  0.00     0.124 S 
ATOM     83  O   UNL A   1      37.356  30.976  39.522  1.00  0.00    -0.237 OA
ATOM     84  O   UNL A   1      37.253  33.175  40.656  1.00  0.00    -0.237 OA
ATOM     85  O   UNL A   1      35.750  32.689  38.762  1.00  0.00    -0.744 OA
ENDBRANCH  78  82
ENDBRANCH  51  75
BRANCH  63  86
ATOM     86  C   UNL A   1      44.299  27.993  34.595  1.00  0.00     0.023 A 
ATOM     87  C   UNL A   1      44.210  26.833  35.381  1.00  0.00     0.031 A 
ATOM     88  C   UNL A   1      45.550  28.630  34.489  1.00  0.00     0.131 A 
ATOM     89  C   UNL A   1      45.345  26.363  36.059  1.00  0.00     0.055 A 
ATOM     90  C   UNL A   1      46.686  28.130  35.124  1.00  0.00     0.041 A 
ATOM     91  F   UNL A   1      45.688  29.743  33.750  1.00  0.00    -0.206 F 
ATOM     92  C   UNL A   1      46.585  26.993  35.920  1.00  0.00     0.022 A 
BRANCH  89  93
ATOM     93  S   UNL A   1      45.175  24.938  37.168  1.00  0.00     0.124 S 
ATOM     94  O   UNL A   1      46.550  24.728  37.608  1.00  0.00    -0.237 OA
ATOM     95  O   UNL A   1      44.251  25.438  38.181  1.00  0.00    -0.237 OA
ATOM     96  O   UNL A   1      44.633  23.890  36.303  1.00  0.00    -0.744 OA
ENDBRANCH  89  93
ENDBRANCH  63  86
ENDBRANCH  37  38
ENDBRANCH  29  32
ENDBRANCH  27  28
ENDBRANCH  26  27
ENDBRANCH  25  26
ENDBRANCH   1  25
TORSDOF 20
ENDMDL
