MODEL 1
REMARK VINA RESULT:     -12.1      0.000      0.000
REMARK SMILES O=C(NCCCCCCNC(=O)c1cccc(Nc2ccnc3ccc(F)cc23)c1)c1ccc(-c2c3nc(c(-c4cc(S(=O)(=O)[O-])ccc4F)c4ccc([nH]4)c(-c4cc(S(=O)(=O)[O-])ccc4F)c4nc(c(-c5cc(S(=O)(=O)[O-])ccc5F)c5ccc2[nH]5)C=C4)C=C3)cc1
REMARK SMILES IDX 6 1 5 2 4 3 3 4 1 5 2 6 31 8 32 9 93 10 33 11 92 12 34 13
REMARK SMILES IDX 35 14 36 15 86 16 37 17 91 18 85 19 87 20 38 21 90 22 84 23
REMARK SMILES IDX 83 24 39 26 71 27 51 28 70 29 52 30 55 31 69 32 88 33 53 34
REMARK SMILES IDX 54 35 68 37 89 38 56 39 40 40 41 41 49 42 42 43 48 44 50 45
REMARK SMILES IDX 47 46 43 47 44 48 45 49 46 50 72 51 73 52 81 53 74 54 80 55
REMARK SMILES IDX 82 56 79 57 75 58 76 59 77 60 78 61 57 62 58 63 66 64 59 65
REMARK SMILES IDX 65 66 67 67 64 68 60 69 61 70 62 71 63 72 7 73 8 74 9 75
REMARK SMILES IDX 10 76 11 77 12 79 13 80 14 81 30 82 15 83 17 84 16 85 18 86
REMARK SMILES IDX 19 88 20 89 29 90 21 91 23 92 28 93 22 94 24 95 26 96 25 97
REMARK SMILES IDX 27 98
REMARK H PARENT 3 7 87 25 55 36 10 78 18 87
REMARK Flexibility Score: inf
ROOT
ATOM      1  C   UNL A   1      31.434  30.804  26.398  1.00  0.00     0.002 C 
ENDROOT
BRANCH   1   2
ATOM      2  C   UNL A   1      31.351  32.311  26.644  1.00  0.00     0.021 C 
BRANCH   2   3
ATOM      3  C   UNL A   1      32.665  32.999  26.993  1.00  0.00     0.116 C 
BRANCH   3   4
ATOM      4  N   UNL A   1      32.482  34.293  27.634  1.00  0.00    -0.352 N 
ATOM      5  O   UNL A   1      32.736  35.897  29.199  1.00  0.00    -0.269 OA
ATOM      6  C   UNL A   1      33.125  34.831  28.728  1.00  0.00     0.251 C 
ATOM      7  H   UNL A   1      31.798  34.871  27.225  1.00  0.00     0.163 HD
BRANCH   6   8
ATOM      8  C   UNL A   1      34.265  34.120  29.352  1.00  0.00     0.039 A 
ATOM      9  C   UNL A   1      34.054  33.063  30.239  1.00  0.00     0.014 A 
ATOM     10  C   UNL A   1      35.571  34.510  29.036  1.00  0.00     0.014 A 
ATOM     11  C   UNL A   1      35.131  32.504  30.921  1.00  0.00     0.010 A 
ATOM     12  C   UNL A   1      36.659  33.886  29.660  1.00  0.00     0.010 A 
ATOM     13  C   UNL A   1      36.447  32.901  30.636  1.00  0.00    -0.014 A 
BRANCH  13  14
ATOM     14  C   UNL A   1      37.576  32.240  31.346  1.00  0.00     0.031 A 
ATOM     15  C   UNL A   1      38.345  31.113  30.708  1.00  0.00     0.074 A 
ATOM     16  C   UNL A   1      37.935  32.697  32.563  1.00  0.00     0.049 A 
ATOM     17  N   UNL A   1      39.379  30.454  31.170  1.00  0.00    -0.248 NA
ATOM     18  C   UNL A   1      37.889  30.661  29.388  1.00  0.00     0.031 C 
ATOM     19  C   UNL A   1      37.261  33.780  33.283  1.00  0.00     0.029 A 
ATOM     20  N   UNL A   1      38.960  32.332  33.397  1.00  0.00    -0.354 N 
ATOM     21  C   UNL A   1      39.691  29.502  30.204  1.00  0.00     0.074 A 
ATOM     22  C   UNL A   1      38.708  29.646  29.150  1.00  0.00     0.031 C 
ATOM     23  C   UNL A   1      37.922  34.027  34.423  1.00  0.00     0.029 A 
ATOM     24  C   UNL A   1      39.023  33.080  34.551  1.00  0.00     0.049 A 
ATOM     25  H   UNL A   1      39.590  31.604  33.191  1.00  0.00     0.167 HD
ATOM     26  C   UNL A   1      40.707  28.601  30.195  1.00  0.00     0.034 A 
ATOM     27  C   UNL A   1      39.861  33.005  35.601  1.00  0.00     0.034 A 
ATOM     28  C   UNL A   1      41.678  28.470  31.257  1.00  0.00     0.049 A 
ATOM     29  C   UNL A   1      40.950  31.966  35.587  1.00  0.00     0.074 A 
ATOM     30  C   UNL A   1      42.763  27.613  31.335  1.00  0.00     0.029 A 
ATOM     31  N   UNL A   1      41.677  29.208  32.435  1.00  0.00    -0.354 N 
ATOM     32  N   UNL A   1      41.243  31.089  34.655  1.00  0.00    -0.248 NA
ATOM     33  C   UNL A   1      41.824  31.913  36.765  1.00  0.00     0.031 C 
ATOM     34  C   UNL A   1      43.374  27.784  32.583  1.00  0.00     0.029 A 
ATOM     35  C   UNL A   1      42.720  28.803  33.257  1.00  0.00     0.049 A 
ATOM     36  H   UNL A   1      41.031  29.917  32.656  1.00  0.00     0.167 HD
ATOM     37  C   UNL A   1      42.350  30.391  35.129  1.00  0.00     0.074 A 
ATOM     38  C   UNL A   1      42.683  30.967  36.415  1.00  0.00     0.031 C 
ATOM     39  C   UNL A   1      43.030  29.369  34.550  1.00  0.00     0.034 A 
BRANCH  26  40
ATOM     40  C   UNL A   1      40.788  27.656  29.016  1.00  0.00     0.023 A 
ATOM     41  C   UNL A   1      41.733  27.828  27.989  1.00  0.00     0.031 A 
ATOM     42  C   UNL A   1      39.888  26.579  28.906  1.00  0.00     0.131 A 
ATOM     43  C   UNL A   1      41.709  26.988  26.865  1.00  0.00     0.055 A 
ATOM     44  C   UNL A   1      39.921  25.698  27.823  1.00  0.00     0.041 A 
ATOM     45  F   UNL A   1      38.951  26.373  29.844  1.00  0.00    -0.206 F 
ATOM     46  C   UNL A   1      40.826  25.909  26.786  1.00  0.00     0.022 A 
BRANCH  43  47
ATOM     47  S   UNL A   1      42.748  27.416  25.441  1.00  0.00     0.124 S 
ATOM     48  O   UNL A   1      44.010  27.767  26.087  1.00  0.00    -0.237 OA
ATOM     49  O   UNL A   1      42.748  26.180  24.668  1.00  0.00    -0.237 OA
ATOM     50  O   UNL A   1      42.041  28.538  24.825  1.00  0.00    -0.744 OA
ENDBRANCH  43  47
ENDBRANCH  26  40
BRANCH  27  51
ATOM     51  C   UNL A   1      39.690  33.920  36.765  1.00  0.00     0.023 A 
ATOM     52  C   UNL A   1      39.161  33.458  37.979  1.00  0.00     0.031 A 
ATOM     53  C   UNL A   1      40.032  35.281  36.668  1.00  0.00     0.131 A 
ATOM     54  C   UNL A   1      38.953  34.357  39.036  1.00  0.00     0.055 A 
ATOM     55  C   UNL A   1      39.875  36.160  37.741  1.00  0.00     0.041 A 
ATOM     56  F   UNL A   1      40.546  35.774  35.530  1.00  0.00    -0.206 F 
ATOM     57  C   UNL A   1      39.321  35.700  38.931  1.00  0.00     0.022 A 
BRANCH  54  58
ATOM     58  S   UNL A   1      38.123  33.758  40.534  1.00  0.00     0.124 S 
ATOM     59  O   UNL A   1      38.000  34.983  41.316  1.00  0.00    -0.237 OA
ATOM     60  O   UNL A   1      36.881  33.214  39.993  1.00  0.00    -0.237 OA
ATOM     61  O   UNL A   1      39.054  32.766  41.066  1.00  0.00    -0.744 OA
ENDBRANCH  54  58
ENDBRANCH  27  51
BRANCH  39  62
ATOM     62  C   UNL A   1      44.229  28.842  35.301  1.00  0.00     0.023 A 
ATOM     63  C   UNL A   1      44.093  27.919  36.354  1.00  0.00     0.031 A 
ATOM     64  C   UNL A   1      45.520  29.300  34.986  1.00  0.00     0.131 A 
ATOM     65  C   UNL A   1      45.220  27.534  37.096  1.00  0.00     0.055 A 
ATOM     66  C   UNL A   1      46.646  28.865  35.687  1.00  0.00     0.041 A 
ATOM     67  F   UNL A   1      45.708  30.184  33.993  1.00  0.00    -0.206 F 
ATOM     68  C   UNL A   1      46.498  27.989  36.759  1.00  0.00     0.022 A 
BRANCH  65  69
ATOM     69  S   UNL A   1      44.982  26.513  38.576  1.00  0.00     0.124 S 
ATOM     70  O   UNL A   1      45.533  25.230  38.152  1.00  0.00    -0.237 OA
ATOM     71  O   UNL A   1      45.753  27.237  39.582  1.00  0.00    -0.237 OA
ATOM     72  O   UNL A   1      43.534  26.530  38.776  1.00  0.00    -0.744 OA
ENDBRANCH  65  69
ENDBRANCH  39  62
ENDBRANCH  13  14
ENDBRANCH   6   8
ENDBRANCH   3   4
ENDBRANCH   2   3
ENDBRANCH   1   2
BRANCH   1  73
ATOM     73  C   UNL A   1      32.442  30.031  27.256  1.00  0.00     0.002 C 
BRANCH  73  74
ATOM     74  C   UNL A   1      32.540  28.519  27.015  1.00  0.00     0.021 C 
BRANCH  74  75
ATOM     75  C   UNL A   1      33.788  28.024  26.282  1.00  0.00     0.116 C 
BRANCH  75  76
ATOM     76  N   UNL A   1      34.061  28.725  25.039  1.00  0.00    -0.352 N 
ATOM     77  C   UNL A   1      33.471  28.545  23.812  1.00  0.00     0.251 C 
ATOM     78  H   UNL A   1      34.758  29.419  25.081  1.00  0.00     0.163 HD
ATOM     79  O   UNL A   1      33.619  29.360  22.906  1.00  0.00    -0.269 OA
BRANCH  77  80
ATOM     80  C   UNL A   1      32.707  27.314  23.557  1.00  0.00     0.041 A 
ATOM     81  C   UNL A   1      31.315  27.384  23.677  1.00  0.00     0.014 A 
ATOM     82  C   UNL A   1      33.353  26.114  23.216  1.00  0.00     0.039 A 
ATOM     83  C   UNL A   1      30.551  26.252  23.436  1.00  0.00     0.003 A 
ATOM     84  C   UNL A   1      32.583  24.977  22.944  1.00  0.00     0.039 A 
ATOM     85  C   UNL A   1      31.183  25.067  23.063  1.00  0.00     0.026 A 
BRANCH  84  86
ATOM     86  N   UNL A   1      33.152  23.806  22.401  1.00  0.00    -0.355 N 
ATOM     87  H   UNL A   1      33.408  23.820  21.450  1.00  0.00     0.167 HD
BRANCH  86  88
ATOM     88  C   UNL A   1      33.383  22.609  23.128  1.00  0.00     0.050 A 
ATOM     89  C   UNL A   1      32.400  21.612  23.093  1.00  0.00     0.047 A 
ATOM     90  C   UNL A   1      34.533  22.405  23.929  1.00  0.00     0.027 A 
ATOM     91  C   UNL A   1      32.562  20.481  23.860  1.00  0.00     0.114 A 
ATOM     92  C   UNL A   1      34.593  21.198  24.672  1.00  0.00     0.072 A 
ATOM     93  C   UNL A   1      35.588  23.336  24.069  1.00  0.00     0.051 A 
ATOM     94  N   UNL A   1      33.632  20.266  24.646  1.00  0.00    -0.256 NA
ATOM     95  C   UNL A   1      35.686  20.954  25.491  1.00  0.00     0.032 A 
ATOM     96  C   UNL A   1      36.667  23.058  24.904  1.00  0.00     0.124 A 
ATOM     97  C   UNL A   1      36.729  21.871  25.614  1.00  0.00     0.041 A 
ATOM     98  F   UNL A   1      37.656  23.951  25.032  1.00  0.00    -0.207 F 
ENDBRANCH  86  88
ENDBRANCH  84  86
ENDBRANCH  77  80
ENDBRANCH  75  76
ENDBRANCH  74  75
ENDBRANCH  73  74
ENDBRANCH   1  73
TORSDOF 18
ENDMDL
MODEL 2
REMARK VINA RESULT:     -12.1      2.651      8.107
REMARK SMILES O=C(NCCCCCCNC(=O)c1cccc(Nc2ccnc3ccc(F)cc23)c1)c1ccc(-c2c3nc(c(-c4cc(S(=O)(=O)[O-])ccc4F)c4ccc([nH]4)c(-c4cc(S(=O)(=O)[O-])ccc4F)c4nc(c(-c5cc(S(=O)(=O)[O-])ccc5F)c5ccc2[nH]5)C=C4)C=C3)cc1
REMARK SMILES IDX 6 1 5 2 4 3 3 4 1 5 2 6 31 8 32 9 93 10 33 11 92 12 34 13
REMARK SMILES IDX 35 14 36 15 86 16 37 17 91 18 85 19 87 20 38 21 90 22 84 23
REMARK SMILES IDX 83 24 39 26 71 27 51 28 70 29 52 30 55 31 69 32 88 33 53 34
REMARK SMILES IDX 54 35 68 37 89 38 56 39 40 40 41 41 49 42 42 43 48 44 50 45
REMARK SMILES IDX 47 46 43 47 44 48 45 49 46 50 72 51 73 52 81 53 74 54 80 55
REMARK SMILES IDX 82 56 79 57 75 58 76 59 77 60 78 61 57 62 58 63 66 64 59 65
REMARK SMILES IDX 65 66 67 67 64 68 60 69 61 70 62 71 63 72 7 73 8 74 9 75
REMARK SMILES IDX 10 76 11 77 12 79 13 80 14 81 30 82 15 83 17 84 16 85 18 86
REMARK SMILES IDX 19 88 20 89 29 90 21 91 23 92 28 93 22 94 24 95 26 96 25 97
REMARK SMILES IDX 27 98
REMARK H PARENT 3 7 87 25 55 36 10 78 18 87
REMARK Flexibility Score: inf
ROOT
ATOM      1  C   UNL A   1      30.951  29.417  24.895  1.00  0.00     0.002 C 
ENDROOT
BRANCH   1   2
ATOM      2  C   UNL A   1      31.892  28.618  25.797  1.00  0.00     0.021 C 
BRANCH   2   3
ATOM      3  C   UNL A   1      33.157  29.341  26.243  1.00  0.00     0.116 C 
BRANCH   3   4
ATOM      4  N   UNL A   1      32.928  30.736  26.589  1.00  0.00    -0.352 N 
ATOM      5  O   UNL A   1      33.236  32.691  27.670  1.00  0.00    -0.269 OA
ATOM      6  C   UNL A   1      33.667  31.574  27.396  1.00  0.00     0.251 C 
ATOM      7  H   UNL A   1      32.126  31.142  26.188  1.00  0.00     0.163 HD
BRANCH   6   8
ATOM      8  C   UNL A   1      34.966  31.126  27.952  1.00  0.00     0.039 A 
ATOM      9  C   UNL A   1      35.127  29.828  28.442  1.00  0.00     0.014 A 
ATOM     10  C   UNL A   1      36.045  32.016  27.975  1.00  0.00     0.014 A 
ATOM     11  C   UNL A   1      36.308  29.473  29.088  1.00  0.00     0.010 A 
ATOM     12  C   UNL A   1      37.262  31.627  28.549  1.00  0.00     0.010 A 
ATOM     13  C   UNL A   1      37.393  30.363  29.143  1.00  0.00    -0.014 A 
BRANCH  13  14
ATOM     14  C   UNL A   1      38.659  29.927  29.793  1.00  0.00     0.031 A 
ATOM     15  C   UNL A   1      39.038  30.414  31.167  1.00  0.00     0.074 A 
ATOM     16  C   UNL A   1      39.452  29.048  29.148  1.00  0.00     0.049 A 
ATOM     17  N   UNL A   1      40.083  30.103  31.894  1.00  0.00    -0.248 NA
ATOM     18  C   UNL A   1      38.133  31.381  31.802  1.00  0.00     0.031 C 
ATOM     19  C   UNL A   1      39.191  28.510  27.811  1.00  0.00     0.029 A 
ATOM     20  N   UNL A   1      40.616  28.433  29.531  1.00  0.00    -0.354 N 
ATOM     21  C   UNL A   1      39.969  30.844  33.067  1.00  0.00     0.074 A 
ATOM     22  C   UNL A   1      38.773  31.648  32.932  1.00  0.00     0.031 C 
ATOM     23  C   UNL A   1      40.135  27.607  27.508  1.00  0.00     0.029 A 
ATOM     24  C   UNL A   1      41.105  27.549  28.595  1.00  0.00     0.049 A 
ATOM     25  H   UNL A   1      41.060  28.607  30.392  1.00  0.00     0.167 HD
ATOM     26  C   UNL A   1      40.782  30.844  34.156  1.00  0.00     0.034 A 
ATOM     27  C   UNL A   1      42.216  26.789  28.602  1.00  0.00     0.034 A 
ATOM     28  C   UNL A   1      41.973  30.034  34.271  1.00  0.00     0.049 A 
ATOM     29  C   UNL A   1      43.123  26.842  29.801  1.00  0.00     0.074 A 
ATOM     30  C   UNL A   1      42.850  29.935  35.339  1.00  0.00     0.029 A 
ATOM     31  N   UNL A   1      42.467  29.193  33.281  1.00  0.00    -0.354 N 
ATOM     32  N   UNL A   1      42.988  27.532  30.910  1.00  0.00    -0.248 NA
ATOM     33  C   UNL A   1      44.331  26.009  29.749  1.00  0.00     0.031 C 
ATOM     34  C   UNL A   1      43.904  29.092  34.970  1.00  0.00     0.029 A 
ATOM     35  C   UNL A   1      43.650  28.599  33.700  1.00  0.00     0.049 A 
ATOM     36  H   UNL A   1      42.039  29.039  32.408  1.00  0.00     0.167 HD
ATOM     37  C   UNL A   1      44.086  27.199  31.697  1.00  0.00     0.074 A 
ATOM     38  C   UNL A   1      44.858  26.232  30.944  1.00  0.00     0.031 C 
ATOM     39  C   UNL A   1      44.424  27.651  32.932  1.00  0.00     0.034 A 
BRANCH  26  40
ATOM     40  C   UNL A   1      40.428  31.783  35.287  1.00  0.00     0.023 A 
ATOM     41  C   UNL A   1      39.474  31.445  36.263  1.00  0.00     0.031 A 
ATOM     42  C   UNL A   1      41.039  33.048  35.377  1.00  0.00     0.131 A 
ATOM     43  C   UNL A   1      39.103  32.385  37.237  1.00  0.00     0.055 A 
ATOM     44  C   UNL A   1      40.724  33.948  36.398  1.00  0.00     0.041 A 
ATOM     45  F   UNL A   1      41.944  33.437  34.466  1.00  0.00    -0.206 F 
ATOM     46  C   UNL A   1      39.739  33.625  37.327  1.00  0.00     0.022 A 
BRANCH  43  47
ATOM     47  S   UNL A   1      37.674  32.020  38.294  1.00  0.00     0.124 S 
ATOM     48  O   UNL A   1      38.256  32.125  39.630  1.00  0.00    -0.237 OA
ATOM     49  O   UNL A   1      36.732  33.071  37.924  1.00  0.00    -0.237 OA
ATOM     50  O   UNL A   1      37.289  30.668  37.896  1.00  0.00    -0.744 OA
ENDBRANCH  43  47
ENDBRANCH  26  40
BRANCH  27  51
ATOM     51  C   UNL A   1      42.545  25.932  27.428  1.00  0.00     0.023 A 
ATOM     52  C   UNL A   1      42.139  24.590  27.374  1.00  0.00     0.031 A 
ATOM     53  C   UNL A   1      43.296  26.439  26.352  1.00  0.00     0.131 A 
ATOM     54  C   UNL A   1      42.518  23.790  26.285  1.00  0.00     0.055 A 
ATOM     55  C   UNL A   1      43.622  25.654  25.245  1.00  0.00     0.041 A 
ATOM     56  F   UNL A   1      43.705  27.718  26.352  1.00  0.00    -0.206 F 
ATOM     57  C   UNL A   1      43.243  24.317  25.214  1.00  0.00     0.022 A 
BRANCH  54  58
ATOM     58  S   UNL A   1      42.110  22.023  26.324  1.00  0.00     0.124 S 
ATOM     59  O   UNL A   1      42.476  21.663  27.689  1.00  0.00    -0.237 OA
ATOM     60  O   UNL A   1      40.682  22.035  26.024  1.00  0.00    -0.237 OA
ATOM     61  O   UNL A   1      42.959  21.455  25.278  1.00  0.00    -0.744 OA
ENDBRANCH  54  58
ENDBRANCH  27  51
BRANCH  39  62
ATOM     62  C   UNL A   1      45.669  27.064  33.551  1.00  0.00     0.023 A 
ATOM     63  C   UNL A   1      45.627  25.883  34.314  1.00  0.00     0.031 A 
ATOM     64  C   UNL A   1      46.906  27.716  33.411  1.00  0.00     0.131 A 
ATOM     65  C   UNL A   1      46.786  25.426  34.960  1.00  0.00     0.055 A 
ATOM     66  C   UNL A   1      48.069  27.224  34.004  1.00  0.00     0.041 A 
ATOM     67  F   UNL A   1      47.003  28.850  32.697  1.00  0.00    -0.206 F 
ATOM     68  C   UNL A   1      48.010  26.081  34.797  1.00  0.00     0.022 A 
BRANCH  65  69
ATOM     69  S   UNL A   1      46.652  24.026  36.104  1.00  0.00     0.124 S 
ATOM     70  O   UNL A   1      45.226  23.722  36.047  1.00  0.00    -0.237 OA
ATOM     71  O   UNL A   1      47.538  23.040  35.495  1.00  0.00    -0.237 OA
ATOM     72  O   UNL A   1      47.118  24.576  37.377  1.00  0.00    -0.744 OA
ENDBRANCH  65  69
ENDBRANCH  39  62
ENDBRANCH  13  14
ENDBRANCH   6   8
ENDBRANCH   3   4
ENDBRANCH   2   3
ENDBRANCH   1   2
BRANCH   1  73
ATOM     73  C   UNL A   1      30.637  28.801  23.527  1.00  0.00     0.002 C 
BRANCH  73  74
ATOM     74  C   UNL A   1      31.642  29.070  22.400  1.00  0.00     0.021 C 
BRANCH  74  75
ATOM     75  C   UNL A   1      33.049  28.501  22.588  1.00  0.00     0.116 C 
BRANCH  75  76
ATOM     76  N   UNL A   1      33.396  27.456  21.640  1.00  0.00    -0.352 N 
ATOM     77  C   UNL A   1      33.067  26.124  21.682  1.00  0.00     0.251 C 
ATOM     78  H   UNL A   1      33.936  27.740  20.867  1.00  0.00     0.163 HD
ATOM     79  O   UNL A   1      33.215  25.397  20.703  1.00  0.00    -0.269 OA
BRANCH  77  80
ATOM     80  C   UNL A   1      32.597  25.541  22.948  1.00  0.00     0.041 A 
ATOM     81  C   UNL A   1      31.223  25.311  23.080  1.00  0.00     0.014 A 
ATOM     82  C   UNL A   1      33.492  25.237  23.987  1.00  0.00     0.039 A 
ATOM     83  C   UNL A   1      30.733  24.753  24.251  1.00  0.00     0.003 A 
ATOM     84  C   UNL A   1      33.005  24.647  25.159  1.00  0.00     0.039 A 
ATOM     85  C   UNL A   1      31.620  24.416  25.272  1.00  0.00     0.026 A 
BRANCH  84  86
ATOM     86  N   UNL A   1      33.870  24.133  26.149  1.00  0.00    -0.355 N 
ATOM     87  H   UNL A   1      33.694  24.385  27.084  1.00  0.00     0.167 HD
BRANCH  86  88
ATOM     88  C   UNL A   1      34.972  23.278  25.891  1.00  0.00     0.050 A 
ATOM     89  C   UNL A   1      36.260  23.825  25.933  1.00  0.00     0.047 A 
ATOM     90  C   UNL A   1      34.822  21.913  25.540  1.00  0.00     0.027 A 
ATOM     91  C   UNL A   1      37.338  23.036  25.601  1.00  0.00     0.114 A 
ATOM     92  C   UNL A   1      36.006  21.197  25.224  1.00  0.00     0.072 A 
ATOM     93  C   UNL A   1      33.581  21.242  25.441  1.00  0.00     0.051 A 
ATOM     94  N   UNL A   1      37.228  21.744  25.245  1.00  0.00    -0.256 NA
ATOM     95  C   UNL A   1      35.918  19.864  24.852  1.00  0.00     0.032 A 
ATOM     96  C   UNL A   1      33.533  19.904  25.060  1.00  0.00     0.124 A 
ATOM     97  C   UNL A   1      34.692  19.205  24.769  1.00  0.00     0.041 A 
ATOM     98  F   UNL A   1      32.351  19.283  24.965  1.00  0.00    -0.207 F 
ENDBRANCH  86  88
ENDBRANCH  84  86
ENDBRANCH  77  80
ENDBRANCH  75  76
ENDBRANCH  74  75
ENDBRANCH  73  74
ENDBRANCH   1  73
TORSDOF 18
ENDMDL
MODEL 3
REMARK VINA RESULT:     -12.0      5.475     10.798
REMARK SMILES O=C(NCCCCCCNC(=O)c1cccc(Nc2ccnc3ccc(F)cc23)c1)c1ccc(-c2c3nc(c(-c4cc(S(=O)(=O)[O-])ccc4F)c4ccc([nH]4)c(-c4cc(S(=O)(=O)[O-])ccc4F)c4nc(c(-c5cc(S(=O)(=O)[O-])ccc5F)c5ccc2[nH]5)C=C4)C=C3)cc1
REMARK SMILES IDX 6 1 5 2 4 3 3 4 1 5 2 6 31 8 32 9 93 10 33 11 92 12 34 13
REMARK SMILES IDX 35 14 36 15 86 16 37 17 91 18 85 19 87 20 38 21 90 22 84 23
REMARK SMILES IDX 83 24 39 26 71 27 51 28 70 29 52 30 55 31 69 32 88 33 53 34
REMARK SMILES IDX 54 35 68 37 89 38 56 39 40 40 41 41 49 42 42 43 48 44 50 45
REMARK SMILES IDX 47 46 43 47 44 48 45 49 46 50 72 51 73 52 81 53 74 54 80 55
REMARK SMILES IDX 82 56 79 57 75 58 76 59 77 60 78 61 57 62 58 63 66 64 59 65
REMARK SMILES IDX 65 66 67 67 64 68 60 69 61 70 62 71 63 72 7 73 8 74 9 75
REMARK SMILES IDX 10 76 11 77 12 79 13 80 14 81 30 82 15 83 17 84 16 85 18 86
REMARK SMILES IDX 19 88 20 89 29 90 21 91 23 92 28 93 22 94 24 95 26 96 25 97
REMARK SMILES IDX 27 98
REMARK H PARENT 3 7 87 25 55 36 10 78 18 87
REMARK Flexibility Score: inf
ROOT
ATOM      1  C   UNL A   1      34.823  22.028  25.187  1.00  0.00     0.002 C 
ENDROOT
BRANCH   1   2
ATOM      2  C   UNL A   1      35.481  22.447  23.872  1.00  0.00     0.021 C 
BRANCH   2   3
ATOM      3  C   UNL A   1      36.987  22.225  23.784  1.00  0.00     0.116 C 
BRANCH   3   4
ATOM      4  N   UNL A   1      37.447  21.095  24.578  1.00  0.00    -0.352 N 
ATOM      5  O   UNL A   1      38.765  19.954  26.007  1.00  0.00    -0.269 OA
ATOM      6  C   UNL A   1      38.435  21.039  25.537  1.00  0.00     0.251 C 
ATOM      7  H   UNL A   1      36.984  20.244  24.404  1.00  0.00     0.163 HD
BRANCH   6   8
ATOM      8  C   UNL A   1      39.114  22.277  25.986  1.00  0.00     0.039 A 
ATOM      9  C   UNL A   1      38.478  23.517  25.900  1.00  0.00     0.014 A 
ATOM     10  C   UNL A   1      40.408  22.196  26.513  1.00  0.00     0.014 A 
ATOM     11  C   UNL A   1      39.183  24.681  26.193  1.00  0.00     0.010 A 
ATOM     12  C   UNL A   1      41.086  23.363  26.888  1.00  0.00     0.010 A 
ATOM     13  C   UNL A   1      40.492  24.620  26.698  1.00  0.00    -0.014 A 
BRANCH  13  14
ATOM     14  C   UNL A   1      41.195  25.884  27.053  1.00  0.00     0.031 A 
ATOM     15  C   UNL A   1      40.558  26.900  27.964  1.00  0.00     0.074 A 
ATOM     16  C   UNL A   1      42.439  26.090  26.577  1.00  0.00     0.049 A 
ATOM     17  N   UNL A   1      41.047  28.033  28.405  1.00  0.00    -0.248 NA
ATOM     18  C   UNL A   1      39.196  26.613  28.431  1.00  0.00     0.031 C 
ATOM     19  C   UNL A   1      43.156  25.179  25.682  1.00  0.00     0.029 A 
ATOM     20  N   UNL A   1      43.330  27.110  26.794  1.00  0.00    -0.354 N 
ATOM     21  C   UNL A   1      40.049  28.601  29.193  1.00  0.00     0.074 A 
ATOM     22  C   UNL A   1      38.915  27.702  29.132  1.00  0.00     0.031 C 
ATOM     23  C   UNL A   1      44.393  25.653  25.471  1.00  0.00     0.029 A 
ATOM     24  C   UNL A   1      44.536  26.932  26.157  1.00  0.00     0.049 A 
ATOM     25  H   UNL A   1      43.125  27.895  27.352  1.00  0.00     0.167 HD
ATOM     26  C   UNL A   1      40.082  29.756  29.905  1.00  0.00     0.034 A 
ATOM     27  C   UNL A   1      45.631  27.714  26.114  1.00  0.00     0.034 A 
ATOM     28  C   UNL A   1      41.223  30.641  29.952  1.00  0.00     0.049 A 
ATOM     29  C   UNL A   1      45.625  29.012  26.876  1.00  0.00     0.074 A 
ATOM     30  C   UNL A   1      41.374  31.820  30.664  1.00  0.00     0.029 A 
ATOM     31  N   UNL A   1      42.408  30.455  29.249  1.00  0.00    -0.354 N 
ATOM     32  N   UNL A   1      44.681  29.521  27.632  1.00  0.00    -0.248 NA
ATOM     33  C   UNL A   1      46.835  29.837  26.779  1.00  0.00     0.031 C 
ATOM     34  C   UNL A   1      42.616  32.378  30.340  1.00  0.00     0.029 A 
ATOM     35  C   UNL A   1      43.278  31.511  29.485  1.00  0.00     0.049 A 
ATOM     36  H   UNL A   1      42.603  29.685  28.668  1.00  0.00     0.167 HD
ATOM     37  C   UNL A   1      45.193  30.720  28.119  1.00  0.00     0.074 A 
ATOM     38  C   UNL A   1      46.535  30.842  27.588  1.00  0.00     0.031 C 
ATOM     39  C   UNL A   1      44.607  31.635  28.932  1.00  0.00     0.034 A 
BRANCH  26  40
ATOM     40  C   UNL A   1      38.827  30.148  30.654  1.00  0.00     0.023 A 
ATOM     41  C   UNL A   1      37.838  30.961  30.073  1.00  0.00     0.031 A 
ATOM     42  C   UNL A   1      38.629  29.720  31.980  1.00  0.00     0.131 A 
ATOM     43  C   UNL A   1      36.738  31.381  30.836  1.00  0.00     0.055 A 
ATOM     44  C   UNL A   1      37.492  30.077  32.708  1.00  0.00     0.041 A 
ATOM     45  F   UNL A   1      39.545  28.958  32.597  1.00  0.00    -0.206 F 
ATOM     46  C   UNL A   1      36.545  30.926  32.142  1.00  0.00     0.022 A 
BRANCH  43  47
ATOM     47  S   UNL A   1      35.641  32.652  30.147  1.00  0.00     0.124 S 
ATOM     48  O   UNL A   1      34.526  32.626  31.091  1.00  0.00    -0.237 OA
ATOM     49  O   UNL A   1      36.479  33.845  30.183  1.00  0.00    -0.237 OA
ATOM     50  O   UNL A   1      35.327  32.148  28.812  1.00  0.00    -0.744 OA
ENDBRANCH  43  47
ENDBRANCH  26  40
BRANCH  27  51
ATOM     51  C   UNL A   1      46.814  27.305  25.305  1.00  0.00     0.023 A 
ATOM     52  C   UNL A   1      47.019  27.814  24.013  1.00  0.00     0.031 A 
ATOM     53  C   UNL A   1      47.746  26.378  25.804  1.00  0.00     0.131 A 
ATOM     54  C   UNL A   1      48.107  27.364  23.250  1.00  0.00     0.055 A 
ATOM     55  C   UNL A   1      48.857  25.975  25.063  1.00  0.00     0.041 A 
ATOM     56  F   UNL A   1      47.599  25.864  27.036  1.00  0.00    -0.206 F 
ATOM     57  C   UNL A   1      49.035  26.460  23.772  1.00  0.00     0.022 A 
BRANCH  54  58
ATOM     58  S   UNL A   1      48.251  27.922  21.531  1.00  0.00     0.124 S 
ATOM     59  O   UNL A   1      49.242  28.986  21.645  1.00  0.00    -0.237 OA
ATOM     60  O   UNL A   1      48.691  26.706  20.854  1.00  0.00    -0.237 OA
ATOM     61  O   UNL A   1      46.897  28.360  21.200  1.00  0.00    -0.744 OA
ENDBRANCH  54  58
ENDBRANCH  27  51
BRANCH  39  62
ATOM     62  C   UNL A   1      45.444  32.829  29.323  1.00  0.00     0.023 A 
ATOM     63  C   UNL A   1      45.319  34.065  28.665  1.00  0.00     0.031 A 
ATOM     64  C   UNL A   1      46.408  32.716  30.340  1.00  0.00     0.131 A 
ATOM     65  C   UNL A   1      46.188  35.120  28.986  1.00  0.00     0.055 A 
ATOM     66  C   UNL A   1      47.227  33.788  30.699  1.00  0.00     0.041 A 
ATOM     67  F   UNL A   1      46.574  31.558  30.999  1.00  0.00    -0.206 F 
ATOM     68  C   UNL A   1      47.131  34.993  30.010  1.00  0.00     0.022 A 
BRANCH  65  69
ATOM     69  S   UNL A   1      46.143  36.625  27.975  1.00  0.00     0.124 S 
ATOM     70  O   UNL A   1      47.477  36.636  27.385  1.00  0.00    -0.237 OA
ATOM     71  O   UNL A   1      45.042  36.351  27.057  1.00  0.00    -0.237 OA
ATOM     72  O   UNL A   1      45.887  37.685  28.949  1.00  0.00    -0.744 OA
ENDBRANCH  65  69
ENDBRANCH  39  62
ENDBRANCH  13  14
ENDBRANCH   6   8
ENDBRANCH   3   4
ENDBRANCH   2   3
ENDBRANCH   1   2
BRANCH   1  73
ATOM     73  C   UNL A   1      34.972  23.004  26.360  1.00  0.00     0.002 C 
BRANCH  73  74
ATOM     74  C   UNL A   1      34.196  22.670  27.640  1.00  0.00     0.021 C 
BRANCH  74  75
ATOM     75  C   UNL A   1      32.931  21.826  27.472  1.00  0.00     0.116 C 
BRANCH  75  76
ATOM     76  N   UNL A   1      31.701  22.538  27.773  1.00  0.00    -0.352 N 
ATOM     77  C   UNL A   1      30.861  23.190  26.904  1.00  0.00     0.251 C 
ATOM     78  H   UNL A   1      31.435  22.555  28.720  1.00  0.00     0.163 HD
ATOM     79  O   UNL A   1      29.737  23.544  27.247  1.00  0.00    -0.269 OA
BRANCH  77  80
ATOM     80  C   UNL A   1      31.348  23.537  25.559  1.00  0.00     0.041 A 
ATOM     81  C   UNL A   1      31.241  22.559  24.565  1.00  0.00     0.014 A 
ATOM     82  C   UNL A   1      31.906  24.797  25.289  1.00  0.00     0.039 A 
ATOM     83  C   UNL A   1      31.676  22.842  23.279  1.00  0.00     0.003 A 
ATOM     84  C   UNL A   1      32.320  25.096  23.986  1.00  0.00     0.039 A 
ATOM     85  C   UNL A   1      32.199  24.102  22.995  1.00  0.00     0.026 A 
BRANCH  84  86
ATOM     86  N   UNL A   1      32.696  26.402  23.606  1.00  0.00    -0.355 N 
ATOM     87  H   UNL A   1      33.524  26.505  23.084  1.00  0.00     0.167 HD
BRANCH  86  88
ATOM     88  C   UNL A   1      31.964  27.576  23.920  1.00  0.00     0.050 A 
ATOM     89  C   UNL A   1      30.880  27.920  23.104  1.00  0.00     0.047 A 
ATOM     90  C   UNL A   1      32.317  28.440  24.986  1.00  0.00     0.027 A 
ATOM     91  C   UNL A   1      30.209  29.099  23.338  1.00  0.00     0.114 A 
ATOM     92  C   UNL A   1      31.550  29.625  25.133  1.00  0.00     0.072 A 
ATOM     93  C   UNL A   1      33.398  28.222  25.871  1.00  0.00     0.051 A 
ATOM     94  N   UNL A   1      30.531  29.951  24.328  1.00  0.00    -0.256 NA
ATOM     95  C   UNL A   1      31.863  30.519  26.146  1.00  0.00     0.032 A 
ATOM     96  C   UNL A   1      33.684  29.145  26.873  1.00  0.00     0.124 A 
ATOM     97  C   UNL A   1      32.923  30.292  27.023  1.00  0.00     0.041 A 
ATOM     98  F   UNL A   1      34.715  28.929  27.700  1.00  0.00    -0.207 F 
ENDBRANCH  86  88
ENDBRANCH  84  86
ENDBRANCH  77  80
ENDBRANCH  75  76
ENDBRANCH  74  75
ENDBRANCH  73  74
ENDBRANCH   1  73
TORSDOF 18
ENDMDL
